MODEL 1
REMARK VINA RESULT:    -4.590      0.000      0.000
REMARK INTER + INTRA:          -9.586
REMARK INTER:                  -8.615
REMARK INTRA:                  -0.970
REMARK UNBOUND:                -0.970
REMARK SMILES CCCCCCCCC=CCCCCCCCC(=O)[O-]
REMARK SMILES IDX 10 1 9 2 11 3 12 4 13 5 14 6 15 7 16 8 17 9 18 10 19 11
REMARK SMILES IDX 20 12 8 13 7 14 6 15 5 16 4 17 3 18 2 19 1 20
REMARK H PARENT
REMARK Flexibility Score: inf
ROOT
ATOM      1  C   UNL     1      32.241  26.110  70.659  1.00  0.00    -0.031 C 
ATOM      2  C   UNL     1      33.459  26.593  70.970  1.00  0.00    -0.031 C 
ENDROOT
BRANCH   1   3
ATOM      3  C   UNL     1      31.944  24.683  70.265  1.00  0.00     0.027 C 
BRANCH   3   4
ATOM      4  C   UNL     1      30.855  24.647  69.187  1.00  0.00     0.004 C 
BRANCH   4   5
ATOM      5  C   UNL     1      31.329  23.875  67.950  1.00  0.00     0.000 C 
BRANCH   5   6
ATOM      6  C   UNL     1      32.562  24.539  67.327  1.00  0.00     0.000 C 
BRANCH   6   7
ATOM      7  C   UNL     1      32.416  24.648  65.802  1.00  0.00     0.000 C 
BRANCH   7   8
ATOM      8  C   UNL     1      30.989  24.333  65.316  1.00  0.00     0.006 C 
BRANCH   8   9
ATOM      9  C   UNL     1      30.783  24.498  63.801  1.00  0.00     0.053 C 
BRANCH   9  10
ATOM     10  C   UNL     1      30.431  25.907  63.434  1.00  0.00     0.041 C 
ATOM     11  O   UNL     1      31.336  26.773  63.310  1.00  0.00    -0.550 OA
ATOM     12  O   UNL     1      29.108  26.254  63.192  1.00  0.00    -0.550 OA
ENDBRANCH   9  10
ENDBRANCH   8   9
ENDBRANCH   7   8
ENDBRANCH   6   7
ENDBRANCH   5   6
ENDBRANCH   4   5
ENDBRANCH   3   4
ENDBRANCH   1   3
BRANCH   2  13
ATOM     13  C   UNL     1      34.738  25.795  70.950  1.00  0.00     0.027 C 
BRANCH  13  14
ATOM     14  C   UNL     1      35.049  25.271  69.539  1.00  0.00     0.004 C 
BRANCH  14  15
ATOM     15  C   UNL     1      35.986  24.055  69.556  1.00  0.00     0.000 C 
BRANCH  15  16
ATOM     16  C   UNL     1      36.998  24.107  70.716  1.00  0.00     0.000 C 
BRANCH  16  17
ATOM     17  C   UNL     1      38.453  24.249  70.235  1.00  0.00    -0.000 C 
BRANCH  17  18
ATOM     18  C   UNL     1      39.506  24.268  71.359  1.00  0.00    -0.000 C 
BRANCH  18  19
ATOM     19  C   UNL     1      38.882  24.357  72.759  1.00  0.00    -0.003 C 
ATOM     20  C   UNL     1      39.677  25.303  73.655  1.00  0.00     0.004 C 
ENDBRANCH  18  19
ENDBRANCH  17  18
ENDBRANCH  16  17
ENDBRANCH  15  16
ENDBRANCH  14  15
ENDBRANCH  13  14
ENDBRANCH   2  13
TORSDOF 15
ENDMDL
MODEL 2
REMARK VINA RESULT:    -4.527      4.342     10.645
REMARK INTER + INTRA:          -9.467
REMARK INTER:                  -8.914
REMARK INTRA:                  -0.553
REMARK UNBOUND:                -0.970
REMARK SMILES CCCCCCCCC=CCCCCCCCC(=O)[O-]
REMARK SMILES IDX 10 1 9 2 11 3 12 4 13 5 14 6 15 7 16 8 17 9 18 10 19 11
REMARK SMILES IDX 20 12 8 13 7 14 6 15 5 16 4 17 3 18 2 19 1 20
REMARK H PARENT
REMARK Flexibility Score: inf
ROOT
ATOM      1  C   UNL     1      30.924  26.979  63.137  1.00  0.00    -0.031 C 
ATOM      2  C   UNL     1      29.613  27.248  62.983  1.00  0.00    -0.031 C 
ENDROOT
BRANCH   1   3
ATOM      3  C   UNL     1      31.512  25.608  63.368  1.00  0.00     0.027 C 
BRANCH   3   4
ATOM      4  C   UNL     1      31.423  25.237  64.852  1.00  0.00     0.004 C 
BRANCH   4   5
ATOM      5  C   UNL     1      32.757  24.681  65.363  1.00  0.00     0.000 C 
BRANCH   5   6
ATOM      6  C   UNL     1      32.623  24.161  66.799  1.00  0.00     0.000 C 
BRANCH   6   7
ATOM      7  C   UNL     1      31.265  24.552  67.400  1.00  0.00     0.000 C 
BRANCH   7   8
ATOM      8  C   UNL     1      31.259  24.505  68.939  1.00  0.00     0.006 C 
BRANCH   8   9
ATOM      9  C   UNL     1      32.642  24.695  69.585  1.00  0.00     0.053 C 
BRANCH   9  10
ATOM     10  C   UNL     1      32.621  25.740  70.657  1.00  0.00     0.041 C 
ATOM     11  O   UNL     1      33.687  26.320  70.995  1.00  0.00    -0.550 OA
ATOM     12  O   UNL     1      31.421  26.099  71.258  1.00  0.00    -0.550 OA
ENDBRANCH   9  10
ENDBRANCH   8   9
ENDBRANCH   7   8
ENDBRANCH   6   7
ENDBRANCH   5   6
ENDBRANCH   4   5
ENDBRANCH   3   4
ENDBRANCH   1   3
BRANCH   2  13
ATOM     13  C   UNL     1      28.506  26.225  63.045  1.00  0.00     0.027 C 
BRANCH  13  14
ATOM     14  C   UNL     1      28.744  25.081  62.047  1.00  0.00     0.004 C 
BRANCH  14  15
ATOM     15  C   UNL     1      27.580  24.081  62.009  1.00  0.00     0.000 C 
BRANCH  15  16
ATOM     16  C   UNL     1      26.207  24.777  61.978  1.00  0.00     0.000 C 
BRANCH  16  17
ATOM     17  C   UNL     1      25.091  23.875  61.419  1.00  0.00    -0.000 C 
BRANCH  17  18
ATOM     18  C   UNL     1      23.737  24.000  62.141  1.00  0.00    -0.000 C 
BRANCH  18  19
ATOM     19  C   UNL     1      23.778  24.981  63.321  1.00  0.00    -0.003 C 
ATOM     20  C   UNL     1      22.641  24.708  64.302  1.00  0.00     0.004 C 
ENDBRANCH  18  19
ENDBRANCH  17  18
ENDBRANCH  16  17
ENDBRANCH  15  16
ENDBRANCH  14  15
ENDBRANCH  13  14
ENDBRANCH   2  13
TORSDOF 15
ENDMDL
MODEL 3
REMARK VINA RESULT:    -4.481      1.848      3.623
REMARK INTER + INTRA:          -9.382
REMARK INTER:                  -8.382
REMARK INTRA:                  -0.999
REMARK UNBOUND:                -0.970
REMARK SMILES CCCCCCCCC=CCCCCCCCC(=O)[O-]
REMARK SMILES IDX 10 1 9 2 11 3 12 4 13 5 14 6 15 7 16 8 17 9 18 10 19 11
REMARK SMILES IDX 20 12 8 13 7 14 6 15 5 16 4 17 3 18 2 19 1 20
REMARK H PARENT
REMARK Flexibility Score: inf
ROOT
ATOM      1  C   UNL     1      32.062  24.235  67.333  1.00  0.00    -0.031 C 
ATOM      2  C   UNL     1      32.335  24.576  68.607  1.00  0.00    -0.031 C 
ENDROOT
BRANCH   1   3
ATOM      3  C   UNL     1      30.679  24.028  66.764  1.00  0.00     0.027 C 
BRANCH   3   4
ATOM      4  C   UNL     1      30.586  24.643  65.363  1.00  0.00     0.004 C 
BRANCH   4   5
ATOM      5  C   UNL     1      31.459  23.875  64.364  1.00  0.00     0.000 C 
BRANCH   5   6
ATOM      6  C   UNL     1      32.761  24.632  64.077  1.00  0.00     0.000 C 
BRANCH   6   7
ATOM      7  C   UNL     1      32.602  25.562  62.866  1.00  0.00     0.000 C 
BRANCH   7   8
ATOM      8  C   UNL     1      32.013  26.934  63.241  1.00  0.00     0.006 C 
BRANCH   8   9
ATOM      9  C   UNL     1      30.931  27.446  62.277  1.00  0.00     0.053 C 
BRANCH   9  10
ATOM     10  C   UNL     1      29.552  27.090  62.740  1.00  0.00     0.041 C 
ATOM     11  O   UNL     1      28.796  27.978  63.217  1.00  0.00    -0.550 OA
ATOM     12  O   UNL     1      29.089  25.787  62.612  1.00  0.00    -0.550 OA
ENDBRANCH   9  10
ENDBRANCH   8   9
ENDBRANCH   7   8
ENDBRANCH   6   7
ENDBRANCH   5   6
ENDBRANCH   4   5
ENDBRANCH   3   4
ENDBRANCH   1   3
BRANCH   2  13
ATOM     13  C   UNL     1      31.305  24.781  69.689  1.00  0.00     0.027 C 
BRANCH  13  14
ATOM     14  C   UNL     1      31.953  25.267  70.995  1.00  0.00     0.004 C 
BRANCH  14  15
ATOM     15  C   UNL     1      32.923  26.436  70.772  1.00  0.00     0.000 C 
BRANCH  15  16
ATOM     16  C   UNL     1      34.366  26.091  71.184  1.00  0.00     0.000 C 
BRANCH  16  17
ATOM     17  C   UNL     1      34.699  24.599  71.004  1.00  0.00    -0.000 C 
BRANCH  17  18
ATOM     18  C   UNL     1      36.201  24.285  70.862  1.00  0.00    -0.000 C 
BRANCH  18  19
ATOM     19  C   UNL     1      36.709  24.440  69.422  1.00  0.00    -0.003 C 
ATOM     20  C   UNL     1      35.704  23.876  68.422  1.00  0.00     0.004 C 
ENDBRANCH  18  19
ENDBRANCH  17  18
ENDBRANCH  16  17
ENDBRANCH  15  16
ENDBRANCH  14  15
ENDBRANCH  13  14
ENDBRANCH   2  13
TORSDOF 15
ENDMDL
MODEL 4
REMARK VINA RESULT:    -4.440      2.091      4.504
REMARK INTER + INTRA:          -9.304
REMARK INTER:                  -7.763
REMARK INTRA:                  -1.542
REMARK UNBOUND:                -0.970
REMARK SMILES CCCCCCCCC=CCCCCCCCC(=O)[O-]
REMARK SMILES IDX 10 1 9 2 11 3 12 4 13 5 14 6 15 7 16 8 17 9 18 10 19 11
REMARK SMILES IDX 20 12 8 13 7 14 6 15 5 16 4 17 3 18 2 19 1 20
REMARK H PARENT
REMARK Flexibility Score: inf
ROOT
ATOM      1  C   UNL     1      31.026  24.205  65.814  1.00  0.00    -0.031 C 
ATOM      2  C   UNL     1      30.716  24.135  67.122  1.00  0.00    -0.031 C 
ENDROOT
BRANCH   1   3
ATOM      3  C   UNL     1      32.363  24.627  65.256  1.00  0.00     0.027 C 
BRANCH   3   4
ATOM      4  C   UNL     1      32.531  24.100  63.826  1.00  0.00     0.004 C 
BRANCH   4   5
ATOM      5  C   UNL     1      32.838  25.241  62.850  1.00  0.00     0.000 C 
BRANCH   5   6
ATOM      6  C   UNL     1      32.408  26.593  63.431  1.00  0.00     0.000 C 
BRANCH   6   7
ATOM      7  C   UNL     1      31.999  27.566  62.316  1.00  0.00     0.000 C 
BRANCH   7   8
ATOM      8  C   UNL     1      30.493  27.510  61.999  1.00  0.00     0.006 C 
BRANCH   8   9
ATOM      9  C   UNL     1      29.619  26.998  63.156  1.00  0.00     0.053 C 
BRANCH   9  10
ATOM     10  C   UNL     1      28.787  25.820  62.752  1.00  0.00     0.041 C 
ATOM     11  O   UNL     1      29.334  24.710  62.519  1.00  0.00    -0.550 OA
ATOM     12  O   UNL     1      27.406  25.938  62.669  1.00  0.00    -0.550 OA
ENDBRANCH   9  10
ENDBRANCH   8   9
ENDBRANCH   7   8
ENDBRANCH   6   7
ENDBRANCH   5   6
ENDBRANCH   4   5
ENDBRANCH   3   4
ENDBRANCH   1   3
BRANCH   2  13
ATOM     13  C   UNL     1      31.646  24.495  68.253  1.00  0.00     0.027 C 
BRANCH  13  14
ATOM     14  C   UNL     1      30.920  24.464  69.608  1.00  0.00     0.004 C 
BRANCH  14  15
ATOM     15  C   UNL     1      31.842  24.832  70.779  1.00  0.00     0.000 C 
BRANCH  15  16
ATOM     16  C   UNL     1      32.771  26.015  70.448  1.00  0.00     0.000 C 
BRANCH  16  17
ATOM     17  C   UNL     1      34.175  25.863  71.059  1.00  0.00    -0.000 C 
BRANCH  17  18
ATOM     18  C   UNL     1      34.740  24.430  71.032  1.00  0.00    -0.000 C 
BRANCH  18  19
ATOM     19  C   UNL     1      35.979  24.294  70.136  1.00  0.00    -0.003 C 
ATOM     20  C   UNL     1      35.727  24.898  68.757  1.00  0.00     0.004 C 
ENDBRANCH  18  19
ENDBRANCH  17  18
ENDBRANCH  16  17
ENDBRANCH  15  16
ENDBRANCH  14  15
ENDBRANCH  13  14
ENDBRANCH   2  13
TORSDOF 15
ENDMDL
MODEL 5
REMARK VINA RESULT:    -4.366      2.464      4.891
REMARK INTER + INTRA:          -9.164
REMARK INTER:                  -7.931
REMARK INTRA:                  -1.234
REMARK UNBOUND:                -0.970
REMARK SMILES CCCCCCCCC=CCCCCCCCC(=O)[O-]
REMARK SMILES IDX 10 1 9 2 11 3 12 4 13 5 14 6 15 7 16 8 17 9 18 10 19 11
REMARK SMILES IDX 20 12 8 13 7 14 6 15 5 16 4 17 3 18 2 19 1 20
REMARK H PARENT
REMARK Flexibility Score: inf
ROOT
ATOM      1  C   UNL     1      32.533  24.537  66.781  1.00  0.00    -0.031 C 
ATOM      2  C   UNL     1      33.190  24.378  67.946  1.00  0.00    -0.031 C 
ENDROOT
BRANCH   1   3
ATOM      3  C   UNL     1      33.089  24.213  65.416  1.00  0.00     0.027 C 
BRANCH   3   4
ATOM      4  C   UNL     1      32.151  24.737  64.323  1.00  0.00     0.004 C 
BRANCH   4   5
ATOM      5  C   UNL     1      32.943  25.296  63.136  1.00  0.00     0.000 C 
BRANCH   5   6
ATOM      6  C   UNL     1      32.306  26.588  62.609  1.00  0.00     0.000 C 
BRANCH   6   7
ATOM      7  C   UNL     1      31.128  27.020  63.494  1.00  0.00     0.000 C 
BRANCH   7   8
ATOM      8  C   UNL     1      29.834  27.251  62.690  1.00  0.00     0.006 C 
BRANCH   8   9
ATOM      9  C   UNL     1      28.572  26.658  63.336  1.00  0.00     0.053 C 
BRANCH   9  10
ATOM     10  C   UNL     1      28.011  25.523  62.535  1.00  0.00     0.041 C 
ATOM     11  O   UNL     1      28.778  24.644  62.062  1.00  0.00    -0.550 OA
ATOM     12  O   UNL     1      26.639  25.418  62.341  1.00  0.00    -0.550 OA
ENDBRANCH   9  10
ENDBRANCH   8   9
ENDBRANCH   7   8
ENDBRANCH   6   7
ENDBRANCH   5   6
ENDBRANCH   4   5
ENDBRANCH   3   4
ENDBRANCH   1   3
BRANCH   2  13
ATOM     13  C   UNL     1      34.605  23.875  68.081  1.00  0.00     0.027 C 
BRANCH  13  14
ATOM     14  C   UNL     1      35.552  24.988  68.556  1.00  0.00     0.004 C 
BRANCH  14  15
ATOM     15  C   UNL     1      35.401  25.291  70.053  1.00  0.00     0.000 C 
BRANCH  15  16
ATOM     16  C   UNL     1      34.397  26.426  70.327  1.00  0.00     0.000 C 
BRANCH  16  17
ATOM     17  C   UNL     1      33.343  26.050  71.383  1.00  0.00    -0.000 C 
BRANCH  17  18
ATOM     18  C   UNL     1      31.892  26.394  70.998  1.00  0.00    -0.000 C 
BRANCH  18  19
ATOM     19  C   UNL     1      30.877  25.361  71.508  1.00  0.00    -0.003 C 
ATOM     20  C   UNL     1      30.859  24.123  70.616  1.00  0.00     0.004 C 
ENDBRANCH  18  19
ENDBRANCH  17  18
ENDBRANCH  16  17
ENDBRANCH  15  16
ENDBRANCH  14  15
ENDBRANCH  13  14
ENDBRANCH   2  13
TORSDOF 15
ENDMDL
MODEL 6
REMARK VINA RESULT:    -4.324      3.369      6.444
REMARK INTER + INTRA:          -9.087
REMARK INTER:                  -7.946
REMARK INTRA:                  -1.141
REMARK UNBOUND:                -0.970
REMARK SMILES CCCCCCCCC=CCCCCCCCC(=O)[O-]
REMARK SMILES IDX 10 1 9 2 11 3 12 4 13 5 14 6 15 7 16 8 17 9 18 10 19 11
REMARK SMILES IDX 20 12 8 13 7 14 6 15 5 16 4 17 3 18 2 19 1 20
REMARK H PARENT
REMARK Flexibility Score: inf
ROOT
ATOM      1  C   UNL     1      31.721  27.515  62.787  1.00  0.00    -0.031 C 
ATOM      2  C   UNL     1      32.506  26.580  63.354  1.00  0.00    -0.031 C 
ENDROOT
BRANCH   1   3
ATOM      3  C   UNL     1      30.423  27.243  62.064  1.00  0.00     0.027 C 
BRANCH   3   4
ATOM      4  C   UNL     1      29.238  27.420  63.019  1.00  0.00     0.004 C 
BRANCH   4   5
ATOM      5  C   UNL     1      28.392  26.144  63.093  1.00  0.00     0.000 C 
BRANCH   5   6
ATOM      6  C   UNL     1      29.008  25.026  62.243  1.00  0.00     0.000 C 
BRANCH   6   7
ATOM      7  C   UNL     1      27.971  23.938  61.930  1.00  0.00     0.000 C 
BRANCH   7   8
ATOM      8  C   UNL     1      26.530  24.381  62.244  1.00  0.00     0.006 C 
BRANCH   8   9
ATOM      9  C   UNL     1      25.632  24.545  61.007  1.00  0.00     0.053 C 
BRANCH   9  10
ATOM     10  C   UNL     1      24.489  25.480  61.262  1.00  0.00     0.041 C 
ATOM     11  O   UNL     1      24.190  26.359  60.411  1.00  0.00    -0.550 OA
ATOM     12  O   UNL     1      23.734  25.357  62.422  1.00  0.00    -0.550 OA
ENDBRANCH   9  10
ENDBRANCH   8   9
ENDBRANCH   7   8
ENDBRANCH   6   7
ENDBRANCH   5   6
ENDBRANCH   4   5
ENDBRANCH   3   4
ENDBRANCH   1   3
BRANCH   2  13
ATOM     13  C   UNL     1      32.237  25.097  63.338  1.00  0.00     0.027 C 
BRANCH  13  14
ATOM     14  C   UNL     1      31.799  24.592  64.723  1.00  0.00     0.004 C 
BRANCH  14  15
ATOM     15  C   UNL     1      32.985  24.156  65.593  1.00  0.00     0.000 C 
BRANCH  15  16
ATOM     16  C   UNL     1      32.683  24.266  67.099  1.00  0.00     0.000 C 
BRANCH  16  17
ATOM     17  C   UNL     1      33.955  24.280  67.966  1.00  0.00    -0.000 C 
BRANCH  17  18
ATOM     18  C   UNL     1      33.738  24.723  69.425  1.00  0.00    -0.000 C 
BRANCH  18  19
ATOM     19  C   UNL     1      34.942  25.477  70.005  1.00  0.00    -0.003 C 
ATOM     20  C   UNL     1      34.493  26.554  70.989  1.00  0.00     0.004 C 
ENDBRANCH  18  19
ENDBRANCH  17  18
ENDBRANCH  16  17
ENDBRANCH  15  16
ENDBRANCH  14  15
ENDBRANCH  13  14
ENDBRANCH   2  13
TORSDOF 15
ENDMDL
MODEL 7
REMARK VINA RESULT:    -4.280      1.085      2.152
REMARK INTER + INTRA:          -9.004
REMARK INTER:                  -7.838
REMARK INTRA:                  -1.166
REMARK UNBOUND:                -0.970
REMARK SMILES CCCCCCCCC=CCCCCCCCC(=O)[O-]
REMARK SMILES IDX 10 1 9 2 11 3 12 4 13 5 14 6 15 7 16 8 17 9 18 10 19 11
REMARK SMILES IDX 20 12 8 13 7 14 6 15 5 16 4 17 3 18 2 19 1 20
REMARK H PARENT
REMARK Flexibility Score: inf
ROOT
ATOM      1  C   UNL     1      34.217  26.831  71.002  1.00  0.00    -0.031 C 
ATOM      2  C   UNL     1      35.045  26.239  70.120  1.00  0.00    -0.031 C 
ENDROOT
BRANCH   1   3
ATOM      3  C   UNL     1      33.064  26.156  71.705  1.00  0.00     0.027 C 
BRANCH   3   4
ATOM      4  C   UNL     1      31.830  26.131  70.796  1.00  0.00     0.004 C 
BRANCH   4   5
ATOM      5  C   UNL     1      31.024  24.842  70.993  1.00  0.00     0.000 C 
BRANCH   5   6
ATOM      6  C   UNL     1      30.739  24.161  69.649  1.00  0.00     0.000 C 
BRANCH   6   7
ATOM      7  C   UNL     1      31.686  24.681  68.557  1.00  0.00     0.000 C 
BRANCH   7   8
ATOM      8  C   UNL     1      31.260  24.245  67.143  1.00  0.00     0.006 C 
BRANCH   8   9
ATOM      9  C   UNL     1      32.281  24.576  66.043  1.00  0.00     0.053 C 
BRANCH   9  10
ATOM     10  C   UNL     1      31.616  24.973  64.760  1.00  0.00     0.041 C 
ATOM     11  O   UNL     1      32.004  25.995  64.136  1.00  0.00    -0.550 OA
ATOM     12  O   UNL     1      30.591  24.193  64.237  1.00  0.00    -0.550 OA
ENDBRANCH   9  10
ENDBRANCH   8   9
ENDBRANCH   7   8
ENDBRANCH   6   7
ENDBRANCH   5   6
ENDBRANCH   4   5
ENDBRANCH   3   4
ENDBRANCH   1   3
BRANCH   2  13
ATOM     13  C   UNL     1      34.942  24.805  69.663  1.00  0.00     0.027 C 
BRANCH  13  14
ATOM     14  C   UNL     1      36.331  24.195  69.418  1.00  0.00     0.004 C 
BRANCH  14  15
ATOM     15  C   UNL     1      37.250  24.312  70.641  1.00  0.00     0.000 C 
BRANCH  15  16
ATOM     16  C   UNL     1      38.739  24.162  70.276  1.00  0.00     0.000 C 
BRANCH  16  17
ATOM     17  C   UNL     1      39.677  24.421  71.469  1.00  0.00    -0.000 C 
BRANCH  17  18
ATOM     18  C   UNL     1      38.962  24.709  72.802  1.00  0.00    -0.000 C 
BRANCH  18  19
ATOM     19  C   UNL     1      39.935  25.056  73.938  1.00  0.00    -0.003 C 
ATOM     20  C   UNL     1      39.652  26.448  74.496  1.00  0.00     0.004 C 
ENDBRANCH  18  19
ENDBRANCH  17  18
ENDBRANCH  16  17
ENDBRANCH  15  16
ENDBRANCH  14  15
ENDBRANCH  13  14
ENDBRANCH   2  13
TORSDOF 15
ENDMDL
MODEL 8
REMARK VINA RESULT:    -4.260      3.506      8.921
REMARK INTER + INTRA:          -8.965
REMARK INTER:                  -8.004
REMARK INTRA:                  -0.961
REMARK UNBOUND:                -0.970
REMARK SMILES CCCCCCCCC=CCCCCCCCC(=O)[O-]
REMARK SMILES IDX 10 1 9 2 11 3 12 4 13 5 14 6 15 7 16 8 17 9 18 10 19 11
REMARK SMILES IDX 20 12 8 13 7 14 6 15 5 16 4 17 3 18 2 19 1 20
REMARK H PARENT
REMARK Flexibility Score: inf
ROOT
ATOM      1  C   UNL     1      33.455  24.246  66.326  1.00  0.00    -0.031 C 
ATOM      2  C   UNL     1      33.055  24.296  65.042  1.00  0.00    -0.031 C 
ENDROOT
BRANCH   1   3
ATOM      3  C   UNL     1      32.538  24.140  67.521  1.00  0.00     0.027 C 
BRANCH   3   4
ATOM      4  C   UNL     1      33.353  23.875  68.792  1.00  0.00     0.004 C 
BRANCH   4   5
ATOM      5  C   UNL     1      34.829  24.235  68.587  1.00  0.00     0.000 C 
BRANCH   5   6
ATOM      6  C   UNL     1      35.217  25.459  69.425  1.00  0.00     0.000 C 
BRANCH   6   7
ATOM      7  C   UNL     1      34.766  25.293  70.883  1.00  0.00     0.000 C 
BRANCH   7   8
ATOM      8  C   UNL     1      34.027  26.533  71.423  1.00  0.00     0.006 C 
BRANCH   8   9
ATOM      9  C   UNL     1      32.620  26.738  70.837  1.00  0.00     0.053 C 
BRANCH   9  10
ATOM     10  C   UNL     1      31.595  25.898  71.535  1.00  0.00     0.041 C 
ATOM     11  O   UNL     1      31.163  24.846  70.992  1.00  0.00    -0.550 OA
ATOM     12  O   UNL     1      31.142  26.257  72.798  1.00  0.00    -0.550 OA
ENDBRANCH   9  10
ENDBRANCH   8   9
ENDBRANCH   7   8
ENDBRANCH   6   7
ENDBRANCH   5   6
ENDBRANCH   4   5
ENDBRANCH   3   4
ENDBRANCH   1   3
BRANCH   2  13
ATOM     13  C   UNL     1      31.619  24.285  64.580  1.00  0.00     0.027 C 
BRANCH  13  14
ATOM     14  C   UNL     1      31.495  24.760  63.124  1.00  0.00     0.004 C 
BRANCH  14  15
ATOM     15  C   UNL     1      32.216  26.093  62.876  1.00  0.00     0.000 C 
BRANCH  15  16
ATOM     16  C   UNL     1      31.319  27.311  63.167  1.00  0.00     0.000 C 
BRANCH  16  17
ATOM     17  C   UNL     1      30.011  27.299  62.356  1.00  0.00    -0.000 C 
BRANCH  17  18
ATOM     18  C   UNL     1      28.822  26.618  63.059  1.00  0.00    -0.000 C 
BRANCH  18  19
ATOM     19  C   UNL     1      28.288  25.403  62.286  1.00  0.00    -0.003 C 
ATOM     20  C   UNL     1      26.762  25.398  62.258  1.00  0.00     0.004 C 
ENDBRANCH  18  19
ENDBRANCH  17  18
ENDBRANCH  16  17
ENDBRANCH  15  16
ENDBRANCH  14  15
ENDBRANCH  13  14
ENDBRANCH   2  13
TORSDOF 15
ENDMDL
MODEL 9
REMARK VINA RESULT:    -4.030      4.434      8.054
REMARK INTER + INTRA:          -8.534
REMARK INTER:                  -7.236
REMARK INTRA:                  -1.298
REMARK UNBOUND:                -0.970
REMARK SMILES CCCCCCCCC=CCCCCCCCC(=O)[O-]
REMARK SMILES IDX 10 1 9 2 11 3 12 4 13 5 14 6 15 7 16 8 17 9 18 10 19 11
REMARK SMILES IDX 20 12 8 13 7 14 6 15 5 16 4 17 3 18 2 19 1 20
REMARK H PARENT
REMARK Flexibility Score: inf
ROOT
ATOM      1  C   UNL     1      32.334  27.042  71.264  1.00  0.00    -0.031 C 
ATOM      2  C   UNL     1      31.144  26.417  71.341  1.00  0.00    -0.031 C 
ENDROOT
BRANCH   1   3
ATOM      3  C   UNL     1      33.681  26.373  71.396  1.00  0.00     0.027 C 
BRANCH   3   4
ATOM      4  C   UNL     1      34.393  26.343  70.039  1.00  0.00     0.004 C 
BRANCH   4   5
ATOM      5  C   UNL     1      34.539  24.907  69.524  1.00  0.00     0.000 C 
BRANCH   5   6
ATOM      6  C   UNL     1      35.663  24.170  70.262  1.00  0.00     0.000 C 
BRANCH   6   7
ATOM      7  C   UNL     1      36.863  23.927  69.334  1.00  0.00     0.000 C 
BRANCH   7   8
ATOM      8  C   UNL     1      38.203  23.882  70.093  1.00  0.00     0.006 C 
BRANCH   8   9
ATOM      9  C   UNL     1      38.094  24.209  71.591  1.00  0.00     0.053 C 
BRANCH   9  10
ATOM     10  C   UNL     1      39.439  24.401  72.223  1.00  0.00     0.041 C 
ATOM     11  O   UNL     1      40.478  24.006  71.631  1.00  0.00    -0.550 OA
ATOM     12  O   UNL     1      39.548  25.047  73.448  1.00  0.00    -0.550 OA
ENDBRANCH   9  10
ENDBRANCH   8   9
ENDBRANCH   7   8
ENDBRANCH   6   7
ENDBRANCH   5   6
ENDBRANCH   4   5
ENDBRANCH   3   4
ENDBRANCH   1   3
BRANCH   2  13
ATOM     13  C   UNL     1      30.955  24.944  71.602  1.00  0.00     0.027 C 
BRANCH  13  14
ATOM     14  C   UNL     1      30.452  24.212  70.348  1.00  0.00     0.004 C 
BRANCH  14  15
ATOM     15  C   UNL     1      31.272  24.555  69.097  1.00  0.00     0.000 C 
BRANCH  15  16
ATOM     16  C   UNL     1      30.631  24.016  67.805  1.00  0.00     0.000 C 
BRANCH  16  17
ATOM     17  C   UNL     1      31.403  24.423  66.537  1.00  0.00    -0.000 C 
BRANCH  17  18
ATOM     18  C   UNL     1      32.860  23.925  66.480  1.00  0.00    -0.000 C 
BRANCH  18  19
ATOM     19  C   UNL     1      33.501  24.114  65.099  1.00  0.00    -0.003 C 
ATOM     20  C   UNL     1      32.444  24.120  63.999  1.00  0.00     0.004 C 
ENDBRANCH  18  19
ENDBRANCH  17  18
ENDBRANCH  16  17
ENDBRANCH  15  16
ENDBRANCH  14  15
ENDBRANCH  13  14
ENDBRANCH   2  13
TORSDOF 15
ENDMDL
