MODEL 1
REMARK VINA RESULT:    -5.421      0.000      0.000
REMARK INTER + INTRA:          -6.870
REMARK INTER:                  -6.688
REMARK INTRA:                  -0.182
REMARK UNBOUND:                -0.182
REMARK SMILES [NH3+][C@@H](Cc1ccc(O)cc1)C(=O)[O-]
REMARK SMILES IDX 3 1 2 2 1 3 11 7 12 8 13 9 4 10 5 11 10 12 6 13 9 14 7 15
REMARK SMILES IDX 8 16
REMARK H PARENT 1 4 1 5 1 6 8 17
REMARK Flexibility Score: inf
ROOT
ATOM      1  C   UNL     1      53.770 113.118  46.124  1.00  0.00     0.107 C 
ENDROOT
BRANCH   1   2
ATOM      2  C   UNL     1      54.083 111.616  46.297  1.00  0.00     0.232 C 
BRANCH   2   3
ATOM      3  N   UNL     1      55.092 111.392  47.342  1.00  0.00    -0.350 N 
ATOM      4  H   UNL     1      56.045 111.341  46.914  1.00  0.00     0.345 HD
ATOM      5  H   UNL     1      55.088 112.192  48.016  1.00  0.00     0.345 HD
ATOM      6  H   UNL     1      54.899 110.505  47.861  1.00  0.00     0.345 HD
ENDBRANCH   2   3
BRANCH   2   7
ATOM      7  C   UNL     1      54.552 111.040  44.988  1.00  0.00     0.099 C 
ATOM      8  O   UNL     1      53.977 110.036  44.488  1.00  0.00    -0.544 OA
ATOM      9  O   UNL     1      55.640 111.603  44.332  1.00  0.00    -0.544 OA
ENDBRANCH   2   7
ENDBRANCH   1   2
BRANCH   1  10
ATOM     10  C   UNL     1      52.296 113.404  46.260  1.00  0.00    -0.041 A 
ATOM     11  C   UNL     1      51.698 113.473  47.530  1.00  0.00     0.008 A 
ATOM     12  C   UNL     1      51.500 113.569  45.115  1.00  0.00     0.008 A 
ATOM     13  C   UNL     1      50.326 113.714  47.651  1.00  0.00     0.046 A 
ATOM     14  C   UNL     1      50.128 113.810  45.239  1.00  0.00     0.046 A 
ATOM     15  C   UNL     1      49.538 113.885  46.508  1.00  0.00     0.115 A 
BRANCH  15  16
ATOM     16  O   UNL     1      48.172 114.125  46.644  1.00  0.00    -0.508 OA
ATOM     17  H   UNL     1      47.494 113.375  46.577  1.00  0.00     0.293 HD
ENDBRANCH  15  16
ENDBRANCH   1  10
TORSDOF 5
ENDMDL
MODEL 2
REMARK VINA RESULT:    -5.294      1.271      1.430
REMARK INTER + INTRA:          -6.714
REMARK INTER:                  -6.491
REMARK INTRA:                  -0.223
REMARK UNBOUND:                -0.182
REMARK SMILES [NH3+][C@@H](Cc1ccc(O)cc1)C(=O)[O-]
REMARK SMILES IDX 3 1 2 2 1 3 11 7 12 8 13 9 4 10 5 11 10 12 6 13 9 14 7 15
REMARK SMILES IDX 8 16
REMARK H PARENT 1 4 1 5 1 6 8 17
REMARK Flexibility Score: inf
ROOT
ATOM      1  C   UNL     1      53.885 113.245  44.725  1.00  0.00     0.107 C 
ENDROOT
BRANCH   1   2
ATOM      2  C   UNL     1      54.841 112.126  45.192  1.00  0.00     0.232 C 
BRANCH   2   3
ATOM      3  N   UNL     1      56.244 112.563  45.148  1.00  0.00    -0.350 N 
ATOM      4  H   UNL     1      56.369 113.423  45.730  1.00  0.00     0.345 HD
ATOM      5  H   UNL     1      56.860 111.817  45.545  1.00  0.00     0.345 HD
ATOM      6  H   UNL     1      56.540 112.765  44.165  1.00  0.00     0.345 HD
ENDBRANCH   2   3
BRANCH   2   7
ATOM      7  C   UNL     1      54.649 110.902  44.337  1.00  0.00     0.099 C 
ATOM      8  O   UNL     1      53.884 109.974  44.712  1.00  0.00    -0.544 OA
ATOM      9  O   UNL     1      55.333 110.782  43.134  1.00  0.00    -0.544 OA
ENDBRANCH   2   7
ENDBRANCH   1   2
BRANCH   1  10
ATOM     10  C   UNL     1      52.735 113.437  45.680  1.00  0.00    -0.041 A 
ATOM     11  C   UNL     1      52.905 113.204  47.055  1.00  0.00     0.008 A 
ATOM     12  C   UNL     1      51.472 113.817  45.198  1.00  0.00     0.008 A 
ATOM     13  C   UNL     1      51.829 113.359  47.935  1.00  0.00     0.046 A 
ATOM     14  C   UNL     1      50.397 113.972  46.080  1.00  0.00     0.046 A 
ATOM     15  C   UNL     1      50.575 113.745  47.451  1.00  0.00     0.115 A 
BRANCH  15  16
ATOM     16  O   UNL     1      49.512 113.896  48.339  1.00  0.00    -0.508 OA
ATOM     17  H   UNL     1      49.369 113.252  49.108  1.00  0.00     0.293 HD
ENDBRANCH  15  16
ENDBRANCH   1  10
TORSDOF 5
ENDMDL
MODEL 3
REMARK VINA RESULT:    -5.192      2.185      5.055
REMARK INTER + INTRA:          -6.587
REMARK INTER:                  -6.366
REMARK INTRA:                  -0.221
REMARK UNBOUND:                -0.182
REMARK SMILES [NH3+][C@@H](Cc1ccc(O)cc1)C(=O)[O-]
REMARK SMILES IDX 3 1 2 2 1 3 11 7 12 8 13 9 4 10 5 11 10 12 6 13 9 14 7 15
REMARK SMILES IDX 8 16
REMARK H PARENT 1 4 1 5 1 6 8 17
REMARK Flexibility Score: inf
ROOT
ATOM      1  C   UNL     1      53.901 112.260  47.808  1.00  0.00     0.107 C 
ENDROOT
BRANCH   1   2
ATOM      2  C   UNL     1      53.307 113.681  47.927  1.00  0.00     0.232 C 
BRANCH   2   3
ATOM      3  N   UNL     1      53.245 114.123  49.327  1.00  0.00    -0.350 N 
ATOM      4  H   UNL     1      52.273 114.430  49.562  1.00  0.00     0.345 HD
ATOM      5  H   UNL     1      53.491 113.328  49.961  1.00  0.00     0.345 HD
ATOM      6  H   UNL     1      53.908 114.914  49.497  1.00  0.00     0.345 HD
ENDBRANCH   2   3
BRANCH   2   7
ATOM      7  C   UNL     1      51.935 113.713  47.308  1.00  0.00     0.099 C 
ATOM      8  O   UNL     1      50.924 113.376  47.979  1.00  0.00    -0.544 OA
ATOM      9  O   UNL     1      51.781 114.097  45.982  1.00  0.00    -0.544 OA
ENDBRANCH   2   7
ENDBRANCH   1   2
BRANCH   1  10
ATOM     10  C   UNL     1      54.348 111.954  46.401  1.00  0.00    -0.041 A 
ATOM     11  C   UNL     1      55.139 112.872  45.689  1.00  0.00     0.008 A 
ATOM     12  C   UNL     1      53.946 110.762  45.776  1.00  0.00     0.008 A 
ATOM     13  C   UNL     1      55.532 112.594  44.376  1.00  0.00     0.046 A 
ATOM     14  C   UNL     1      54.340 110.487  44.462  1.00  0.00     0.046 A 
ATOM     15  C   UNL     1      55.135 111.403  43.760  1.00  0.00     0.115 A 
BRANCH  15  16
ATOM     16  O   UNL     1      55.534 111.140  42.451  1.00  0.00    -0.508 OA
ATOM     17  H   UNL     1      56.496 111.257  42.157  1.00  0.00     0.293 HD
ENDBRANCH  15  16
ENDBRANCH   1  10
TORSDOF 5
ENDMDL
MODEL 4
REMARK VINA RESULT:    -5.012      2.264      2.903
REMARK INTER + INTRA:          -6.366
REMARK INTER:                  -6.163
REMARK INTRA:                  -0.203
REMARK UNBOUND:                -0.182
REMARK SMILES [NH3+][C@@H](Cc1ccc(O)cc1)C(=O)[O-]
REMARK SMILES IDX 3 1 2 2 1 3 11 7 12 8 13 9 4 10 5 11 10 12 6 13 9 14 7 15
REMARK SMILES IDX 8 16
REMARK H PARENT 1 4 1 5 1 6 8 17
REMARK Flexibility Score: inf
ROOT
ATOM      1  C   UNL     1      53.932 113.164  44.839  1.00  0.00     0.107 C 
ENDROOT
BRANCH   1   2
ATOM      2  C   UNL     1      55.223 112.333  44.676  1.00  0.00     0.232 C 
BRANCH   2   3
ATOM      3  N   UNL     1      56.226 113.047  43.873  1.00  0.00    -0.350 N 
ATOM      4  H   UNL     1      55.864 113.991  43.605  1.00  0.00     0.345 HD
ATOM      5  H   UNL     1      57.096 113.187  44.435  1.00  0.00     0.345 HD
ATOM      6  H   UNL     1      56.459 112.509  43.006  1.00  0.00     0.345 HD
ENDBRANCH   2   3
BRANCH   2   7
ATOM      7  C   UNL     1      54.897 111.005  44.045  1.00  0.00     0.099 C 
ATOM      8  O   UNL     1      55.418 110.675  42.946  1.00  0.00    -0.544 OA
ATOM      9  O   UNL     1      54.001 110.143  44.665  1.00  0.00    -0.544 OA
ENDBRANCH   2   7
ENDBRANCH   1   2
BRANCH   1  10
ATOM     10  C   UNL     1      53.413 113.125  46.254  1.00  0.00    -0.041 A 
ATOM     11  C   UNL     1      54.202 112.593  47.287  1.00  0.00     0.008 A 
ATOM     12  C   UNL     1      52.120 113.588  46.545  1.00  0.00     0.008 A 
ATOM     13  C   UNL     1      53.707 112.536  48.594  1.00  0.00     0.046 A 
ATOM     14  C   UNL     1      51.627 113.531  47.853  1.00  0.00     0.046 A 
ATOM     15  C   UNL     1      52.422 113.005  48.881  1.00  0.00     0.115 A 
BRANCH  15  16
ATOM     16  O   UNL     1      51.941 112.943  50.187  1.00  0.00    -0.508 OA
ATOM     17  H   UNL     1      52.205 113.632  50.881  1.00  0.00     0.293 HD
ENDBRANCH  15  16
ENDBRANCH   1  10
TORSDOF 5
ENDMDL
MODEL 5
REMARK VINA RESULT:    -5.009      3.213      5.340
REMARK INTER + INTRA:          -6.362
REMARK INTER:                  -6.286
REMARK INTRA:                  -0.076
REMARK UNBOUND:                -0.182
REMARK SMILES [NH3+][C@@H](Cc1ccc(O)cc1)C(=O)[O-]
REMARK SMILES IDX 3 1 2 2 1 3 11 7 12 8 13 9 4 10 5 11 10 12 6 13 9 14 7 15
REMARK SMILES IDX 8 16
REMARK H PARENT 1 4 1 5 1 6 8 17
REMARK Flexibility Score: inf
ROOT
ATOM      1  C   UNL     1      53.722 112.175  47.799  1.00  0.00     0.107 C 
ENDROOT
BRANCH   1   2
ATOM      2  C   UNL     1      54.747 112.999  48.609  1.00  0.00     0.232 C 
BRANCH   2   3
ATOM      3  N   UNL     1      56.002 112.258  48.801  1.00  0.00    -0.350 N 
ATOM      4  H   UNL     1      55.797 111.279  49.107  1.00  0.00     0.345 HD
ATOM      5  H   UNL     1      56.526 112.206  47.896  1.00  0.00     0.345 HD
ATOM      6  H   UNL     1      56.603 112.725  49.518  1.00  0.00     0.345 HD
ENDBRANCH   2   3
BRANCH   2   7
ATOM      7  C   UNL     1      54.157 113.379  49.940  1.00  0.00     0.099 C 
ATOM      8  O   UNL     1      54.839 114.023  50.781  1.00  0.00    -0.544 OA
ATOM      9  O   UNL     1      52.858 113.002  50.256  1.00  0.00    -0.544 OA
ENDBRANCH   2   7
ENDBRANCH   1   2
BRANCH   1  10
ATOM     10  C   UNL     1      54.184 111.938  46.384  1.00  0.00    -0.041 A 
ATOM     11  C   UNL     1      53.928 110.712  45.747  1.00  0.00     0.008 A 
ATOM     12  C   UNL     1      54.906 112.930  45.701  1.00  0.00     0.008 A 
ATOM     13  C   UNL     1      54.380 110.488  44.442  1.00  0.00     0.046 A 
ATOM     14  C   UNL     1      55.356 112.704  44.396  1.00  0.00     0.046 A 
ATOM     15  C   UNL     1      55.092 111.481  43.764  1.00  0.00     0.115 A 
BRANCH  15  16
ATOM     16  O   UNL     1      55.535 111.244  42.464  1.00  0.00    -0.508 OA
ATOM     17  H   UNL     1      55.643 110.302  42.105  1.00  0.00     0.293 HD
ENDBRANCH  15  16
ENDBRANCH   1  10
TORSDOF 5
ENDMDL
MODEL 6
REMARK VINA RESULT:    -4.997      2.908      5.293
REMARK INTER + INTRA:          -6.347
REMARK INTER:                  -6.119
REMARK INTRA:                  -0.228
REMARK UNBOUND:                -0.182
REMARK SMILES [NH3+][C@@H](Cc1ccc(O)cc1)C(=O)[O-]
REMARK SMILES IDX 3 1 2 2 1 3 11 7 12 8 13 9 4 10 5 11 10 12 6 13 9 14 7 15
REMARK SMILES IDX 8 16
REMARK H PARENT 1 4 1 5 1 6 8 17
REMARK Flexibility Score: inf
ROOT
ATOM      1  C   UNL     1      53.634 113.801  47.324  1.00  0.00     0.107 C 
ENDROOT
BRANCH   1   2
ATOM      2  C   UNL     1      52.575 113.053  48.162  1.00  0.00     0.232 C 
BRANCH   2   3
ATOM      3  N   UNL     1      51.269 113.724  48.105  1.00  0.00    -0.350 N 
ATOM      4  H   UNL     1      50.916 113.736  47.121  1.00  0.00     0.345 HD
ATOM      5  H   UNL     1      50.575 113.201  48.687  1.00  0.00     0.345 HD
ATOM      6  H   UNL     1      51.340 114.707  48.458  1.00  0.00     0.345 HD
ENDBRANCH   2   3
BRANCH   2   7
ATOM      7  C   UNL     1      53.042 112.940  49.589  1.00  0.00     0.099 C 
ATOM      8  O   UNL     1      54.264 113.050  49.872  1.00  0.00    -0.544 OA
ATOM      9  O   UNL     1      52.123 112.692  50.602  1.00  0.00    -0.544 OA
ENDBRANCH   2   7
ENDBRANCH   1   2
BRANCH   1  10
ATOM     10  C   UNL     1      54.137 112.964  46.176  1.00  0.00    -0.041 A 
ATOM     11  C   UNL     1      55.008 113.515  45.221  1.00  0.00     0.008 A 
ATOM     12  C   UNL     1      53.710 111.634  46.032  1.00  0.00     0.008 A 
ATOM     13  C   UNL     1      55.453 112.741  44.144  1.00  0.00     0.046 A 
ATOM     14  C   UNL     1      54.157 110.862  44.954  1.00  0.00     0.046 A 
ATOM     15  C   UNL     1      55.031 111.415  44.008  1.00  0.00     0.115 A 
BRANCH  15  16
ATOM     16  O   UNL     1      55.483 110.656  42.931  1.00  0.00    -0.508 OA
ATOM     17  H   UNL     1      54.838 110.176  42.314  1.00  0.00     0.293 HD
ENDBRANCH  15  16
ENDBRANCH   1  10
TORSDOF 5
ENDMDL
MODEL 7
REMARK VINA RESULT:    -4.648      2.289      5.274
REMARK INTER + INTRA:          -5.917
REMARK INTER:                  -5.685
REMARK INTRA:                  -0.231
REMARK UNBOUND:                -0.182
REMARK SMILES [NH3+][C@@H](Cc1ccc(O)cc1)C(=O)[O-]
REMARK SMILES IDX 3 1 2 2 1 3 11 7 12 8 13 9 4 10 5 11 10 12 6 13 9 14 7 15
REMARK SMILES IDX 8 16
REMARK H PARENT 1 4 1 5 1 6 8 17
REMARK Flexibility Score: inf
ROOT
ATOM      1  C   UNL     1      53.174 112.224  47.281  1.00  0.00     0.107 C 
ENDROOT
BRANCH   1   2
ATOM      2  C   UNL     1      52.542 113.493  47.894  1.00  0.00     0.232 C 
BRANCH   2   3
ATOM      3  N   UNL     1      52.503 113.421  49.361  1.00  0.00    -0.350 N 
ATOM      4  H   UNL     1      53.032 114.224  49.772  1.00  0.00     0.345 HD
ATOM      5  H   UNL     1      51.514 113.487  49.694  1.00  0.00     0.345 HD
ATOM      6  H   UNL     1      52.920 112.524  49.700  1.00  0.00     0.345 HD
ENDBRANCH   2   3
BRANCH   2   7
ATOM      7  C   UNL     1      51.153 113.687  47.344  1.00  0.00     0.099 C 
ATOM      8  O   UNL     1      50.984 114.118  46.173  1.00  0.00    -0.544 OA
ATOM      9  O   UNL     1      50.048 113.408  48.138  1.00  0.00    -0.544 OA
ENDBRANCH   2   7
ENDBRANCH   1   2
BRANCH   1  10
ATOM     10  C   UNL     1      54.083 112.551  46.125  1.00  0.00    -0.041 A 
ATOM     11  C   UNL     1      54.342 111.594  45.129  1.00  0.00     0.008 A 
ATOM     12  C   UNL     1      54.709 113.806  46.052  1.00  0.00     0.008 A 
ATOM     13  C   UNL     1      55.206 111.894  44.071  1.00  0.00     0.046 A 
ATOM     14  C   UNL     1      55.573 114.103  44.993  1.00  0.00     0.046 A 
ATOM     15  C   UNL     1      55.822 113.147  43.999  1.00  0.00     0.115 A 
BRANCH  15  16
ATOM     16  O   UNL     1      56.680 113.432  42.939  1.00  0.00    -0.508 OA
ATOM     17  H   UNL     1      56.725 114.357  42.528  1.00  0.00     0.293 HD
ENDBRANCH  15  16
ENDBRANCH   1  10
TORSDOF 5
ENDMDL
MODEL 8
REMARK VINA RESULT:    -4.546      9.895     10.949
REMARK INTER + INTRA:          -5.791
REMARK INTER:                  -5.564
REMARK INTRA:                  -0.227
REMARK UNBOUND:                -0.182
REMARK SMILES [NH3+][C@@H](Cc1ccc(O)cc1)C(=O)[O-]
REMARK SMILES IDX 3 1 2 2 1 3 11 7 12 8 13 9 4 10 5 11 10 12 6 13 9 14 7 15
REMARK SMILES IDX 8 16
REMARK H PARENT 1 4 1 5 1 6 8 17
REMARK Flexibility Score: inf
ROOT
ATOM      1  C   UNL     1      49.788 107.993  53.386  1.00  0.00     0.107 C 
ENDROOT
BRANCH   1   2
ATOM      2  C   UNL     1      48.807 108.978  54.059  1.00  0.00     0.232 C 
BRANCH   2   3
ATOM      3  N   UNL     1      48.758 110.262  53.345  1.00  0.00    -0.350 N 
ATOM      4  H   UNL     1      49.295 110.986  53.875  1.00  0.00     0.345 HD
ATOM      5  H   UNL     1      49.203 110.162  52.404  1.00  0.00     0.345 HD
ATOM      6  H   UNL     1      47.770 110.583  53.225  1.00  0.00     0.345 HD
ENDBRANCH   2   3
BRANCH   2   7
ATOM      7  C   UNL     1      49.205 109.193  55.494  1.00  0.00     0.099 C 
ATOM      8  O   UNL     1      48.728 108.467  56.406  1.00  0.00    -0.544 OA
ATOM      9  O   UNL     1      50.090 110.213  55.823  1.00  0.00    -0.544 OA
ENDBRANCH   2   7
ENDBRANCH   1   2
BRANCH   1  10
ATOM     10  C   UNL     1      49.092 106.748  52.902  1.00  0.00    -0.041 A 
ATOM     11  C   UNL     1      47.703 106.602  53.058  1.00  0.00     0.008 A 
ATOM     12  C   UNL     1      49.831 105.704  52.322  1.00  0.00     0.008 A 
ATOM     13  C   UNL     1      47.064 105.434  52.629  1.00  0.00     0.046 A 
ATOM     14  C   UNL     1      49.190 104.538  51.894  1.00  0.00     0.046 A 
ATOM     15  C   UNL     1      47.803 104.401  52.045  1.00  0.00     0.115 A 
BRANCH  15  16
ATOM     16  O   UNL     1      47.153 103.244  51.622  1.00  0.00    -0.508 OA
ATOM     17  H   UNL     1      46.152 103.225  51.471  1.00  0.00     0.293 HD
ENDBRANCH  15  16
ENDBRANCH   1  10
TORSDOF 5
ENDMDL
MODEL 9
REMARK VINA RESULT:    -4.544      9.930     10.964
REMARK INTER + INTRA:          -5.789
REMARK INTER:                  -5.577
REMARK INTRA:                  -0.212
REMARK UNBOUND:                -0.182
REMARK SMILES [NH3+][C@@H](Cc1ccc(O)cc1)C(=O)[O-]
REMARK SMILES IDX 3 1 2 2 1 3 11 7 12 8 13 9 4 10 5 11 10 12 6 13 9 14 7 15
REMARK SMILES IDX 8 16
REMARK H PARENT 1 4 1 5 1 6 8 17
REMARK Flexibility Score: inf
ROOT
ATOM      1  C   UNL     1      49.830 107.992  53.389  1.00  0.00     0.107 C 
ENDROOT
BRANCH   1   2
ATOM      2  C   UNL     1      48.853 108.998  54.037  1.00  0.00     0.232 C 
BRANCH   2   3
ATOM      3  N   UNL     1      48.855 110.285  53.327  1.00  0.00    -0.350 N 
ATOM      4  H   UNL     1      48.279 110.214  52.457  1.00  0.00     0.345 HD
ATOM      5  H   UNL     1      48.430 111.024  53.932  1.00  0.00     0.345 HD
ATOM      6  H   UNL     1      49.830 110.568  53.073  1.00  0.00     0.345 HD
ENDBRANCH   2   3
BRANCH   2   7
ATOM      7  C   UNL     1      49.216 109.200  55.484  1.00  0.00     0.099 C 
ATOM      8  O   UNL     1      48.420 109.783  56.267  1.00  0.00    -0.544 OA
ATOM      9  O   UNL     1      50.445 108.759  55.959  1.00  0.00    -0.544 OA
ENDBRANCH   2   7
ENDBRANCH   1   2
BRANCH   1  10
ATOM     10  C   UNL     1      49.127 106.738  52.937  1.00  0.00    -0.041 A 
ATOM     11  C   UNL     1      49.845 105.703  52.314  1.00  0.00     0.008 A 
ATOM     12  C   UNL     1      47.738 106.607  53.103  1.00  0.00     0.008 A 
ATOM     13  C   UNL     1      49.185 104.552  51.874  1.00  0.00     0.046 A 
ATOM     14  C   UNL     1      47.080 105.454  52.663  1.00  0.00     0.046 A 
ATOM     15  C   UNL     1      47.804 104.423  52.048  1.00  0.00     0.115 A 
BRANCH  15  16
ATOM     16  O   UNL     1      47.159 103.269  51.606  1.00  0.00    -0.508 OA
ATOM     17  H   UNL     1      46.251 103.000  51.965  1.00  0.00     0.293 HD
ENDBRANCH  15  16
ENDBRANCH   1  10
TORSDOF 5
ENDMDL
