MODEL 1
REMARK VINA RESULT:    -5.135      0.000      0.000
REMARK INTER + INTRA:         -10.969
REMARK INTER:                  -9.337
REMARK INTRA:                  -1.632
REMARK UNBOUND:                -1.632
REMARK SMILES CCCCCCCCCCCCCC[C@H](C)C(=O)[O-]
REMARK SMILES IDX 9 1 10 2 11 3 12 4 13 5 14 6 15 7 16 8 17 9 18 10 19 11 8 12
REMARK SMILES IDX 7 13 6 14 5 15 4 16 3 17 2 18 1 19
REMARK H PARENT
REMARK Flexibility Score: inf
ROOT
ATOM      1  C   UNL     1      -5.022  12.888  -8.051  1.00  0.00     0.000 C 
ENDROOT
BRANCH   1   2
ATOM      2  C   UNL     1      -4.555  11.698  -7.198  1.00  0.00     0.000 C 
BRANCH   2   3
ATOM      3  C   UNL     1      -3.023  11.598  -7.099  1.00  0.00     0.000 C 
BRANCH   3   4
ATOM      4  C   UNL     1      -2.246  12.258  -8.257  1.00  0.00     0.000 C 
BRANCH   4   5
ATOM      5  C   UNL     1      -0.715  12.109  -8.191  1.00  0.00     0.001 C 
BRANCH   5   6
ATOM      6  C   UNL     1      -0.270  10.734  -7.660  1.00  0.00     0.009 C 
BRANCH   6   7
ATOM      7  C   UNL     1       1.018  10.813  -6.811  1.00  0.00     0.032 C 
ATOM      8  C   UNL     1       1.266  12.221  -6.252  1.00  0.00     0.014 C 
BRANCH   7   9
ATOM      9  C   UNL     1       2.202  10.380  -7.633  1.00  0.00     0.044 C 
ATOM     10  O   UNL     1       3.370  10.701  -7.291  1.00  0.00    -0.550 OA
ATOM     11  O   UNL     1       2.010   9.620  -8.781  1.00  0.00    -0.550 OA
ENDBRANCH   7   9
ENDBRANCH   6   7
ENDBRANCH   5   6
ENDBRANCH   4   5
ENDBRANCH   3   4
ENDBRANCH   2   3
ENDBRANCH   1   2
BRANCH   1  12
ATOM     12  C   UNL     1      -6.279  12.530  -8.852  1.00  0.00     0.000 C 
BRANCH  12  13
ATOM     13  C   UNL     1      -6.229  11.070  -9.331  1.00  0.00    -0.000 C 
BRANCH  13  14
ATOM     14  C   UNL     1      -5.527  10.915 -10.689  1.00  0.00    -0.000 C 
BRANCH  14  15
ATOM     15  C   UNL     1      -4.151  10.237 -10.568  1.00  0.00    -0.000 C 
BRANCH  15  16
ATOM     16  C   UNL     1      -4.226   8.841  -9.923  1.00  0.00    -0.000 C 
BRANCH  16  17
ATOM     17  C   UNL     1      -4.960   7.775 -10.756  1.00  0.00    -0.000 C 
BRANCH  17  18
ATOM     18  C   UNL     1      -6.016   7.006  -9.949  1.00  0.00    -0.003 C 
ATOM     19  C   UNL     1      -6.568   5.829 -10.748  1.00  0.00     0.004 C 
ENDBRANCH  17  18
ENDBRANCH  16  17
ENDBRANCH  15  16
ENDBRANCH  14  15
ENDBRANCH  13  14
ENDBRANCH  12  13
ENDBRANCH   1  12
TORSDOF 14
ENDMDL
MODEL 2
REMARK VINA RESULT:    -5.126      1.796      3.596
REMARK INTER + INTRA:         -10.953
REMARK INTER:                  -8.493
REMARK INTRA:                  -2.461
REMARK UNBOUND:                -1.632
REMARK SMILES CCCCCCCCCCCCCC[C@H](C)C(=O)[O-]
REMARK SMILES IDX 9 1 10 2 11 3 12 4 13 5 14 6 15 7 16 8 17 9 18 10 19 11 8 12
REMARK SMILES IDX 7 13 6 14 5 15 4 16 3 17 2 18 1 19
REMARK H PARENT
REMARK Flexibility Score: inf
ROOT
ATOM      1  C   UNL     1      -4.961  10.781 -10.643  1.00  0.00     0.000 C 
ENDROOT
BRANCH   1   2
ATOM      2  C   UNL     1      -4.274   9.619  -9.910  1.00  0.00     0.000 C 
BRANCH   2   3
ATOM      3  C   UNL     1      -3.085  10.075  -9.047  1.00  0.00     0.000 C 
BRANCH   3   4
ATOM      4  C   UNL     1      -2.643  11.538  -9.260  1.00  0.00     0.000 C 
BRANCH   4   5
ATOM      5  C   UNL     1      -1.498  12.018  -8.349  1.00  0.00     0.001 C 
BRANCH   5   6
ATOM      6  C   UNL     1      -0.675  10.859  -7.760  1.00  0.00     0.009 C 
BRANCH   6   7
ATOM      7  C   UNL     1       0.841  11.155  -7.741  1.00  0.00     0.032 C 
ATOM      8  C   UNL     1       1.677   9.965  -8.234  1.00  0.00     0.014 C 
BRANCH   7   9
ATOM      9  C   UNL     1       1.272  11.533  -6.350  1.00  0.00     0.044 C 
ATOM     10  O   UNL     1       2.476  11.811  -6.107  1.00  0.00    -0.550 OA
ATOM     11  O   UNL     1       0.339  11.577  -5.321  1.00  0.00    -0.550 OA
ENDBRANCH   7   9
ENDBRANCH   6   7
ENDBRANCH   5   6
ENDBRANCH   4   5
ENDBRANCH   3   4
ENDBRANCH   2   3
ENDBRANCH   1   2
BRANCH   1  12
ATOM     12  C   UNL     1      -6.466  10.800 -10.353  1.00  0.00     0.000 C 
BRANCH  12  13
ATOM     13  C   UNL     1      -6.757  11.466  -8.998  1.00  0.00    -0.000 C 
BRANCH  13  14
ATOM     14  C   UNL     1      -6.158  12.877  -8.890  1.00  0.00    -0.000 C 
BRANCH  14  15
ATOM     15  C   UNL     1      -5.568  13.162  -7.498  1.00  0.00    -0.000 C 
BRANCH  15  16
ATOM     16  C   UNL     1      -5.403  11.890  -6.645  1.00  0.00    -0.000 C 
BRANCH  16  17
ATOM     17  C   UNL     1      -4.151  11.862  -5.750  1.00  0.00    -0.000 C 
BRANCH  17  18
ATOM     18  C   UNL     1      -3.636  10.441  -5.483  1.00  0.00    -0.003 C 
ATOM     19  C   UNL     1      -4.777   9.427  -5.521  1.00  0.00     0.004 C 
ENDBRANCH  17  18
ENDBRANCH  16  17
ENDBRANCH  15  16
ENDBRANCH  14  15
ENDBRANCH  13  14
ENDBRANCH  12  13
ENDBRANCH   1  12
TORSDOF 14
ENDMDL
MODEL 3
REMARK VINA RESULT:    -5.124      2.779      6.662
REMARK INTER + INTRA:         -10.950
REMARK INTER:                  -8.625
REMARK INTRA:                  -2.325
REMARK UNBOUND:                -1.632
REMARK SMILES CCCCCCCCCCCCCC[C@H](C)C(=O)[O-]
REMARK SMILES IDX 9 1 10 2 11 3 12 4 13 5 14 6 15 7 16 8 17 9 18 10 19 11 8 12
REMARK SMILES IDX 7 13 6 14 5 15 4 16 3 17 2 18 1 19
REMARK H PARENT
REMARK Flexibility Score: inf
ROOT
ATOM      1  C   UNL     1      -2.748  10.762  -8.096  1.00  0.00     0.000 C 
ENDROOT
BRANCH   1   2
ATOM      2  C   UNL     1      -3.051  12.102  -8.783  1.00  0.00     0.000 C 
BRANCH   2   3
ATOM      3  C   UNL     1      -4.167  12.895  -8.081  1.00  0.00     0.000 C 
BRANCH   3   4
ATOM      4  C   UNL     1      -5.495  12.990  -8.860  1.00  0.00     0.000 C 
BRANCH   4   5
ATOM      5  C   UNL     1      -6.360  11.716  -8.843  1.00  0.00     0.001 C 
BRANCH   5   6
ATOM      6  C   UNL     1      -6.212  10.875 -10.124  1.00  0.00     0.009 C 
BRANCH   6   7
ATOM      7  C   UNL     1      -6.227   9.357  -9.843  1.00  0.00     0.032 C 
ATOM      8  C   UNL     1      -6.081   9.035  -8.349  1.00  0.00     0.014 C 
BRANCH   7   9
ATOM      9  C   UNL     1      -5.127   8.681 -10.615  1.00  0.00     0.044 C 
ATOM     10  O   UNL     1      -4.077   9.309 -10.916  1.00  0.00    -0.550 OA
ATOM     11  O   UNL     1      -5.264   7.354 -11.002  1.00  0.00    -0.550 OA
ENDBRANCH   7   9
ENDBRANCH   6   7
ENDBRANCH   5   6
ENDBRANCH   4   5
ENDBRANCH   3   4
ENDBRANCH   2   3
ENDBRANCH   1   2
BRANCH   1  12
ATOM     12  C   UNL     1      -3.259  10.758  -6.650  1.00  0.00     0.000 C 
BRANCH  12  13
ATOM     13  C   UNL     1      -2.144  10.351  -5.674  1.00  0.00    -0.000 C 
BRANCH  13  14
ATOM     14  C   UNL     1      -1.474  11.560  -5.001  1.00  0.00    -0.000 C 
BRANCH  14  15
ATOM     15  C   UNL     1      -0.008  11.739  -5.436  1.00  0.00    -0.000 C 
BRANCH  15  16
ATOM     16  C   UNL     1       0.136  12.563  -6.729  1.00  0.00    -0.000 C 
BRANCH  16  17
ATOM     17  C   UNL     1       0.771  11.813  -7.914  1.00  0.00    -0.000 C 
BRANCH  17  18
ATOM     18  C   UNL     1       0.993  10.321  -7.628  1.00  0.00    -0.003 C 
ATOM     19  C   UNL     1       2.252   9.810  -8.324  1.00  0.00     0.004 C 
ENDBRANCH  17  18
ENDBRANCH  16  17
ENDBRANCH  15  16
ENDBRANCH  14  15
ENDBRANCH  13  14
ENDBRANCH  12  13
ENDBRANCH   1  12
TORSDOF 14
ENDMDL
MODEL 4
REMARK VINA RESULT:    -5.095      1.238      1.990
REMARK INTER + INTRA:         -10.897
REMARK INTER:                  -9.062
REMARK INTRA:                  -1.834
REMARK UNBOUND:                -1.632
REMARK SMILES CCCCCCCCCCCCCC[C@H](C)C(=O)[O-]
REMARK SMILES IDX 9 1 10 2 11 3 12 4 13 5 14 6 15 7 16 8 17 9 18 10 19 11 8 12
REMARK SMILES IDX 7 13 6 14 5 15 4 16 3 17 2 18 1 19
REMARK H PARENT
REMARK Flexibility Score: inf
ROOT
ATOM      1  C   UNL     1      -5.314  11.590  -6.703  1.00  0.00     0.000 C 
ENDROOT
BRANCH   1   2
ATOM      2  C   UNL     1      -3.828  11.207  -6.766  1.00  0.00     0.000 C 
BRANCH   2   3
ATOM      3  C   UNL     1      -2.896  12.430  -6.780  1.00  0.00     0.000 C 
BRANCH   3   4
ATOM      4  C   UNL     1      -1.976  12.540  -8.013  1.00  0.00     0.000 C 
BRANCH   4   5
ATOM      5  C   UNL     1      -1.383  11.210  -8.513  1.00  0.00     0.001 C 
BRANCH   5   6
ATOM      6  C   UNL     1      -0.336  10.622  -7.550  1.00  0.00     0.009 C 
BRANCH   6   7
ATOM      7  C   UNL     1       1.094  11.121  -7.849  1.00  0.00     0.032 C 
ATOM      8  C   UNL     1       2.026   9.990  -8.307  1.00  0.00     0.014 C 
BRANCH   7   9
ATOM      9  C   UNL     1       1.670  11.788  -6.629  1.00  0.00     0.044 C 
ATOM     10  O   UNL     1       1.018  12.673  -6.015  1.00  0.00    -0.550 OA
ATOM     11  O   UNL     1       2.932  11.426  -6.172  1.00  0.00    -0.550 OA
ENDBRANCH   7   9
ENDBRANCH   6   7
ENDBRANCH   5   6
ENDBRANCH   4   5
ENDBRANCH   3   4
ENDBRANCH   2   3
ENDBRANCH   1   2
BRANCH   1  12
ATOM     12  C   UNL     1      -5.538  13.014  -7.224  1.00  0.00     0.000 C 
BRANCH  12  13
ATOM     13  C   UNL     1      -5.958  13.000  -8.702  1.00  0.00    -0.000 C 
BRANCH  13  14
ATOM     14  C   UNL     1      -6.766  11.747  -9.077  1.00  0.00    -0.000 C 
BRANCH  14  15
ATOM     15  C   UNL     1      -6.263  11.087 -10.373  1.00  0.00    -0.000 C 
BRANCH  15  16
ATOM     16  C   UNL     1      -4.736  10.887 -10.390  1.00  0.00    -0.000 C 
BRANCH  16  17
ATOM     17  C   UNL     1      -4.270   9.423 -10.487  1.00  0.00    -0.000 C 
BRANCH  17  18
ATOM     18  C   UNL     1      -5.428   8.419 -10.403  1.00  0.00    -0.003 C 
ATOM     19  C   UNL     1      -5.023   7.063 -10.976  1.00  0.00     0.004 C 
ENDBRANCH  17  18
ENDBRANCH  16  17
ENDBRANCH  15  16
ENDBRANCH  14  15
ENDBRANCH  13  14
ENDBRANCH  12  13
ENDBRANCH   1  12
TORSDOF 14
ENDMDL
MODEL 5
REMARK VINA RESULT:    -4.946      3.111      6.685
REMARK INTER + INTRA:         -10.626
REMARK INTER:                  -8.664
REMARK INTRA:                  -1.962
REMARK UNBOUND:                -1.632
REMARK SMILES CCCCCCCCCCCCCC[C@H](C)C(=O)[O-]
REMARK SMILES IDX 9 1 10 2 11 3 12 4 13 5 14 6 15 7 16 8 17 9 18 10 19 11 8 12
REMARK SMILES IDX 7 13 6 14 5 15 4 16 3 17 2 18 1 19
REMARK H PARENT
REMARK Flexibility Score: inf
ROOT
ATOM      1  C   UNL     1      -3.971  10.911  -6.624  1.00  0.00     0.000 C 
ENDROOT
BRANCH   1   2
ATOM      2  C   UNL     1      -3.929  12.366  -7.113  1.00  0.00     0.000 C 
BRANCH   2   3
ATOM      3  C   UNL     1      -3.721  12.480  -8.633  1.00  0.00     0.000 C 
BRANCH   3   4
ATOM      4  C   UNL     1      -2.790  11.417  -9.250  1.00  0.00     0.000 C 
BRANCH   4   5
ATOM      5  C   UNL     1      -3.500  10.280 -10.009  1.00  0.00     0.001 C 
BRANCH   5   6
ATOM      6  C   UNL     1      -4.763  10.753 -10.750  1.00  0.00     0.009 C 
BRANCH   6   7
ATOM      7  C   UNL     1      -6.016   9.933 -10.373  1.00  0.00     0.032 C 
ATOM      8  C   UNL     1      -6.788  10.549  -9.197  1.00  0.00     0.014 C 
BRANCH   7   9
ATOM      9  C   UNL     1      -5.623   8.521 -10.034  1.00  0.00     0.044 C 
ATOM     10  O   UNL     1      -5.629   8.125  -8.838  1.00  0.00    -0.550 OA
ATOM     11  O   UNL     1      -5.248   7.643 -11.044  1.00  0.00    -0.550 OA
ENDBRANCH   7   9
ENDBRANCH   6   7
ENDBRANCH   5   6
ENDBRANCH   4   5
ENDBRANCH   3   4
ENDBRANCH   2   3
ENDBRANCH   1   2
BRANCH   1  12
ATOM     12  C   UNL     1      -2.847  10.636  -5.619  1.00  0.00     0.000 C 
BRANCH  12  13
ATOM     13  C   UNL     1      -2.039  11.912  -5.336  1.00  0.00    -0.000 C 
BRANCH  13  14
ATOM     14  C   UNL     1      -0.521  11.686  -5.429  1.00  0.00    -0.000 C 
BRANCH  14  15
ATOM     15  C   UNL     1       0.153  12.623  -6.446  1.00  0.00    -0.000 C 
BRANCH  15  16
ATOM     16  C   UNL     1       0.550  11.906  -7.750  1.00  0.00    -0.000 C 
BRANCH  16  17
ATOM     17  C   UNL     1       0.487  10.370  -7.695  1.00  0.00    -0.000 C 
BRANCH  17  18
ATOM     18  C   UNL     1       1.766   9.699  -8.218  1.00  0.00    -0.003 C 
ATOM     19  C   UNL     1       3.001  10.526  -7.871  1.00  0.00     0.004 C 
ENDBRANCH  17  18
ENDBRANCH  16  17
ENDBRANCH  15  16
ENDBRANCH  14  15
ENDBRANCH  13  14
ENDBRANCH  12  13
ENDBRANCH   1  12
TORSDOF 14
ENDMDL
MODEL 6
REMARK VINA RESULT:    -4.871      1.851      2.407
REMARK INTER + INTRA:         -10.489
REMARK INTER:                  -8.127
REMARK INTRA:                  -2.362
REMARK UNBOUND:                -1.632
REMARK SMILES CCCCCCCCCCCCCC[C@H](C)C(=O)[O-]
REMARK SMILES IDX 9 1 10 2 11 3 12 4 13 5 14 6 15 7 16 8 17 9 18 10 19 11 8 12
REMARK SMILES IDX 7 13 6 14 5 15 4 16 3 17 2 18 1 19
REMARK H PARENT
REMARK Flexibility Score: inf
ROOT
ATOM      1  C   UNL     1      -4.970  12.815  -8.569  1.00  0.00     0.000 C 
ENDROOT
BRANCH   1   2
ATOM      2  C   UNL     1      -4.679  12.826  -7.061  1.00  0.00     0.000 C 
BRANCH   2   3
ATOM      3  C   UNL     1      -3.292  12.256  -6.716  1.00  0.00     0.000 C 
BRANCH   3   4
ATOM      4  C   UNL     1      -2.954  10.905  -7.380  1.00  0.00     0.000 C 
BRANCH   4   5
ATOM      5  C   UNL     1      -1.731  10.920  -8.316  1.00  0.00     0.001 C 
BRANCH   5   6
ATOM      6  C   UNL     1      -0.859  12.176  -8.141  1.00  0.00     0.009 C 
BRANCH   6   7
ATOM      7  C   UNL     1       0.570  11.846  -7.659  1.00  0.00     0.032 C 
ATOM      8  C   UNL     1       0.951  10.380  -7.912  1.00  0.00     0.014 C 
BRANCH   7   9
ATOM      9  C   UNL     1       0.701  12.156  -6.193  1.00  0.00     0.044 C 
ATOM     10  O   UNL     1       1.521  13.024  -5.792  1.00  0.00    -0.550 OA
ATOM     11  O   UNL     1      -0.086  11.481  -5.268  1.00  0.00    -0.550 OA
ENDBRANCH   7   9
ENDBRANCH   6   7
ENDBRANCH   5   6
ENDBRANCH   4   5
ENDBRANCH   3   4
ENDBRANCH   2   3
ENDBRANCH   1   2
BRANCH   1  12
ATOM     12  C   UNL     1      -6.401  12.342  -8.849  1.00  0.00     0.000 C 
BRANCH  12  13
ATOM     13  C   UNL     1      -6.444  11.423 -10.081  1.00  0.00    -0.000 C 
BRANCH  13  14
ATOM     14  C   UNL     1      -5.071  10.822 -10.422  1.00  0.00    -0.000 C 
BRANCH  14  15
ATOM     15  C   UNL     1      -5.121   9.292 -10.581  1.00  0.00    -0.000 C 
BRANCH  15  16
ATOM     16  C   UNL     1      -4.675   8.543  -9.311  1.00  0.00    -0.000 C 
BRANCH  16  17
ATOM     17  C   UNL     1      -5.819   8.077  -8.393  1.00  0.00    -0.000 C 
BRANCH  17  18
ATOM     18  C   UNL     1      -6.077   9.037  -7.223  1.00  0.00    -0.003 C 
ATOM     19  C   UNL     1      -5.640   8.417  -5.898  1.00  0.00     0.004 C 
ENDBRANCH  17  18
ENDBRANCH  16  17
ENDBRANCH  15  16
ENDBRANCH  14  15
ENDBRANCH  13  14
ENDBRANCH  12  13
ENDBRANCH   1  12
TORSDOF 14
ENDMDL
MODEL 7
REMARK VINA RESULT:    -4.855      1.398      3.409
REMARK INTER + INTRA:         -10.460
REMARK INTER:                  -8.318
REMARK INTRA:                  -2.141
REMARK UNBOUND:                -1.632
REMARK SMILES CCCCCCCCCCCCCC[C@H](C)C(=O)[O-]
REMARK SMILES IDX 9 1 10 2 11 3 12 4 13 5 14 6 15 7 16 8 17 9 18 10 19 11 8 12
REMARK SMILES IDX 7 13 6 14 5 15 4 16 3 17 2 18 1 19
REMARK H PARENT
REMARK Flexibility Score: inf
ROOT
ATOM      1  C   UNL     1      -4.549   9.905 -10.752  1.00  0.00     0.000 C 
ENDROOT
BRANCH   1   2
ATOM      2  C   UNL     1      -4.119  11.214 -10.072  1.00  0.00     0.000 C 
BRANCH   2   3
ATOM      3  C   UNL     1      -2.691  11.152  -9.503  1.00  0.00     0.000 C 
BRANCH   3   4
ATOM      4  C   UNL     1      -2.320  12.293  -8.535  1.00  0.00     0.000 C 
BRANCH   4   5
ATOM      5  C   UNL     1      -0.891  12.234  -7.964  1.00  0.00     0.001 C 
BRANCH   5   6
ATOM      6  C   UNL     1      -0.411  10.795  -7.700  1.00  0.00     0.009 C 
BRANCH   6   7
ATOM      7  C   UNL     1       0.867  10.744  -6.835  1.00  0.00     0.032 C 
ATOM      8  C   UNL     1       1.172  12.089  -6.159  1.00  0.00     0.014 C 
BRANCH   7   9
ATOM      9  C   UNL     1       2.041  10.325  -7.678  1.00  0.00     0.044 C 
ATOM     10  O   UNL     1       1.874   9.595  -8.690  1.00  0.00    -0.550 OA
ATOM     11  O   UNL     1       3.322  10.745  -7.342  1.00  0.00    -0.550 OA
ENDBRANCH   7   9
ENDBRANCH   6   7
ENDBRANCH   5   6
ENDBRANCH   4   5
ENDBRANCH   3   4
ENDBRANCH   2   3
ENDBRANCH   1   2
BRANCH   1  12
ATOM     12  C   UNL     1      -3.927   8.692 -10.051  1.00  0.00     0.000 C 
BRANCH  12  13
ATOM     13  C   UNL     1      -4.997   7.637  -9.726  1.00  0.00    -0.000 C 
BRANCH  13  14
ATOM     14  C   UNL     1      -6.400   8.243  -9.568  1.00  0.00    -0.000 C 
BRANCH  14  15
ATOM     15  C   UNL     1      -6.738   8.574  -8.104  1.00  0.00    -0.000 C 
BRANCH  15  16
ATOM     16  C   UNL     1      -6.800  10.088  -7.830  1.00  0.00    -0.000 C 
BRANCH  16  17
ATOM     17  C   UNL     1      -5.970  10.569  -6.627  1.00  0.00    -0.000 C 
BRANCH  17  18
ATOM     18  C   UNL     1      -4.568   9.945  -6.579  1.00  0.00    -0.003 C 
ATOM     19  C   UNL     1      -3.712  10.600  -5.497  1.00  0.00     0.004 C 
ENDBRANCH  17  18
ENDBRANCH  16  17
ENDBRANCH  15  16
ENDBRANCH  14  15
ENDBRANCH  13  14
ENDBRANCH  12  13
ENDBRANCH   1  12
TORSDOF 14
ENDMDL
MODEL 8
REMARK VINA RESULT:    -4.849      1.582      3.654
REMARK INTER + INTRA:         -10.449
REMARK INTER:                  -8.684
REMARK INTRA:                  -1.765
REMARK UNBOUND:                -1.632
REMARK SMILES CCCCCCCCCCCCCC[C@H](C)C(=O)[O-]
REMARK SMILES IDX 9 1 10 2 11 3 12 4 13 5 14 6 15 7 16 8 17 9 18 10 19 11 8 12
REMARK SMILES IDX 7 13 6 14 5 15 4 16 3 17 2 18 1 19
REMARK H PARENT
REMARK Flexibility Score: inf
ROOT
ATOM      1  C   UNL     1      -4.265   9.447 -10.198  1.00  0.00     0.000 C 
ENDROOT
BRANCH   1   2
ATOM      2  C   UNL     1      -3.666  10.850 -10.017  1.00  0.00     0.000 C 
BRANCH   2   3
ATOM      3  C   UNL     1      -2.551  10.892  -8.958  1.00  0.00     0.000 C 
BRANCH   3   4
ATOM      4  C   UNL     1      -2.100  12.306  -8.536  1.00  0.00     0.000 C 
BRANCH   4   5
ATOM      5  C   UNL     1      -0.716  12.382  -7.865  1.00  0.00     0.001 C 
BRANCH   5   6
ATOM      6  C   UNL     1      -0.047  11.004  -7.715  1.00  0.00     0.009 C 
BRANCH   6   7
ATOM      7  C   UNL     1       1.492  11.074  -7.831  1.00  0.00     0.032 C 
ATOM      8  C   UNL     1       2.087   9.824  -8.496  1.00  0.00     0.014 C 
BRANCH   7   9
ATOM      9  C   UNL     1       2.102  11.260  -6.469  1.00  0.00     0.044 C 
ATOM     10  O   UNL     1       3.353  11.259  -6.322  1.00  0.00    -0.550 OA
ATOM     11  O   UNL     1       1.283  11.435  -5.359  1.00  0.00    -0.550 OA
ENDBRANCH   7   9
ENDBRANCH   6   7
ENDBRANCH   5   6
ENDBRANCH   4   5
ENDBRANCH   3   4
ENDBRANCH   2   3
ENDBRANCH   1   2
BRANCH   1  12
ATOM     12  C   UNL     1      -5.782   9.519 -10.405  1.00  0.00     0.000 C 
BRANCH  12  13
ATOM     13  C   UNL     1      -6.516   8.609  -9.408  1.00  0.00    -0.000 C 
BRANCH  13  14
ATOM     14  C   UNL     1      -5.622   8.163  -8.240  1.00  0.00    -0.000 C 
BRANCH  14  15
ATOM     15  C   UNL     1      -6.037   8.800  -6.902  1.00  0.00    -0.000 C 
BRANCH  15  16
ATOM     16  C   UNL     1      -5.736  10.309  -6.838  1.00  0.00    -0.000 C 
BRANCH  16  17
ATOM     17  C   UNL     1      -6.930  11.227  -7.157  1.00  0.00    -0.000 C 
BRANCH  17  18
ATOM     18  C   UNL     1      -6.583  12.332  -8.165  1.00  0.00    -0.003 C 
ATOM     19  C   UNL     1      -5.478  13.238  -7.629  1.00  0.00     0.004 C 
ENDBRANCH  17  18
ENDBRANCH  16  17
ENDBRANCH  15  16
ENDBRANCH  14  15
ENDBRANCH  13  14
ENDBRANCH  12  13
ENDBRANCH   1  12
TORSDOF 14
ENDMDL
MODEL 9
REMARK VINA RESULT:    -4.833      1.910      2.722
REMARK INTER + INTRA:         -10.421
REMARK INTER:                  -8.181
REMARK INTRA:                  -2.240
REMARK UNBOUND:                -1.632
REMARK SMILES CCCCCCCCCCCCCC[C@H](C)C(=O)[O-]
REMARK SMILES IDX 9 1 10 2 11 3 12 4 13 5 14 6 15 7 16 8 17 9 18 10 19 11 8 12
REMARK SMILES IDX 7 13 6 14 5 15 4 16 3 17 2 18 1 19
REMARK H PARENT
REMARK Flexibility Score: inf
ROOT
ATOM      1  C   UNL     1      -3.877  11.042  -6.968  1.00  0.00     0.000 C 
ENDROOT
BRANCH   1   2
ATOM      2  C   UNL     1      -3.376  12.389  -7.510  1.00  0.00     0.000 C 
BRANCH   2   3
ATOM      3  C   UNL     1      -2.163  12.244  -8.445  1.00  0.00     0.000 C 
BRANCH   3   4
ATOM      4  C   UNL     1      -1.491  10.855  -8.437  1.00  0.00     0.000 C 
BRANCH   4   5
ATOM      5  C   UNL     1      -0.085  10.808  -7.812  1.00  0.00     0.001 C 
BRANCH   5   6
ATOM      6  C   UNL     1       0.342  12.152  -7.195  1.00  0.00     0.009 C 
BRANCH   6   7
ATOM      7  C   UNL     1       0.518  12.075  -5.663  1.00  0.00     0.032 C 
ATOM      8  C   UNL     1      -0.774  11.655  -4.945  1.00  0.00     0.014 C 
BRANCH   7   9
ATOM      9  C   UNL     1       0.981  13.404  -5.131  1.00  0.00     0.044 C 
ATOM     10  O   UNL     1       2.209  13.674  -5.065  1.00  0.00    -0.550 OA
ATOM     11  O   UNL     1       0.050  14.346  -4.710  1.00  0.00    -0.550 OA
ENDBRANCH   7   9
ENDBRANCH   6   7
ENDBRANCH   5   6
ENDBRANCH   4   5
ENDBRANCH   3   4
ENDBRANCH   2   3
ENDBRANCH   1   2
BRANCH   1  12
ATOM     12  C   UNL     1      -5.408  10.982  -6.973  1.00  0.00     0.000 C 
BRANCH  12  13
ATOM     13  C   UNL     1      -5.987  11.820  -8.124  1.00  0.00    -0.000 C 
BRANCH  13  14
ATOM     14  C   UNL     1      -7.032  11.052  -8.950  1.00  0.00    -0.000 C 
BRANCH  14  15
ATOM     15  C   UNL     1      -6.522  10.691 -10.357  1.00  0.00    -0.000 C 
BRANCH  15  16
ATOM     16  C   UNL     1      -5.012  10.939 -10.529  1.00  0.00    -0.000 C 
BRANCH  16  17
ATOM     17  C   UNL     1      -4.162   9.674 -10.740  1.00  0.00    -0.000 C 
BRANCH  17  18
ATOM     18  C   UNL     1      -4.594   8.505  -9.844  1.00  0.00    -0.003 C 
ATOM     19  C   UNL     1      -5.026   7.302 -10.678  1.00  0.00     0.004 C 
ENDBRANCH  17  18
ENDBRANCH  16  17
ENDBRANCH  15  16
ENDBRANCH  14  15
ENDBRANCH  13  14
ENDBRANCH  12  13
ENDBRANCH   1  12
TORSDOF 14
ENDMDL
