MODEL 1
REMARK VINA RESULT:    -8.089      0.000      0.000
REMARK INTER + INTRA:         -11.661
REMARK INTER:                 -10.926
REMARK INTRA:                  -0.735
REMARK UNBOUND:                -0.735
REMARK SMILES O=c1c(-c2ccc(O)cc2)coc2c([C@@H]3O[C@@H](CO)[C@H](O)[C@H](O)[C@H]3O)c(O)ccc12
REMARK SMILES IDX 3 1 11 2 12 3 13 4 30 5 2 6 1 7 29 8 28 9 26 10 14 11 4 12
REMARK SMILES IDX 5 13 6 14 7 15 10 16 9 17 8 18 15 20 24 21 16 22 22 23 17 24
REMARK SMILES IDX 20 25 25 26 23 28 18 30 19 31 21 33 27 35
REMARK H PARENT 8 19 25 27 23 29 19 32 21 34 27 36
REMARK Flexibility Score: inf
ROOT
ATOM      1  C   UNL     1      31.383  11.752  20.000  1.00  0.00     0.065 A 
ATOM      2  C   UNL     1      32.132  12.632  20.816  1.00  0.00     0.208 A 
ATOM      3  O   UNL     1      33.257  12.205  21.388  1.00  0.00    -0.463 OA
ATOM      4  C   UNL     1      33.643  10.939  21.284  1.00  0.00     0.147 A 
ATOM      5  C   UNL     1      32.703   9.956  20.936  1.00  0.00     0.066 A 
ATOM      6  C   UNL     1      31.596  10.372  20.168  1.00  0.00     0.200 A 
ATOM      7  O   UNL     1      30.854   9.537  19.583  1.00  0.00    -0.288 OA
ATOM      8  C   UNL     1      33.059   8.608  21.093  1.00  0.00     0.020 A 
ATOM      9  C   UNL     1      34.365   8.273  21.466  1.00  0.00     0.047 A 
ATOM     10  C   UNL     1      35.361   9.261  21.499  1.00  0.00     0.125 A 
ATOM     11  C   UNL     1      35.007  10.610  21.252  1.00  0.00     0.069 A 
ENDROOT
BRANCH   1  12
ATOM     12  C   UNL     1      30.729  12.263  18.758  1.00  0.00    -0.011 A 
ATOM     13  C   UNL     1      30.424  13.643  18.633  1.00  0.00     0.013 A 
ATOM     14  C   UNL     1      29.787  14.123  17.486  1.00  0.00     0.047 A 
ATOM     15  C   UNL     1      29.470  13.240  16.443  1.00  0.00     0.115 A 
ATOM     16  C   UNL     1      30.354  11.376  17.728  1.00  0.00     0.013 A 
ATOM     17  C   UNL     1      29.762  11.874  16.564  1.00  0.00     0.047 A 
BRANCH  15  18
ATOM     18  O   UNL     1      28.885  13.704  15.268  1.00  0.00    -0.508 OA
ATOM     19  H   UNL     1      28.163  14.413  15.283  1.00  0.00     0.293 HD
ENDBRANCH  15  18
ENDBRANCH   1  12
BRANCH  11  20
ATOM     20  C   UNL     1      35.872  11.580  20.436  1.00  0.00     0.188 C 
ATOM     21  C   UNL     1      36.668  12.630  21.265  1.00  0.00     0.179 C 
ATOM     22  O   UNL     1      36.809  10.783  19.696  1.00  0.00    -0.362 OA
ATOM     23  C   UNL     1      37.942  13.125  20.523  1.00  0.00     0.177 C 
ATOM     24  C   UNL     1      37.481  11.470  18.653  1.00  0.00     0.176 C 
ATOM     25  C   UNL     1      37.762  12.962  19.007  1.00  0.00     0.177 C 
BRANCH  21  26
ATOM     26  O   UNL     1      35.838  13.713  21.618  1.00  0.00    -0.387 OA
ATOM     27  H   UNL     1      36.412  14.521  21.678  1.00  0.00     0.211 HD
ENDBRANCH  21  26
BRANCH  23  28
ATOM     28  O   UNL     1      39.053  12.377  20.957  1.00  0.00    -0.387 OA
ATOM     29  H   UNL     1      39.058  11.521  20.460  1.00  0.00     0.211 HD
ENDBRANCH  23  28
BRANCH  24  30
ATOM     30  C   UNL     1      36.757  11.293  17.303  1.00  0.00     0.191 C 
BRANCH  30  31
ATOM     31  O   UNL     1      36.005  10.103  17.272  1.00  0.00    -0.394 OA
ATOM     32  H   UNL     1      35.135  10.316  17.709  1.00  0.00     0.210 HD
ENDBRANCH  30  31
ENDBRANCH  24  30
BRANCH  25  33
ATOM     33  O   UNL     1      38.862  13.478  18.299  1.00  0.00    -0.388 OA
ATOM     34  H   UNL     1      39.577  13.677  18.960  1.00  0.00     0.211 HD
ENDBRANCH  25  33
ENDBRANCH  11  20
BRANCH  10  35
ATOM     35  O   UNL     1      36.676   8.896  21.743  1.00  0.00    -0.507 OA
ATOM     36  H   UNL     1      37.277   8.557  21.004  1.00  0.00     0.293 HD
ENDBRANCH  10  35
TORSDOF 9
ENDMDL
MODEL 2
REMARK VINA RESULT:    -7.788      1.495      1.943
REMARK INTER + INTRA:         -11.255
REMARK INTER:                 -10.641
REMARK INTRA:                  -0.614
REMARK UNBOUND:                -0.735
REMARK SMILES O=c1c(-c2ccc(O)cc2)coc2c([C@@H]3O[C@@H](CO)[C@H](O)[C@H](O)[C@H]3O)c(O)ccc12
REMARK SMILES IDX 3 1 11 2 12 3 13 4 30 5 2 6 1 7 29 8 28 9 26 10 14 11 4 12
REMARK SMILES IDX 5 13 6 14 7 15 10 16 9 17 8 18 15 20 24 21 16 22 22 23 17 24
REMARK SMILES IDX 20 25 25 26 23 28 18 30 19 31 21 33 27 35
REMARK H PARENT 8 19 25 27 23 29 19 32 21 34 27 36
REMARK Flexibility Score: inf
ROOT
ATOM      1  C   UNL     1      32.426  10.335  20.602  1.00  0.00     0.065 A 
ATOM      2  C   UNL     1      32.705  11.556  21.259  1.00  0.00     0.208 A 
ATOM      3  O   UNL     1      33.877  11.722  21.872  1.00  0.00    -0.463 OA
ATOM      4  C   UNL     1      34.753  10.728  21.959  1.00  0.00     0.147 A 
ATOM      5  C   UNL     1      34.320   9.405  21.783  1.00  0.00     0.066 A 
ATOM      6  C   UNL     1      33.178   9.207  20.978  1.00  0.00     0.200 A 
ATOM      7  O   UNL     1      32.875   8.064  20.541  1.00  0.00    -0.288 OA
ATOM      8  C   UNL     1      35.190   8.365  22.141  1.00  0.00     0.020 A 
ATOM      9  C   UNL     1      36.498   8.658  22.540  1.00  0.00     0.047 A 
ATOM     10  C   UNL     1      36.997   9.963  22.403  1.00  0.00     0.125 A 
ATOM     11  C   UNL     1      36.132  10.992  21.955  1.00  0.00     0.069 A 
ENDROOT
BRANCH   1  12
ATOM     12  C   UNL     1      31.682  10.340  19.306  1.00  0.00    -0.011 A 
ATOM     13  C   UNL     1      30.771  11.388  19.015  1.00  0.00     0.013 A 
ATOM     14  C   UNL     1      30.052  11.385  17.818  1.00  0.00     0.047 A 
ATOM     15  C   UNL     1      30.248  10.352  16.889  1.00  0.00     0.115 A 
ATOM     16  C   UNL     1      31.828   9.277  18.391  1.00  0.00     0.013 A 
ATOM     17  C   UNL     1      31.140   9.309  17.174  1.00  0.00     0.047 A 
BRANCH  15  18
ATOM     18  O   UNL     1      29.583  10.356  15.666  1.00  0.00    -0.508 OA
ATOM     19  H   UNL     1      28.590  10.167  15.605  1.00  0.00     0.293 HD
ENDBRANCH  15  18
ENDBRANCH   1  12
BRANCH  11  20
ATOM     20  C   UNL     1      36.561  12.100  20.985  1.00  0.00     0.188 C 
ATOM     21  C   UNL     1      37.075  13.412  21.649  1.00  0.00     0.179 C 
ATOM     22  O   UNL     1      37.615  11.561  20.175  1.00  0.00    -0.362 OA
ATOM     23  C   UNL     1      38.046  14.201  20.724  1.00  0.00     0.177 C 
ATOM     24  C   UNL     1      37.927  12.323  19.019  1.00  0.00     0.176 C 
ATOM     25  C   UNL     1      37.766  13.855  19.255  1.00  0.00     0.177 C 
BRANCH  21  26
ATOM     26  O   UNL     1      35.992  14.220  22.048  1.00  0.00    -0.387 OA
ATOM     27  H   UNL     1      35.167  13.670  21.977  1.00  0.00     0.211 HD
ENDBRANCH  21  26
BRANCH  23  28
ATOM     28  O   UNL     1      39.374  13.865  21.051  1.00  0.00    -0.387 OA
ATOM     29  H   UNL     1      39.943  14.077  20.269  1.00  0.00     0.211 HD
ENDBRANCH  23  28
BRANCH  24  30
ATOM     30  C   UNL     1      37.154  11.815  17.784  1.00  0.00     0.191 C 
BRANCH  30  31
ATOM     31  O   UNL     1      36.412  10.656  18.079  1.00  0.00    -0.394 OA
ATOM     32  H   UNL     1      36.783  10.302  18.934  1.00  0.00     0.210 HD
ENDBRANCH  30  31
ENDBRANCH  24  30
BRANCH  25  33
ATOM     33  O   UNL     1      38.569  14.614  18.386  1.00  0.00    -0.388 OA
ATOM     34  H   UNL     1      37.971  15.229  17.885  1.00  0.00     0.211 HD
ENDBRANCH  25  33
ENDBRANCH  11  20
BRANCH  10  35
ATOM     35  O   UNL     1      38.331  10.215  22.679  1.00  0.00    -0.507 OA
ATOM     36  H   UNL     1      39.064   9.595  22.360  1.00  0.00     0.293 HD
ENDBRANCH  10  35
TORSDOF 9
ENDMDL
MODEL 3
REMARK VINA RESULT:    -7.694      1.195      2.356
REMARK INTER + INTRA:         -11.127
REMARK INTER:                 -10.861
REMARK INTRA:                  -0.266
REMARK UNBOUND:                -0.735
REMARK SMILES O=c1c(-c2ccc(O)cc2)coc2c([C@@H]3O[C@@H](CO)[C@H](O)[C@H](O)[C@H]3O)c(O)ccc12
REMARK SMILES IDX 3 1 11 2 12 3 13 4 30 5 2 6 1 7 29 8 28 9 26 10 14 11 4 12
REMARK SMILES IDX 5 13 6 14 7 15 10 16 9 17 8 18 15 20 24 21 16 22 22 23 17 24
REMARK SMILES IDX 20 25 25 26 23 28 18 30 19 31 21 33 27 35
REMARK H PARENT 8 19 25 27 23 29 19 32 21 34 27 36
REMARK Flexibility Score: inf
ROOT
ATOM      1  C   UNL     1      31.166  11.444  20.131  1.00  0.00     0.065 A 
ATOM      2  C   UNL     1      32.133  12.144  20.889  1.00  0.00     0.208 A 
ATOM      3  O   UNL     1      33.113  11.472  21.491  1.00  0.00    -0.463 OA
ATOM      4  C   UNL     1      33.148  10.145  21.471  1.00  0.00     0.147 A 
ATOM      5  C   UNL     1      31.977   9.425  21.187  1.00  0.00     0.066 A 
ATOM      6  C   UNL     1      31.008  10.070  20.391  1.00  0.00     0.200 A 
ATOM      7  O   UNL     1      30.062   9.426  19.860  1.00  0.00    -0.288 OA
ATOM      8  C   UNL     1      31.966   8.045  21.433  1.00  0.00     0.020 A 
ATOM      9  C   UNL     1      33.142   7.399  21.831  1.00  0.00     0.047 A 
ATOM     10  C   UNL     1      34.364   8.088  21.801  1.00  0.00     0.125 A 
ATOM     11  C   UNL     1      34.376   9.465  21.464  1.00  0.00     0.069 A 
ENDROOT
BRANCH   1  12
ATOM     12  C   UNL     1      30.652  12.029  18.857  1.00  0.00    -0.011 A 
ATOM     13  C   UNL     1      30.451  11.198  17.724  1.00  0.00     0.013 A 
ATOM     14  C   UNL     1      29.997  11.744  16.521  1.00  0.00     0.047 A 
ATOM     15  C   UNL     1      29.715  13.115  16.440  1.00  0.00     0.115 A 
ATOM     16  C   UNL     1      30.419  13.416  18.747  1.00  0.00     0.013 A 
ATOM     17  C   UNL     1      29.917  13.943  17.553  1.00  0.00     0.047 A 
BRANCH  15  18
ATOM     18  O   UNL     1      29.209  13.672  15.268  1.00  0.00    -0.508 OA
ATOM     19  H   UNL     1      29.724  14.375  14.753  1.00  0.00     0.293 HD
ENDBRANCH  15  18
ENDBRANCH   1  12
BRANCH  11  20
ATOM     20  C   UNL     1      35.455  10.115  20.588  1.00  0.00     0.188 C 
ATOM     21  C   UNL     1      34.931  10.890  19.344  1.00  0.00     0.179 C 
ATOM     22  O   UNL     1      36.174  11.034  21.424  1.00  0.00    -0.362 OA
ATOM     23  C   UNL     1      35.916  12.004  18.885  1.00  0.00     0.177 C 
ATOM     24  C   UNL     1      37.401  11.497  20.882  1.00  0.00     0.176 C 
ATOM     25  C   UNL     1      37.343  11.658  19.332  1.00  0.00     0.177 C 
BRANCH  21  26
ATOM     26  O   UNL     1      34.652   9.999  18.288  1.00  0.00    -0.387 OA
ATOM     27  H   UNL     1      35.014  10.401  17.455  1.00  0.00     0.211 HD
ENDBRANCH  21  26
BRANCH  23  28
ATOM     28  O   UNL     1      35.522  13.233  19.447  1.00  0.00    -0.387 OA
ATOM     29  H   UNL     1      35.292  13.075  20.398  1.00  0.00     0.211 HD
ENDBRANCH  23  28
BRANCH  24  30
ATOM     30  C   UNL     1      38.588  10.636  21.358  1.00  0.00     0.191 C 
BRANCH  30  31
ATOM     31  O   UNL     1      39.790  11.369  21.360  1.00  0.00    -0.394 OA
ATOM     32  H   UNL     1      40.372  10.945  20.670  1.00  0.00     0.210 HD
ENDBRANCH  30  31
ENDBRANCH  24  30
BRANCH  25  33
ATOM     33  O   UNL     1      38.273  12.602  18.862  1.00  0.00    -0.388 OA
ATOM     34  H   UNL     1      37.872  13.049  18.070  1.00  0.00     0.211 HD
ENDBRANCH  25  33
ENDBRANCH  11  20
BRANCH  10  35
ATOM     35  O   UNL     1      35.539   7.404  22.072  1.00  0.00    -0.507 OA
ATOM     36  H   UNL     1      36.143   7.673  22.838  1.00  0.00     0.293 HD
ENDBRANCH  10  35
TORSDOF 9
ENDMDL
MODEL 4
REMARK VINA RESULT:    -7.556      1.258      1.858
REMARK INTER + INTRA:         -10.941
REMARK INTER:                 -10.852
REMARK INTRA:                  -0.089
REMARK UNBOUND:                -0.735
REMARK SMILES O=c1c(-c2ccc(O)cc2)coc2c([C@@H]3O[C@@H](CO)[C@H](O)[C@H](O)[C@H]3O)c(O)ccc12
REMARK SMILES IDX 3 1 11 2 12 3 13 4 30 5 2 6 1 7 29 8 28 9 26 10 14 11 4 12
REMARK SMILES IDX 5 13 6 14 7 15 10 16 9 17 8 18 15 20 24 21 16 22 22 23 17 24
REMARK SMILES IDX 20 25 25 26 23 28 18 30 19 31 21 33 27 35
REMARK H PARENT 8 19 25 27 23 29 19 32 21 34 27 36
REMARK Flexibility Score: inf
ROOT
ATOM      1  C   UNL     1      31.207  11.226  19.946  1.00  0.00     0.065 A 
ATOM      2  C   UNL     1      31.710  11.990  21.025  1.00  0.00     0.208 A 
ATOM      3  O   UNL     1      32.773  11.555  21.702  1.00  0.00    -0.463 OA
ATOM      4  C   UNL     1      33.315  10.371  21.443  1.00  0.00     0.147 A 
ATOM      5  C   UNL     1      32.563   9.399  20.766  1.00  0.00     0.066 A 
ATOM      6  C   UNL     1      31.549   9.862  19.901  1.00  0.00     0.200 A 
ATOM      7  O   UNL     1      31.010   9.097  19.055  1.00  0.00    -0.288 OA
ATOM      8  C   UNL     1      33.043   8.082  20.740  1.00  0.00     0.020 A 
ATOM      9  C   UNL     1      34.304   7.791  21.272  1.00  0.00     0.047 A 
ATOM     10  C   UNL     1      35.161   8.834  21.655  1.00  0.00     0.125 A 
ATOM     11  C   UNL     1      34.696  10.172  21.594  1.00  0.00     0.069 A 
ENDROOT
BRANCH   1  12
ATOM     12  C   UNL     1      30.701  11.912  18.720  1.00  0.00    -0.011 A 
ATOM     13  C   UNL     1      30.476  13.313  18.732  1.00  0.00     0.013 A 
ATOM     14  C   UNL     1      29.977  13.957  17.597  1.00  0.00     0.047 A 
ATOM     15  C   UNL     1      29.721  13.218  16.432  1.00  0.00     0.115 A 
ATOM     16  C   UNL     1      30.386  11.171  17.562  1.00  0.00     0.013 A 
ATOM     17  C   UNL     1      29.934  11.832  16.416  1.00  0.00     0.047 A 
BRANCH  15  18
ATOM     18  O   UNL     1      29.275  13.846  15.272  1.00  0.00    -0.508 OA
ATOM     19  H   UNL     1      29.460  14.826  15.099  1.00  0.00     0.293 HD
ENDBRANCH  15  18
ENDBRANCH   1  12
BRANCH  11  20
ATOM     20  C   UNL     1      35.560  11.351  21.129  1.00  0.00     0.188 C 
ATOM     21  C   UNL     1      37.054  11.017  20.843  1.00  0.00     0.179 C 
ATOM     22  O   UNL     1      34.969  11.852  19.922  1.00  0.00    -0.362 OA
ATOM     23  C   UNL     1      37.694  12.001  19.822  1.00  0.00     0.177 C 
ATOM     24  C   UNL     1      35.438  13.127  19.514  1.00  0.00     0.176 C 
ATOM     25  C   UNL     1      36.946  13.342  19.848  1.00  0.00     0.177 C 
BRANCH  21  26
ATOM     26  O   UNL     1      37.792  10.986  22.043  1.00  0.00    -0.387 OA
ATOM     27  H   UNL     1      37.658  11.860  22.497  1.00  0.00     0.211 HD
ENDBRANCH  21  26
BRANCH  23  28
ATOM     28  O   UNL     1      37.628  11.441  18.533  1.00  0.00    -0.387 OA
ATOM     29  H   UNL     1      36.694  11.515  18.214  1.00  0.00     0.211 HD
ENDBRANCH  23  28
BRANCH  24  30
ATOM     30  C   UNL     1      34.533  14.257  20.044  1.00  0.00     0.191 C 
BRANCH  30  31
ATOM     31  O   UNL     1      34.725  15.454  19.326  1.00  0.00    -0.394 OA
ATOM     32  H   UNL     1      34.202  16.151  19.810  1.00  0.00     0.210 HD
ENDBRANCH  30  31
ENDBRANCH  24  30
BRANCH  25  33
ATOM     33  O   UNL     1      37.550  14.285  18.998  1.00  0.00    -0.388 OA
ATOM     34  H   UNL     1      38.534  14.177  19.082  1.00  0.00     0.211 HD
ENDBRANCH  25  33
ENDBRANCH  11  20
BRANCH  10  35
ATOM     35  O   UNL     1      36.454   8.541  22.059  1.00  0.00    -0.507 OA
ATOM     36  H   UNL     1      36.835   8.909  22.921  1.00  0.00     0.293 HD
ENDBRANCH  10  35
TORSDOF 9
ENDMDL
MODEL 5
REMARK VINA RESULT:    -7.457      1.752      2.757
REMARK INTER + INTRA:         -10.808
REMARK INTER:                 -10.467
REMARK INTRA:                  -0.342
REMARK UNBOUND:                -0.735
REMARK SMILES O=c1c(-c2ccc(O)cc2)coc2c([C@@H]3O[C@@H](CO)[C@H](O)[C@H](O)[C@H]3O)c(O)ccc12
REMARK SMILES IDX 3 1 11 2 12 3 13 4 30 5 2 6 1 7 29 8 28 9 26 10 14 11 4 12
REMARK SMILES IDX 5 13 6 14 7 15 10 16 9 17 8 18 15 20 24 21 16 22 22 23 17 24
REMARK SMILES IDX 20 25 25 26 23 28 18 30 19 31 21 33 27 35
REMARK H PARENT 8 19 25 27 23 29 19 32 21 34 27 36
REMARK Flexibility Score: inf
ROOT
ATOM      1  C   UNL     1      32.429  10.230  20.779  1.00  0.00     0.065 A 
ATOM      2  C   UNL     1      33.068  11.422  21.192  1.00  0.00     0.208 A 
ATOM      3  O   UNL     1      34.280  11.364  21.744  1.00  0.00    -0.463 OA
ATOM      4  C   UNL     1      34.863  10.199  22.000  1.00  0.00     0.147 A 
ATOM      5  C   UNL     1      34.080   9.037  22.082  1.00  0.00     0.066 A 
ATOM      6  C   UNL     1      32.877   9.023  21.347  1.00  0.00     0.200 A 
ATOM      7  O   UNL     1      32.250   7.948  21.137  1.00  0.00    -0.288 OA
ATOM      8  C   UNL     1      34.663   7.877  22.614  1.00  0.00     0.020 A 
ATOM      9  C   UNL     1      36.025   7.865  22.930  1.00  0.00     0.047 A 
ATOM     10  C   UNL     1      36.845   8.937  22.544  1.00  0.00     0.125 A 
ATOM     11  C   UNL     1      36.258  10.070  21.925  1.00  0.00     0.069 A 
ENDROOT
BRANCH   1  12
ATOM     12  C   UNL     1      31.629  10.212  19.518  1.00  0.00    -0.011 A 
ATOM     13  C   UNL     1      30.404  10.923  19.444  1.00  0.00     0.013 A 
ATOM     14  C   UNL     1      29.637  10.888  18.278  1.00  0.00     0.047 A 
ATOM     15  C   UNL     1      30.091  10.166  17.165  1.00  0.00     0.115 A 
ATOM     16  C   UNL     1      32.048   9.442  18.413  1.00  0.00     0.013 A 
ATOM     17  C   UNL     1      31.298   9.454  17.234  1.00  0.00     0.047 A 
BRANCH  15  18
ATOM     18  O   UNL     1      29.372  10.161  15.973  1.00  0.00    -0.508 OA
ATOM     19  H   UNL     1      28.535   9.601  15.866  1.00  0.00     0.293 HD
ENDBRANCH  15  18
ENDBRANCH   1  12
BRANCH  11  20
ATOM     20  C   UNL     1      36.902  10.829  20.758  1.00  0.00     0.188 C 
ATOM     21  C   UNL     1      35.949  11.182  19.579  1.00  0.00     0.179 C 
ATOM     22  O   UNL     1      37.430  12.051  21.295  1.00  0.00    -0.362 OA
ATOM     23  C   UNL     1      36.433  12.426  18.781  1.00  0.00     0.177 C 
ATOM     24  C   UNL     1      38.331  12.737  20.440  1.00  0.00     0.176 C 
ATOM     25  C   UNL     1      37.952  12.589  18.935  1.00  0.00     0.177 C 
BRANCH  21  26
ATOM     26  O   UNL     1      35.784  10.071  18.728  1.00  0.00    -0.387 OA
ATOM     27  H   UNL     1      35.794  10.408  17.793  1.00  0.00     0.211 HD
ENDBRANCH  21  26
BRANCH  23  28
ATOM     28  O   UNL     1      35.777  13.573  19.266  1.00  0.00    -0.387 OA
ATOM     29  H   UNL     1      35.369  13.346  20.139  1.00  0.00     0.211 HD
ENDBRANCH  23  28
BRANCH  24  30
ATOM     30  C   UNL     1      39.794  12.351  20.737  1.00  0.00     0.191 C 
BRANCH  30  31
ATOM     31  O   UNL     1      39.872  11.273  21.639  1.00  0.00    -0.394 OA
ATOM     32  H   UNL     1      38.937  11.095  21.936  1.00  0.00     0.210 HD
ENDBRANCH  30  31
ENDBRANCH  24  30
BRANCH  25  33
ATOM     33  O   UNL     1      38.437  13.656  18.158  1.00  0.00    -0.388 OA
ATOM     34  H   UNL     1      38.102  14.498  18.564  1.00  0.00     0.211 HD
ENDBRANCH  25  33
ENDBRANCH  11  20
BRANCH  10  35
ATOM     35  O   UNL     1      38.213   8.857  22.746  1.00  0.00    -0.507 OA
ATOM     36  H   UNL     1      38.768   8.123  22.326  1.00  0.00     0.293 HD
ENDBRANCH  10  35
TORSDOF 9
ENDMDL
MODEL 6
REMARK VINA RESULT:    -7.180      1.875      6.741
REMARK INTER + INTRA:         -10.433
REMARK INTER:                  -9.230
REMARK INTRA:                  -1.203
REMARK UNBOUND:                -0.735
REMARK SMILES O=c1c(-c2ccc(O)cc2)coc2c([C@@H]3O[C@@H](CO)[C@H](O)[C@H](O)[C@H]3O)c(O)ccc12
REMARK SMILES IDX 3 1 11 2 12 3 13 4 30 5 2 6 1 7 29 8 28 9 26 10 14 11 4 12
REMARK SMILES IDX 5 13 6 14 7 15 10 16 9 17 8 18 15 20 24 21 16 22 22 23 17 24
REMARK SMILES IDX 20 25 25 26 23 28 18 30 19 31 21 33 27 35
REMARK H PARENT 8 19 25 27 23 29 19 32 21 34 27 36
REMARK Flexibility Score: inf
ROOT
ATOM      1  C   UNL     1      36.676  10.836  20.084  1.00  0.00     0.065 A 
ATOM      2  C   UNL     1      36.056  10.583  18.839  1.00  0.00     0.208 A 
ATOM      3  O   UNL     1      34.907   9.909  18.799  1.00  0.00    -0.463 OA
ATOM      4  C   UNL     1      34.378   9.388  19.900  1.00  0.00     0.147 A 
ATOM      5  C   UNL     1      35.189   9.177  21.025  1.00  0.00     0.066 A 
ATOM      6  C   UNL     1      36.314  10.016  21.169  1.00  0.00     0.200 A 
ATOM      7  O   UNL     1      36.940  10.091  22.262  1.00  0.00    -0.288 OA
ATOM      8  C   UNL     1      34.688   8.388  22.070  1.00  0.00     0.020 A 
ATOM      9  C   UNL     1      33.364   7.938  22.029  1.00  0.00     0.047 A 
ATOM     10  C   UNL     1      32.488   8.427  21.048  1.00  0.00     0.125 A 
ATOM     11  C   UNL     1      32.985   9.296  20.045  1.00  0.00     0.069 A 
ENDROOT
BRANCH   1  12
ATOM     12  C   UNL     1      37.348  12.148  20.329  1.00  0.00    -0.011 A 
ATOM     13  C   UNL     1      36.572  13.327  20.469  1.00  0.00     0.013 A 
ATOM     14  C   UNL     1      37.194  14.561  20.671  1.00  0.00     0.047 A 
ATOM     15  C   UNL     1      38.592  14.631  20.759  1.00  0.00     0.115 A 
ATOM     16  C   UNL     1      38.755  12.238  20.362  1.00  0.00     0.013 A 
ATOM     17  C   UNL     1      39.366  13.470  20.614  1.00  0.00     0.047 A 
BRANCH  15  18
ATOM     18  O   UNL     1      39.233  15.841  21.014  1.00  0.00    -0.508 OA
ATOM     19  H   UNL     1      39.203  16.269  21.930  1.00  0.00     0.293 HD
ENDBRANCH  15  18
ENDBRANCH   1  12
BRANCH  11  20
ATOM     20  C   UNL     1      32.211  10.509  19.513  1.00  0.00     0.188 C 
ATOM     21  C   UNL     1      31.041  10.185  18.539  1.00  0.00     0.179 C 
ATOM     22  O   UNL     1      31.675  11.195  20.654  1.00  0.00    -0.362 OA
ATOM     23  C   UNL     1      29.948  11.292  18.540  1.00  0.00     0.177 C 
ATOM     24  C   UNL     1      31.197  12.505  20.390  1.00  0.00     0.176 C 
ATOM     25  C   UNL     1      30.561  12.632  18.972  1.00  0.00     0.177 C 
BRANCH  21  26
ATOM     26  O   UNL     1      31.530   9.962  17.237  1.00  0.00    -0.387 OA
ATOM     27  H   UNL     1      32.152  10.706  17.020  1.00  0.00     0.211 HD
ENDBRANCH  21  26
BRANCH  23  28
ATOM     28  O   UNL     1      28.918  10.928  19.429  1.00  0.00    -0.387 OA
ATOM     29  H   UNL     1      29.221  11.134  20.348  1.00  0.00     0.211 HD
ENDBRANCH  23  28
BRANCH  24  30
ATOM     30  C   UNL     1      32.280  13.567  20.665  1.00  0.00     0.191 C 
BRANCH  30  31
ATOM     31  O   UNL     1      33.164  13.153  21.681  1.00  0.00    -0.394 OA
ATOM     32  H   UNL     1      33.777  12.490  21.258  1.00  0.00     0.210 HD
ENDBRANCH  30  31
ENDBRANCH  24  30
BRANCH  25  33
ATOM     33  O   UNL     1      29.620  13.675  18.904  1.00  0.00    -0.388 OA
ATOM     34  H   UNL     1      30.008  14.460  19.371  1.00  0.00     0.211 HD
ENDBRANCH  25  33
ENDBRANCH  11  20
BRANCH  10  35
ATOM     35  O   UNL     1      31.148   8.075  21.094  1.00  0.00    -0.507 OA
ATOM     36  H   UNL     1      30.849   7.115  20.982  1.00  0.00     0.293 HD
ENDBRANCH  10  35
TORSDOF 9
ENDMDL
MODEL 7
REMARK VINA RESULT:    -6.838      2.065      6.376
REMARK INTER + INTRA:          -9.972
REMARK INTER:                  -9.389
REMARK INTRA:                  -0.582
REMARK UNBOUND:                -0.735
REMARK SMILES O=c1c(-c2ccc(O)cc2)coc2c([C@@H]3O[C@@H](CO)[C@H](O)[C@H](O)[C@H]3O)c(O)ccc12
REMARK SMILES IDX 3 1 11 2 12 3 13 4 30 5 2 6 1 7 29 8 28 9 26 10 14 11 4 12
REMARK SMILES IDX 5 13 6 14 7 15 10 16 9 17 8 18 15 20 24 21 16 22 22 23 17 24
REMARK SMILES IDX 20 25 25 26 23 28 18 30 19 31 21 33 27 35
REMARK H PARENT 8 19 25 27 23 29 19 32 21 34 27 36
REMARK Flexibility Score: inf
ROOT
ATOM      1  C   UNL     1      35.321  10.574  20.431  1.00  0.00     0.065 A 
ATOM      2  C   UNL     1      34.688  10.582  19.165  1.00  0.00     0.208 A 
ATOM      3  O   UNL     1      33.576   9.873  18.979  1.00  0.00    -0.463 OA
ATOM      4  C   UNL     1      33.098   9.082  19.933  1.00  0.00     0.147 A 
ATOM      5  C   UNL     1      33.943   8.662  20.971  1.00  0.00     0.066 A 
ATOM      6  C   UNL     1      35.025   9.506  21.297  1.00  0.00     0.200 A 
ATOM      7  O   UNL     1      35.669   9.360  22.372  1.00  0.00    -0.288 OA
ATOM      8  C   UNL     1      33.506   7.625  21.808  1.00  0.00     0.020 A 
ATOM      9  C   UNL     1      32.207   7.124  21.675  1.00  0.00     0.047 A 
ATOM     10  C   UNL     1      31.286   7.777  20.842  1.00  0.00     0.125 A 
ATOM     11  C   UNL     1      31.715   8.881  20.065  1.00  0.00     0.069 A 
ENDROOT
BRANCH   1  12
ATOM     12  C   UNL     1      35.928  11.829  20.968  1.00  0.00    -0.011 A 
ATOM     13  C   UNL     1      35.244  12.580  21.959  1.00  0.00     0.013 A 
ATOM     14  C   UNL     1      35.793  13.768  22.446  1.00  0.00     0.047 A 
ATOM     15  C   UNL     1      37.037  14.209  21.971  1.00  0.00     0.115 A 
ATOM     16  C   UNL     1      37.150  12.310  20.457  1.00  0.00     0.013 A 
ATOM     17  C   UNL     1      37.714  13.475  20.987  1.00  0.00     0.047 A 
BRANCH  15  18
ATOM     18  O   UNL     1      37.629  15.361  22.482  1.00  0.00    -0.508 OA
ATOM     19  H   UNL     1      37.696  15.521  23.479  1.00  0.00     0.293 HD
ENDBRANCH  15  18
ENDBRANCH   1  12
BRANCH  11  20
ATOM     20  C   UNL     1      30.868  10.140  19.837  1.00  0.00     0.188 C 
ATOM     21  C   UNL     1      31.127  11.312  20.828  1.00  0.00     0.179 C 
ATOM     22  O   UNL     1      31.153  10.600  18.508  1.00  0.00    -0.362 OA
ATOM     23  C   UNL     1      30.764  12.695  20.215  1.00  0.00     0.177 C 
ATOM     24  C   UNL     1      30.241  11.562  18.003  1.00  0.00     0.176 C 
ATOM     25  C   UNL     1      29.709  12.518  19.114  1.00  0.00     0.177 C 
BRANCH  21  26
ATOM     26  O   UNL     1      30.434  11.099  22.037  1.00  0.00    -0.387 OA
ATOM     27  H   UNL     1      31.108  10.864  22.729  1.00  0.00     0.211 HD
ENDBRANCH  21  26
BRANCH  23  28
ATOM     28  O   UNL     1      31.924  13.284  19.677  1.00  0.00    -0.387 OA
ATOM     29  H   UNL     1      32.663  12.631  19.757  1.00  0.00     0.211 HD
ENDBRANCH  23  28
BRANCH  24  30
ATOM     30  C   UNL     1      29.115  10.898  17.185  1.00  0.00     0.191 C 
BRANCH  30  31
ATOM     31  O   UNL     1      29.605  10.336  15.991  1.00  0.00    -0.394 OA
ATOM     32  H   UNL     1      30.166  11.041  15.566  1.00  0.00     0.210 HD
ENDBRANCH  30  31
ENDBRANCH  24  30
BRANCH  25  33
ATOM     33  O   UNL     1      29.294  13.758  18.594  1.00  0.00    -0.388 OA
ATOM     34  H   UNL     1      29.800  14.467  19.072  1.00  0.00     0.211 HD
ENDBRANCH  25  33
ENDBRANCH  11  20
BRANCH  10  35
ATOM     35  O   UNL     1      29.968   7.349  20.816  1.00  0.00    -0.507 OA
ATOM     36  H   UNL     1      29.322   7.668  20.105  1.00  0.00     0.293 HD
ENDBRANCH  10  35
TORSDOF 9
ENDMDL
MODEL 8
REMARK VINA RESULT:    -6.433      1.898      2.808
REMARK INTER + INTRA:          -9.425
REMARK INTER:                  -9.273
REMARK INTRA:                  -0.152
REMARK UNBOUND:                -0.735
REMARK SMILES O=c1c(-c2ccc(O)cc2)coc2c([C@@H]3O[C@@H](CO)[C@H](O)[C@H](O)[C@H]3O)c(O)ccc12
REMARK SMILES IDX 3 1 11 2 12 3 13 4 30 5 2 6 1 7 29 8 28 9 26 10 14 11 4 12
REMARK SMILES IDX 5 13 6 14 7 15 10 16 9 17 8 18 15 20 24 21 16 22 22 23 17 24
REMARK SMILES IDX 20 25 25 26 23 28 18 30 19 31 21 33 27 35
REMARK H PARENT 8 19 25 27 23 29 19 32 21 34 27 36
REMARK Flexibility Score: inf
ROOT
ATOM      1  C   UNL     1      32.440   9.990  20.937  1.00  0.00     0.065 A 
ATOM      2  C   UNL     1      32.829  11.191  21.576  1.00  0.00     0.208 A 
ATOM      3  O   UNL     1      34.001  11.253  22.207  1.00  0.00    -0.463 OA
ATOM      4  C   UNL     1      34.773  10.179  22.328  1.00  0.00     0.147 A 
ATOM      5  C   UNL     1      34.213   8.902  22.169  1.00  0.00     0.066 A 
ATOM      6  C   UNL     1      33.071   8.802  21.348  1.00  0.00     0.200 A 
ATOM      7  O   UNL     1      32.663   7.685  20.927  1.00  0.00    -0.288 OA
ATOM      8  C   UNL     1      34.970   7.789  22.562  1.00  0.00     0.020 A 
ATOM      9  C   UNL     1      36.294   7.960  22.979  1.00  0.00     0.047 A 
ATOM     10  C   UNL     1      36.922   9.205  22.827  1.00  0.00     0.125 A 
ATOM     11  C   UNL     1      36.171  10.306  22.345  1.00  0.00     0.069 A 
ENDROOT
BRANCH   1  12
ATOM     12  C   UNL     1      31.721  10.042  19.628  1.00  0.00    -0.011 A 
ATOM     13  C   UNL     1      32.329   9.509  18.463  1.00  0.00     0.013 A 
ATOM     14  C   UNL     1      31.674   9.579  17.231  1.00  0.00     0.047 A 
ATOM     15  C   UNL     1      30.400  10.158  17.150  1.00  0.00     0.115 A 
ATOM     16  C   UNL     1      30.464  10.673  19.526  1.00  0.00     0.013 A 
ATOM     17  C   UNL     1      29.796  10.694  18.297  1.00  0.00     0.047 A 
BRANCH  15  18
ATOM     18  O   UNL     1      29.704  10.190  15.945  1.00  0.00    -0.508 OA
ATOM     19  H   UNL     1      29.557  11.057  15.444  1.00  0.00     0.293 HD
ENDBRANCH  15  18
ENDBRANCH   1  12
BRANCH  11  20
ATOM     20  C   UNL     1      36.724  11.346  21.362  1.00  0.00     0.188 C 
ATOM     21  C   UNL     1      38.042  10.949  20.636  1.00  0.00     0.179 C 
ATOM     22  O   UNL     1      35.709  11.566  20.371  1.00  0.00    -0.362 OA
ATOM     23  C   UNL     1      38.205  11.675  19.270  1.00  0.00     0.177 C 
ATOM     24  C   UNL     1      35.906  12.714  19.562  1.00  0.00     0.176 C 
ATOM     25  C   UNL     1      37.414  12.991  19.279  1.00  0.00     0.177 C 
BRANCH  21  26
ATOM     26  O   UNL     1      39.155  11.185  21.468  1.00  0.00    -0.387 OA
ATOM     27  H   UNL     1      39.842  10.501  21.247  1.00  0.00     0.211 HD
ENDBRANCH  21  26
BRANCH  23  28
ATOM     28  O   UNL     1      37.734  10.839  18.240  1.00  0.00    -0.387 OA
ATOM     29  H   UNL     1      38.505  10.588  17.672  1.00  0.00     0.211 HD
ENDBRANCH  23  28
BRANCH  24  30
ATOM     30  C   UNL     1      35.162  13.939  20.130  1.00  0.00     0.191 C 
BRANCH  30  31
ATOM     31  O   UNL     1      35.373  15.085  19.340  1.00  0.00    -0.394 OA
ATOM     32  H   UNL     1      34.479  15.338  18.979  1.00  0.00     0.210 HD
ENDBRANCH  30  31
ENDBRANCH  24  30
BRANCH  25  33
ATOM     33  O   UNL     1      37.607  13.715  18.089  1.00  0.00    -0.388 OA
ATOM     34  H   UNL     1      36.914  14.426  18.055  1.00  0.00     0.211 HD
ENDBRANCH  25  33
ENDBRANCH  11  20
BRANCH  10  35
ATOM     35  O   UNL     1      38.270   9.330  23.123  1.00  0.00    -0.507 OA
ATOM     36  H   UNL     1      38.857   8.519  23.268  1.00  0.00     0.293 HD
ENDBRANCH  10  35
TORSDOF 9
ENDMDL
MODEL 9
REMARK VINA RESULT:    -6.329      1.432      2.114
REMARK INTER + INTRA:          -9.284
REMARK INTER:                  -8.193
REMARK INTRA:                  -1.091
REMARK UNBOUND:                -0.735
REMARK SMILES O=c1c(-c2ccc(O)cc2)coc2c([C@@H]3O[C@@H](CO)[C@H](O)[C@H](O)[C@H]3O)c(O)ccc12
REMARK SMILES IDX 3 1 11 2 12 3 13 4 30 5 2 6 1 7 29 8 28 9 26 10 14 11 4 12
REMARK SMILES IDX 5 13 6 14 7 15 10 16 9 17 8 18 15 20 24 21 16 22 22 23 17 24
REMARK SMILES IDX 20 25 25 26 23 28 18 30 19 31 21 33 27 35
REMARK H PARENT 8 19 25 27 23 29 19 32 21 34 27 36
REMARK Flexibility Score: inf
ROOT
ATOM      1  C   UNL     1      30.007  11.884  19.182  1.00  0.00     0.065 A 
ATOM      2  C   UNL     1      30.583  12.402  20.365  1.00  0.00     0.208 A 
ATOM      3  O   UNL     1      31.450  11.662  21.056  1.00  0.00    -0.463 OA
ATOM      4  C   UNL     1      31.714  10.409  20.706  1.00  0.00     0.147 A 
ATOM      5  C   UNL     1      30.813   9.715  19.884  1.00  0.00     0.066 A 
ATOM      6  C   UNL     1      30.017  10.488  19.012  1.00  0.00     0.200 A 
ATOM      7  O   UNL     1      29.387   9.957  18.057  1.00  0.00    -0.288 OA
ATOM      8  C   UNL     1      30.967   8.328  19.748  1.00  0.00     0.020 A 
ATOM      9  C   UNL     1      32.072   7.691  20.323  1.00  0.00     0.047 A 
ATOM     10  C   UNL     1      33.116   8.453  20.868  1.00  0.00     0.125 A 
ATOM     11  C   UNL     1      32.990   9.864  20.921  1.00  0.00     0.069 A 
ENDROOT
BRANCH   1  12
ATOM     12  C   UNL     1      29.787  12.779  18.006  1.00  0.00    -0.011 A 
ATOM     13  C   UNL     1      30.334  12.439  16.742  1.00  0.00     0.013 A 
ATOM     14  C   UNL     1      30.156  13.285  15.646  1.00  0.00     0.047 A 
ATOM     15  C   UNL     1      29.412  14.465  15.789  1.00  0.00     0.115 A 
ATOM     16  C   UNL     1      29.090  13.996  18.153  1.00  0.00     0.013 A 
ATOM     17  C   UNL     1      28.875  14.812  17.037  1.00  0.00     0.047 A 
BRANCH  15  18
ATOM     18  O   UNL     1      29.174  15.297  14.698  1.00  0.00    -0.508 OA
ATOM     19  H   UNL     1      28.474  16.026  14.734  1.00  0.00     0.293 HD
ENDBRANCH  15  18
ENDBRANCH   1  12
BRANCH  11  20
ATOM     20  C   UNL     1      34.146  10.831  20.640  1.00  0.00     0.188 C 
ATOM     21  C   UNL     1      34.727  11.564  21.885  1.00  0.00     0.179 C 
ATOM     22  O   UNL     1      35.197  10.063  20.036  1.00  0.00    -0.362 OA
ATOM     23  C   UNL     1      36.208  11.995  21.679  1.00  0.00     0.177 C 
ATOM     24  C   UNL     1      36.220  10.831  19.422  1.00  0.00     0.176 C 
ATOM     25  C   UNL     1      36.500  12.163  20.181  1.00  0.00     0.177 C 
BRANCH  21  26
ATOM     26  O   UNL     1      33.923  12.669  22.227  1.00  0.00    -0.387 OA
ATOM     27  H   UNL     1      33.240  12.351  22.875  1.00  0.00     0.211 HD
ENDBRANCH  21  26
BRANCH  23  28
ATOM     28  O   UNL     1      37.058  11.016  22.226  1.00  0.00    -0.387 OA
ATOM     29  H   UNL     1      36.939  10.182  21.705  1.00  0.00     0.211 HD
ENDBRANCH  23  28
BRANCH  24  30
ATOM     30  C   UNL     1      35.945  11.036  17.918  1.00  0.00     0.191 C 
BRANCH  30  31
ATOM     31  O   UNL     1      36.278   9.891  17.170  1.00  0.00    -0.394 OA
ATOM     32  H   UNL     1      35.604   9.198  17.413  1.00  0.00     0.210 HD
ENDBRANCH  30  31
ENDBRANCH  24  30
BRANCH  25  33
ATOM     33  O   UNL     1      37.807  12.634  19.962  1.00  0.00    -0.388 OA
ATOM     34  H   UNL     1      38.412  12.131  20.567  1.00  0.00     0.211 HD
ENDBRANCH  25  33
ENDBRANCH  11  20
BRANCH  10  35
ATOM     35  O   UNL     1      34.262   7.817  21.317  1.00  0.00    -0.507 OA
ATOM     36  H   UNL     1      34.224   6.907  21.756  1.00  0.00     0.293 HD
ENDBRANCH  10  35
TORSDOF 9
ENDMDL
