MODEL 1
REMARK VINA RESULT:    -3.898      0.000      0.000
REMARK INTER + INTRA:          -7.703
REMARK INTER:                  -6.177
REMARK INTRA:                  -1.526
REMARK UNBOUND:                -1.526
REMARK SMILES CCCCCCCCCCCC(=O)[O-]
REMARK SMILES IDX 7 1 8 2 9 3 10 4 11 5 12 6 13 7 14 8 6 9 5 10 4 11 3 12 2 13
REMARK SMILES IDX 1 14
REMARK H PARENT
REMARK Flexibility Score: inf
ROOT
ATOM      1  C   UNL     1       1.375   5.232  31.926  1.00  0.00     0.000 C 
ENDROOT
BRANCH   1   2
ATOM      2  C   UNL     1       2.452   4.520  31.091  1.00  0.00     0.000 C 
BRANCH   2   3
ATOM      3  C   UNL     1       1.907   3.972  29.763  1.00  0.00     0.000 C 
BRANCH   3   4
ATOM      4  C   UNL     1       2.945   4.125  28.641  1.00  0.00     0.006 C 
BRANCH   4   5
ATOM      5  C   UNL     1       2.662   5.340  27.749  1.00  0.00     0.053 C 
BRANCH   5   6
ATOM      6  C   UNL     1       3.784   6.333  27.790  1.00  0.00     0.041 C 
ATOM      7  O   UNL     1       4.121   6.953  26.748  1.00  0.00    -0.550 OA
ATOM      8  O   UNL     1       4.434   6.596  28.989  1.00  0.00    -0.550 OA
ENDBRANCH   5   6
ENDBRANCH   4   5
ENDBRANCH   3   4
ENDBRANCH   2   3
ENDBRANCH   1   2
BRANCH   1   9
ATOM      9  C   UNL     1       1.513   6.764  31.885  1.00  0.00     0.000 C 
BRANCH   9  10
ATOM     10  C   UNL     1       0.329   7.443  31.180  1.00  0.00    -0.000 C 
BRANCH  10  11
ATOM     11  C   UNL     1       0.578   7.665  29.678  1.00  0.00    -0.000 C 
BRANCH  11  12
ATOM     12  C   UNL     1      -0.540   7.080  28.796  1.00  0.00    -0.000 C 
BRANCH  12  13
ATOM     13  C   UNL     1      -1.244   5.844  29.384  1.00  0.00    -0.003 C 
ATOM     14  C   UNL     1      -1.527   4.764  28.340  1.00  0.00     0.004 C 
ENDBRANCH  12  13
ENDBRANCH  11  12
ENDBRANCH  10  11
ENDBRANCH   9  10
ENDBRANCH   1   9
TORSDOF 10
ENDMDL
MODEL 2
REMARK VINA RESULT:    -3.846      1.832      2.298
REMARK INTER + INTRA:          -7.620
REMARK INTER:                  -6.440
REMARK INTRA:                  -1.180
REMARK UNBOUND:                -1.526
REMARK SMILES CCCCCCCCCCCC(=O)[O-]
REMARK SMILES IDX 7 1 8 2 9 3 10 4 11 5 12 6 13 7 14 8 6 9 5 10 4 11 3 12 2 13
REMARK SMILES IDX 1 14
REMARK H PARENT
REMARK Flexibility Score: inf
ROOT
ATOM      1  C   UNL     1       1.260   5.507  32.003  1.00  0.00     0.000 C 
ENDROOT
BRANCH   1   2
ATOM      2  C   UNL     1       2.217   4.529  31.301  1.00  0.00     0.000 C 
BRANCH   2   3
ATOM      3  C   UNL     1       3.322   5.245  30.509  1.00  0.00     0.000 C 
BRANCH   3   4
ATOM      4  C   UNL     1       3.474   4.635  29.108  1.00  0.00     0.006 C 
BRANCH   4   5
ATOM      5  C   UNL     1       2.299   3.719  28.741  1.00  0.00     0.053 C 
BRANCH   5   6
ATOM      6  C   UNL     1       2.292   3.383  27.281  1.00  0.00     0.041 C 
ATOM      7  O   UNL     1       1.307   2.785  26.772  1.00  0.00    -0.550 OA
ATOM      8  O   UNL     1       3.359   3.762  26.476  1.00  0.00    -0.550 OA
ENDBRANCH   5   6
ENDBRANCH   4   5
ENDBRANCH   3   4
ENDBRANCH   2   3
ENDBRANCH   1   2
BRANCH   1   9
ATOM      9  C   UNL     1       1.237   6.893  31.335  1.00  0.00     0.000 C 
BRANCH   9  10
ATOM     10  C   UNL     1      -0.094   7.182  30.624  1.00  0.00    -0.000 C 
BRANCH  10  11
ATOM     11  C   UNL     1      -0.183   6.521  29.237  1.00  0.00    -0.000 C 
BRANCH  11  12
ATOM     12  C   UNL     1      -1.099   5.284  29.224  1.00  0.00    -0.000 C 
BRANCH  12  13
ATOM     13  C   UNL     1      -1.402   4.721  27.823  1.00  0.00    -0.003 C 
ATOM     14  C   UNL     1      -2.883   4.799  27.455  1.00  0.00     0.004 C 
ENDBRANCH  12  13
ENDBRANCH  11  12
ENDBRANCH  10  11
ENDBRANCH   9  10
ENDBRANCH   1   9
TORSDOF 10
ENDMDL
MODEL 3
REMARK VINA RESULT:    -3.843      2.215      3.611
REMARK INTER + INTRA:          -7.615
REMARK INTER:                  -6.247
REMARK INTRA:                  -1.368
REMARK UNBOUND:                -1.526
REMARK SMILES CCCCCCCCCCCC(=O)[O-]
REMARK SMILES IDX 7 1 8 2 9 3 10 4 11 5 12 6 13 7 14 8 6 9 5 10 4 11 3 12 2 13
REMARK SMILES IDX 1 14
REMARK H PARENT
REMARK Flexibility Score: inf
ROOT
ATOM      1  C   UNL     1       1.283   5.469  30.923  1.00  0.00     0.000 C 
ENDROOT
BRANCH   1   2
ATOM      2  C   UNL     1       2.276   4.345  30.586  1.00  0.00     0.000 C 
BRANCH   2   3
ATOM      3  C   UNL     1       3.741   4.772  30.769  1.00  0.00     0.000 C 
BRANCH   3   4
ATOM      4  C   UNL     1       4.520   4.633  29.453  1.00  0.00     0.006 C 
BRANCH   4   5
ATOM      5  C   UNL     1       3.868   5.413  28.305  1.00  0.00     0.053 C 
BRANCH   5   6
ATOM      6  C   UNL     1       3.815   4.605  27.043  1.00  0.00     0.041 C 
ATOM      7  O   UNL     1       4.154   5.120  25.946  1.00  0.00    -0.550 OA
ATOM      8  O   UNL     1       3.424   3.273  27.088  1.00  0.00    -0.550 OA
ENDBRANCH   5   6
ENDBRANCH   4   5
ENDBRANCH   3   4
ENDBRANCH   2   3
ENDBRANCH   1   2
BRANCH   1   9
ATOM      9  C   UNL     1       1.513   6.060  32.325  1.00  0.00     0.000 C 
BRANCH   9  10
ATOM     10  C   UNL     1       1.641   7.591  32.305  1.00  0.00    -0.000 C 
BRANCH  10  11
ATOM     11  C   UNL     1       2.238   8.121  30.989  1.00  0.00    -0.000 C 
BRANCH  11  12
ATOM     12  C   UNL     1       3.600   8.812  31.189  1.00  0.00    -0.000 C 
BRANCH  12  13
ATOM     13  C   UNL     1       4.669   8.440  30.146  1.00  0.00    -0.003 C 
ATOM     14  C   UNL     1       5.939   7.864  30.772  1.00  0.00     0.004 C 
ENDBRANCH  12  13
ENDBRANCH  11  12
ENDBRANCH  10  11
ENDBRANCH   9  10
ENDBRANCH   1   9
TORSDOF 10
ENDMDL
MODEL 4
REMARK VINA RESULT:    -3.831      2.790      5.238
REMARK INTER + INTRA:          -7.597
REMARK INTER:                  -6.400
REMARK INTRA:                  -1.197
REMARK UNBOUND:                -1.526
REMARK SMILES CCCCCCCCCCCC(=O)[O-]
REMARK SMILES IDX 7 1 8 2 9 3 10 4 11 5 12 6 13 7 14 8 6 9 5 10 4 11 3 12 2 13
REMARK SMILES IDX 1 14
REMARK H PARENT
REMARK Flexibility Score: inf
ROOT
ATOM      1  C   UNL     1       1.825   4.257  29.300  1.00  0.00     0.000 C 
ENDROOT
BRANCH   1   2
ATOM      2  C   UNL     1       2.019   4.076  30.815  1.00  0.00     0.000 C 
BRANCH   2   3
ATOM      3  C   UNL     1       1.567   5.304  31.621  1.00  0.00     0.000 C 
BRANCH   3   4
ATOM      4  C   UNL     1       1.422   6.533  30.713  1.00  0.00     0.006 C 
BRANCH   4   5
ATOM      5  C   UNL     1       0.004   7.117  30.745  1.00  0.00     0.053 C 
BRANCH   5   6
ATOM      6  C   UNL     1      -0.753   6.807  29.489  1.00  0.00     0.041 C 
ATOM      7  O   UNL     1      -1.409   5.737  29.391  1.00  0.00    -0.550 OA
ATOM      8  O   UNL     1      -0.759   7.718  28.440  1.00  0.00    -0.550 OA
ENDBRANCH   5   6
ENDBRANCH   4   5
ENDBRANCH   3   4
ENDBRANCH   2   3
ENDBRANCH   1   2
BRANCH   1   9
ATOM      9  C   UNL     1       2.994   3.680  28.482  1.00  0.00     0.000 C 
BRANCH   9  10
ATOM     10  C   UNL     1       4.228   4.596  28.491  1.00  0.00    -0.000 C 
BRANCH  10  11
ATOM     11  C   UNL     1       5.324   4.109  29.455  1.00  0.00    -0.000 C 
BRANCH  11  12
ATOM     12  C   UNL     1       5.670   5.147  30.538  1.00  0.00    -0.000 C 
BRANCH  12  13
ATOM     13  C   UNL     1       5.102   6.555  30.284  1.00  0.00    -0.003 C 
ATOM     14  C   UNL     1       6.011   7.668  30.805  1.00  0.00     0.004 C 
ENDBRANCH  12  13
ENDBRANCH  11  12
ENDBRANCH  10  11
ENDBRANCH   9  10
ENDBRANCH   1   9
TORSDOF 10
ENDMDL
MODEL 5
REMARK VINA RESULT:    -3.818      2.134      2.785
REMARK INTER + INTRA:          -7.577
REMARK INTER:                  -6.349
REMARK INTRA:                  -1.228
REMARK UNBOUND:                -1.526
REMARK SMILES CCCCCCCCCCCC(=O)[O-]
REMARK SMILES IDX 7 1 8 2 9 3 10 4 11 5 12 6 13 7 14 8 6 9 5 10 4 11 3 12 2 13
REMARK SMILES IDX 1 14
REMARK H PARENT
REMARK Flexibility Score: inf
ROOT
ATOM      1  C   UNL     1       3.532   4.867  30.886  1.00  0.00     0.000 C 
ENDROOT
BRANCH   1   2
ATOM      2  C   UNL     1       4.051   4.518  29.481  1.00  0.00     0.000 C 
BRANCH   2   3
ATOM      3  C   UNL     1       3.858   5.662  28.474  1.00  0.00     0.000 C 
BRANCH   3   4
ATOM      4  C   UNL     1       3.340   5.128  27.131  1.00  0.00     0.006 C 
BRANCH   4   5
ATOM      5  C   UNL     1       2.571   3.810  27.286  1.00  0.00     0.053 C 
BRANCH   5   6
ATOM      6  C   UNL     1       1.289   3.821  26.510  1.00  0.00     0.041 C 
ATOM      7  O   UNL     1       0.949   4.844  25.861  1.00  0.00    -0.550 OA
ATOM      8  O   UNL     1       0.488   2.686  26.477  1.00  0.00    -0.550 OA
ENDBRANCH   5   6
ENDBRANCH   4   5
ENDBRANCH   3   4
ENDBRANCH   2   3
ENDBRANCH   1   2
BRANCH   1   9
ATOM      9  C   UNL     1       2.047   4.511  31.072  1.00  0.00     0.000 C 
BRANCH   9  10
ATOM     10  C   UNL     1       1.283   5.573  31.877  1.00  0.00    -0.000 C 
BRANCH  10  11
ATOM     11  C   UNL     1       0.539   6.579  30.980  1.00  0.00    -0.000 C 
BRANCH  11  12
ATOM     12  C   UNL     1       0.327   6.057  29.548  1.00  0.00    -0.000 C 
BRANCH  12  13
ATOM     13  C   UNL     1      -1.107   6.218  29.010  1.00  0.00    -0.003 C 
ATOM     14  C   UNL     1      -1.752   4.888  28.621  1.00  0.00     0.004 C 
ENDBRANCH  12  13
ENDBRANCH  11  12
ENDBRANCH  10  11
ENDBRANCH   9  10
ENDBRANCH   1   9
TORSDOF 10
ENDMDL
MODEL 6
REMARK VINA RESULT:    -3.813      2.241      4.084
REMARK INTER + INTRA:          -7.568
REMARK INTER:                  -5.859
REMARK INTRA:                  -1.710
REMARK UNBOUND:                -1.526
REMARK SMILES CCCCCCCCCCCC(=O)[O-]
REMARK SMILES IDX 7 1 8 2 9 3 10 4 11 5 12 6 13 7 14 8 6 9 5 10 4 11 3 12 2 13
REMARK SMILES IDX 1 14
REMARK H PARENT
REMARK Flexibility Score: inf
ROOT
ATOM      1  C   UNL     1       0.336   7.464  29.897  1.00  0.00     0.000 C 
ENDROOT
BRANCH   1   2
ATOM      2  C   UNL     1      -0.466   6.855  28.735  1.00  0.00     0.000 C 
BRANCH   2   3
ATOM      3  C   UNL     1      -1.283   5.624  29.159  1.00  0.00     0.000 C 
BRANCH   3   4
ATOM      4  C   UNL     1      -1.465   4.656  27.981  1.00  0.00     0.006 C 
BRANCH   4   5
ATOM      5  C   UNL     1      -0.799   5.168  26.698  1.00  0.00     0.053 C 
BRANCH   5   6
ATOM      6  C   UNL     1      -0.001   4.095  26.020  1.00  0.00     0.041 C 
ATOM      7  O   UNL     1      -0.027   2.914  26.455  1.00  0.00    -0.550 OA
ATOM      8  O   UNL     1       0.743   4.396  24.887  1.00  0.00    -0.550 OA
ENDBRANCH   5   6
ENDBRANCH   4   5
ENDBRANCH   3   4
ENDBRANCH   2   3
ENDBRANCH   1   2
BRANCH   1   9
ATOM      9  C   UNL     1       0.149   6.692  31.214  1.00  0.00     0.000 C 
BRANCH   9  10
ATOM     10  C   UNL     1       1.477   6.442  31.944  1.00  0.00    -0.000 C 
BRANCH  10  11
ATOM     11  C   UNL     1       2.471   5.618  31.106  1.00  0.00    -0.000 C 
BRANCH  11  12
ATOM     12  C   UNL     1       1.931   4.222  30.743  1.00  0.00    -0.000 C 
BRANCH  12  13
ATOM     13  C   UNL     1       2.017   3.868  29.248  1.00  0.00    -0.003 C 
ATOM     14  C   UNL     1       2.734   4.936  28.421  1.00  0.00     0.004 C 
ENDBRANCH  12  13
ENDBRANCH  11  12
ENDBRANCH  10  11
ENDBRANCH   9  10
ENDBRANCH   1   9
TORSDOF 10
ENDMDL
MODEL 7
REMARK VINA RESULT:    -3.794      3.115      5.008
REMARK INTER + INTRA:          -7.539
REMARK INTER:                  -6.466
REMARK INTRA:                  -1.073
REMARK UNBOUND:                -1.526
REMARK SMILES CCCCCCCCCCCC(=O)[O-]
REMARK SMILES IDX 7 1 8 2 9 3 10 4 11 5 12 6 13 7 14 8 6 9 5 10 4 11 3 12 2 13
REMARK SMILES IDX 1 14
REMARK H PARENT
REMARK Flexibility Score: inf
ROOT
ATOM      1  C   UNL     1       2.398   3.289  27.938  1.00  0.00     0.000 C 
ENDROOT
BRANCH   1   2
ATOM      2  C   UNL     1       3.828   3.674  27.524  1.00  0.00     0.000 C 
BRANCH   2   3
ATOM      3  C   UNL     1       3.898   5.043  26.829  1.00  0.00     0.000 C 
BRANCH   3   4
ATOM      4  C   UNL     1       3.391   4.949  25.382  1.00  0.00     0.006 C 
BRANCH   4   5
ATOM      5  C   UNL     1       2.040   5.650  25.193  1.00  0.00     0.053 C 
BRANCH   5   6
ATOM      6  C   UNL     1       1.006   4.722  24.631  1.00  0.00     0.041 C 
ATOM      7  O   UNL     1       0.174   4.163  25.393  1.00  0.00    -0.550 OA
ATOM      8  O   UNL     1       0.942   4.502  23.261  1.00  0.00    -0.550 OA
ENDBRANCH   5   6
ENDBRANCH   4   5
ENDBRANCH   3   4
ENDBRANCH   2   3
ENDBRANCH   1   2
BRANCH   1   9
ATOM      9  C   UNL     1       1.797   4.267  28.962  1.00  0.00     0.000 C 
BRANCH   9  10
ATOM     10  C   UNL     1       2.420   4.113  30.359  1.00  0.00    -0.000 C 
BRANCH  10  11
ATOM     11  C   UNL     1       2.809   5.462  30.989  1.00  0.00    -0.000 C 
BRANCH  11  12
ATOM     12  C   UNL     1       4.174   5.978  30.498  1.00  0.00    -0.000 C 
BRANCH  12  13
ATOM     13  C   UNL     1       5.299   4.927  30.505  1.00  0.00    -0.003 C 
ATOM     14  C   UNL     1       6.546   5.393  31.257  1.00  0.00     0.004 C 
ENDBRANCH  12  13
ENDBRANCH  11  12
ENDBRANCH  10  11
ENDBRANCH   9  10
ENDBRANCH   1   9
TORSDOF 10
ENDMDL
MODEL 8
REMARK VINA RESULT:    -3.794      1.718      3.570
REMARK INTER + INTRA:          -7.538
REMARK INTER:                  -6.358
REMARK INTRA:                  -1.180
REMARK UNBOUND:                -1.526
REMARK SMILES CCCCCCCCCCCC(=O)[O-]
REMARK SMILES IDX 7 1 8 2 9 3 10 4 11 5 12 6 13 7 14 8 6 9 5 10 4 11 3 12 2 13
REMARK SMILES IDX 1 14
REMARK H PARENT
REMARK Flexibility Score: inf
ROOT
ATOM      1  C   UNL     1       0.047   5.060  27.525  1.00  0.00     0.000 C 
ENDROOT
BRANCH   1   2
ATOM      2  C   UNL     1      -0.125   3.799  26.662  1.00  0.00     0.000 C 
BRANCH   2   3
ATOM      3  C   UNL     1       1.122   2.901  26.667  1.00  0.00     0.000 C 
BRANCH   3   4
ATOM      4  C   UNL     1       2.102   3.332  27.768  1.00  0.00     0.006 C 
BRANCH   4   5
ATOM      5  C   UNL     1       3.535   3.489  27.242  1.00  0.00     0.053 C 
BRANCH   5   6
ATOM      6  C   UNL     1       3.675   4.698  26.368  1.00  0.00     0.041 C 
ATOM      7  O   UNL     1       3.443   5.846  26.829  1.00  0.00    -0.550 OA
ATOM      8  O   UNL     1       4.097   4.557  25.052  1.00  0.00    -0.550 OA
ENDBRANCH   5   6
ENDBRANCH   4   5
ENDBRANCH   3   4
ENDBRANCH   2   3
ENDBRANCH   1   2
BRANCH   1   9
ATOM      9  C   UNL     1      -0.985   5.143  28.662  1.00  0.00     0.000 C 
BRANCH   9  10
ATOM     10  C   UNL     1      -0.659   6.252  29.674  1.00  0.00    -0.000 C 
BRANCH  10  11
ATOM     11  C   UNL     1       0.842   6.337  30.001  1.00  0.00    -0.000 C 
BRANCH  11  12
ATOM     12  C   UNL     1       1.206   5.632  31.320  1.00  0.00    -0.000 C 
BRANCH  12  13
ATOM     13  C   UNL     1       2.148   4.424  31.166  1.00  0.00    -0.003 C 
ATOM     14  C   UNL     1       3.584   4.825  30.829  1.00  0.00     0.004 C 
ENDBRANCH  12  13
ENDBRANCH  11  12
ENDBRANCH  10  11
ENDBRANCH   9  10
ENDBRANCH   1   9
TORSDOF 10
ENDMDL
MODEL 9
REMARK VINA RESULT:    -3.772      2.439      4.460
REMARK INTER + INTRA:          -7.504
REMARK INTER:                  -6.294
REMARK INTRA:                  -1.210
REMARK UNBOUND:                -1.526
REMARK SMILES CCCCCCCCCCCC(=O)[O-]
REMARK SMILES IDX 7 1 8 2 9 3 10 4 11 5 12 6 13 7 14 8 6 9 5 10 4 11 3 12 2 13
REMARK SMILES IDX 1 14
REMARK H PARENT
REMARK Flexibility Score: inf
ROOT
ATOM      1  C   UNL     1       4.507   5.290  29.547  1.00  0.00     0.000 C 
ENDROOT
BRANCH   1   2
ATOM      2  C   UNL     1       3.765   4.726  30.770  1.00  0.00     0.000 C 
BRANCH   2   3
ATOM      3  C   UNL     1       2.398   4.124  30.408  1.00  0.00     0.000 C 
BRANCH   3   4
ATOM      4  C   UNL     1       1.266   5.121  30.695  1.00  0.00     0.006 C 
BRANCH   4   5
ATOM      5  C   UNL     1       1.478   5.878  32.013  1.00  0.00     0.053 C 
BRANCH   5   6
ATOM      6  C   UNL     1       1.425   7.363  31.815  1.00  0.00     0.041 C 
ATOM      7  O   UNL     1       1.379   8.134  32.809  1.00  0.00    -0.550 OA
ATOM      8  O   UNL     1       1.462   7.893  30.532  1.00  0.00    -0.550 OA
ENDBRANCH   5   6
ENDBRANCH   4   5
ENDBRANCH   3   4
ENDBRANCH   2   3
ENDBRANCH   1   2
BRANCH   1   9
ATOM      9  C   UNL     1       4.725   6.810  29.638  1.00  0.00     0.000 C 
BRANCH   9  10
ATOM     10  C   UNL     1       4.302   7.543  28.355  1.00  0.00    -0.000 C 
BRANCH  10  11
ATOM     11  C   UNL     1       3.466   6.659  27.412  1.00  0.00    -0.000 C 
BRANCH  11  12
ATOM     12  C   UNL     1       4.182   6.362  26.083  1.00  0.00    -0.000 C 
BRANCH  12  13
ATOM     13  C   UNL     1       3.863   4.984  25.474  1.00  0.00    -0.003 C 
ATOM     14  C   UNL     1       3.068   4.083  26.419  1.00  0.00     0.004 C 
ENDBRANCH  12  13
ENDBRANCH  11  12
ENDBRANCH  10  11
ENDBRANCH   9  10
ENDBRANCH   1   9
TORSDOF 10
ENDMDL
