MODEL 1
REMARK VINA RESULT:    -4.873      0.000      0.000
REMARK INTER + INTRA:          -6.209
REMARK INTER:                  -6.582
REMARK INTRA:                   0.373
REMARK UNBOUND:                 0.373
REMARK SMILES C=C1C(=O)O[C@H]2[C@H]1CCC(C)=CCC[C@@]1(C)O[C@@H]21
REMARK SMILES IDX 6 1 7 2 2 3 1 4 3 5 4 6 5 7 8 8 9 9 10 10 11 11 12 12 18 14
REMARK SMILES IDX 15 15 17 16 16 17 14 18 13 19
REMARK H PARENT
REMARK Flexibility Score: 70.00
ROOT
ATOM      1  C   UNL     1      19.369   5.701  40.983  1.00  0.00     0.216 C 
ATOM      2  C   UNL     1      20.565   5.636  39.962  1.00  0.00     0.070 C 
ATOM      3  C   UNL     1      21.554   4.764  40.677  1.00  0.00     0.037 C 
ATOM      4  C   UNL     1      22.627   4.186  40.139  1.00  0.00     0.021 C 
ATOM      5  C   UNL     1      21.157   4.698  42.058  1.00  0.00     0.334 C 
ATOM      6  O   UNL     1      21.811   4.160  42.990  1.00  0.00    -0.247 OA
ATOM      7  O   UNL     1      19.945   5.328  42.235  1.00  0.00    -0.455 OA
ENDROOT
BRANCH   2   8
ATOM      8  C   UNL     1      21.220   7.021  39.731  1.00  0.00     0.017 C 
BRANCH   8   9
ATOM      9  C   UNL     1      20.295   8.238  39.903  1.00  0.00     0.031 C 
BRANCH   9  10
ATOM     10  C   UNL     1      19.456   8.530  38.673  1.00  0.00    -0.077 C 
ATOM     11  C   UNL     1      20.132   9.154  37.480  1.00  0.00     0.039 C 
ATOM     12  C   UNL     1      18.129   8.277  38.590  1.00  0.00    -0.028 CG0
ATOM     13  G   UNL     1      17.305   7.537  39.614  1.00  0.00     0.000 G0
ENDBRANCH   9  10
ENDBRANCH   8   9
ENDBRANCH   2   8
BRANCH   1  14
ATOM     14  C   UNL     1      18.162   4.748  40.760  1.00  0.00     0.192 C 
ATOM     15  C   UNL     1      16.951   5.011  39.912  1.00  0.00     0.096 C 
ATOM     16  O   UNL     1      18.064   4.273  39.437  1.00  0.00    -0.362 OA
ATOM     17  C   UNL     1      15.746   4.090  40.138  1.00  0.00     0.045 C 
BRANCH  15  18
ATOM     18  C   UNL     1      16.705   6.249  39.024  1.00  0.00     0.042 C 
BRANCH  18  19
ATOM     19  C   UNL     1      17.276   7.543  39.622  1.00  0.00     0.030 CG0
ATOM     20  G   UNL     1      18.111   8.262  38.591  1.00  0.00     0.000 G0
ENDBRANCH  18  19
ENDBRANCH  15  18
ENDBRANCH   1  14
TORSDOF 0
ENDMDL
MODEL 2
REMARK VINA RESULT:    -4.866      1.442      3.706
REMARK INTER + INTRA:          -6.200
REMARK INTER:                  -6.416
REMARK INTRA:                   0.217
REMARK UNBOUND:                 0.373
REMARK SMILES C=C1C(=O)O[C@H]2[C@H]1CCC(C)=CCC[C@@]1(C)O[C@@H]21
REMARK SMILES IDX 6 1 7 2 2 3 1 4 3 5 4 6 5 7 8 8 9 9 10 10 11 11 12 12 18 14
REMARK SMILES IDX 15 15 17 16 16 17 14 18 13 19
REMARK H PARENT
REMARK Flexibility Score: 70.00
ROOT
ATOM      1  C   UNL     1      20.220   5.683  39.487  1.00  0.00     0.216 C 
ATOM      2  C   UNL     1      19.673   5.546  40.955  1.00  0.00     0.070 C 
ATOM      3  C   UNL     1      20.853   4.982  41.689  1.00  0.00     0.037 C 
ATOM      4  C   UNL     1      21.002   4.920  43.012  1.00  0.00     0.021 C 
ATOM      5  C   UNL     1      21.778   4.483  40.707  1.00  0.00     0.334 C 
ATOM      6  O   UNL     1      22.827   3.828  40.945  1.00  0.00    -0.247 OA
ATOM      7  O   UNL     1      21.348   4.809  39.440  1.00  0.00    -0.455 OA
ENDROOT
BRANCH   2   8
ATOM      8  C   UNL     1      18.508   4.529  41.059  1.00  0.00     0.017 C 
BRANCH   8   9
ATOM      9  C   UNL     1      17.535   4.500  39.868  1.00  0.00     0.031 C 
BRANCH   9  10
ATOM     10  C   UNL     1      16.504   5.612  39.911  1.00  0.00    -0.077 C 
ATOM     11  C   UNL     1      15.364   5.491  40.888  1.00  0.00     0.039 C 
ATOM     12  C   UNL     1      16.541   6.703  39.110  1.00  0.00    -0.028 CG0
ATOM     13  G   UNL     1      17.663   7.073  38.172  1.00  0.00     0.000 G0
ENDBRANCH   9  10
ENDBRANCH   8   9
ENDBRANCH   2   8
BRANCH   1  14
ATOM     14  C   UNL     1      20.732   7.076  39.022  1.00  0.00     0.192 C 
ATOM     15  C   UNL     1      19.894   8.257  38.627  1.00  0.00     0.096 C 
ATOM     16  O   UNL     1      20.431   8.111  39.929  1.00  0.00    -0.362 OA
ATOM     17  C   UNL     1      20.611   9.379  37.867  1.00  0.00     0.045 C 
BRANCH  15  18
ATOM     18  C   UNL     1      18.354   8.349  38.684  1.00  0.00     0.042 C 
BRANCH  18  19
ATOM     19  C   UNL     1      17.654   7.087  38.162  1.00  0.00     0.030 CG0
ATOM     20  G   UNL     1      16.544   6.688  39.102  1.00  0.00     0.000 G0
ENDBRANCH  18  19
ENDBRANCH  15  18
ENDBRANCH   1  14
TORSDOF 0
ENDMDL
MODEL 3
REMARK VINA RESULT:    -4.659      2.666      4.659
REMARK INTER + INTRA:          -5.920
REMARK INTER:                  -6.529
REMARK INTRA:                   0.609
REMARK UNBOUND:                 0.373
REMARK SMILES C=C1C(=O)O[C@H]2[C@H]1CCC(C)=CCC[C@@]1(C)O[C@@H]21
REMARK SMILES IDX 6 1 7 2 2 3 1 4 3 5 4 6 5 7 8 8 9 9 10 10 11 11 12 12 18 14
REMARK SMILES IDX 15 15 17 16 16 17 14 18 13 19
REMARK H PARENT
REMARK Flexibility Score: 70.00
ROOT
ATOM      1  C   UNL     1      17.383   6.411  38.524  1.00  0.00     0.216 C 
ATOM      2  C   UNL     1      18.914   6.679  38.766  1.00  0.00     0.070 C 
ATOM      3  C   UNL     1      19.113   8.019  38.125  1.00  0.00     0.037 C 
ATOM      4  C   UNL     1      20.171   8.815  38.277  1.00  0.00     0.021 C 
ATOM      5  C   UNL     1      17.974   8.273  37.285  1.00  0.00     0.334 C 
ATOM      6  O   UNL     1      17.842   9.243  36.492  1.00  0.00    -0.247 OA
ATOM      7  O   UNL     1      17.029   7.285  37.453  1.00  0.00    -0.455 OA
ENDROOT
BRANCH   2   8
ATOM      8  C   UNL     1      19.816   5.653  38.033  1.00  0.00     0.017 C 
BRANCH   8   9
ATOM      9  C   UNL     1      19.955   4.278  38.709  1.00  0.00     0.031 C 
BRANCH   9  10
ATOM     10  C   UNL     1      20.542   4.356  40.106  1.00  0.00    -0.077 C 
ATOM     11  C   UNL     1      22.042   4.367  40.250  1.00  0.00     0.039 C 
ATOM     12  C   UNL     1      19.795   4.400  41.233  1.00  0.00    -0.028 CG0
ATOM     13  G   UNL     1      18.294   4.536  41.294  1.00  0.00     0.000 G0
ENDBRANCH   9  10
ENDBRANCH   8   9
ENDBRANCH   2   8
BRANCH   1  14
ATOM     14  C   UNL     1      16.393   6.721  39.682  1.00  0.00     0.192 C 
ATOM     15  C   UNL     1      16.611   6.469  41.146  1.00  0.00     0.096 C 
ATOM     16  O   UNL     1      16.850   7.732  40.550  1.00  0.00    -0.362 OA
ATOM     17  C   UNL     1      15.366   6.518  42.040  1.00  0.00     0.045 C 
BRANCH  15  18
ATOM     18  C   UNL     1      17.899   5.928  41.801  1.00  0.00     0.042 C 
BRANCH  18  19
ATOM     19  C   UNL     1      18.282   4.525  41.310  1.00  0.00     0.030 CG0
ATOM     20  G   UNL     1      19.783   4.399  41.229  1.00  0.00     0.000 G0
ENDBRANCH  18  19
ENDBRANCH  15  18
ENDBRANCH   1  14
TORSDOF 0
ENDMDL
MODEL 4
REMARK VINA RESULT:    -4.625      1.951      4.466
REMARK INTER + INTRA:          -5.874
REMARK INTER:                  -6.033
REMARK INTRA:                   0.158
REMARK UNBOUND:                 0.373
REMARK SMILES C=C1C(=O)O[C@H]2[C@H]1CCC(C)=CCC[C@@]1(C)O[C@@H]21
REMARK SMILES IDX 6 1 7 2 2 3 1 4 3 5 4 6 5 7 8 8 9 9 10 10 11 11 12 12 18 14
REMARK SMILES IDX 15 15 17 16 16 17 14 18 13 19
REMARK H PARENT
REMARK Flexibility Score: 70.00
ROOT
ATOM      1  C   UNL     1      17.666   5.942  40.235  1.00  0.00     0.216 C 
ATOM      2  C   UNL     1      17.071   7.388  40.061  1.00  0.00     0.070 C 
ATOM      3  C   UNL     1      15.733   7.269  40.726  1.00  0.00     0.037 C 
ATOM      4  C   UNL     1      14.938   8.278  41.082  1.00  0.00     0.021 C 
ATOM      5  C   UNL     1      15.444   5.868  40.877  1.00  0.00     0.334 C 
ATOM      6  O   UNL     1      14.358   5.377  41.282  1.00  0.00    -0.247 OA
ATOM      7  O   UNL     1      16.532   5.115  40.496  1.00  0.00    -0.455 OA
ENDROOT
BRANCH   2   8
ATOM      8  C   UNL     1      16.839   7.756  38.572  1.00  0.00     0.017 C 
BRANCH   8   9
ATOM      9  C   UNL     1      18.042   7.551  37.636  1.00  0.00     0.031 C 
BRANCH   9  10
ATOM     10  C   UNL     1      19.119   8.606  37.808  1.00  0.00    -0.077 C 
ATOM     11  C   UNL     1      18.891   9.966  37.200  1.00  0.00     0.039 C 
ATOM     12  C   UNL     1      20.283   8.392  38.464  1.00  0.00    -0.028 CG0
ATOM     13  G   UNL     1      20.639   7.157  39.253  1.00  0.00     0.000 G0
ENDBRANCH   9  10
ENDBRANCH   8   9
ENDBRANCH   2   8
BRANCH   1  14
ATOM     14  C   UNL     1      18.661   5.696  41.404  1.00  0.00     0.192 C 
ATOM     15  C   UNL     1      19.985   6.371  41.618  1.00  0.00     0.096 C 
ATOM     16  O   UNL     1      18.800   6.805  42.262  1.00  0.00    -0.362 OA
ATOM     17  C   UNL     1      20.935   5.707  42.622  1.00  0.00     0.045 C 
BRANCH  15  18
ATOM     18  C   UNL     1      20.583   7.507  40.763  1.00  0.00     0.042 C 
BRANCH  18  19
ATOM     19  C   UNL     1      20.646   7.168  39.267  1.00  0.00     0.030 CG0
ATOM     20  G   UNL     1      20.262   8.375  38.448  1.00  0.00     0.000 G0
ENDBRANCH  18  19
ENDBRANCH  15  18
ENDBRANCH   1  14
TORSDOF 0
ENDMDL
MODEL 5
REMARK VINA RESULT:    -4.484      1.627      2.358
REMARK INTER + INTRA:          -5.684
REMARK INTER:                  -6.202
REMARK INTRA:                   0.518
REMARK UNBOUND:                 0.373
REMARK SMILES C=C1C(=O)O[C@H]2[C@H]1CCC(C)=CCC[C@@]1(C)O[C@@H]21
REMARK SMILES IDX 6 1 7 2 2 3 1 4 3 5 4 6 5 7 8 8 9 9 10 10 11 11 12 12 18 14
REMARK SMILES IDX 15 15 17 16 16 17 14 18 13 19
REMARK H PARENT
REMARK Flexibility Score: 70.00
ROOT
ATOM      1  C   UNL     1      21.013   5.790  41.857  1.00  0.00     0.216 C 
ATOM      2  C   UNL     1      20.611   5.432  40.378  1.00  0.00     0.070 C 
ATOM      3  C   UNL     1      21.448   4.219  40.100  1.00  0.00     0.037 C 
ATOM      4  C   UNL     1      21.295   3.374  39.081  1.00  0.00     0.021 C 
ATOM      5  C   UNL     1      22.472   4.156  41.108  1.00  0.00     0.334 C 
ATOM      6  O   UNL     1      23.436   3.347  41.133  1.00  0.00    -0.247 OA
ATOM      7  O   UNL     1      22.263   5.130  42.059  1.00  0.00    -0.455 OA
ENDROOT
BRANCH   2   8
ATOM      8  C   UNL     1      21.014   6.540  39.372  1.00  0.00     0.017 C 
BRANCH   8   9
ATOM      9  C   UNL     1      20.132   7.799  39.372  1.00  0.00     0.031 C 
BRANCH   9  10
ATOM     10  C   UNL     1      18.688   7.518  39.005  1.00  0.00    -0.077 C 
ATOM     11  C   UNL     1      18.324   7.444  37.544  1.00  0.00     0.039 C 
ATOM     12  C   UNL     1      17.701   7.344  39.914  1.00  0.00    -0.028 CG0
ATOM     13  G   UNL     1      17.883   7.244  41.408  1.00  0.00     0.000 G0
ENDBRANCH   9  10
ENDBRANCH   8   9
ENDBRANCH   2   8
BRANCH   1  14
ATOM     14  C   UNL     1      20.081   5.314  43.006  1.00  0.00     0.192 C 
ATOM     15  C   UNL     1      18.579   5.339  43.017  1.00  0.00     0.096 C 
ATOM     16  O   UNL     1      19.316   4.179  42.669  1.00  0.00    -0.362 OA
ATOM     17  C   UNL     1      17.904   5.163  44.382  1.00  0.00     0.045 C 
BRANCH  15  18
ATOM     18  C   UNL     1      17.661   5.765  41.852  1.00  0.00     0.042 C 
BRANCH  18  19
ATOM     19  C   UNL     1      17.871   7.224  41.421  1.00  0.00     0.030 CG0
ATOM     20  G   UNL     1      17.701   7.349  39.928  1.00  0.00     0.000 G0
ENDBRANCH  18  19
ENDBRANCH  15  18
ENDBRANCH   1  14
TORSDOF 0
ENDMDL
MODEL 6
REMARK VINA RESULT:    -4.378      2.251      3.996
REMARK INTER + INTRA:          -5.540
REMARK INTER:                  -5.728
REMARK INTRA:                   0.188
REMARK UNBOUND:                 0.373
REMARK SMILES C=C1C(=O)O[C@H]2[C@H]1CCC(C)=CCC[C@@]1(C)O[C@@H]21
REMARK SMILES IDX 6 1 7 2 2 3 1 4 3 5 4 6 5 7 8 8 9 9 10 10 11 11 12 12 18 14
REMARK SMILES IDX 15 15 17 16 16 17 14 18 13 19
REMARK H PARENT
REMARK Flexibility Score: 70.00
ROOT
ATOM      1  C   UNL     1      18.736   6.540  39.068  1.00  0.00     0.216 C 
ATOM      2  C   UNL     1      18.831   6.954  40.583  1.00  0.00     0.070 C 
ATOM      3  C   UNL     1      20.258   6.638  40.916  1.00  0.00     0.037 C 
ATOM      4  C   UNL     1      20.922   7.042  41.998  1.00  0.00     0.021 C 
ATOM      5  C   UNL     1      20.769   5.786  39.876  1.00  0.00     0.334 C 
ATOM      6  O   UNL     1      21.892   5.216  39.873  1.00  0.00    -0.247 OA
ATOM      7  O   UNL     1      19.842   5.660  38.865  1.00  0.00    -0.455 OA
ENDROOT
BRANCH   2   8
ATOM      8  C   UNL     1      17.919   6.088  41.489  1.00  0.00     0.017 C 
BRANCH   8   9
ATOM      9  C   UNL     1      16.543   5.725  40.906  1.00  0.00     0.031 C 
BRANCH   9  10
ATOM     10  C   UNL     1      15.525   6.842  41.039  1.00  0.00    -0.077 C 
ATOM     11  C   UNL     1      14.903   7.085  42.390  1.00  0.00     0.039 C 
ATOM     12  C   UNL     1      15.130   7.626  40.008  1.00  0.00    -0.028 CG0
ATOM     13  G   UNL     1      15.728   7.632  38.624  1.00  0.00     0.000 G0
ENDBRANCH   9  10
ENDBRANCH   8   9
ENDBRANCH   2   8
BRANCH   1  14
ATOM     14  C   UNL     1      18.867   7.656  37.993  1.00  0.00     0.192 C 
ATOM     15  C   UNL     1      17.848   8.705  37.655  1.00  0.00     0.096 C 
ATOM     16  O   UNL     1      18.927   8.952  38.541  1.00  0.00    -0.362 OA
ATOM     17  C   UNL     1      18.052   9.453  36.332  1.00  0.00     0.045 C 
BRANCH  15  18
ATOM     18  C   UNL     1      16.500   8.936  38.368  1.00  0.00     0.042 C 
BRANCH  18  19
ATOM     19  C   UNL     1      15.718   7.638  38.616  1.00  0.00     0.030 CG0
ATOM     20  G   UNL     1      15.134   7.647  40.007  1.00  0.00     0.000 G0
ENDBRANCH  18  19
ENDBRANCH  15  18
ENDBRANCH   1  14
TORSDOF 0
ENDMDL
MODEL 7
REMARK VINA RESULT:    -4.366      2.659      4.731
REMARK INTER + INTRA:          -5.524
REMARK INTER:                  -5.719
REMARK INTRA:                   0.194
REMARK UNBOUND:                 0.373
REMARK SMILES C=C1C(=O)O[C@H]2[C@H]1CCC(C)=CCC[C@@]1(C)O[C@@H]21
REMARK SMILES IDX 6 1 7 2 2 3 1 4 3 5 4 6 5 7 8 8 9 9 10 10 11 11 12 12 18 14
REMARK SMILES IDX 15 15 17 16 16 17 14 18 13 19
REMARK H PARENT
REMARK Flexibility Score: 70.00
ROOT
ATOM      1  C   UNL     1      18.986   7.464  39.189  1.00  0.00     0.216 C 
ATOM      2  C   UNL     1      17.752   8.040  38.400  1.00  0.00     0.070 C 
ATOM      3  C   UNL     1      18.400   8.982  37.430  1.00  0.00     0.037 C 
ATOM      4  C   UNL     1      17.823   9.530  36.360  1.00  0.00     0.021 C 
ATOM      5  C   UNL     1      19.744   9.218  37.884  1.00  0.00     0.334 C 
ATOM      6  O   UNL     1      20.553  10.049  37.395  1.00  0.00    -0.247 OA
ATOM      7  O   UNL     1      20.032   8.408  38.959  1.00  0.00    -0.455 OA
ENDROOT
BRANCH   2   8
ATOM      8  C   UNL     1      16.801   8.860  39.309  1.00  0.00     0.017 C 
BRANCH   8   9
ATOM      9  C   UNL     1      16.641   8.346  40.749  1.00  0.00     0.031 C 
BRANCH   9  10
ATOM     10  C   UNL     1      15.653   7.202  40.869  1.00  0.00    -0.077 C 
ATOM     11  C   UNL     1      14.181   7.518  40.790  1.00  0.00     0.039 C 
ATOM     12  C   UNL     1      16.015   5.912  41.060  1.00  0.00    -0.028 CG0
ATOM     13  G   UNL     1      17.425   5.377  41.029  1.00  0.00     0.000 G0
ENDBRANCH   9  10
ENDBRANCH   8   9
ENDBRANCH   2   8
BRANCH   1  14
ATOM     14  C   UNL     1      19.548   6.080  38.760  1.00  0.00     0.192 C 
ATOM     15  C   UNL     1      18.960   4.733  39.069  1.00  0.00     0.096 C 
ATOM     16  O   UNL     1      18.721   5.402  37.843  1.00  0.00    -0.362 OA
ATOM     17  C   UNL     1      19.877   3.523  38.857  1.00  0.00     0.045 C 
BRANCH  15  18
ATOM     18  C   UNL     1      17.631   4.460  39.803  1.00  0.00     0.042 C 
BRANCH  18  19
ATOM     19  C   UNL     1      17.431   5.349  41.039  1.00  0.00     0.030 CG0
ATOM     20  G   UNL     1      16.033   5.915  41.046  1.00  0.00     0.000 G0
ENDBRANCH  18  19
ENDBRANCH  15  18
ENDBRANCH   1  14
TORSDOF 0
ENDMDL
MODEL 8
REMARK VINA RESULT:    -4.285      2.021      2.485
REMARK INTER + INTRA:          -5.415
REMARK INTER:                  -5.904
REMARK INTRA:                   0.489
REMARK UNBOUND:                 0.373
REMARK SMILES C=C1C(=O)O[C@H]2[C@H]1CCC(C)=CCC[C@@]1(C)O[C@@H]21
REMARK SMILES IDX 6 1 7 2 2 3 1 4 3 5 4 6 5 7 8 8 9 9 10 10 11 11 12 12 18 14
REMARK SMILES IDX 15 15 17 16 16 17 14 18 13 19
REMARK H PARENT
REMARK Flexibility Score: 70.00
ROOT
ATOM      1  C   UNL     1      17.753   6.452  40.407  1.00  0.00     0.216 C 
ATOM      2  C   UNL     1      18.274   5.708  39.122  1.00  0.00     0.070 C 
ATOM      3  C   UNL     1      19.314   4.785  39.683  1.00  0.00     0.037 C 
ATOM      4  C   UNL     1      19.874   3.753  39.052  1.00  0.00     0.021 C 
ATOM      5  C   UNL     1      19.628   5.238  41.011  1.00  0.00     0.334 C 
ATOM      6  O   UNL     1      20.545   4.788  41.748  1.00  0.00    -0.247 OA
ATOM      7  O   UNL     1      18.785   6.265  41.375  1.00  0.00    -0.455 OA
ENDROOT
BRANCH   2   8
ATOM      8  C   UNL     1      18.969   6.670  38.124  1.00  0.00     0.017 C 
BRANCH   8   9
ATOM      9  C   UNL     1      18.099   7.169  36.958  1.00  0.00     0.031 C 
BRANCH   9  10
ATOM     10  C   UNL     1      17.307   8.418  37.296  1.00  0.00    -0.077 C 
ATOM     11  C   UNL     1      17.874   9.755  36.891  1.00  0.00     0.039 C 
ATOM     12  C   UNL     1      16.125   8.404  37.955  1.00  0.00    -0.028 CG0
ATOM     13  G   UNL     1      15.331   7.174  38.320  1.00  0.00     0.000 G0
ENDBRANCH   9  10
ENDBRANCH   8   9
ENDBRANCH   2   8
BRANCH   1  14
ATOM     14  C   UNL     1      16.441   5.942  41.067  1.00  0.00     0.192 C 
ATOM     15  C   UNL     1      15.043   6.402  40.767  1.00  0.00     0.096 C 
ATOM     16  O   UNL     1      15.604   5.242  40.176  1.00  0.00    -0.362 OA
ATOM     17  C   UNL     1      13.966   6.022  41.789  1.00  0.00     0.045 C 
BRANCH  15  18
ATOM     18  C   UNL     1      14.625   7.414  39.680  1.00  0.00     0.042 C 
BRANCH  18  19
ATOM     19  C   UNL     1      15.328   7.181  38.335  1.00  0.00     0.030 CG0
ATOM     20  G   UNL     1      16.136   8.397  37.958  1.00  0.00     0.000 G0
ENDBRANCH  18  19
ENDBRANCH  15  18
ENDBRANCH   1  14
TORSDOF 0
ENDMDL
MODEL 9
REMARK VINA RESULT:    -4.211      2.299      4.690
REMARK INTER + INTRA:          -5.315
REMARK INTER:                  -5.647
REMARK INTRA:                   0.332
REMARK UNBOUND:                 0.373
REMARK SMILES C=C1C(=O)O[C@H]2[C@H]1CCC(C)=CCC[C@@]1(C)O[C@@H]21
REMARK SMILES IDX 6 1 7 2 2 3 1 4 3 5 4 6 5 7 8 8 9 9 10 10 11 11 12 12 18 14
REMARK SMILES IDX 15 15 17 16 16 17 14 18 13 19
REMARK H PARENT
REMARK Flexibility Score: 70.00
ROOT
ATOM      1  C   UNL     1      17.308   7.277  40.327  1.00  0.00     0.216 C 
ATOM      2  C   UNL     1      17.342   5.730  40.046  1.00  0.00     0.070 C 
ATOM      3  C   UNL     1      15.942   5.309  40.380  1.00  0.00     0.037 C 
ATOM      4  C   UNL     1      15.374   4.145  40.067  1.00  0.00     0.021 C 
ATOM      5  C   UNL     1      15.336   6.374  41.133  1.00  0.00     0.334 C 
ATOM      6  O   UNL     1      14.208   6.334  41.692  1.00  0.00    -0.247 OA
ATOM      7  O   UNL     1      16.176   7.464  41.177  1.00  0.00    -0.455 OA
ENDROOT
BRANCH   2   8
ATOM      8  C   UNL     1      18.311   4.979  40.995  1.00  0.00     0.017 C 
BRANCH   8   9
ATOM      9  C   UNL     1      19.553   5.767  41.445  1.00  0.00     0.031 C 
BRANCH   9  10
ATOM     10  C   UNL     1      20.670   5.760  40.419  1.00  0.00    -0.077 C 
ATOM     11  C   UNL     1      21.472   4.496  40.245  1.00  0.00     0.039 C 
ATOM     12  C   UNL     1      20.999   6.830  39.658  1.00  0.00    -0.028 CG0
ATOM     13  G   UNL     1      20.237   8.129  39.585  1.00  0.00     0.000 G0
ENDBRANCH   9  10
ENDBRANCH   8   9
ENDBRANCH   2   8
BRANCH   1  14
ATOM     14  C   UNL     1      17.106   8.237  39.120  1.00  0.00     0.192 C 
ATOM     15  C   UNL     1      18.164   8.732  38.176  1.00  0.00     0.096 C 
ATOM     16  O   UNL     1      17.338   7.622  37.874  1.00  0.00    -0.362 OA
ATOM     17  C   UNL     1      17.791   9.938  37.306  1.00  0.00     0.045 C 
BRANCH  15  18
ATOM     18  C   UNL     1      19.651   8.319  38.168  1.00  0.00     0.042 C 
BRANCH  18  19
ATOM     19  C   UNL     1      20.233   8.130  39.576  1.00  0.00     0.030 CG0
ATOM     20  G   UNL     1      20.998   6.832  39.646  1.00  0.00     0.000 G0
ENDBRANCH  18  19
ENDBRANCH  15  18
ENDBRANCH   1  14
TORSDOF 0
ENDMDL
