MODEL 1
REMARK VINA RESULT:    -4.465      0.000      0.000
REMARK INTER + INTRA:         -16.517
REMARK INTER:                 -11.774
REMARK INTRA:                  -4.743
REMARK UNBOUND:                -4.743
REMARK SMILES CCCCCCCCCCCCCCCCCCCCCCCCCCCCCC(=O)[O-]
REMARK SMILES IDX 16 1 17 2 18 3 19 4 20 5 21 6 22 7 23 8 24 9 25 10 26 11
REMARK SMILES IDX 27 12 28 13 29 14 30 15 31 16 32 17 15 18 14 19 13 20 12 21
REMARK SMILES IDX 11 22 10 23 9 24 8 25 7 26 6 27 5 28 4 29 3 30 2 31 1 32
REMARK H PARENT
REMARK Flexibility Score: inf
ROOT
ATOM      1  C   UNL     1      10.389  -4.352  -0.498  1.00  0.00     0.000 C 
ENDROOT
BRANCH   1   2
ATOM      2  C   UNL     1      10.734  -5.845  -0.563  1.00  0.00     0.000 C 
BRANCH   2   3
ATOM      3  C   UNL     1      12.252  -6.065  -0.464  1.00  0.00     0.000 C 
BRANCH   3   4
ATOM      4  C   UNL     1      12.621  -7.433   0.131  1.00  0.00     0.000 C 
BRANCH   4   5
ATOM      5  C   UNL     1      11.722  -7.830   1.313  1.00  0.00     0.000 C 
BRANCH   5   6
ATOM      6  C   UNL     1      11.569  -9.356   1.457  1.00  0.00     0.000 C 
BRANCH   6   7
ATOM      7  C   UNL     1      10.936 -10.069   0.245  1.00  0.00     0.000 C 
BRANCH   7   8
ATOM      8  C   UNL     1       9.595  -9.484  -0.238  1.00  0.00     0.000 C 
BRANCH   8   9
ATOM      9  C   UNL     1       9.406  -9.603  -1.760  1.00  0.00     0.000 C 
BRANCH   9  10
ATOM     10  C   UNL     1      10.664  -9.202  -2.549  1.00  0.00     0.000 C 
BRANCH  10  11
ATOM     11  C   UNL     1      10.334  -8.629  -3.938  1.00  0.00     0.000 C 
BRANCH  11  12
ATOM     12  C   UNL     1       9.992  -7.131  -3.891  1.00  0.00     0.000 C 
BRANCH  12  13
ATOM     13  C   UNL     1       8.483  -6.865  -4.001  1.00  0.00     0.006 C 
BRANCH  13  14
ATOM     14  C   UNL     1       7.977  -6.068  -2.795  1.00  0.00     0.053 C 
BRANCH  14  15
ATOM     15  C   UNL     1       7.170  -4.893  -3.245  1.00  0.00     0.041 C 
ATOM     16  O   UNL     1       6.691  -4.091  -2.399  1.00  0.00    -0.550 OA
ATOM     17  O   UNL     1       6.984  -4.654  -4.601  1.00  0.00    -0.550 OA
ENDBRANCH  14  15
ENDBRANCH  13  14
ENDBRANCH  12  13
ENDBRANCH  11  12
ENDBRANCH  10  11
ENDBRANCH   9  10
ENDBRANCH   8   9
ENDBRANCH   7   8
ENDBRANCH   6   7
ENDBRANCH   5   6
ENDBRANCH   4   5
ENDBRANCH   3   4
ENDBRANCH   2   3
ENDBRANCH   1   2
BRANCH   1  18
ATOM     18  C   UNL     1      11.553  -3.545   0.096  1.00  0.00     0.000 C 
BRANCH  18  19
ATOM     19  C   UNL     1      11.091  -2.232   0.761  1.00  0.00     0.000 C 
BRANCH  19  20
ATOM     20  C   UNL     1      11.759  -0.967   0.185  1.00  0.00     0.000 C 
BRANCH  20  21
ATOM     21  C   UNL     1      11.297   0.365   0.807  1.00  0.00     0.000 C 
BRANCH  21  22
ATOM     22  C   UNL     1      12.129   0.848   2.011  1.00  0.00     0.000 C 
BRANCH  22  23
ATOM     23  C   UNL     1      11.507   0.457   3.363  1.00  0.00     0.000 C 
BRANCH  23  24
ATOM     24  C   UNL     1      12.518  -0.205   4.317  1.00  0.00    -0.000 C 
BRANCH  24  25
ATOM     25  C   UNL     1      12.702  -1.722   4.125  1.00  0.00    -0.000 C 
BRANCH  25  26
ATOM     26  C   UNL     1      14.140  -2.167   3.799  1.00  0.00    -0.000 C 
BRANCH  26  27
ATOM     27  C   UNL     1      14.281  -2.854   2.424  1.00  0.00    -0.000 C 
BRANCH  27  28
ATOM     28  C   UNL     1      15.378  -2.214   1.561  1.00  0.00    -0.000 C 
BRANCH  28  29
ATOM     29  C   UNL     1      15.447  -0.699   1.784  1.00  0.00    -0.000 C 
BRANCH  29  30
ATOM     30  C   UNL     1      15.430   0.055   0.445  1.00  0.00    -0.000 C 
BRANCH  30  31
ATOM     31  C   UNL     1      15.707  -0.863  -0.755  1.00  0.00    -0.003 C 
ATOM     32  C   UNL     1      14.934  -0.450  -2.008  1.00  0.00     0.004 C 
ENDBRANCH  30  31
ENDBRANCH  29  30
ENDBRANCH  28  29
ENDBRANCH  27  28
ENDBRANCH  26  27
ENDBRANCH  25  26
ENDBRANCH  24  25
ENDBRANCH  23  24
ENDBRANCH  22  23
ENDBRANCH  21  22
ENDBRANCH  20  21
ENDBRANCH  19  20
ENDBRANCH  18  19
ENDBRANCH   1  18
TORSDOF 28
ENDMDL
MODEL 2
REMARK VINA RESULT:    -4.440      3.325      5.226
REMARK INTER + INTRA:         -16.451
REMARK INTER:                 -12.766
REMARK INTRA:                  -3.685
REMARK UNBOUND:                -4.743
REMARK SMILES CCCCCCCCCCCCCCCCCCCCCCCCCCCCCC(=O)[O-]
REMARK SMILES IDX 16 1 17 2 18 3 19 4 20 5 21 6 22 7 23 8 24 9 25 10 26 11
REMARK SMILES IDX 27 12 28 13 29 14 30 15 31 16 32 17 15 18 14 19 13 20 12 21
REMARK SMILES IDX 11 22 10 23 9 24 8 25 7 26 6 27 5 28 4 29 3 30 2 31 1 32
REMARK H PARENT
REMARK Flexibility Score: inf
ROOT
ATOM      1  C   UNL     1       9.201  -4.229  -0.302  1.00  0.00     0.000 C 
ENDROOT
BRANCH   1   2
ATOM      2  C   UNL     1       8.237  -4.953  -1.250  1.00  0.00     0.000 C 
BRANCH   2   3
ATOM      3  C   UNL     1       8.992  -5.932  -2.162  1.00  0.00     0.000 C 
BRANCH   3   4
ATOM      4  C   UNL     1       8.241  -6.236  -3.468  1.00  0.00     0.000 C 
BRANCH   4   5
ATOM      5  C   UNL     1       7.759  -4.965  -4.186  1.00  0.00     0.000 C 
BRANCH   5   6
ATOM      6  C   UNL     1       7.019  -5.272  -5.501  1.00  0.00     0.000 C 
BRANCH   6   7
ATOM      7  C   UNL     1       7.907  -5.305  -6.763  1.00  0.00     0.000 C 
BRANCH   7   8
ATOM      8  C   UNL     1       8.136  -6.702  -7.370  1.00  0.00     0.000 C 
BRANCH   8   9
ATOM      9  C   UNL     1       9.554  -7.240  -7.109  1.00  0.00     0.000 C 
BRANCH   9  10
ATOM     10  C   UNL     1      10.579  -6.121  -6.865  1.00  0.00     0.000 C 
BRANCH  10  11
ATOM     11  C   UNL     1      11.727  -6.562  -5.940  1.00  0.00     0.000 C 
BRANCH  11  12
ATOM     12  C   UNL     1      12.459  -7.808  -6.465  1.00  0.00     0.000 C 
BRANCH  12  13
ATOM     13  C   UNL     1      12.823  -7.697  -7.954  1.00  0.00     0.006 C 
BRANCH  13  14
ATOM     14  C   UNL     1      13.009  -9.084  -8.577  1.00  0.00     0.053 C 
BRANCH  14  15
ATOM     15  C   UNL     1      12.748  -9.036 -10.049  1.00  0.00     0.041 C 
ATOM     16  O   UNL     1      11.748  -8.413 -10.496  1.00  0.00    -0.550 OA
ATOM     17  O   UNL     1      13.634  -9.638 -10.933  1.00  0.00    -0.550 OA
ENDBRANCH  14  15
ENDBRANCH  13  14
ENDBRANCH  12  13
ENDBRANCH  11  12
ENDBRANCH  10  11
ENDBRANCH   9  10
ENDBRANCH   8   9
ENDBRANCH   7   8
ENDBRANCH   6   7
ENDBRANCH   5   6
ENDBRANCH   4   5
ENDBRANCH   3   4
ENDBRANCH   2   3
ENDBRANCH   1   2
BRANCH   1  18
ATOM     18  C   UNL     1      10.647  -4.692  -0.531  1.00  0.00     0.000 C 
BRANCH  18  19
ATOM     19  C   UNL     1      11.687  -3.718   0.062  1.00  0.00     0.000 C 
BRANCH  19  20
ATOM     20  C   UNL     1      11.085  -2.397   0.581  1.00  0.00     0.000 C 
BRANCH  20  21
ATOM     21  C   UNL     1      11.774  -1.114   0.077  1.00  0.00     0.000 C 
BRANCH  21  22
ATOM     22  C   UNL     1      11.217   0.200   0.657  1.00  0.00     0.000 C 
BRANCH  22  23
ATOM     23  C   UNL     1      12.006   0.694   1.882  1.00  0.00     0.000 C 
BRANCH  23  24
ATOM     24  C   UNL     1      11.367   0.267   3.216  1.00  0.00    -0.000 C 
BRANCH  24  25
ATOM     25  C   UNL     1      12.341  -0.347   4.241  1.00  0.00    -0.000 C 
BRANCH  25  26
ATOM     26  C   UNL     1      12.859  -1.752   3.885  1.00  0.00    -0.000 C 
BRANCH  26  27
ATOM     27  C   UNL     1      14.340  -1.777   3.452  1.00  0.00    -0.000 C 
BRANCH  27  28
ATOM     28  C   UNL     1      14.606  -2.796   2.334  1.00  0.00    -0.000 C 
BRANCH  28  29
ATOM     29  C   UNL     1      15.159  -2.110   1.079  1.00  0.00    -0.000 C 
BRANCH  29  30
ATOM     30  C   UNL     1      15.493  -0.637   1.360  1.00  0.00    -0.000 C 
BRANCH  30  31
ATOM     31  C   UNL     1      15.378   0.246   0.108  1.00  0.00    -0.003 C 
ATOM     32  C   UNL     1      15.300  -0.566  -1.185  1.00  0.00     0.004 C 
ENDBRANCH  30  31
ENDBRANCH  29  30
ENDBRANCH  28  29
ENDBRANCH  27  28
ENDBRANCH  26  27
ENDBRANCH  25  26
ENDBRANCH  24  25
ENDBRANCH  23  24
ENDBRANCH  22  23
ENDBRANCH  21  22
ENDBRANCH  20  21
ENDBRANCH  19  20
ENDBRANCH  18  19
ENDBRANCH   1  18
TORSDOF 28
ENDMDL
MODEL 3
REMARK VINA RESULT:    -4.375      1.768      3.214
REMARK INTER + INTRA:         -16.280
REMARK INTER:                 -12.066
REMARK INTRA:                  -4.215
REMARK UNBOUND:                -4.743
REMARK SMILES CCCCCCCCCCCCCCCCCCCCCCCCCCCCCC(=O)[O-]
REMARK SMILES IDX 16 1 17 2 18 3 19 4 20 5 21 6 22 7 23 8 24 9 25 10 26 11
REMARK SMILES IDX 27 12 28 13 29 14 30 15 31 16 32 17 15 18 14 19 13 20 12 21
REMARK SMILES IDX 11 22 10 23 9 24 8 25 7 26 6 27 5 28 4 29 3 30 2 31 1 32
REMARK H PARENT
REMARK Flexibility Score: inf
ROOT
ATOM      1  C   UNL     1      11.055  -1.974   0.593  1.00  0.00     0.000 C 
ENDROOT
BRANCH   1   2
ATOM      2  C   UNL     1      11.233  -3.368  -0.021  1.00  0.00     0.000 C 
BRANCH   2   3
ATOM      3  C   UNL     1       9.874  -4.042  -0.264  1.00  0.00     0.000 C 
BRANCH   3   4
ATOM      4  C   UNL     1      10.002  -5.503  -0.722  1.00  0.00     0.000 C 
BRANCH   4   5
ATOM      5  C   UNL     1      11.464  -5.948  -0.890  1.00  0.00     0.000 C 
BRANCH   5   6
ATOM      6  C   UNL     1      11.594  -7.293  -1.629  1.00  0.00     0.000 C 
BRANCH   6   7
ATOM      7  C   UNL     1      11.898  -7.186  -3.138  1.00  0.00     0.000 C 
BRANCH   7   8
ATOM      8  C   UNL     1      10.807  -7.744  -4.071  1.00  0.00     0.000 C 
BRANCH   8   9
ATOM      9  C   UNL     1       9.554  -8.212  -3.311  1.00  0.00     0.000 C 
BRANCH   9  10
ATOM     10  C   UNL     1       8.349  -7.279  -3.521  1.00  0.00     0.000 C 
BRANCH  10  11
ATOM     11  C   UNL     1       8.501  -6.387  -4.765  1.00  0.00     0.000 C 
BRANCH  11  12
ATOM     12  C   UNL     1       7.872  -4.997  -4.571  1.00  0.00     0.000 C 
BRANCH  12  13
ATOM     13  C   UNL     1       7.049  -4.895  -3.277  1.00  0.00     0.006 C 
BRANCH  13  14
ATOM     14  C   UNL     1       5.772  -4.080  -3.503  1.00  0.00     0.053 C 
BRANCH  14  15
ATOM     15  C   UNL     1       4.833  -4.817  -4.404  1.00  0.00     0.041 C 
ATOM     16  O   UNL     1       4.779  -6.075  -4.372  1.00  0.00    -0.550 OA
ATOM     17  O   UNL     1       3.981  -4.113  -5.246  1.00  0.00    -0.550 OA
ENDBRANCH  14  15
ENDBRANCH  13  14
ENDBRANCH  12  13
ENDBRANCH  11  12
ENDBRANCH  10  11
ENDBRANCH   9  10
ENDBRANCH   8   9
ENDBRANCH   7   8
ENDBRANCH   6   7
ENDBRANCH   5   6
ENDBRANCH   4   5
ENDBRANCH   3   4
ENDBRANCH   2   3
ENDBRANCH   1   2
BRANCH   1  18
ATOM     18  C   UNL     1       9.934  -1.977   1.643  1.00  0.00     0.000 C 
BRANCH  18  19
ATOM     19  C   UNL     1       9.762  -0.608   2.336  1.00  0.00     0.000 C 
BRANCH  19  20
ATOM     20  C   UNL     1      11.031   0.266   2.321  1.00  0.00     0.000 C 
BRANCH  20  21
ATOM     21  C   UNL     1      11.538   0.719   3.704  1.00  0.00     0.000 C 
BRANCH  21  22
ATOM     22  C   UNL     1      12.853   0.063   4.165  1.00  0.00     0.000 C 
BRANCH  22  23
ATOM     23  C   UNL     1      12.762  -1.471   4.241  1.00  0.00     0.000 C 
BRANCH  23  24
ATOM     24  C   UNL     1      14.072  -2.168   3.829  1.00  0.00    -0.000 C 
BRANCH  24  25
ATOM     25  C   UNL     1      14.012  -2.938   2.495  1.00  0.00    -0.000 C 
BRANCH  25  26
ATOM     26  C   UNL     1      14.897  -2.364   1.373  1.00  0.00    -0.000 C 
BRANCH  26  27
ATOM     27  C   UNL     1      14.453  -0.969   0.884  1.00  0.00    -0.000 C 
BRANCH  27  28
ATOM     28  C   UNL     1      15.643  -0.026   0.650  1.00  0.00    -0.000 C 
BRANCH  28  29
ATOM     29  C   UNL     1      16.671  -0.139   1.782  1.00  0.00    -0.000 C 
BRANCH  29  30
ATOM     30  C   UNL     1      16.249   0.705   2.994  1.00  0.00    -0.000 C 
BRANCH  30  31
ATOM     31  C   UNL     1      17.173   0.508   4.205  1.00  0.00    -0.003 C 
ATOM     32  C   UNL     1      18.256  -0.542   3.958  1.00  0.00     0.004 C 
ENDBRANCH  30  31
ENDBRANCH  29  30
ENDBRANCH  28  29
ENDBRANCH  27  28
ENDBRANCH  26  27
ENDBRANCH  25  26
ENDBRANCH  24  25
ENDBRANCH  23  24
ENDBRANCH  22  23
ENDBRANCH  21  22
ENDBRANCH  20  21
ENDBRANCH  19  20
ENDBRANCH  18  19
ENDBRANCH   1  18
TORSDOF 28
ENDMDL
MODEL 4
REMARK VINA RESULT:    -4.333      2.004      3.648
REMARK INTER + INTRA:         -16.168
REMARK INTER:                 -12.341
REMARK INTRA:                  -3.827
REMARK UNBOUND:                -4.743
REMARK SMILES CCCCCCCCCCCCCCCCCCCCCCCCCCCCCC(=O)[O-]
REMARK SMILES IDX 16 1 17 2 18 3 19 4 20 5 21 6 22 7 23 8 24 9 25 10 26 11
REMARK SMILES IDX 27 12 28 13 29 14 30 15 31 16 32 17 15 18 14 19 13 20 12 21
REMARK SMILES IDX 11 22 10 23 9 24 8 25 7 26 6 27 5 28 4 29 3 30 2 31 1 32
REMARK H PARENT
REMARK Flexibility Score: inf
ROOT
ATOM      1  C   UNL     1      15.367  -5.169   1.604  1.00  0.00     0.000 C 
ENDROOT
BRANCH   1   2
ATOM      2  C   UNL     1      13.987  -5.705   1.201  1.00  0.00     0.000 C 
BRANCH   2   3
ATOM      3  C   UNL     1      13.995  -7.239   1.116  1.00  0.00     0.000 C 
BRANCH   3   4
ATOM      4  C   UNL     1      12.618  -7.827   0.770  1.00  0.00     0.000 C 
BRANCH   4   5
ATOM      5  C   UNL     1      12.606  -8.559  -0.582  1.00  0.00     0.000 C 
BRANCH   5   6
ATOM      6  C   UNL     1      12.301  -7.619  -1.763  1.00  0.00     0.000 C 
BRANCH   6   7
ATOM      7  C   UNL     1      11.590  -6.302  -1.388  1.00  0.00     0.000 C 
BRANCH   7   8
ATOM      8  C   UNL     1      10.057  -6.389  -1.276  1.00  0.00     0.000 C 
BRANCH   8   9
ATOM      9  C   UNL     1       9.441  -5.175  -0.558  1.00  0.00     0.000 C 
BRANCH   9  10
ATOM     10  C   UNL     1       8.179  -4.647  -1.259  1.00  0.00     0.000 C 
BRANCH  10  11
ATOM     11  C   UNL     1       7.944  -5.305  -2.630  1.00  0.00     0.000 C 
BRANCH  11  12
ATOM     12  C   UNL     1       6.725  -4.720  -3.362  1.00  0.00     0.000 C 
BRANCH  12  13
ATOM     13  C   UNL     1       6.757  -4.991  -4.874  1.00  0.00     0.006 C 
BRANCH  13  14
ATOM     14  C   UNL     1       8.165  -5.388  -5.330  1.00  0.00     0.053 C 
BRANCH  14  15
ATOM     15  C   UNL     1       8.173  -5.699  -6.792  1.00  0.00     0.041 C 
ATOM     16  O   UNL     1       9.176  -6.253  -7.318  1.00  0.00    -0.550 OA
ATOM     17  O   UNL     1       7.055  -5.422  -7.569  1.00  0.00    -0.550 OA
ENDBRANCH  14  15
ENDBRANCH  13  14
ENDBRANCH  12  13
ENDBRANCH  11  12
ENDBRANCH  10  11
ENDBRANCH   9  10
ENDBRANCH   8   9
ENDBRANCH   7   8
ENDBRANCH   6   7
ENDBRANCH   5   6
ENDBRANCH   4   5
ENDBRANCH   3   4
ENDBRANCH   2   3
ENDBRANCH   1   2
BRANCH   1  18
ATOM     18  C   UNL     1      15.287  -3.685   1.992  1.00  0.00     0.000 C 
BRANCH  18  19
ATOM     19  C   UNL     1      13.841  -3.144   1.987  1.00  0.00     0.000 C 
BRANCH  19  20
ATOM     20  C   UNL     1      13.367  -2.610   3.353  1.00  0.00     0.000 C 
BRANCH  20  21
ATOM     21  C   UNL     1      14.279  -1.551   4.001  1.00  0.00     0.000 C 
BRANCH  21  22
ATOM     22  C   UNL     1      13.656  -0.149   4.144  1.00  0.00     0.000 C 
BRANCH  22  23
ATOM     23  C   UNL     1      12.128  -0.189   4.314  1.00  0.00     0.000 C 
BRANCH  23  24
ATOM     24  C   UNL     1      11.397   0.791   3.378  1.00  0.00    -0.000 C 
BRANCH  24  25
ATOM     25  C   UNL     1      10.483   0.133   2.326  1.00  0.00    -0.000 C 
BRANCH  25  26
ATOM     26  C   UNL     1      11.220  -0.646   1.221  1.00  0.00    -0.000 C 
BRANCH  26  27
ATOM     27  C   UNL     1      12.450   0.094   0.654  1.00  0.00    -0.000 C 
BRANCH  27  28
ATOM     28  C   UNL     1      13.034  -0.604  -0.582  1.00  0.00    -0.000 C 
BRANCH  28  29
ATOM     29  C   UNL     1      14.567  -0.583  -0.559  1.00  0.00    -0.000 C 
BRANCH  29  30
ATOM     30  C   UNL     1      15.087   0.139   0.693  1.00  0.00    -0.000 C 
BRANCH  30  31
ATOM     31  C   UNL     1      16.475  -0.355   1.128  1.00  0.00    -0.003 C 
ATOM     32  C   UNL     1      17.019   0.398   2.342  1.00  0.00     0.004 C 
ENDBRANCH  30  31
ENDBRANCH  29  30
ENDBRANCH  28  29
ENDBRANCH  27  28
ENDBRANCH  26  27
ENDBRANCH  25  26
ENDBRANCH  24  25
ENDBRANCH  23  24
ENDBRANCH  22  23
ENDBRANCH  21  22
ENDBRANCH  20  21
ENDBRANCH  19  20
ENDBRANCH  18  19
ENDBRANCH   1  18
TORSDOF 28
ENDMDL
MODEL 5
REMARK VINA RESULT:    -4.329      3.053      9.445
REMARK INTER + INTRA:         -16.157
REMARK INTER:                 -12.281
REMARK INTRA:                  -3.877
REMARK UNBOUND:                -4.743
REMARK SMILES CCCCCCCCCCCCCCCCCCCCCCCCCCCCCC(=O)[O-]
REMARK SMILES IDX 16 1 17 2 18 3 19 4 20 5 21 6 22 7 23 8 24 9 25 10 26 11
REMARK SMILES IDX 27 12 28 13 29 14 30 15 31 16 32 17 15 18 14 19 13 20 12 21
REMARK SMILES IDX 11 22 10 23 9 24 8 25 7 26 6 27 5 28 4 29 3 30 2 31 1 32
REMARK H PARENT
REMARK Flexibility Score: inf
ROOT
ATOM      1  C   UNL     1      11.569  -4.175  -0.224  1.00  0.00     0.000 C 
ENDROOT
BRANCH   1   2
ATOM      2  C   UNL     1      10.285  -3.404   0.109  1.00  0.00     0.000 C 
BRANCH   2   3
ATOM      3  C   UNL     1      10.596  -2.149   0.939  1.00  0.00     0.000 C 
BRANCH   3   4
ATOM      4  C   UNL     1       9.517  -1.844   1.990  1.00  0.00     0.000 C 
BRANCH   4   5
ATOM      5  C   UNL     1       9.469  -0.357   2.380  1.00  0.00     0.000 C 
BRANCH   5   6
ATOM      6  C   UNL     1      10.495   0.493   1.608  1.00  0.00     0.000 C 
BRANCH   6   7
ATOM      7  C   UNL     1      11.728   0.934   2.424  1.00  0.00     0.000 C 
BRANCH   7   8
ATOM      8  C   UNL     1      11.649   0.661   3.938  1.00  0.00     0.000 C 
BRANCH   8   9
ATOM      9  C   UNL     1      12.783  -0.250   4.440  1.00  0.00     0.000 C 
BRANCH   9  10
ATOM     10  C   UNL     1      12.652  -1.696   3.936  1.00  0.00     0.000 C 
BRANCH  10  11
ATOM     11  C   UNL     1      13.983  -2.265   3.416  1.00  0.00     0.000 C 
BRANCH  11  12
ATOM     12  C   UNL     1      14.063  -2.268   1.881  1.00  0.00     0.000 C 
BRANCH  12  13
ATOM     13  C   UNL     1      14.578  -0.936   1.313  1.00  0.00     0.006 C 
BRANCH  13  14
ATOM     14  C   UNL     1      14.085  -0.724  -0.121  1.00  0.00     0.053 C 
BRANCH  14  15
ATOM     15  C   UNL     1      15.241  -0.521  -1.048  1.00  0.00     0.041 C 
ATOM     16  O   UNL     1      16.411  -0.421  -0.590  1.00  0.00    -0.550 OA
ATOM     17  O   UNL     1      15.035  -0.491  -2.421  1.00  0.00    -0.550 OA
ENDBRANCH  14  15
ENDBRANCH  13  14
ENDBRANCH  12  13
ENDBRANCH  11  12
ENDBRANCH  10  11
ENDBRANCH   9  10
ENDBRANCH   8   9
ENDBRANCH   7   8
ENDBRANCH   6   7
ENDBRANCH   5   6
ENDBRANCH   4   5
ENDBRANCH   3   4
ENDBRANCH   2   3
ENDBRANCH   1   2
BRANCH   1  18
ATOM     18  C   UNL     1      11.251  -5.623  -0.625  1.00  0.00     0.000 C 
BRANCH  18  19
ATOM     19  C   UNL     1       9.739  -5.872  -0.812  1.00  0.00     0.000 C 
BRANCH  19  20
ATOM     20  C   UNL     1       9.382  -7.329  -1.168  1.00  0.00     0.000 C 
BRANCH  20  21
ATOM     21  C   UNL     1      10.482  -8.368  -0.876  1.00  0.00     0.000 C 
BRANCH  21  22
ATOM     22  C   UNL     1      11.302  -8.816  -2.101  1.00  0.00     0.000 C 
BRANCH  22  23
ATOM     23  C   UNL     1      10.695  -8.341  -3.432  1.00  0.00     0.000 C 
BRANCH  23  24
ATOM     24  C   UNL     1      11.762  -7.895  -4.450  1.00  0.00    -0.000 C 
BRANCH  24  25
ATOM     25  C   UNL     1      11.500  -8.329  -5.905  1.00  0.00    -0.000 C 
BRANCH  25  26
ATOM     26  C   UNL     1      12.354  -7.605  -6.963  1.00  0.00    -0.000 C 
BRANCH  26  27
ATOM     27  C   UNL     1      11.573  -6.553  -7.778  1.00  0.00    -0.000 C 
BRANCH  27  28
ATOM     28  C   UNL     1      10.135  -6.370  -7.271  1.00  0.00    -0.000 C 
BRANCH  28  29
ATOM     29  C   UNL     1       9.935  -4.977  -6.664  1.00  0.00    -0.000 C 
BRANCH  29  30
ATOM     30  C   UNL     1       8.580  -4.879  -5.946  1.00  0.00    -0.000 C 
BRANCH  30  31
ATOM     31  C   UNL     1       8.384  -5.983  -4.896  1.00  0.00    -0.003 C 
ATOM     32  C   UNL     1       7.064  -5.852  -4.137  1.00  0.00     0.004 C 
ENDBRANCH  30  31
ENDBRANCH  29  30
ENDBRANCH  28  29
ENDBRANCH  27  28
ENDBRANCH  26  27
ENDBRANCH  25  26
ENDBRANCH  24  25
ENDBRANCH  23  24
ENDBRANCH  22  23
ENDBRANCH  21  22
ENDBRANCH  20  21
ENDBRANCH  19  20
ENDBRANCH  18  19
ENDBRANCH   1  18
TORSDOF 28
ENDMDL
MODEL 6
REMARK VINA RESULT:    -4.309      3.509      9.268
REMARK INTER + INTRA:         -16.104
REMARK INTER:                 -12.044
REMARK INTRA:                  -4.060
REMARK UNBOUND:                -4.743
REMARK SMILES CCCCCCCCCCCCCCCCCCCCCCCCCCCCCC(=O)[O-]
REMARK SMILES IDX 16 1 17 2 18 3 19 4 20 5 21 6 22 7 23 8 24 9 25 10 26 11
REMARK SMILES IDX 27 12 28 13 29 14 30 15 31 16 32 17 15 18 14 19 13 20 12 21
REMARK SMILES IDX 11 22 10 23 9 24 8 25 7 26 6 27 5 28 4 29 3 30 2 31 1 32
REMARK H PARENT
REMARK Flexibility Score: inf
ROOT
ATOM      1  C   UNL     1      14.501  -3.355   2.203  1.00  0.00     0.000 C 
ENDROOT
BRANCH   1   2
ATOM      2  C   UNL     1      13.802  -2.445   3.221  1.00  0.00     0.000 C 
BRANCH   2   3
ATOM      3  C   UNL     1      14.648  -1.198   3.518  1.00  0.00     0.000 C 
BRANCH   3   4
ATOM      4  C   UNL     1      13.805   0.079   3.658  1.00  0.00     0.000 C 
BRANCH   4   5
ATOM      5  C   UNL     1      12.450  -0.174   4.339  1.00  0.00     0.000 C 
BRANCH   5   6
ATOM      6  C   UNL     1      11.399   0.894   3.986  1.00  0.00     0.000 C 
BRANCH   6   7
ATOM      7  C   UNL     1      10.206   0.389   3.147  1.00  0.00     0.000 C 
BRANCH   7   8
ATOM      8  C   UNL     1      10.507   0.141   1.656  1.00  0.00     0.000 C 
BRANCH   8   9
ATOM      9  C   UNL     1      10.713  -1.348   1.328  1.00  0.00     0.000 C 
BRANCH   9  10
ATOM     10  C   UNL     1      11.729  -1.572   0.196  1.00  0.00     0.000 C 
BRANCH  10  11
ATOM     11  C   UNL     1      12.714  -0.401   0.044  1.00  0.00     0.000 C 
BRANCH  11  12
ATOM     12  C   UNL     1      14.047  -0.832  -0.589  1.00  0.00     0.000 C 
BRANCH  12  13
ATOM     13  C   UNL     1      15.196   0.136  -0.265  1.00  0.00     0.006 C 
BRANCH  13  14
ATOM     14  C   UNL     1      16.379  -0.609   0.362  1.00  0.00     0.053 C 
BRANCH  14  15
ATOM     15  C   UNL     1      17.332   0.357   0.991  1.00  0.00     0.041 C 
ATOM     16  O   UNL     1      18.497   0.489   0.531  1.00  0.00    -0.550 OA
ATOM     17  O   UNL     1      16.919   1.148   2.055  1.00  0.00    -0.550 OA
ENDBRANCH  14  15
ENDBRANCH  13  14
ENDBRANCH  12  13
ENDBRANCH  11  12
ENDBRANCH  10  11
ENDBRANCH   9  10
ENDBRANCH   8   9
ENDBRANCH   7   8
ENDBRANCH   6   7
ENDBRANCH   5   6
ENDBRANCH   4   5
ENDBRANCH   3   4
ENDBRANCH   2   3
ENDBRANCH   1   2
BRANCH   1  18
ATOM     18  C   UNL     1      13.498  -4.315   1.546  1.00  0.00     0.000 C 
BRANCH  18  19
ATOM     19  C   UNL     1      14.114  -5.692   1.222  1.00  0.00     0.000 C 
BRANCH  19  20
ATOM     20  C   UNL     1      13.083  -6.834   1.126  1.00  0.00     0.000 C 
BRANCH  20  21
ATOM     21  C   UNL     1      13.666  -8.227   0.820  1.00  0.00     0.000 C 
BRANCH  21  22
ATOM     22  C   UNL     1      13.003  -8.971  -0.355  1.00  0.00     0.000 C 
BRANCH  22  23
ATOM     23  C   UNL     1      12.507  -8.022  -1.460  1.00  0.00     0.000 C 
BRANCH  23  24
ATOM     24  C   UNL     1      11.178  -8.479  -2.089  1.00  0.00    -0.000 C 
BRANCH  24  25
ATOM     25  C   UNL     1       9.950  -8.388  -1.162  1.00  0.00    -0.000 C 
BRANCH  25  26
ATOM     26  C   UNL     1       9.752  -7.023  -0.477  1.00  0.00    -0.000 C 
BRANCH  26  27
ATOM     27  C   UNL     1       9.372  -5.888  -1.452  1.00  0.00    -0.000 C 
BRANCH  27  28
ATOM     28  C   UNL     1       8.154  -6.244  -2.317  1.00  0.00    -0.000 C 
BRANCH  28  29
ATOM     29  C   UNL     1       8.452  -6.039  -3.807  1.00  0.00    -0.000 C 
BRANCH  29  30
ATOM     30  C   UNL     1       7.399  -5.130  -4.458  1.00  0.00    -0.000 C 
BRANCH  30  31
ATOM     31  C   UNL     1       6.713  -4.199  -3.447  1.00  0.00    -0.003 C 
ATOM     32  C   UNL     1       5.190  -4.191  -3.587  1.00  0.00     0.004 C 
ENDBRANCH  30  31
ENDBRANCH  29  30
ENDBRANCH  28  29
ENDBRANCH  27  28
ENDBRANCH  26  27
ENDBRANCH  25  26
ENDBRANCH  24  25
ENDBRANCH  23  24
ENDBRANCH  22  23
ENDBRANCH  21  22
ENDBRANCH  20  21
ENDBRANCH  19  20
ENDBRANCH  18  19
ENDBRANCH   1  18
TORSDOF 28
ENDMDL
MODEL 7
REMARK VINA RESULT:    -4.277      2.044      3.920
REMARK INTER + INTRA:         -16.022
REMARK INTER:                 -11.370
REMARK INTRA:                  -4.652
REMARK UNBOUND:                -4.743
REMARK SMILES CCCCCCCCCCCCCCCCCCCCCCCCCCCCCC(=O)[O-]
REMARK SMILES IDX 16 1 17 2 18 3 19 4 20 5 21 6 22 7 23 8 24 9 25 10 26 11
REMARK SMILES IDX 27 12 28 13 29 14 30 15 31 16 32 17 15 18 14 19 13 20 12 21
REMARK SMILES IDX 11 22 10 23 9 24 8 25 7 26 6 27 5 28 4 29 3 30 2 31 1 32
REMARK H PARENT
REMARK Flexibility Score: inf
ROOT
ATOM      1  C   UNL     1      13.726  -2.471   3.295  1.00  0.00     0.000 C 
ENDROOT
BRANCH   1   2
ATOM      2  C   UNL     1      15.133  -2.941   2.906  1.00  0.00     0.000 C 
BRANCH   2   3
ATOM      3  C   UNL     1      15.087  -3.864   1.678  1.00  0.00     0.000 C 
BRANCH   3   4
ATOM      4  C   UNL     1      13.883  -4.818   1.690  1.00  0.00     0.000 C 
BRANCH   4   5
ATOM      5  C   UNL     1      14.168  -6.147   0.972  1.00  0.00     0.000 C 
BRANCH   5   6
ATOM      6  C   UNL     1      13.250  -7.288   1.447  1.00  0.00     0.000 C 
BRANCH   6   7
ATOM      7  C   UNL     1      11.802  -7.229   0.916  1.00  0.00     0.000 C 
BRANCH   7   8
ATOM      8  C   UNL     1      11.662  -6.892  -0.580  1.00  0.00     0.000 C 
BRANCH   8   9
ATOM      9  C   UNL     1      11.231  -5.435  -0.826  1.00  0.00     0.000 C 
BRANCH   9  10
ATOM     10  C   UNL     1       9.739  -5.200  -0.535  1.00  0.00     0.000 C 
BRANCH  10  11
ATOM     11  C   UNL     1       8.820  -5.973  -1.497  1.00  0.00     0.000 C 
BRANCH  11  12
ATOM     12  C   UNL     1       7.890  -5.045  -2.295  1.00  0.00     0.000 C 
BRANCH  12  13
ATOM     13  C   UNL     1       7.351  -5.704  -3.574  1.00  0.00     0.006 C 
BRANCH  13  14
ATOM     14  C   UNL     1       7.854  -4.972  -4.821  1.00  0.00     0.053 C 
BRANCH  14  15
ATOM     15  C   UNL     1       8.685  -5.885  -5.665  1.00  0.00     0.041 C 
ATOM     16  O   UNL     1       8.499  -5.945  -6.909  1.00  0.00    -0.550 OA
ATOM     17  O   UNL     1       9.700  -6.637  -5.085  1.00  0.00    -0.550 OA
ENDBRANCH  14  15
ENDBRANCH  13  14
ENDBRANCH  12  13
ENDBRANCH  11  12
ENDBRANCH  10  11
ENDBRANCH   9  10
ENDBRANCH   8   9
ENDBRANCH   7   8
ENDBRANCH   6   7
ENDBRANCH   5   6
ENDBRANCH   4   5
ENDBRANCH   3   4
ENDBRANCH   2   3
ENDBRANCH   1   2
BRANCH   1  18
ATOM     18  C   UNL     1      13.778  -1.107   3.999  1.00  0.00     0.000 C 
BRANCH  18  19
ATOM     19  C   UNL     1      12.377  -0.509   4.245  1.00  0.00     0.000 C 
BRANCH  19  20
ATOM     20  C   UNL     1      11.972   0.579   3.230  1.00  0.00     0.000 C 
BRANCH  20  21
ATOM     21  C   UNL     1      10.711   0.272   2.400  1.00  0.00     0.000 C 
BRANCH  21  22
ATOM     22  C   UNL     1      10.150  -1.153   2.566  1.00  0.00     0.000 C 
BRANCH  22  23
ATOM     23  C   UNL     1      10.493  -2.073   1.383  1.00  0.00     0.000 C 
BRANCH  23  24
ATOM     24  C   UNL     1      11.207  -1.333   0.237  1.00  0.00    -0.000 C 
BRANCH  24  25
ATOM     25  C   UNL     1      12.658  -1.779  -0.026  1.00  0.00    -0.000 C 
BRANCH  25  26
ATOM     26  C   UNL     1      13.590  -0.677  -0.564  1.00  0.00    -0.000 C 
BRANCH  26  27
ATOM     27  C   UNL     1      14.698  -0.263   0.426  1.00  0.00    -0.000 C 
BRANCH  27  28
ATOM     28  C   UNL     1      16.104  -0.403  -0.177  1.00  0.00    -0.000 C 
BRANCH  28  29
ATOM     29  C   UNL     1      17.177   0.110   0.790  1.00  0.00    -0.000 C 
BRANCH  29  30
ATOM     30  C   UNL     1      16.586   0.353   2.187  1.00  0.00    -0.000 C 
BRANCH  30  31
ATOM     31  C   UNL     1      17.551  -0.040   3.316  1.00  0.00    -0.003 C 
ATOM     32  C   UNL     1      17.085   0.443   4.689  1.00  0.00     0.004 C 
ENDBRANCH  30  31
ENDBRANCH  29  30
ENDBRANCH  28  29
ENDBRANCH  27  28
ENDBRANCH  26  27
ENDBRANCH  25  26
ENDBRANCH  24  25
ENDBRANCH  23  24
ENDBRANCH  22  23
ENDBRANCH  21  22
ENDBRANCH  20  21
ENDBRANCH  19  20
ENDBRANCH  18  19
ENDBRANCH   1  18
TORSDOF 28
ENDMDL
MODEL 8
REMARK VINA RESULT:    -4.259      1.603      3.328
REMARK INTER + INTRA:         -15.974
REMARK INTER:                 -11.839
REMARK INTRA:                  -4.135
REMARK UNBOUND:                -4.743
REMARK SMILES CCCCCCCCCCCCCCCCCCCCCCCCCCCCCC(=O)[O-]
REMARK SMILES IDX 16 1 17 2 18 3 19 4 20 5 21 6 22 7 23 8 24 9 25 10 26 11
REMARK SMILES IDX 27 12 28 13 29 14 30 15 31 16 32 17 15 18 14 19 13 20 12 21
REMARK SMILES IDX 11 22 10 23 9 24 8 25 7 26 6 27 5 28 4 29 3 30 2 31 1 32
REMARK H PARENT
REMARK Flexibility Score: inf
ROOT
ATOM      1  C   UNL     1      13.499  -3.109   2.794  1.00  0.00     0.000 C 
ENDROOT
BRANCH   1   2
ATOM      2  C   UNL     1      13.939  -3.691   1.445  1.00  0.00     0.000 C 
BRANCH   2   3
ATOM      3  C   UNL     1      15.129  -4.647   1.618  1.00  0.00     0.000 C 
BRANCH   3   4
ATOM      4  C   UNL     1      14.774  -6.109   1.303  1.00  0.00     0.000 C 
BRANCH   4   5
ATOM      5  C   UNL     1      13.311  -6.286   0.866  1.00  0.00     0.000 C 
BRANCH   5   6
ATOM      6  C   UNL     1      12.614  -7.455   1.586  1.00  0.00     0.000 C 
BRANCH   6   7
ATOM      7  C   UNL     1      13.136  -8.859   1.217  1.00  0.00     0.000 C 
BRANCH   7   8
ATOM      8  C   UNL     1      13.212  -9.158  -0.292  1.00  0.00     0.000 C 
BRANCH   8   9
ATOM      9  C   UNL     1      12.112 -10.123  -0.765  1.00  0.00     0.000 C 
BRANCH   9  10
ATOM     10  C   UNL     1      11.779  -9.960  -2.257  1.00  0.00     0.000 C 
BRANCH  10  11
ATOM     11  C   UNL     1      10.437  -9.245  -2.490  1.00  0.00     0.000 C 
BRANCH  11  12
ATOM     12  C   UNL     1       9.679  -8.976  -1.180  1.00  0.00     0.000 C 
BRANCH  12  13
ATOM     13  C   UNL     1       8.806  -7.714  -1.250  1.00  0.00     0.006 C 
BRANCH  13  14
ATOM     14  C   UNL     1       9.609  -6.520  -1.775  1.00  0.00     0.053 C 
BRANCH  14  15
ATOM     15  C   UNL     1       9.149  -5.254  -1.128  1.00  0.00     0.041 C 
ATOM     16  O   UNL     1       9.901  -4.643  -0.323  1.00  0.00    -0.550 OA
ATOM     17  O   UNL     1       7.907  -4.720  -1.448  1.00  0.00    -0.550 OA
ENDBRANCH  14  15
ENDBRANCH  13  14
ENDBRANCH  12  13
ENDBRANCH  11  12
ENDBRANCH  10  11
ENDBRANCH   9  10
ENDBRANCH   8   9
ENDBRANCH   7   8
ENDBRANCH   6   7
ENDBRANCH   5   6
ENDBRANCH   4   5
ENDBRANCH   3   4
ENDBRANCH   2   3
ENDBRANCH   1   2
BRANCH   1  18
ATOM     18  C   UNL     1      14.658  -2.366   3.474  1.00  0.00     0.000 C 
BRANCH  18  19
ATOM     19  C   UNL     1      14.205  -1.064   4.170  1.00  0.00     0.000 C 
BRANCH  19  20
ATOM     20  C   UNL     1      12.676  -0.880   4.223  1.00  0.00     0.000 C 
BRANCH  20  21
ATOM     21  C   UNL     1      12.155   0.477   3.711  1.00  0.00     0.000 C 
BRANCH  21  22
ATOM     22  C   UNL     1      10.624   0.641   3.733  1.00  0.00     0.000 C 
BRANCH  22  23
ATOM     23  C   UNL     1       9.973   0.368   2.367  1.00  0.00     0.000 C 
BRANCH  23  24
ATOM     24  C   UNL     1       9.941  -1.129   2.008  1.00  0.00    -0.000 C 
BRANCH  24  25
ATOM     25  C   UNL     1      10.975  -1.572   0.955  1.00  0.00    -0.000 C 
BRANCH  25  26
ATOM     26  C   UNL     1      11.577  -0.430   0.115  1.00  0.00    -0.000 C 
BRANCH  26  27
ATOM     27  C   UNL     1      13.110  -0.306   0.245  1.00  0.00    -0.000 C 
BRANCH  27  28
ATOM     28  C   UNL     1      13.826  -0.456  -1.106  1.00  0.00    -0.000 C 
BRANCH  28  29
ATOM     29  C   UNL     1      15.326  -0.169  -0.973  1.00  0.00    -0.000 C 
BRANCH  29  30
ATOM     30  C   UNL     1      15.882  -0.743   0.339  1.00  0.00    -0.000 C 
BRANCH  30  31
ATOM     31  C   UNL     1      17.016   0.111   0.925  1.00  0.00    -0.003 C 
ATOM     32  C   UNL     1      16.578   0.923   2.144  1.00  0.00     0.004 C 
ENDBRANCH  30  31
ENDBRANCH  29  30
ENDBRANCH  28  29
ENDBRANCH  27  28
ENDBRANCH  26  27
ENDBRANCH  25  26
ENDBRANCH  24  25
ENDBRANCH  23  24
ENDBRANCH  22  23
ENDBRANCH  21  22
ENDBRANCH  20  21
ENDBRANCH  19  20
ENDBRANCH  18  19
ENDBRANCH   1  18
TORSDOF 28
ENDMDL
MODEL 9
REMARK VINA RESULT:    -4.209      1.735      3.799
REMARK INTER + INTRA:         -15.842
REMARK INTER:                 -11.787
REMARK INTRA:                  -4.056
REMARK UNBOUND:                -4.743
REMARK SMILES CCCCCCCCCCCCCCCCCCCCCCCCCCCCCC(=O)[O-]
REMARK SMILES IDX 16 1 17 2 18 3 19 4 20 5 21 6 22 7 23 8 24 9 25 10 26 11
REMARK SMILES IDX 27 12 28 13 29 14 30 15 31 16 32 17 15 18 14 19 13 20 12 21
REMARK SMILES IDX 11 22 10 23 9 24 8 25 7 26 6 27 5 28 4 29 3 30 2 31 1 32
REMARK H PARENT
REMARK Flexibility Score: inf
ROOT
ATOM      1  C   UNL     1      12.926  -6.918   0.941  1.00  0.00     0.000 C 
ENDROOT
BRANCH   1   2
ATOM      2  C   UNL     1      12.753  -7.098  -0.573  1.00  0.00     0.000 C 
BRANCH   2   3
ATOM      3  C   UNL     1      12.093  -8.447  -0.896  1.00  0.00     0.000 C 
BRANCH   3   4
ATOM      4  C   UNL     1      11.940  -8.693  -2.405  1.00  0.00     0.000 C 
BRANCH   4   5
ATOM      5  C   UNL     1      12.017  -7.398  -3.230  1.00  0.00     0.000 C 
BRANCH   5   6
ATOM      6  C   UNL     1      12.394  -7.652  -4.701  1.00  0.00     0.000 C 
BRANCH   6   7
ATOM      7  C   UNL     1      12.017  -6.521  -5.681  1.00  0.00     0.000 C 
BRANCH   7   8
ATOM      8  C   UNL     1      10.958  -6.888  -6.736  1.00  0.00     0.000 C 
BRANCH   8   9
ATOM      9  C   UNL     1       9.959  -7.946  -6.237  1.00  0.00     0.000 C 
BRANCH   9  10
ATOM     10  C   UNL     1       8.496  -7.495  -6.375  1.00  0.00     0.000 C 
BRANCH  10  11
ATOM     11  C   UNL     1       7.683  -7.715  -5.087  1.00  0.00     0.000 C 
BRANCH  11  12
ATOM     12  C   UNL     1       8.524  -8.340  -3.962  1.00  0.00     0.000 C 
BRANCH  12  13
ATOM     13  C   UNL     1       8.295  -7.658  -2.604  1.00  0.00     0.006 C 
BRANCH  13  14
ATOM     14  C   UNL     1       8.379  -6.134  -2.736  1.00  0.00     0.053 C 
BRANCH  14  15
ATOM     15  C   UNL     1       8.676  -5.510  -1.410  1.00  0.00     0.041 C 
ATOM     16  O   UNL     1       9.529  -6.029  -0.641  1.00  0.00    -0.550 OA
ATOM     17  O   UNL     1       8.048  -4.327  -1.041  1.00  0.00    -0.550 OA
ENDBRANCH  14  15
ENDBRANCH  13  14
ENDBRANCH  12  13
ENDBRANCH  11  12
ENDBRANCH  10  11
ENDBRANCH   9  10
ENDBRANCH   8   9
ENDBRANCH   7   8
ENDBRANCH   6   7
ENDBRANCH   5   6
ENDBRANCH   4   5
ENDBRANCH   3   4
ENDBRANCH   2   3
ENDBRANCH   1   2
BRANCH   1  18
ATOM     18  C   UNL     1      14.020  -5.885   1.249  1.00  0.00     0.000 C 
BRANCH  18  19
ATOM     19  C   UNL     1      13.450  -4.480   1.536  1.00  0.00     0.000 C 
BRANCH  19  20
ATOM     20  C   UNL     1      14.499  -3.468   2.039  1.00  0.00     0.000 C 
BRANCH  20  21
ATOM     21  C   UNL     1      14.065  -2.611   3.244  1.00  0.00     0.000 C 
BRANCH  21  22
ATOM     22  C   UNL     1      14.661  -1.191   3.286  1.00  0.00     0.000 C 
BRANCH  22  23
ATOM     23  C   UNL     1      13.915  -0.258   4.254  1.00  0.00     0.000 C 
BRANCH  23  24
ATOM     24  C   UNL     1      12.392  -0.488   4.252  1.00  0.00    -0.000 C 
BRANCH  24  25
ATOM     25  C   UNL     1      11.560   0.644   3.619  1.00  0.00    -0.000 C 
BRANCH  25  26
ATOM     26  C   UNL     1      10.460   0.177   2.647  1.00  0.00    -0.000 C 
BRANCH  26  27
ATOM     27  C   UNL     1      10.918   0.115   1.175  1.00  0.00    -0.000 C 
BRANCH  27  28
ATOM     28  C   UNL     1      11.268  -1.312   0.730  1.00  0.00    -0.000 C 
BRANCH  28  29
ATOM     29  C   UNL     1      12.523  -1.328  -0.150  1.00  0.00    -0.000 C 
BRANCH  29  30
ATOM     30  C   UNL     1      13.411  -0.108   0.138  1.00  0.00    -0.000 C 
BRANCH  30  31
ATOM     31  C   UNL     1      14.878  -0.336  -0.256  1.00  0.00    -0.003 C 
ATOM     32  C   UNL     1      15.072  -0.473  -1.766  1.00  0.00     0.004 C 
ENDBRANCH  30  31
ENDBRANCH  29  30
ENDBRANCH  28  29
ENDBRANCH  27  28
ENDBRANCH  26  27
ENDBRANCH  25  26
ENDBRANCH  24  25
ENDBRANCH  23  24
ENDBRANCH  22  23
ENDBRANCH  21  22
ENDBRANCH  20  21
ENDBRANCH  19  20
ENDBRANCH  18  19
ENDBRANCH   1  18
TORSDOF 28
ENDMDL
