MODEL 1
REMARK VINA RESULT:    -3.566      0.000      0.000
REMARK INTER + INTRA:          -3.671
REMARK INTER:                  -3.671
REMARK INTRA:                   0.000
REMARK UNBOUND:                 0.000
REMARK SMILES Oc1ccc2[nH]ccc2c1
REMARK SMILES IDX 3 1 4 2 5 3 9 4 8 5 7 6 6 7 10 8 2 9 1 11
REMARK H PARENT 6 10 1 12
REMARK Flexibility Score: inf
ROOT
ATOM      1  C   UNL     1      19.849  11.636  35.631  1.00  0.00     0.048 A 
ATOM      2  C   UNL     1      19.480  11.583  36.988  1.00  0.00     0.030 A 
ATOM      3  C   UNL     1      19.151  10.340  37.525  1.00  0.00     0.046 A 
ATOM      4  C   UNL     1      19.181   9.198  36.769  1.00  0.00     0.003 A 
ATOM      5  C   UNL     1      18.807   8.153  37.584  1.00  0.00     0.028 A 
ATOM      6  C   UNL     1      18.564   8.731  38.827  1.00  0.00     0.083 A 
ATOM      7  N   UNL     1      18.775  10.067  38.785  1.00  0.00    -0.361 N 
ATOM      8  C   UNL     1      19.542   9.216  35.422  1.00  0.00     0.056 A 
ATOM      9  C   UNL     1      19.880  10.456  34.848  1.00  0.00     0.116 A 
ATOM     10  H   UNL     1      18.668  10.743  39.574  1.00  0.00     0.166 HD
ENDROOT
BRANCH   9  11
ATOM     11  O   UNL     1      20.246  10.509  33.504  1.00  0.00    -0.508 OA
ATOM     12  H   UNL     1      20.653  11.345  33.100  1.00  0.00     0.293 HD
ENDBRANCH   9  11
TORSDOF 1
ENDMDL
MODEL 2
REMARK VINA RESULT:    -3.533      8.693      9.835
REMARK INTER + INTRA:          -3.637
REMARK INTER:                  -3.637
REMARK INTRA:                   0.000
REMARK UNBOUND:                 0.000
REMARK SMILES Oc1ccc2[nH]ccc2c1
REMARK SMILES IDX 3 1 4 2 5 3 9 4 8 5 7 6 6 7 10 8 2 9 1 11
REMARK H PARENT 6 10 1 12
REMARK Flexibility Score: inf
ROOT
ATOM      1  C   UNL     1      19.854  12.676  26.723  1.00  0.00     0.048 A 
ATOM      2  C   UNL     1      21.182  12.736  26.262  1.00  0.00     0.030 A 
ATOM      3  C   UNL     1      22.197  12.396  27.156  1.00  0.00     0.046 A 
ATOM      4  C   UNL     1      21.925  12.015  28.442  1.00  0.00     0.003 A 
ATOM      5  C   UNL     1      23.128  11.750  29.058  1.00  0.00     0.028 A 
ATOM      6  C   UNL     1      24.094  11.990  28.084  1.00  0.00     0.083 A 
ATOM      7  N   UNL     1      23.520  12.385  26.924  1.00  0.00    -0.361 N 
ATOM      8  C   UNL     1      20.621  11.945  28.930  1.00  0.00     0.056 A 
ATOM      9  C   UNL     1      19.571  12.282  28.054  1.00  0.00     0.116 A 
ATOM     10  H   UNL     1      24.009  12.629  26.034  1.00  0.00     0.166 HD
ENDROOT
BRANCH   9  11
ATOM     11  O   UNL     1      18.256  12.223  28.509  1.00  0.00    -0.508 OA
ATOM     12  H   UNL     1      17.818  13.015  28.963  1.00  0.00     0.293 HD
ENDBRANCH   9  11
TORSDOF 1
ENDMDL
MODEL 3
REMARK VINA RESULT:    -3.528      8.874     10.679
REMARK INTER + INTRA:          -3.631
REMARK INTER:                  -3.631
REMARK INTRA:                   0.000
REMARK UNBOUND:                 0.000
REMARK SMILES Oc1ccc2[nH]ccc2c1
REMARK SMILES IDX 3 1 4 2 5 3 9 4 8 5 7 6 6 7 10 8 2 9 1 11
REMARK H PARENT 6 10 1 12
REMARK Flexibility Score: inf
ROOT
ATOM      1  C   UNL     1      20.701  11.970  28.879  1.00  0.00     0.048 A 
ATOM      2  C   UNL     1      22.022  11.987  28.394  1.00  0.00     0.030 A 
ATOM      3  C   UNL     1      22.217  12.306  27.051  1.00  0.00     0.046 A 
ATOM      4  C   UNL     1      21.168  12.595  26.220  1.00  0.00     0.003 A 
ATOM      5  C   UNL     1      21.691  12.864  24.974  1.00  0.00     0.028 A 
ATOM      6  C   UNL     1      23.067  12.720  25.119  1.00  0.00     0.083 A 
ATOM      7  N   UNL     1      23.384  12.380  26.390  1.00  0.00    -0.361 N 
ATOM      8  C   UNL     1      19.849  12.586  26.668  1.00  0.00     0.056 A 
ATOM      9  C   UNL     1      19.615  12.268  28.020  1.00  0.00     0.116 A 
ATOM     10  H   UNL     1      24.341  12.210  26.773  1.00  0.00     0.166 HD
ENDROOT
BRANCH   9  11
ATOM     11  O   UNL     1      18.308  12.251  28.502  1.00  0.00    -0.508 OA
ATOM     12  H   UNL     1      17.934  11.443  28.985  1.00  0.00     0.293 HD
ENDBRANCH   9  11
TORSDOF 1
ENDMDL
MODEL 4
REMARK VINA RESULT:    -3.482      2.618      4.059
REMARK INTER + INTRA:          -3.584
REMARK INTER:                  -3.584
REMARK INTRA:                   0.000
REMARK UNBOUND:                 0.000
REMARK SMILES Oc1ccc2[nH]ccc2c1
REMARK SMILES IDX 3 1 4 2 5 3 9 4 8 5 7 6 6 7 10 8 2 9 1 11
REMARK H PARENT 6 10 1 12
REMARK Flexibility Score: inf
ROOT
ATOM      1  C   UNL     1      18.802   9.016  38.576  1.00  0.00     0.048 A 
ATOM      2  C   UNL     1      18.970   8.637  37.231  1.00  0.00     0.030 A 
ATOM      3  C   UNL     1      19.343   9.624  36.320  1.00  0.00     0.046 A 
ATOM      4  C   UNL     1      19.543  10.922  36.706  1.00  0.00     0.003 A 
ATOM      5  C   UNL     1      19.898  11.637  35.583  1.00  0.00     0.028 A 
ATOM      6  C   UNL     1      19.895  10.709  34.546  1.00  0.00     0.083 A 
ATOM      7  N   UNL     1      19.556   9.480  35.001  1.00  0.00    -0.361 N 
ATOM      8  C   UNL     1      19.385  11.330  38.029  1.00  0.00     0.056 A 
ATOM      9  C   UNL     1      19.008  10.359  38.977  1.00  0.00     0.116 A 
ATOM     10  H   UNL     1      19.476   8.603  34.439  1.00  0.00     0.166 HD
ENDROOT
BRANCH   9  11
ATOM     11  O   UNL     1      18.841  10.732  40.309  1.00  0.00    -0.508 OA
ATOM     12  H   UNL     1      19.516  10.472  41.018  1.00  0.00     0.293 HD
ENDBRANCH   9  11
TORSDOF 1
ENDMDL
MODEL 5
REMARK VINA RESULT:    -3.393      4.133      5.243
REMARK INTER + INTRA:          -3.492
REMARK INTER:                  -3.492
REMARK INTRA:                   0.000
REMARK UNBOUND:                 0.000
REMARK SMILES Oc1ccc2[nH]ccc2c1
REMARK SMILES IDX 3 1 4 2 5 3 9 4 8 5 7 6 6 7 10 8 2 9 1 11
REMARK H PARENT 6 10 1 12
REMARK Flexibility Score: inf
ROOT
ATOM      1  C   UNL     1      19.540   9.996  39.296  1.00  0.00     0.048 A 
ATOM      2  C   UNL     1      19.124  11.324  39.502  1.00  0.00     0.030 A 
ATOM      3  C   UNL     1      18.858  11.727  40.810  1.00  0.00     0.046 A 
ATOM      4  C   UNL     1      18.993  10.869  41.868  1.00  0.00     0.003 A 
ATOM      5  C   UNL     1      18.659  11.565  43.009  1.00  0.00     0.028 A 
ATOM      6  C   UNL     1      18.330  12.844  42.570  1.00  0.00     0.083 A 
ATOM      7  N   UNL     1      18.454  12.938  41.226  1.00  0.00    -0.361 N 
ATOM      8  C   UNL     1      19.402   9.548  41.699  1.00  0.00     0.056 A 
ATOM      9  C   UNL     1      19.680   9.107  40.390  1.00  0.00     0.116 A 
ATOM     10  H   UNL     1      18.271  13.781  40.637  1.00  0.00     0.166 HD
ENDROOT
BRANCH   9  11
ATOM     11  O   UNL     1      20.091   7.792  40.184  1.00  0.00    -0.508 OA
ATOM     12  H   UNL     1      19.677   7.216  39.461  1.00  0.00     0.293 HD
ENDBRANCH   9  11
TORSDOF 1
ENDMDL
MODEL 6
REMARK VINA RESULT:    -3.353      1.840      3.182
REMARK INTER + INTRA:          -3.451
REMARK INTER:                  -3.451
REMARK INTRA:                   0.000
REMARK UNBOUND:                 0.000
REMARK SMILES Oc1ccc2[nH]ccc2c1
REMARK SMILES IDX 3 1 4 2 5 3 9 4 8 5 7 6 6 7 10 8 2 9 1 11
REMARK H PARENT 6 10 1 12
REMARK Flexibility Score: inf
ROOT
ATOM      1  C   UNL     1      18.777   8.164  37.758  1.00  0.00     0.048 A 
ATOM      2  C   UNL     1      18.806   9.503  38.189  1.00  0.00     0.030 A 
ATOM      3  C   UNL     1      19.200  10.474  37.270  1.00  0.00     0.046 A 
ATOM      4  C   UNL     1      19.551  10.150  35.987  1.00  0.00     0.003 A 
ATOM      5  C   UNL     1      19.886  11.321  35.342  1.00  0.00     0.028 A 
ATOM      6  C   UNL     1      19.715  12.321  36.295  1.00  0.00     0.083 A 
ATOM      7  N   UNL     1      19.296  11.799  37.471  1.00  0.00    -0.361 N 
ATOM      8  C   UNL     1      19.534   8.834  35.528  1.00  0.00     0.056 A 
ATOM      9  C   UNL     1      19.140   7.827  36.431  1.00  0.00     0.116 A 
ATOM     10  H   UNL     1      19.090  12.321  38.351  1.00  0.00     0.166 HD
ENDROOT
BRANCH   9  11
ATOM     11  O   UNL     1      19.112   6.501  36.006  1.00  0.00    -0.508 OA
ATOM     12  H   UNL     1      19.690   5.793  36.443  1.00  0.00     0.293 HD
ENDBRANCH   9  11
TORSDOF 1
ENDMDL
MODEL 7
REMARK VINA RESULT:    -3.334      0.792      2.163
REMARK INTER + INTRA:          -3.432
REMARK INTER:                  -3.432
REMARK INTRA:                   0.000
REMARK UNBOUND:                 0.000
REMARK SMILES Oc1ccc2[nH]ccc2c1
REMARK SMILES IDX 3 1 4 2 5 3 9 4 8 5 7 6 6 7 10 8 2 9 1 11
REMARK H PARENT 6 10 1 12
REMARK Flexibility Score: inf
ROOT
ATOM      1  C   UNL     1      19.123   8.999  35.250  1.00  0.00     0.048 A 
ATOM      2  C   UNL     1      18.783   8.855  36.607  1.00  0.00     0.030 A 
ATOM      3  C   UNL     1      19.001   9.942  37.451  1.00  0.00     0.046 A 
ATOM      4  C   UNL     1      19.529  11.118  36.989  1.00  0.00     0.003 A 
ATOM      5  C   UNL     1      19.617  11.981  38.060  1.00  0.00     0.028 A 
ATOM      6  C   UNL     1      19.124  11.263  39.145  1.00  0.00     0.083 A 
ATOM      7  N   UNL     1      18.749  10.018  38.768  1.00  0.00    -0.361 N 
ATOM      8  C   UNL     1      19.877  11.294  35.651  1.00  0.00     0.056 A 
ATOM      9  C   UNL     1      19.670  10.215  34.770  1.00  0.00     0.116 A 
ATOM     10  H   UNL     1      18.346   9.273  39.379  1.00  0.00     0.166 HD
ENDROOT
BRANCH   9  11
ATOM     11  O   UNL     1      20.007  10.356  33.425  1.00  0.00    -0.508 OA
ATOM     12  H   UNL     1      19.745   9.659  32.739  1.00  0.00     0.293 HD
ENDBRANCH   9  11
TORSDOF 1
ENDMDL
MODEL 8
REMARK VINA RESULT:    -3.307      1.802      2.542
REMARK INTER + INTRA:          -3.404
REMARK INTER:                  -3.404
REMARK INTRA:                   0.000
REMARK UNBOUND:                 0.000
REMARK SMILES Oc1ccc2[nH]ccc2c1
REMARK SMILES IDX 3 1 4 2 5 3 9 4 8 5 7 6 6 7 10 8 2 9 1 11
REMARK H PARENT 6 10 1 12
REMARK Flexibility Score: inf
ROOT
ATOM      1  C   UNL     1      18.815  10.556  37.165  1.00  0.00     0.048 A 
ATOM      2  C   UNL     1      18.950  11.081  38.463  1.00  0.00     0.030 A 
ATOM      3  C   UNL     1      19.152  10.184  39.510  1.00  0.00     0.046 A 
ATOM      4  C   UNL     1      19.218   8.833  39.298  1.00  0.00     0.003 A 
ATOM      5  C   UNL     1      19.422   8.232  40.521  1.00  0.00     0.028 A 
ATOM      6  C   UNL     1      19.470   9.280  41.436  1.00  0.00     0.083 A 
ATOM      7  N   UNL     1      19.305  10.470  40.814  1.00  0.00    -0.361 N 
ATOM      8  C   UNL     1      19.088   8.280  38.025  1.00  0.00     0.056 A 
ATOM      9  C   UNL     1      18.884   9.158  36.944  1.00  0.00     0.116 A 
ATOM     10  H   UNL     1      19.298  11.415  41.259  1.00  0.00     0.166 HD
ENDROOT
BRANCH   9  11
ATOM     11  O   UNL     1      18.750   8.639  35.658  1.00  0.00    -0.508 OA
ATOM     12  H   UNL     1      18.790   7.642  35.484  1.00  0.00     0.293 HD
ENDBRANCH   9  11
TORSDOF 1
ENDMDL
