MODEL 1
REMARK VINA RESULT:    -2.811      0.000      0.000
REMARK INTER + INTRA:          -3.409
REMARK INTER:                  -3.303
REMARK INTRA:                  -0.106
REMARK UNBOUND:                -0.106
REMARK SMILES O=C([O-])CCC(=O)[O-]
REMARK SMILES IDX 4 1 2 2 1 3 3 4 5 5 6 6 7 7 8 8
REMARK H PARENT
REMARK Flexibility Score: inf
ROOT
ATOM      1  C   UNL     1       8.751  10.178   7.001  1.00  0.00     0.059 C 
ENDROOT
BRANCH   1   2
ATOM      2  C   UNL     1       9.198  11.407   7.733  1.00  0.00     0.042 C 
ATOM      3  O   UNL     1       9.412  11.363   8.974  1.00  0.00    -0.550 OA
ATOM      4  O   UNL     1       9.417  12.588   7.038  1.00  0.00    -0.550 OA
ENDBRANCH   1   2
BRANCH   1   5
ATOM      5  C   UNL     1       9.540   9.976   5.704  1.00  0.00     0.059 C 
BRANCH   5   6
ATOM      6  C   UNL     1      10.744   9.110   5.920  1.00  0.00     0.042 C 
ATOM      7  O   UNL     1      10.802   8.343   6.916  1.00  0.00    -0.550 OA
ATOM      8  O   UNL     1      11.818   9.181   5.041  1.00  0.00    -0.550 OA
ENDBRANCH   5   6
ENDBRANCH   1   5
TORSDOF 3
ENDMDL
MODEL 2
REMARK VINA RESULT:    -2.786      0.180      3.592
REMARK INTER + INTRA:          -3.380
REMARK INTER:                  -3.296
REMARK INTRA:                  -0.084
REMARK UNBOUND:                -0.106
REMARK SMILES O=C([O-])CCC(=O)[O-]
REMARK SMILES IDX 4 1 2 2 1 3 3 4 5 5 6 6 7 7 8 8
REMARK H PARENT
REMARK Flexibility Score: inf
ROOT
ATOM      1  C   UNL     1       9.542   9.950   5.768  1.00  0.00     0.059 C 
ENDROOT
BRANCH   1   2
ATOM      2  C   UNL     1      10.764   9.090   5.890  1.00  0.00     0.042 C 
ATOM      3  O   UNL     1      10.839   8.220   6.797  1.00  0.00    -0.550 OA
ATOM      4  O   UNL     1      11.801   9.223   4.976  1.00  0.00    -0.550 OA
ENDBRANCH   1   2
BRANCH   1   5
ATOM      5  C   UNL     1       8.845  10.134   7.120  1.00  0.00     0.059 C 
BRANCH   5   6
ATOM      6  C   UNL     1       9.167  11.463   7.731  1.00  0.00     0.042 C 
ATOM      7  O   UNL     1       9.101  11.621   8.978  1.00  0.00    -0.550 OA
ATOM      8  O   UNL     1       9.502  12.539   6.917  1.00  0.00    -0.550 OA
ENDBRANCH   5   6
ENDBRANCH   1   5
TORSDOF 3
ENDMDL
MODEL 3
REMARK VINA RESULT:    -2.733      1.221      1.676
REMARK INTER + INTRA:          -3.317
REMARK INTER:                  -3.237
REMARK INTRA:                  -0.081
REMARK UNBOUND:                -0.106
REMARK SMILES O=C([O-])CCC(=O)[O-]
REMARK SMILES IDX 4 1 2 2 1 3 3 4 5 5 6 6 7 7 8 8
REMARK H PARENT
REMARK Flexibility Score: inf
ROOT
ATOM      1  C   UNL     1       8.402  10.433   7.261  1.00  0.00     0.059 C 
ENDROOT
BRANCH   1   2
ATOM      2  C   UNL     1       8.831  11.793   7.722  1.00  0.00     0.042 C 
ATOM      3  O   UNL     1       9.476  12.550   6.949  1.00  0.00    -0.550 OA
ATOM      4  O   UNL     1       8.482  12.238   8.990  1.00  0.00    -0.550 OA
ENDBRANCH   1   2
BRANCH   1   5
ATOM      5  C   UNL     1       9.602   9.501   7.062  1.00  0.00     0.059 C 
BRANCH   5   6
ATOM      6  C   UNL     1       9.964   9.369   5.614  1.00  0.00     0.042 C 
ATOM      7  O   UNL     1       9.067   9.190   4.750  1.00  0.00    -0.550 OA
ATOM      8  O   UNL     1      11.297   9.405   5.225  1.00  0.00    -0.550 OA
ENDBRANCH   5   6
ENDBRANCH   1   5
TORSDOF 3
ENDMDL
MODEL 4
REMARK VINA RESULT:    -2.603      1.362      3.708
REMARK INTER + INTRA:          -3.165
REMARK INTER:                  -3.050
REMARK INTRA:                  -0.115
REMARK UNBOUND:                -0.106
REMARK SMILES O=C([O-])CCC(=O)[O-]
REMARK SMILES IDX 4 1 2 2 1 3 3 4 5 5 6 6 7 7 8 8
REMARK H PARENT
REMARK Flexibility Score: inf
ROOT
ATOM      1  C   UNL     1       8.481   9.737   6.644  1.00  0.00     0.059 C 
ENDROOT
BRANCH   1   2
ATOM      2  C   UNL     1       9.410   9.492   5.493  1.00  0.00     0.042 C 
ATOM      3  O   UNL     1      10.601   9.896   5.543  1.00  0.00    -0.550 OA
ATOM      4  O   UNL     1       8.969   8.783   4.383  1.00  0.00    -0.550 OA
ENDBRANCH   1   2
BRANCH   1   5
ATOM      5  C   UNL     1       9.243   9.858   7.967  1.00  0.00     0.059 C 
BRANCH   5   6
ATOM      6  C   UNL     1       9.190  11.253   8.509  1.00  0.00     0.042 C 
ATOM      7  O   UNL     1       9.343  11.462   9.740  1.00  0.00    -0.550 OA
ATOM      8  O   UNL     1       8.932  12.320   7.657  1.00  0.00    -0.550 OA
ENDBRANCH   5   6
ENDBRANCH   1   5
TORSDOF 3
ENDMDL
MODEL 5
REMARK VINA RESULT:    -2.555      1.713      2.071
REMARK INTER + INTRA:          -3.109
REMARK INTER:                  -2.998
REMARK INTRA:                  -0.111
REMARK UNBOUND:                -0.106
REMARK SMILES O=C([O-])CCC(=O)[O-]
REMARK SMILES IDX 4 1 2 2 1 3 3 4 5 5 6 6 7 7 8 8
REMARK H PARENT
REMARK Flexibility Score: inf
ROOT
ATOM      1  C   UNL     1       7.597  11.177   7.526  1.00  0.00     0.059 C 
ENDROOT
BRANCH   1   2
ATOM      2  C   UNL     1       8.160  12.472   8.030  1.00  0.00     0.042 C 
ATOM      3  O   UNL     1       7.996  12.810   9.232  1.00  0.00    -0.550 OA
ATOM      4  O   UNL     1       8.899  13.284   7.181  1.00  0.00    -0.550 OA
ENDBRANCH   1   2
BRANCH   1   5
ATOM      5  C   UNL     1       8.663  10.078   7.483  1.00  0.00     0.059 C 
BRANCH   5   6
ATOM      6  C   UNL     1       9.191   9.876   6.096  1.00  0.00     0.042 C 
ATOM      7  O   UNL     1      10.087  10.636   5.642  1.00  0.00    -0.550 OA
ATOM      8  O   UNL     1       8.666   8.873   5.291  1.00  0.00    -0.550 OA
ENDBRANCH   5   6
ENDBRANCH   1   5
TORSDOF 3
ENDMDL
MODEL 6
REMARK VINA RESULT:    -2.551      2.950      3.691
REMARK INTER + INTRA:          -3.105
REMARK INTER:                  -3.004
REMARK INTRA:                  -0.100
REMARK UNBOUND:                -0.106
REMARK SMILES O=C([O-])CCC(=O)[O-]
REMARK SMILES IDX 4 1 2 2 1 3 3 4 5 5 6 6 7 7 8 8
REMARK H PARENT
REMARK Flexibility Score: inf
ROOT
ATOM      1  C   UNL     1       7.367  11.905   7.863  1.00  0.00     0.059 C 
ENDROOT
BRANCH   1   2
ATOM      2  C   UNL     1       7.556  13.386   7.738  1.00  0.00     0.042 C 
ATOM      3  O   UNL     1       6.722  14.178   8.252  1.00  0.00    -0.550 OA
ATOM      4  O   UNL     1       8.676  13.891   7.091  1.00  0.00    -0.550 OA
ENDBRANCH   1   2
BRANCH   1   5
ATOM      5  C   UNL     1       8.709  11.169   7.933  1.00  0.00     0.059 C 
BRANCH   5   6
ATOM      6  C   UNL     1       9.081  10.834   9.345  1.00  0.00     0.042 C 
ATOM      7  O   UNL     1       9.545  11.723  10.105  1.00  0.00    -0.550 OA
ATOM      8  O   UNL     1       8.953   9.531   9.808  1.00  0.00    -0.550 OA
ENDBRANCH   5   6
ENDBRANCH   1   5
TORSDOF 3
ENDMDL
MODEL 7
REMARK VINA RESULT:    -2.494      2.808      3.883
REMARK INTER + INTRA:          -3.037
REMARK INTER:                  -2.952
REMARK INTRA:                  -0.084
REMARK UNBOUND:                -0.106
REMARK SMILES O=C([O-])CCC(=O)[O-]
REMARK SMILES IDX 4 1 2 2 1 3 3 4 5 5 6 6 7 7 8 8
REMARK H PARENT
REMARK Flexibility Score: inf
ROOT
ATOM      1  C   UNL     1       6.585  10.737   8.297  1.00  0.00     0.059 C 
ENDROOT
BRANCH   1   2
ATOM      2  C   UNL     1       5.505  11.609   7.732  1.00  0.00     0.042 C 
ATOM      3  O   UNL     1       4.390  11.115   7.418  1.00  0.00    -0.550 OA
ATOM      4  O   UNL     1       5.718  12.974   7.591  1.00  0.00    -0.550 OA
ENDBRANCH   1   2
BRANCH   1   5
ATOM      5  C   UNL     1       7.814  10.698   7.383  1.00  0.00     0.059 C 
BRANCH   5   6
ATOM      6  C   UNL     1       8.882  11.636   7.854  1.00  0.00     0.042 C 
ATOM      7  O   UNL     1       9.251  11.624   9.058  1.00  0.00    -0.550 OA
ATOM      8  O   UNL     1       9.442  12.552   6.972  1.00  0.00    -0.550 OA
ENDBRANCH   5   6
ENDBRANCH   1   5
TORSDOF 3
ENDMDL
MODEL 8
REMARK VINA RESULT:    -2.469      2.746      4.775
REMARK INTER + INTRA:          -3.008
REMARK INTER:                  -2.843
REMARK INTRA:                  -0.165
REMARK UNBOUND:                -0.106
REMARK SMILES O=C([O-])CCC(=O)[O-]
REMARK SMILES IDX 4 1 2 2 1 3 3 4 5 5 6 6 7 7 8 8
REMARK H PARENT
REMARK Flexibility Score: inf
ROOT
ATOM      1  C   UNL     1       7.547  11.078   7.494  1.00  0.00     0.059 C 
ENDROOT
BRANCH   1   2
ATOM      2  C   UNL     1       8.868  11.689   7.850  1.00  0.00     0.042 C 
ATOM      3  O   UNL     1       9.429  11.399   8.940  1.00  0.00    -0.550 OA
ATOM      4  O   UNL     1       9.499  12.547   6.959  1.00  0.00    -0.550 OA
ENDBRANCH   1   2
BRANCH   1   5
ATOM      5  C   UNL     1       6.413  11.645   8.355  1.00  0.00     0.059 C 
BRANCH   5   6
ATOM      6  C   UNL     1       6.371  13.141   8.295  1.00  0.00     0.042 C 
ATOM      7  O   UNL     1       6.099  13.725   7.213  1.00  0.00    -0.550 OA
ATOM      8  O   UNL     1       6.672  13.892   9.424  1.00  0.00    -0.550 OA
ENDBRANCH   5   6
ENDBRANCH   1   5
TORSDOF 3
ENDMDL
MODEL 9
REMARK VINA RESULT:    -2.453      2.405      4.912
REMARK INTER + INTRA:          -2.989
REMARK INTER:                  -2.876
REMARK INTRA:                  -0.113
REMARK UNBOUND:                -0.106
REMARK SMILES O=C([O-])CCC(=O)[O-]
REMARK SMILES IDX 4 1 2 2 1 3 3 4 5 5 6 6 7 7 8 8
REMARK H PARENT
REMARK Flexibility Score: inf
ROOT
ATOM      1  C   UNL     1       7.845  11.452   7.822  1.00  0.00     0.059 C 
ENDROOT
BRANCH   1   2
ATOM      2  C   UNL     1       9.057  11.704   6.978  1.00  0.00     0.042 C 
ATOM      3  O   UNL     1       9.580  12.850   6.944  1.00  0.00    -0.550 OA
ATOM      4  O   UNL     1       9.633  10.664   6.261  1.00  0.00    -0.550 OA
ENDBRANCH   1   2
BRANCH   1   5
ATOM      5  C   UNL     1       7.104  12.753   8.148  1.00  0.00     0.059 C 
BRANCH   5   6
ATOM      6  C   UNL     1       7.238  13.117   9.595  1.00  0.00     0.042 C 
ATOM      7  O   UNL     1       8.286  12.824  10.228  1.00  0.00    -0.550 OA
ATOM      8  O   UNL     1       6.189  13.744  10.254  1.00  0.00    -0.550 OA
ENDBRANCH   5   6
ENDBRANCH   1   5
TORSDOF 3
ENDMDL
