MODEL 1
REMARK VINA RESULT:    -4.949      0.000      0.000
REMARK INTER + INTRA:          -5.672
REMARK INTER:                  -5.527
REMARK INTRA:                  -0.145
REMARK UNBOUND:                -0.145
REMARK SMILES O=C([O-])C=Cc1ccccc1
REMARK SMILES IDX 4 1 5 2 2 3 1 4 3 5 6 6 7 7 11 8 8 9 10 10 9 11
REMARK H PARENT
REMARK Flexibility Score: inf
ROOT
ATOM      1  C   UNL     1     120.643 117.807 123.503  1.00  0.00     0.025 C 
ATOM      2  C   UNL     1     119.867 118.166 124.537  1.00  0.00     0.010 C 
ENDROOT
BRANCH   1   3
ATOM      3  C   UNL     1     121.987 117.234 123.693  1.00  0.00     0.064 C 
ATOM      4  O   UNL     1     122.712 116.930 122.708  1.00  0.00    -0.545 OA
ATOM      5  O   UNL     1     122.464 117.025 124.980  1.00  0.00    -0.545 OA
ENDBRANCH   1   3
BRANCH   2   6
ATOM      6  C   UNL     1     118.503 118.749 124.414  1.00  0.00    -0.026 A 
ATOM      7  C   UNL     1     117.540 118.695 125.445  1.00  0.00     0.008 A 
ATOM      8  C   UNL     1     118.160 119.384 123.207  1.00  0.00     0.008 A 
ATOM      9  C   UNL     1     116.275 119.264 125.264  1.00  0.00     0.001 A 
ATOM     10  C   UNL     1     116.894 119.951 123.032  1.00  0.00     0.001 A 
ATOM     11  C   UNL     1     115.953 119.891 124.059  1.00  0.00     0.000 A 
ENDBRANCH   2   6
TORSDOF 2
ENDMDL
MODEL 2
REMARK VINA RESULT:    -4.936      5.212      6.646
REMARK INTER + INTRA:          -5.658
REMARK INTER:                  -5.527
REMARK INTRA:                  -0.131
REMARK UNBOUND:                -0.145
REMARK SMILES O=C([O-])C=Cc1ccccc1
REMARK SMILES IDX 4 1 5 2 2 3 1 4 3 5 6 6 7 7 11 8 8 9 10 10 9 11
REMARK H PARENT
REMARK Flexibility Score: inf
ROOT
ATOM      1  C   UNL     1     114.242 119.893 127.083  1.00  0.00     0.025 C 
ATOM      2  C   UNL     1     114.383 119.488 125.813  1.00  0.00     0.010 C 
ENDROOT
BRANCH   1   3
ATOM      3  C   UNL     1     112.932 119.913 127.760  1.00  0.00     0.064 C 
ATOM      4  O   UNL     1     111.883 119.558 127.160  1.00  0.00    -0.545 OA
ATOM      5  O   UNL     1     112.855 120.330 129.082  1.00  0.00    -0.545 OA
ENDBRANCH   1   3
BRANCH   2   6
ATOM      6  C   UNL     1     115.674 119.444 125.073  1.00  0.00    -0.026 A 
ATOM      7  C   UNL     1     116.869 118.934 125.626  1.00  0.00     0.008 A 
ATOM      8  C   UNL     1     115.701 119.938 123.756  1.00  0.00     0.008 A 
ATOM      9  C   UNL     1     118.049 118.922 124.876  1.00  0.00     0.001 A 
ATOM     10  C   UNL     1     116.883 119.923 123.011  1.00  0.00     0.001 A 
ATOM     11  C   UNL     1     118.057 119.415 123.570  1.00  0.00     0.000 A 
ENDBRANCH   2   6
TORSDOF 2
ENDMDL
MODEL 3
REMARK VINA RESULT:    -4.913      5.102      6.645
REMARK INTER + INTRA:          -5.632
REMARK INTER:                  -5.489
REMARK INTRA:                  -0.143
REMARK UNBOUND:                -0.145
REMARK SMILES O=C([O-])C=Cc1ccccc1
REMARK SMILES IDX 4 1 5 2 2 3 1 4 3 5 6 6 7 7 11 8 8 9 10 10 9 11
REMARK H PARENT
REMARK Flexibility Score: inf
ROOT
ATOM      1  C   UNL     1     114.394 119.810 126.931  1.00  0.00     0.025 C 
ATOM      2  C   UNL     1     114.504 119.572 125.615  1.00  0.00     0.010 C 
ENDROOT
BRANCH   1   3
ATOM      3  C   UNL     1     113.087 119.891 127.607  1.00  0.00     0.064 C 
ATOM      4  O   UNL     1     112.035 119.489 127.042  1.00  0.00    -0.545 OA
ATOM      5  O   UNL     1     113.015 120.418 128.889  1.00  0.00    -0.545 OA
ENDBRANCH   1   3
BRANCH   2   6
ATOM      6  C   UNL     1     115.791 119.479 124.874  1.00  0.00    -0.026 A 
ATOM      7  C   UNL     1     115.945 119.887 123.530  1.00  0.00     0.008 A 
ATOM      8  C   UNL     1     116.909 118.955 125.548  1.00  0.00     0.008 A 
ATOM      9  C   UNL     1     117.183 119.772 122.892  1.00  0.00     0.001 A 
ATOM     10  C   UNL     1     118.145 118.842 124.905  1.00  0.00     0.001 A 
ATOM     11  C   UNL     1     118.282 119.250 123.577  1.00  0.00     0.000 A 
ENDBRANCH   2   6
TORSDOF 2
ENDMDL
MODEL 4
REMARK VINA RESULT:    -4.896      0.140      1.463
REMARK INTER + INTRA:          -5.614
REMARK INTER:                  -5.481
REMARK INTRA:                  -0.133
REMARK UNBOUND:                -0.145
REMARK SMILES O=C([O-])C=Cc1ccccc1
REMARK SMILES IDX 4 1 5 2 2 3 1 4 3 5 6 6 7 7 11 8 8 9 10 10 9 11
REMARK H PARENT
REMARK Flexibility Score: inf
ROOT
ATOM      1  C   UNL     1     120.596 117.828 123.504  1.00  0.00     0.025 C 
ATOM      2  C   UNL     1     119.812 118.185 124.532  1.00  0.00     0.010 C 
ENDROOT
BRANCH   1   3
ATOM      3  C   UNL     1     121.939 117.255 123.703  1.00  0.00     0.064 C 
ATOM      4  O   UNL     1     122.646 116.894 122.725  1.00  0.00    -0.545 OA
ATOM      5  O   UNL     1     122.434 117.110 124.993  1.00  0.00    -0.545 OA
ENDBRANCH   1   3
BRANCH   2   6
ATOM      6  C   UNL     1     118.449 118.768 124.399  1.00  0.00    -0.026 A 
ATOM      7  C   UNL     1     117.985 119.397 123.223  1.00  0.00     0.008 A 
ATOM      8  C   UNL     1     117.583 118.687 125.505  1.00  0.00     0.008 A 
ATOM      9  C   UNL     1     116.691 119.924 123.165  1.00  0.00     0.001 A 
ATOM     10  C   UNL     1     116.290 119.216 125.441  1.00  0.00     0.001 A 
ATOM     11  C   UNL     1     115.845 119.834 124.272  1.00  0.00     0.000 A 
ENDBRANCH   2   6
TORSDOF 2
ENDMDL
MODEL 5
REMARK VINA RESULT:    -4.736      2.770      5.676
REMARK INTER + INTRA:          -5.434
REMARK INTER:                  -5.302
REMARK INTRA:                  -0.133
REMARK UNBOUND:                -0.145
REMARK SMILES O=C([O-])C=Cc1ccccc1
REMARK SMILES IDX 4 1 5 2 2 3 1 4 3 5 6 6 7 7 11 8 8 9 10 10 9 11
REMARK H PARENT
REMARK Flexibility Score: inf
ROOT
ATOM      1  C   UNL     1     119.315 118.641 123.290  1.00  0.00     0.025 C 
ATOM      2  C   UNL     1     120.102 117.906 124.091  1.00  0.00     0.010 C 
ENDROOT
BRANCH   1   3
ATOM      3  C   UNL     1     117.912 118.938 123.628  1.00  0.00     0.064 C 
ATOM      4  O   UNL     1     117.041 119.079 122.728  1.00  0.00    -0.545 OA
ATOM      5  O   UNL     1     117.543 119.063 124.960  1.00  0.00    -0.545 OA
ENDBRANCH   1   3
BRANCH   2   6
ATOM      6  C   UNL     1     121.525 117.571 123.809  1.00  0.00    -0.026 A 
ATOM      7  C   UNL     1     122.206 117.991 122.646  1.00  0.00     0.008 A 
ATOM      8  C   UNL     1     122.222 116.795 124.753  1.00  0.00     0.008 A 
ATOM      9  C   UNL     1     123.544 117.641 122.443  1.00  0.00     0.001 A 
ATOM     10  C   UNL     1     123.560 116.448 124.544  1.00  0.00     0.001 A 
ATOM     11  C   UNL     1     124.221 116.871 123.390  1.00  0.00     0.000 A 
ENDBRANCH   2   6
TORSDOF 2
ENDMDL
MODEL 6
REMARK VINA RESULT:    -4.728      6.581      7.994
REMARK INTER + INTRA:          -5.426
REMARK INTER:                  -5.300
REMARK INTRA:                  -0.126
REMARK UNBOUND:                -0.145
REMARK SMILES O=C([O-])C=Cc1ccccc1
REMARK SMILES IDX 4 1 5 2 2 3 1 4 3 5 6 6 7 7 11 8 8 9 10 10 9 11
REMARK H PARENT
REMARK Flexibility Score: inf
ROOT
ATOM      1  C   UNL     1     111.917 119.503 127.357  1.00  0.00     0.025 C 
ATOM      2  C   UNL     1     113.194 119.146 127.157  1.00  0.00     0.010 C 
ENDROOT
BRANCH   1   3
ATOM      3  C   UNL     1     111.242 119.310 128.653  1.00  0.00     0.064 C 
ATOM      4  O   UNL     1     110.725 118.203 128.961  1.00  0.00    -0.545 OA
ATOM      5  O   UNL     1     111.175 120.367 129.550  1.00  0.00    -0.545 OA
ENDBRANCH   1   3
BRANCH   2   6
ATOM      6  C   UNL     1     113.933 119.313 125.876  1.00  0.00    -0.026 A 
ATOM      7  C   UNL     1     113.706 118.508 124.738  1.00  0.00     0.008 A 
ATOM      8  C   UNL     1     114.906 120.326 125.799  1.00  0.00     0.008 A 
ATOM      9  C   UNL     1     114.436 118.718 123.564  1.00  0.00     0.001 A 
ATOM     10  C   UNL     1     115.632 120.532 124.622  1.00  0.00     0.001 A 
ATOM     11  C   UNL     1     115.398 119.729 123.505  1.00  0.00     0.000 A 
ENDBRANCH   2   6
TORSDOF 2
ENDMDL
MODEL 7
REMARK VINA RESULT:    -4.671      3.644      5.126
REMARK INTER + INTRA:          -5.362
REMARK INTER:                  -5.236
REMARK INTRA:                  -0.126
REMARK UNBOUND:                -0.145
REMARK SMILES O=C([O-])C=Cc1ccccc1
REMARK SMILES IDX 4 1 5 2 2 3 1 4 3 5 6 6 7 7 11 8 8 9 10 10 9 11
REMARK H PARENT
REMARK Flexibility Score: inf
ROOT
ATOM      1  C   UNL     1     116.468 119.450 124.444  1.00  0.00     0.025 C 
ATOM      2  C   UNL     1     115.250 119.984 124.618  1.00  0.00     0.010 C 
ENDROOT
BRANCH   1   3
ATOM      3  C   UNL     1     117.186 119.535 123.159  1.00  0.00     0.064 C 
ATOM      4  O   UNL     1     117.200 118.565 122.355  1.00  0.00    -0.545 OA
ATOM      5  O   UNL     1     117.857 120.704 122.829  1.00  0.00    -0.545 OA
ENDBRANCH   1   3
BRANCH   2   6
ATOM      6  C   UNL     1     114.474 119.934 125.887  1.00  0.00    -0.026 A 
ATOM      7  C   UNL     1     114.885 120.578 127.075  1.00  0.00     0.008 A 
ATOM      8  C   UNL     1     113.270 119.206 125.899  1.00  0.00     0.008 A 
ATOM      9  C   UNL     1     114.107 120.490 128.234  1.00  0.00     0.001 A 
ATOM     10  C   UNL     1     112.497 119.122 127.061  1.00  0.00     0.001 A 
ATOM     11  C   UNL     1     112.915 119.764 128.227  1.00  0.00     0.000 A 
ENDBRANCH   2   6
TORSDOF 2
ENDMDL
MODEL 8
REMARK VINA RESULT:    -4.660      6.493      7.952
REMARK INTER + INTRA:          -5.349
REMARK INTER:                  -5.204
REMARK INTRA:                  -0.145
REMARK UNBOUND:                -0.145
REMARK SMILES O=C([O-])C=Cc1ccccc1
REMARK SMILES IDX 4 1 5 2 2 3 1 4 3 5 6 6 7 7 11 8 8 9 10 10 9 11
REMARK H PARENT
REMARK Flexibility Score: inf
ROOT
ATOM      1  C   UNL     1     113.092 120.546 128.303  1.00  0.00     0.025 C 
ATOM      2  C   UNL     1     113.006 119.556 127.402  1.00  0.00     0.010 C 
ENDROOT
BRANCH   1   3
ATOM      3  C   UNL     1     112.333 120.526 129.566  1.00  0.00     0.064 C 
ATOM      4  O   UNL     1     112.700 121.211 130.558  1.00  0.00    -0.545 OA
ATOM      5  O   UNL     1     111.194 119.738 129.664  1.00  0.00    -0.545 OA
ENDBRANCH   1   3
BRANCH   2   6
ATOM      6  C   UNL     1     113.744 119.515 126.110  1.00  0.00    -0.026 A 
ATOM      7  C   UNL     1     113.374 118.684 125.030  1.00  0.00     0.008 A 
ATOM      8  C   UNL     1     114.868 120.348 125.962  1.00  0.00     0.008 A 
ATOM      9  C   UNL     1     114.112 118.694 123.843  1.00  0.00     0.001 A 
ATOM     10  C   UNL     1     115.601 120.355 124.772  1.00  0.00     0.001 A 
ATOM     11  C   UNL     1     115.224 119.528 123.713  1.00  0.00     0.000 A 
ENDBRANCH   2   6
TORSDOF 2
ENDMDL
MODEL 9
REMARK VINA RESULT:    -4.603      7.165      9.092
REMARK INTER + INTRA:          -5.286
REMARK INTER:                  -5.157
REMARK INTRA:                  -0.129
REMARK UNBOUND:                -0.145
REMARK SMILES O=C([O-])C=Cc1ccccc1
REMARK SMILES IDX 4 1 5 2 2 3 1 4 3 5 6 6 7 7 11 8 8 9 10 10 9 11
REMARK H PARENT
REMARK Flexibility Score: inf
ROOT
ATOM      1  C   UNL     1     112.490 119.186 126.778  1.00  0.00     0.025 C 
ATOM      2  C   UNL     1     112.162 119.985 127.804  1.00  0.00     0.010 C 
ENDROOT
BRANCH   1   3
ATOM      3  C   UNL     1     113.805 119.258 126.116  1.00  0.00     0.064 C 
ATOM      4  O   UNL     1     114.527 120.286 126.212  1.00  0.00    -0.545 OA
ATOM      5  O   UNL     1     114.254 118.174 125.374  1.00  0.00    -0.545 OA
ENDBRANCH   1   3
BRANCH   2   6
ATOM      6  C   UNL     1     110.855 119.962 128.515  1.00  0.00    -0.026 A 
ATOM      7  C   UNL     1     109.685 120.570 128.008  1.00  0.00     0.008 A 
ATOM      8  C   UNL     1     110.786 119.302 129.755  1.00  0.00     0.008 A 
ATOM      9  C   UNL     1     108.487 120.511 128.728  1.00  0.00     0.001 A 
ATOM     10  C   UNL     1     109.585 119.246 130.470  1.00  0.00     0.001 A 
ATOM     11  C   UNL     1     108.437 119.851 129.957  1.00  0.00     0.000 A 
ENDBRANCH   2   6
TORSDOF 2
ENDMDL
