MODEL 1
REMARK VINA RESULT:    -4.166      0.000      0.000
REMARK INTER + INTRA:          -4.962
REMARK INTER:                  -4.897
REMARK INTRA:                  -0.065
REMARK UNBOUND:                -0.065
REMARK SMILES O=C([O-])CCC(=O)[O-]
REMARK SMILES IDX 4 1 2 2 1 3 3 4 5 5 6 6 7 7 8 8
REMARK H PARENT
REMARK Flexibility Score: inf
ROOT
ATOM      1  C   UNL     1      15.094 -36.455   6.000  1.00  0.00     0.059 C 
ENDROOT
BRANCH   1   2
ATOM      2  C   UNL     1      15.948 -37.197   5.020  1.00  0.00     0.042 C 
ATOM      3  O   UNL     1      15.427 -37.741   4.012  1.00  0.00    -0.550 OA
ATOM      4  O   UNL     1      17.312 -37.330   5.248  1.00  0.00    -0.550 OA
ENDBRANCH   1   2
BRANCH   1   5
ATOM      5  C   UNL     1      13.892 -35.826   5.294  1.00  0.00     0.059 C 
BRANCH   5   6
ATOM      6  C   UNL     1      12.641 -36.573   5.628  1.00  0.00     0.042 C 
ATOM      7  O   UNL     1      11.875 -36.154   6.536  1.00  0.00    -0.550 OA
ATOM      8  O   UNL     1      12.342 -37.760   4.970  1.00  0.00    -0.550 OA
ENDBRANCH   5   6
ENDBRANCH   1   5
TORSDOF 3
ENDMDL
MODEL 2
REMARK VINA RESULT:    -4.138     11.487     12.260
REMARK INTER + INTRA:          -4.929
REMARK INTER:                  -4.827
REMARK INTRA:                  -0.103
REMARK UNBOUND:                -0.065
REMARK SMILES O=C([O-])CCC(=O)[O-]
REMARK SMILES IDX 4 1 2 2 1 3 3 4 5 5 6 6 7 7 8 8
REMARK H PARENT
REMARK Flexibility Score: inf
ROOT
ATOM      1  C   UNL     1      18.306 -26.155   0.175  1.00  0.00     0.059 C 
ENDROOT
BRANCH   1   2
ATOM      2  C   UNL     1      16.858 -26.185  -0.203  1.00  0.00     0.042 C 
ATOM      3  O   UNL     1      16.044 -25.397   0.344  1.00  0.00    -0.550 OA
ATOM      4  O   UNL     1      16.401 -27.118  -1.125  1.00  0.00    -0.550 OA
ENDBRANCH   1   2
BRANCH   1   5
ATOM      5  C   UNL     1      18.630 -27.293   1.143  1.00  0.00     0.059 C 
BRANCH   5   6
ATOM      6  C   UNL     1      18.916 -26.753   2.508  1.00  0.00     0.042 C 
ATOM      7  O   UNL     1      20.105 -26.554   2.874  1.00  0.00    -0.550 OA
ATOM      8  O   UNL     1      17.875 -26.516   3.396  1.00  0.00    -0.550 OA
ENDBRANCH   5   6
ENDBRANCH   1   5
TORSDOF 3
ENDMDL
MODEL 3
REMARK VINA RESULT:    -4.124     18.879     19.753
REMARK INTER + INTRA:          -4.912
REMARK INTER:                  -4.789
REMARK INTRA:                  -0.123
REMARK UNBOUND:                -0.065
REMARK SMILES O=C([O-])CCC(=O)[O-]
REMARK SMILES IDX 4 1 2 2 1 3 3 4 5 5 6 6 7 7 8 8
REMARK H PARENT
REMARK Flexibility Score: inf
ROOT
ATOM      1  C   UNL     1      21.597 -20.152  -0.732  1.00  0.00     0.059 C 
ENDROOT
BRANCH   1   2
ATOM      2  C   UNL     1      21.622 -21.377   0.128  1.00  0.00     0.042 C 
ATOM      3  O   UNL     1      21.685 -22.518  -0.397  1.00  0.00    -0.550 OA
ATOM      4  O   UNL     1      21.525 -21.257   1.509  1.00  0.00    -0.550 OA
ENDBRANCH   1   2
BRANCH   1   5
ATOM      5  C   UNL     1      23.020 -19.710  -1.075  1.00  0.00     0.059 C 
BRANCH   5   6
ATOM      6  C   UNL     1      23.529 -18.748  -0.049  1.00  0.00     0.042 C 
ATOM      7  O   UNL     1      22.722 -18.072   0.642  1.00  0.00    -0.550 OA
ATOM      8  O   UNL     1      24.896 -18.562   0.112  1.00  0.00    -0.550 OA
ENDBRANCH   5   6
ENDBRANCH   1   5
TORSDOF 3
ENDMDL
MODEL 4
REMARK VINA RESULT:    -4.016      1.008      3.866
REMARK INTER + INTRA:          -4.786
REMARK INTER:                  -4.716
REMARK INTRA:                  -0.070
REMARK UNBOUND:                -0.065
REMARK SMILES O=C([O-])CCC(=O)[O-]
REMARK SMILES IDX 4 1 2 2 1 3 3 4 5 5 6 6 7 7 8 8
REMARK H PARENT
REMARK Flexibility Score: inf
ROOT
ATOM      1  C   UNL     1      14.099 -36.042   5.291  1.00  0.00     0.059 C 
ENDROOT
BRANCH   1   2
ATOM      2  C   UNL     1      12.789 -36.712   5.566  1.00  0.00     0.042 C 
ATOM      3  O   UNL     1      12.492 -37.786   4.981  1.00  0.00    -0.550 OA
ATOM      4  O   UNL     1      11.875 -36.122   6.430  1.00  0.00    -0.550 OA
ENDBRANCH   1   2
BRANCH   1   5
ATOM      5  C   UNL     1      15.112 -37.051   4.747  1.00  0.00     0.059 C 
BRANCH   5   6
ATOM      6  C   UNL     1      16.379 -36.997   5.539  1.00  0.00     0.042 C 
ATOM      7  O   UNL     1      16.374 -36.544   6.714  1.00  0.00    -0.550 OA
ATOM      8  O   UNL     1      17.577 -37.402   4.963  1.00  0.00    -0.550 OA
ENDBRANCH   5   6
ENDBRANCH   1   5
TORSDOF 3
ENDMDL
MODEL 5
REMARK VINA RESULT:    -3.481     17.433     19.188
REMARK INTER + INTRA:          -4.156
REMARK INTER:                  -4.108
REMARK INTRA:                  -0.049
REMARK UNBOUND:                -0.065
REMARK SMILES O=C([O-])CCC(=O)[O-]
REMARK SMILES IDX 4 1 2 2 1 3 3 4 5 5 6 6 7 7 8 8
REMARK H PARENT
REMARK Flexibility Score: inf
ROOT
ATOM      1  C   UNL     1      28.416 -27.332  -1.077  1.00  0.00     0.059 C 
ENDROOT
BRANCH   1   2
ATOM      2  C   UNL     1      28.595 -28.815  -0.981  1.00  0.00     0.042 C 
ATOM      3  O   UNL     1      29.741 -29.323  -1.089  1.00  0.00    -0.550 OA
ATOM      4  O   UNL     1      27.488 -29.639  -0.821  1.00  0.00    -0.550 OA
ENDBRANCH   1   2
BRANCH   1   5
ATOM      5  C   UNL     1      29.391 -26.613  -0.143  1.00  0.00     0.059 C 
BRANCH   5   6
ATOM      6  C   UNL     1      29.949 -25.395  -0.807  1.00  0.00     0.042 C 
ATOM      7  O   UNL     1      29.191 -24.440  -1.120  1.00  0.00    -0.550 OA
ATOM      8  O   UNL     1      31.300 -25.333  -1.125  1.00  0.00    -0.550 OA
ENDBRANCH   5   6
ENDBRANCH   1   5
TORSDOF 3
ENDMDL
MODEL 6
REMARK VINA RESULT:    -3.464     22.552     23.305
REMARK INTER + INTRA:          -4.137
REMARK INTER:                  -4.029
REMARK INTRA:                  -0.108
REMARK UNBOUND:                -0.065
REMARK SMILES O=C([O-])CCC(=O)[O-]
REMARK SMILES IDX 4 1 2 2 1 3 3 4 5 5 6 6 7 7 8 8
REMARK H PARENT
REMARK Flexibility Score: inf
ROOT
ATOM      1  C   UNL     1      29.439 -18.853   2.280  1.00  0.00     0.059 C 
ENDROOT
BRANCH   1   2
ATOM      2  C   UNL     1      27.973 -18.568   2.176  1.00  0.00     0.042 C 
ATOM      3  O   UNL     1      27.182 -18.993   3.058  1.00  0.00    -0.550 OA
ATOM      4  O   UNL     1      27.476 -17.875   1.080  1.00  0.00    -0.550 OA
ENDBRANCH   1   2
BRANCH   1   5
ATOM      5  C   UNL     1      29.676 -20.330   2.593  1.00  0.00     0.059 C 
BRANCH   5   6
ATOM      6  C   UNL     1      30.461 -20.477   3.858  1.00  0.00     0.042 C 
ATOM      7  O   UNL     1      29.873 -20.478   4.971  1.00  0.00    -0.550 OA
ATOM      8  O   UNL     1      31.846 -20.564   3.811  1.00  0.00    -0.550 OA
ENDBRANCH   5   6
ENDBRANCH   1   5
TORSDOF 3
ENDMDL
MODEL 7
REMARK VINA RESULT:    -3.445     22.584     23.114
REMARK INTER + INTRA:          -4.115
REMARK INTER:                  -4.003
REMARK INTRA:                  -0.112
REMARK UNBOUND:                -0.065
REMARK SMILES O=C([O-])CCC(=O)[O-]
REMARK SMILES IDX 4 1 2 2 1 3 3 4 5 5 6 6 7 7 8 8
REMARK H PARENT
REMARK Flexibility Score: inf
ROOT
ATOM      1  C   UNL     1      29.716 -20.329   2.506  1.00  0.00     0.059 C 
ENDROOT
BRANCH   1   2
ATOM      2  C   UNL     1      30.481 -20.498   3.781  1.00  0.00     0.042 C 
ATOM      3  O   UNL     1      29.879 -20.499   4.886  1.00  0.00    -0.550 OA
ATOM      4  O   UNL     1      31.866 -20.605   3.751  1.00  0.00    -0.550 OA
ENDBRANCH   1   2
BRANCH   1   5
ATOM      5  C   UNL     1      29.471 -18.846   2.222  1.00  0.00     0.059 C 
BRANCH   5   6
ATOM      6  C   UNL     1      28.005 -18.568   2.127  1.00  0.00     0.042 C 
ATOM      7  O   UNL     1      27.220 -18.997   3.013  1.00  0.00    -0.550 OA
ATOM      8  O   UNL     1      27.498 -17.875   1.036  1.00  0.00    -0.550 OA
ENDBRANCH   5   6
ENDBRANCH   1   5
TORSDOF 3
ENDMDL
MODEL 8
REMARK VINA RESULT:    -3.082     21.140     22.352
REMARK INTER + INTRA:          -3.687
REMARK INTER:                  -3.633
REMARK INTRA:                  -0.054
REMARK UNBOUND:                -0.065
REMARK SMILES O=C([O-])CCC(=O)[O-]
REMARK SMILES IDX 4 1 2 2 1 3 3 4 5 5 6 6 7 7 8 8
REMARK H PARENT
REMARK Flexibility Score: inf
ROOT
ATOM      1  C   UNL     1      29.899 -21.952   1.438  1.00  0.00     0.059 C 
ENDROOT
BRANCH   1   2
ATOM      2  C   UNL     1      30.595 -23.269   1.293  1.00  0.00     0.042 C 
ATOM      3  O   UNL     1      29.930 -24.318   1.090  1.00  0.00    -0.550 OA
ATOM      4  O   UNL     1      31.975 -23.344   1.431  1.00  0.00    -0.550 OA
ENDBRANCH   1   2
BRANCH   1   5
ATOM      5  C   UNL     1      30.819 -20.932   2.111  1.00  0.00     0.059 C 
BRANCH   5   6
ATOM      6  C   UNL     1      30.179 -20.388   3.349  1.00  0.00     0.042 C 
ATOM      7  O   UNL     1      30.717 -20.571   4.472  1.00  0.00    -0.550 OA
ATOM      8  O   UNL     1      28.964 -19.721   3.268  1.00  0.00    -0.550 OA
ENDBRANCH   5   6
ENDBRANCH   1   5
TORSDOF 3
ENDMDL
MODEL 9
REMARK VINA RESULT:    -2.548     11.600     12.127
REMARK INTER + INTRA:          -3.061
REMARK INTER:                  -2.986
REMARK INTRA:                  -0.074
REMARK UNBOUND:                -0.065
REMARK SMILES O=C([O-])CCC(=O)[O-]
REMARK SMILES IDX 4 1 2 2 1 3 3 4 5 5 6 6 7 7 8 8
REMARK H PARENT
REMARK Flexibility Score: inf
ROOT
ATOM      1  C   UNL     1      18.693 -27.243   1.164  1.00  0.00     0.059 C 
ENDROOT
BRANCH   1   2
ATOM      2  C   UNL     1      19.080 -26.624   2.471  1.00  0.00     0.042 C 
ATOM      3  O   UNL     1      18.230 -26.505   3.392  1.00  0.00    -0.550 OA
ATOM      4  O   UNL     1      20.367 -26.134   2.653  1.00  0.00    -0.550 OA
ENDBRANCH   1   2
BRANCH   1   5
ATOM      5  C   UNL     1      18.357 -26.160   0.138  1.00  0.00     0.059 C 
BRANCH   5   6
ATOM      6  C   UNL     1      16.917 -26.244  -0.259  1.00  0.00     0.042 C 
ATOM      7  O   UNL     1      16.547 -27.080  -1.125  1.00  0.00    -0.550 OA
ATOM      8  O   UNL     1      15.991 -25.368   0.291  1.00  0.00    -0.550 OA
ENDBRANCH   5   6
ENDBRANCH   1   5
TORSDOF 3
ENDMDL
