MODEL 1
REMARK VINA RESULT:    -4.042      0.000      0.000
REMARK INTER + INTRA:          -8.852
REMARK INTER:                  -7.114
REMARK INTRA:                  -1.738
REMARK UNBOUND:                -1.738
REMARK SMILES CCCCCCCCCCCCCCC(=O)[O-]
REMARK SMILES IDX 9 1 10 2 11 3 12 4 13 5 14 6 15 7 16 8 17 9 8 10 7 11 6 12
REMARK SMILES IDX 5 13 4 14 3 15 2 16 1 17
REMARK H PARENT
REMARK Flexibility Score: inf
ROOT
ATOM      1  C   UNL     1      11.351 -18.001 -24.543  1.00  0.00     0.000 C 
ENDROOT
BRANCH   1   2
ATOM      2  C   UNL     1      10.896 -18.685 -23.242  1.00  0.00     0.000 C 
BRANCH   2   3
ATOM      3  C   UNL     1       9.501 -18.225 -22.780  1.00  0.00     0.000 C 
BRANCH   3   4
ATOM      4  C   UNL     1       9.492 -17.248 -21.589  1.00  0.00     0.000 C 
BRANCH   4   5
ATOM      5  C   UNL     1      10.846 -16.585 -21.267  1.00  0.00     0.006 C 
BRANCH   5   6
ATOM      6  C   UNL     1      10.764 -15.060 -21.068  1.00  0.00     0.053 C 
BRANCH   6   7
ATOM      7  C   UNL     1      10.859 -14.665 -19.626  1.00  0.00     0.041 C 
ATOM      8  O   UNL     1      11.196 -15.512 -18.756  1.00  0.00    -0.550 OA
ATOM      9  O   UNL     1      10.609 -13.352 -19.245  1.00  0.00    -0.550 OA
ENDBRANCH   6   7
ENDBRANCH   5   6
ENDBRANCH   4   5
ENDBRANCH   3   4
ENDBRANCH   2   3
ENDBRANCH   1   2
BRANCH   1  10
ATOM     10  C   UNL     1      10.180 -17.704 -25.493  1.00  0.00     0.000 C 
BRANCH  10  11
ATOM     11  C   UNL     1      10.134 -16.229 -25.928  1.00  0.00    -0.000 C 
BRANCH  11  12
ATOM     12  C   UNL     1      10.162 -15.255 -24.736  1.00  0.00    -0.000 C 
BRANCH  12  13
ATOM     13  C   UNL     1       8.788 -14.700 -24.308  1.00  0.00    -0.000 C 
BRANCH  13  14
ATOM     14  C   UNL     1       8.811 -13.286 -23.697  1.00  0.00    -0.000 C 
BRANCH  14  15
ATOM     15  C   UNL     1      10.119 -12.532 -23.993  1.00  0.00    -0.000 C 
BRANCH  15  16
ATOM     16  C   UNL     1       9.877 -11.058 -24.356  1.00  0.00    -0.003 C 
ATOM     17  C   UNL     1       9.114 -10.887 -25.670  1.00  0.00     0.004 C 
ENDBRANCH  15  16
ENDBRANCH  14  15
ENDBRANCH  13  14
ENDBRANCH  12  13
ENDBRANCH  11  12
ENDBRANCH  10  11
ENDBRANCH   1  10
TORSDOF 13
ENDMDL
MODEL 2
REMARK VINA RESULT:    -3.947      1.585      4.591
REMARK INTER + INTRA:          -8.685
REMARK INTER:                  -6.949
REMARK INTRA:                  -1.736
REMARK UNBOUND:                -1.738
REMARK SMILES CCCCCCCCCCCCCCC(=O)[O-]
REMARK SMILES IDX 9 1 10 2 11 3 12 4 13 5 14 6 15 7 16 8 17 9 8 10 7 11 6 12
REMARK SMILES IDX 5 13 4 14 3 15 2 16 1 17
REMARK H PARENT
REMARK Flexibility Score: inf
ROOT
ATOM      1  C   UNL     1      10.341 -16.104 -25.556  1.00  0.00     0.000 C 
ENDROOT
BRANCH   1   2
ATOM      2  C   UNL     1       9.339 -15.520 -24.545  1.00  0.00     0.000 C 
BRANCH   2   3
ATOM      3  C   UNL     1       9.692 -14.085 -24.113  1.00  0.00     0.000 C 
BRANCH   3   4
ATOM      4  C   UNL     1      10.873 -13.964 -23.132  1.00  0.00     0.000 C 
BRANCH   4   5
ATOM      5  C   UNL     1      10.917 -15.028 -22.017  1.00  0.00     0.006 C 
BRANCH   5   6
ATOM      6  C   UNL     1       9.950 -14.753 -20.851  1.00  0.00     0.053 C 
BRANCH   6   7
ATOM      7  C   UNL     1      10.668 -14.477 -19.565  1.00  0.00     0.041 C 
ATOM      8  O   UNL     1      10.800 -13.294 -19.152  1.00  0.00    -0.550 OA
ATOM      9  O   UNL     1      11.163 -15.528 -18.803  1.00  0.00    -0.550 OA
ENDBRANCH   6   7
ENDBRANCH   5   6
ENDBRANCH   4   5
ENDBRANCH   3   4
ENDBRANCH   2   3
ENDBRANCH   1   2
BRANCH   1  10
ATOM     10  C   UNL     1       9.648 -16.731 -26.777  1.00  0.00     0.000 C 
BRANCH  10  11
ATOM     11  C   UNL     1      10.621 -17.534 -27.658  1.00  0.00    -0.000 C 
BRANCH  11  12
ATOM     12  C   UNL     1      11.258 -18.721 -26.912  1.00  0.00    -0.000 C 
BRANCH  12  13
ATOM     13  C   UNL     1      10.264 -19.772 -26.377  1.00  0.00    -0.000 C 
BRANCH  13  14
ATOM     14  C   UNL     1      10.485 -20.201 -24.915  1.00  0.00    -0.000 C 
BRANCH  14  15
ATOM     15  C   UNL     1       9.504 -19.526 -23.942  1.00  0.00    -0.000 C 
BRANCH  15  16
ATOM     16  C   UNL     1      10.221 -18.685 -22.874  1.00  0.00    -0.003 C 
ATOM     17  C   UNL     1      11.702 -18.467 -23.186  1.00  0.00     0.004 C 
ENDBRANCH  15  16
ENDBRANCH  14  15
ENDBRANCH  13  14
ENDBRANCH  12  13
ENDBRANCH  11  12
ENDBRANCH  10  11
ENDBRANCH   1  10
TORSDOF 13
ENDMDL
MODEL 3
REMARK VINA RESULT:    -3.910      1.697      4.621
REMARK INTER + INTRA:          -8.620
REMARK INTER:                  -6.899
REMARK INTRA:                  -1.721
REMARK UNBOUND:                -1.738
REMARK SMILES CCCCCCCCCCCCCCC(=O)[O-]
REMARK SMILES IDX 9 1 10 2 11 3 12 4 13 5 14 6 15 7 16 8 17 9 8 10 7 11 6 12
REMARK SMILES IDX 5 13 4 14 3 15 2 16 1 17
REMARK H PARENT
REMARK Flexibility Score: inf
ROOT
ATOM      1  C   UNL     1      10.984 -16.495 -23.471  1.00  0.00     0.000 C 
ENDROOT
BRANCH   1   2
ATOM      2  C   UNL     1       9.826 -15.858 -24.260  1.00  0.00     0.000 C 
BRANCH   2   3
ATOM      3  C   UNL     1       9.827 -14.320 -24.187  1.00  0.00     0.000 C 
BRANCH   3   4
ATOM      4  C   UNL     1      10.824 -13.710 -23.183  1.00  0.00     0.000 C 
BRANCH   4   5
ATOM      5  C   UNL     1      10.200 -13.133 -21.898  1.00  0.00     0.006 C 
BRANCH   5   6
ATOM      6  C   UNL     1       9.793 -14.201 -20.866  1.00  0.00     0.053 C 
BRANCH   6   7
ATOM      7  C   UNL     1      10.605 -14.120 -19.609  1.00  0.00     0.041 C 
ATOM      8  O   UNL     1      10.809 -13.006 -19.056  1.00  0.00    -0.550 OA
ATOM      9  O   UNL     1      11.108 -15.277 -19.027  1.00  0.00    -0.550 OA
ENDBRANCH   6   7
ENDBRANCH   5   6
ENDBRANCH   4   5
ENDBRANCH   3   4
ENDBRANCH   2   3
ENDBRANCH   1   2
BRANCH   1  10
ATOM     10  C   UNL     1      10.492 -17.375 -22.310  1.00  0.00     0.000 C 
BRANCH  10  11
ATOM     11  C   UNL     1       9.177 -18.103 -22.640  1.00  0.00    -0.000 C 
BRANCH  11  12
ATOM     12  C   UNL     1       9.311 -19.635 -22.566  1.00  0.00    -0.000 C 
BRANCH  12  13
ATOM     13  C   UNL     1       9.850 -20.311 -23.843  1.00  0.00    -0.000 C 
BRANCH  13  14
ATOM     14  C   UNL     1       9.586 -19.546 -25.153  1.00  0.00    -0.000 C 
BRANCH  14  15
ATOM     15  C   UNL     1      10.830 -19.460 -26.053  1.00  0.00    -0.000 C 
BRANCH  15  16
ATOM     16  C   UNL     1      10.758 -18.289 -27.046  1.00  0.00    -0.003 C 
ATOM     17  C   UNL     1      11.973 -17.363 -26.961  1.00  0.00     0.004 C 
ENDBRANCH  15  16
ENDBRANCH  14  15
ENDBRANCH  13  14
ENDBRANCH  12  13
ENDBRANCH  11  12
ENDBRANCH  10  11
ENDBRANCH   1  10
TORSDOF 13
ENDMDL
MODEL 4
REMARK VINA RESULT:    -3.905      2.786      5.389
REMARK INTER + INTRA:          -8.611
REMARK INTER:                  -7.923
REMARK INTRA:                  -0.687
REMARK UNBOUND:                -1.738
REMARK SMILES CCCCCCCCCCCCCCC(=O)[O-]
REMARK SMILES IDX 9 1 10 2 11 3 12 4 13 5 14 6 15 7 16 8 17 9 8 10 7 11 6 12
REMARK SMILES IDX 5 13 4 14 3 15 2 16 1 17
REMARK H PARENT
REMARK Flexibility Score: inf
ROOT
ATOM      1  C   UNL     1      10.110 -11.726 -23.728  1.00  0.00     0.000 C 
ENDROOT
BRANCH   1   2
ATOM      2  C   UNL     1       8.855 -12.615 -23.676  1.00  0.00     0.000 C 
BRANCH   2   3
ATOM      3  C   UNL     1       9.158 -14.051 -23.210  1.00  0.00     0.000 C 
BRANCH   3   4
ATOM      4  C   UNL     1      10.653 -14.392 -23.060  1.00  0.00     0.000 C 
BRANCH   4   5
ATOM      5  C   UNL     1      10.968 -15.601 -22.157  1.00  0.00     0.006 C 
BRANCH   5   6
ATOM      6  C   UNL     1      10.080 -15.691 -20.902  1.00  0.00     0.053 C 
BRANCH   6   7
ATOM      7  C   UNL     1      10.557 -14.797 -19.798  1.00  0.00     0.041 C 
ATOM      8  O   UNL     1      10.379 -13.552 -19.868  1.00  0.00    -0.550 OA
ATOM      9  O   UNL     1      11.168 -15.341 -18.674  1.00  0.00    -0.550 OA
ENDBRANCH   6   7
ENDBRANCH   5   6
ENDBRANCH   4   5
ENDBRANCH   3   4
ENDBRANCH   2   3
ENDBRANCH   1   2
BRANCH   1  10
ATOM     10  C   UNL     1       9.844 -10.371 -24.405  1.00  0.00     0.000 C 
BRANCH  10  11
ATOM     11  C   UNL     1       8.519 -10.355 -25.188  1.00  0.00    -0.000 C 
BRANCH  11  12
ATOM     12  C   UNL     1       8.457  -9.222 -26.230  1.00  0.00    -0.000 C 
BRANCH  12  13
ATOM     13  C   UNL     1       9.149  -7.908 -25.814  1.00  0.00    -0.000 C 
BRANCH  13  14
ATOM     14  C   UNL     1       9.412  -6.913 -26.960  1.00  0.00    -0.000 C 
BRANCH  14  15
ATOM     15  C   UNL     1       8.392  -7.040 -28.104  1.00  0.00    -0.000 C 
BRANCH  15  16
ATOM     16  C   UNL     1       9.053  -7.406 -29.443  1.00  0.00    -0.003 C 
ATOM     17  C   UNL     1       8.705  -6.426 -30.564  1.00  0.00     0.004 C 
ENDBRANCH  15  16
ENDBRANCH  14  15
ENDBRANCH  13  14
ENDBRANCH  12  13
ENDBRANCH  11  12
ENDBRANCH  10  11
ENDBRANCH   1  10
TORSDOF 13
ENDMDL
MODEL 5
REMARK VINA RESULT:    -3.838      1.760      4.678
REMARK INTER + INTRA:          -8.493
REMARK INTER:                  -7.114
REMARK INTRA:                  -1.379
REMARK UNBOUND:                -1.738
REMARK SMILES CCCCCCCCCCCCCCC(=O)[O-]
REMARK SMILES IDX 9 1 10 2 11 3 12 4 13 5 14 6 15 7 16 8 17 9 8 10 7 11 6 12
REMARK SMILES IDX 5 13 4 14 3 15 2 16 1 17
REMARK H PARENT
REMARK Flexibility Score: inf
ROOT
ATOM      1  C   UNL     1       9.391 -12.833 -24.882  1.00  0.00     0.000 C 
ENDROOT
BRANCH   1   2
ATOM      2  C   UNL     1       9.067 -12.364 -23.453  1.00  0.00     0.000 C 
BRANCH   2   3
ATOM      3  C   UNL     1      10.259 -12.511 -22.489  1.00  0.00     0.000 C 
BRANCH   3   4
ATOM      4  C   UNL     1      11.141 -13.753 -22.719  1.00  0.00     0.000 C 
BRANCH   4   5
ATOM      5  C   UNL     1      10.711 -15.020 -21.955  1.00  0.00     0.006 C 
BRANCH   5   6
ATOM      6  C   UNL     1       9.835 -14.738 -20.719  1.00  0.00     0.053 C 
BRANCH   6   7
ATOM      7  C   UNL     1      10.650 -14.436 -19.498  1.00  0.00     0.041 C 
ATOM      8  O   UNL     1      10.825 -13.244 -19.131  1.00  0.00    -0.550 OA
ATOM      9  O   UNL     1      11.187 -15.472 -18.744  1.00  0.00    -0.550 OA
ENDBRANCH   6   7
ENDBRANCH   5   6
ENDBRANCH   4   5
ENDBRANCH   3   4
ENDBRANCH   2   3
ENDBRANCH   1   2
BRANCH   1  10
ATOM     10  C   UNL     1       8.269 -13.692 -25.488  1.00  0.00     0.000 C 
BRANCH  10  11
ATOM     11  C   UNL     1       8.410 -15.182 -25.130  1.00  0.00    -0.000 C 
BRANCH  11  12
ATOM     12  C   UNL     1       9.385 -15.928 -26.060  1.00  0.00    -0.000 C 
BRANCH  12  13
ATOM     13  C   UNL     1      10.767 -16.238 -25.451  1.00  0.00    -0.000 C 
BRANCH  13  14
ATOM     14  C   UNL     1      11.542 -17.384 -26.129  1.00  0.00    -0.000 C 
BRANCH  14  15
ATOM     15  C   UNL     1      11.042 -17.680 -27.553  1.00  0.00    -0.000 C 
BRANCH  15  16
ATOM     16  C   UNL     1      12.151 -17.534 -28.607  1.00  0.00    -0.003 C 
ATOM     17  C   UNL     1      13.497 -17.136 -28.001  1.00  0.00     0.004 C 
ENDBRANCH  15  16
ENDBRANCH  14  15
ENDBRANCH  13  14
ENDBRANCH  12  13
ENDBRANCH  11  12
ENDBRANCH  10  11
ENDBRANCH   1  10
TORSDOF 13
ENDMDL
MODEL 6
REMARK VINA RESULT:    -3.779      2.151      4.084
REMARK INTER + INTRA:          -8.389
REMARK INTER:                  -6.241
REMARK INTRA:                  -2.148
REMARK UNBOUND:                -1.738
REMARK SMILES CCCCCCCCCCCCCCC(=O)[O-]
REMARK SMILES IDX 9 1 10 2 11 3 12 4 13 5 14 6 15 7 16 8 17 9 8 10 7 11 6 12
REMARK SMILES IDX 5 13 4 14 3 15 2 16 1 17
REMARK H PARENT
REMARK Flexibility Score: inf
ROOT
ATOM      1  C   UNL     1      11.193 -19.396 -23.514  1.00  0.00     0.000 C 
ENDROOT
BRANCH   1   2
ATOM      2  C   UNL     1      11.479 -18.016 -22.896  1.00  0.00     0.000 C 
BRANCH   2   3
ATOM      3  C   UNL     1      10.285 -17.456 -22.102  1.00  0.00     0.000 C 
BRANCH   3   4
ATOM      4  C   UNL     1       9.866 -16.020 -22.471  1.00  0.00     0.000 C 
BRANCH   4   5
ATOM      5  C   UNL     1      10.998 -14.974 -22.447  1.00  0.00     0.006 C 
BRANCH   5   6
ATOM      6  C   UNL     1      10.726 -13.738 -23.324  1.00  0.00     0.053 C 
BRANCH   6   7
ATOM      7  C   UNL     1       9.829 -12.744 -22.651  1.00  0.00     0.041 C 
ATOM      8  O   UNL     1      10.142 -12.264 -21.528  1.00  0.00    -0.550 OA
ATOM      9  O   UNL     1       8.663 -12.320 -23.276  1.00  0.00    -0.550 OA
ENDBRANCH   6   7
ENDBRANCH   5   6
ENDBRANCH   4   5
ENDBRANCH   3   4
ENDBRANCH   2   3
ENDBRANCH   1   2
BRANCH   1  10
ATOM     10  C   UNL     1       9.724 -19.819 -23.352  1.00  0.00     0.000 C 
BRANCH  10  11
ATOM     11  C   UNL     1       8.975 -19.874 -24.695  1.00  0.00    -0.000 C 
BRANCH  11  12
ATOM     12  C   UNL     1       8.305 -18.536 -25.058  1.00  0.00    -0.000 C 
BRANCH  12  13
ATOM     13  C   UNL     1       8.868 -17.838 -26.313  1.00  0.00    -0.000 C 
BRANCH  13  14
ATOM     14  C   UNL     1       9.604 -16.510 -26.052  1.00  0.00    -0.000 C 
BRANCH  14  15
ATOM     15  C   UNL     1      11.132 -16.648 -26.154  1.00  0.00    -0.000 C 
BRANCH  15  16
ATOM     16  C   UNL     1      11.559 -17.913 -26.914  1.00  0.00    -0.003 C 
ATOM     17  C   UNL     1      12.082 -17.613 -28.320  1.00  0.00     0.004 C 
ENDBRANCH  15  16
ENDBRANCH  14  15
ENDBRANCH  13  14
ENDBRANCH  12  13
ENDBRANCH  11  12
ENDBRANCH  10  11
ENDBRANCH   1  10
TORSDOF 13
ENDMDL
MODEL 7
REMARK VINA RESULT:    -3.752      1.601      4.927
REMARK INTER + INTRA:          -8.342
REMARK INTER:                  -6.955
REMARK INTRA:                  -1.386
REMARK UNBOUND:                -1.738
REMARK SMILES CCCCCCCCCCCCCCC(=O)[O-]
REMARK SMILES IDX 9 1 10 2 11 3 12 4 13 5 14 6 15 7 16 8 17 9 8 10 7 11 6 12
REMARK SMILES IDX 5 13 4 14 3 15 2 16 1 17
REMARK H PARENT
REMARK Flexibility Score: inf
ROOT
ATOM      1  C   UNL     1       9.067 -13.713 -24.992  1.00  0.00     0.000 C 
ENDROOT
BRANCH   1   2
ATOM      2  C   UNL     1       8.605 -12.950 -23.738  1.00  0.00     0.000 C 
BRANCH   2   3
ATOM      3  C   UNL     1       9.710 -12.826 -22.672  1.00  0.00     0.000 C 
BRANCH   3   4
ATOM      4  C   UNL     1      10.955 -13.700 -22.912  1.00  0.00     0.000 C 
BRANCH   4   5
ATOM      5  C   UNL     1      11.043 -14.976 -22.052  1.00  0.00     0.006 C 
BRANCH   5   6
ATOM      6  C   UNL     1      10.046 -15.009 -20.879  1.00  0.00     0.053 C 
BRANCH   6   7
ATOM      7  C   UNL     1      10.679 -14.618 -19.578  1.00  0.00     0.041 C 
ATOM      8  O   UNL     1      11.197 -15.494 -18.836  1.00  0.00    -0.550 OA
ATOM      9  O   UNL     1      10.729 -13.282 -19.201  1.00  0.00    -0.550 OA
ENDBRANCH   6   7
ENDBRANCH   5   6
ENDBRANCH   4   5
ENDBRANCH   3   4
ENDBRANCH   2   3
ENDBRANCH   1   2
BRANCH   1  10
ATOM     10  C   UNL     1       8.254 -14.995 -25.233  1.00  0.00     0.000 C 
BRANCH  10  11
ATOM     11  C   UNL     1       9.059 -16.269 -24.919  1.00  0.00    -0.000 C 
BRANCH  11  12
ATOM     12  C   UNL     1      10.471 -16.249 -25.533  1.00  0.00    -0.000 C 
BRANCH  12  13
ATOM     13  C   UNL     1      10.631 -17.049 -26.841  1.00  0.00    -0.000 C 
BRANCH  13  14
ATOM     14  C   UNL     1      11.215 -18.464 -26.679  1.00  0.00    -0.000 C 
BRANCH  14  15
ATOM     15  C   UNL     1      11.242 -18.933 -25.214  1.00  0.00    -0.000 C 
BRANCH  15  16
ATOM     16  C   UNL     1      10.402 -20.200 -24.987  1.00  0.00    -0.003 C 
ATOM     17  C   UNL     1      10.366 -20.632 -23.520  1.00  0.00     0.004 C 
ENDBRANCH  15  16
ENDBRANCH  14  15
ENDBRANCH  13  14
ENDBRANCH  12  13
ENDBRANCH  11  12
ENDBRANCH  10  11
ENDBRANCH   1  10
TORSDOF 13
ENDMDL
MODEL 8
REMARK VINA RESULT:    -3.730     16.339     18.538
REMARK INTER + INTRA:          -8.302
REMARK INTER:                  -6.368
REMARK INTRA:                  -1.934
REMARK UNBOUND:                -1.738
REMARK SMILES CCCCCCCCCCCCCCC(=O)[O-]
REMARK SMILES IDX 9 1 10 2 11 3 12 4 13 5 14 6 15 7 16 8 17 9 8 10 7 11 6 12
REMARK SMILES IDX 5 13 4 14 3 15 2 16 1 17
REMARK H PARENT
REMARK Flexibility Score: inf
ROOT
ATOM      1  C   UNL     1      22.461  -4.816 -31.960  1.00  0.00     0.000 C 
ENDROOT
BRANCH   1   2
ATOM      2  C   UNL     1      21.386  -5.382 -31.014  1.00  0.00     0.000 C 
BRANCH   2   3
ATOM      3  C   UNL     1      21.904  -6.543 -30.146  1.00  0.00     0.000 C 
BRANCH   3   4
ATOM      4  C   UNL     1      23.438  -6.656 -30.045  1.00  0.00     0.000 C 
BRANCH   4   5
ATOM      5  C   UNL     1      24.072  -5.972 -28.818  1.00  0.00     0.006 C 
BRANCH   5   6
ATOM      6  C   UNL     1      23.097  -5.764 -27.644  1.00  0.00     0.053 C 
BRANCH   6   7
ATOM      7  C   UNL     1      23.334  -6.731 -26.525  1.00  0.00     0.041 C 
ATOM      8  O   UNL     1      23.074  -7.955 -26.676  1.00  0.00    -0.550 OA
ATOM      9  O   UNL     1      23.876  -6.289 -25.324  1.00  0.00    -0.550 OA
ENDBRANCH   6   7
ENDBRANCH   5   6
ENDBRANCH   4   5
ENDBRANCH   3   4
ENDBRANCH   2   3
ENDBRANCH   1   2
BRANCH   1  10
ATOM     10  C   UNL     1      22.756  -3.331 -31.695  1.00  0.00     0.000 C 
BRANCH  10  11
ATOM     11  C   UNL     1      22.138  -2.835 -30.376  1.00  0.00    -0.000 C 
BRANCH  11  12
ATOM     12  C   UNL     1      23.195  -2.342 -29.371  1.00  0.00    -0.000 C 
BRANCH  12  13
ATOM     13  C   UNL     1      24.658  -2.461 -29.844  1.00  0.00    -0.000 C 
BRANCH  13  14
ATOM     14  C   UNL     1      25.691  -2.715 -28.731  1.00  0.00    -0.000 C 
BRANCH  14  15
ATOM     15  C   UNL     1      25.127  -2.448 -27.325  1.00  0.00    -0.000 C 
BRANCH  15  16
ATOM     16  C   UNL     1      26.217  -2.037 -26.322  1.00  0.00    -0.003 C 
ATOM     17  C   UNL     1      26.049  -2.703 -24.956  1.00  0.00     0.004 C 
ENDBRANCH  15  16
ENDBRANCH  14  15
ENDBRANCH  13  14
ENDBRANCH  12  13
ENDBRANCH  11  12
ENDBRANCH  10  11
ENDBRANCH   1  10
TORSDOF 13
ENDMDL
