MODEL 1
REMARK VINA RESULT:    -3.821      0.000      0.000
REMARK INTER + INTRA:          -4.669
REMARK INTER:                  -4.603
REMARK INTRA:                  -0.067
REMARK UNBOUND:                -0.067
REMARK SMILES CC[C@H](C)[C@@H]([NH3+])C(=O)[O-]
REMARK SMILES IDX 3 1 4 2 5 3 6 4 7 8 8 9 9 10 2 11 1 12
REMARK H PARENT 6 5 6 6 6 7
REMARK Flexibility Score: inf
ROOT
ATOM      1  C   UNL     1      18.180 -28.247 -19.350  1.00  0.00     0.050 C 
ATOM      2  C   UNL     1      18.745 -28.742 -20.696  1.00  0.00     0.014 C 
ENDROOT
BRANCH   1   3
ATOM      3  C   UNL     1      17.016 -27.222 -19.523  1.00  0.00     0.230 C 
BRANCH   3   4
ATOM      4  N   UNL     1      17.202 -26.338 -20.684  1.00  0.00    -0.350 N 
ATOM      5  H   UNL     1      17.830 -26.771 -21.398  1.00  0.00     0.345 HD
ATOM      6  H   UNL     1      16.275 -26.146 -21.128  1.00  0.00     0.345 HD
ATOM      7  H   UNL     1      17.602 -25.421 -20.382  1.00  0.00     0.345 HD
ENDBRANCH   3   4
BRANCH   3   8
ATOM      8  C   UNL     1      15.680 -27.923 -19.591  1.00  0.00     0.099 C 
ATOM      9  O   UNL     1      15.277 -28.400 -20.684  1.00  0.00    -0.544 OA
ATOM     10  O   UNL     1      14.866 -28.011 -18.467  1.00  0.00    -0.544 OA
ENDBRANCH   3   8
ENDBRANCH   1   3
BRANCH   1  11
ATOM     11  C   UNL     1      19.302 -27.676 -18.448  1.00  0.00     0.006 C 
ATOM     12  C   UNL     1      20.671 -27.681 -19.128  1.00  0.00     0.004 C 
ENDBRANCH   1  11
TORSDOF 4
ENDMDL
MODEL 2
REMARK VINA RESULT:    -3.392      2.318      3.887
REMARK INTER + INTRA:          -4.153
REMARK INTER:                  -4.082
REMARK INTRA:                  -0.070
REMARK UNBOUND:                -0.067
REMARK SMILES CC[C@H](C)[C@@H]([NH3+])C(=O)[O-]
REMARK SMILES IDX 3 1 4 2 5 3 6 4 7 8 8 9 9 10 2 11 1 12
REMARK H PARENT 6 5 6 6 6 7
REMARK Flexibility Score: inf
ROOT
ATOM      1  C   UNL     1      15.963 -28.337 -20.124  1.00  0.00     0.050 C 
ATOM      2  C   UNL     1      15.300 -27.733 -18.872  1.00  0.00     0.014 C 
ENDROOT
BRANCH   1   3
ATOM      3  C   UNL     1      17.227 -27.544 -20.581  1.00  0.00     0.230 C 
BRANCH   3   4
ATOM      4  N   UNL     1      17.120 -26.099 -20.322  1.00  0.00    -0.350 N 
ATOM      5  H   UNL     1      17.316 -25.876 -19.320  1.00  0.00     0.345 HD
ATOM      6  H   UNL     1      17.808 -25.586 -20.919  1.00  0.00     0.345 HD
ATOM      7  H   UNL     1      16.166 -25.755 -20.573  1.00  0.00     0.345 HD
ENDBRANCH   3   4
BRANCH   3   8
ATOM      8  C   UNL     1      18.479 -28.110 -19.954  1.00  0.00     0.099 C 
ATOM      9  O   UNL     1      19.112 -29.029 -20.538  1.00  0.00    -0.544 OA
ATOM     10  O   UNL     1      18.922 -27.658 -18.717  1.00  0.00    -0.544 OA
ENDBRANCH   3   8
ENDBRANCH   1   3
BRANCH   1  11
ATOM     11  C   UNL     1      14.944 -28.484 -21.282  1.00  0.00     0.006 C 
ATOM     12  C   UNL     1      14.943 -29.883 -21.898  1.00  0.00     0.004 C 
ENDBRANCH   1  11
TORSDOF 4
ENDMDL
MODEL 3
REMARK VINA RESULT:    -3.230      5.747      6.443
REMARK INTER + INTRA:          -3.957
REMARK INTER:                  -3.889
REMARK INTRA:                  -0.069
REMARK UNBOUND:                -0.067
REMARK SMILES CC[C@H](C)[C@@H]([NH3+])C(=O)[O-]
REMARK SMILES IDX 3 1 4 2 5 3 6 4 7 8 8 9 9 10 2 11 1 12
REMARK H PARENT 6 5 6 6 6 7
REMARK Flexibility Score: inf
ROOT
ATOM      1  C   UNL     1      15.515 -33.725 -21.243  1.00  0.00     0.050 C 
ATOM      2  C   UNL     1      14.869 -35.125 -21.260  1.00  0.00     0.014 C 
ENDROOT
BRANCH   1   3
ATOM      3  C   UNL     1      14.995 -32.806 -22.392  1.00  0.00     0.230 C 
BRANCH   3   4
ATOM      4  N   UNL     1      13.812 -33.356 -23.073  1.00  0.00    -0.350 N 
ATOM      5  H   UNL     1      13.646 -34.352 -22.805  1.00  0.00     0.345 HD
ATOM      6  H   UNL     1      12.968 -32.796 -22.812  1.00  0.00     0.345 HD
ATOM      7  H   UNL     1      13.925 -33.290 -24.109  1.00  0.00     0.345 HD
ENDBRANCH   3   4
BRANCH   3   8
ATOM      8  C   UNL     1      14.724 -31.408 -21.889  1.00  0.00     0.099 C 
ATOM      9  O   UNL     1      15.586 -30.505 -22.052  1.00  0.00    -0.544 OA
ATOM     10  O   UNL     1      13.549 -31.114 -21.208  1.00  0.00    -0.544 OA
ENDBRANCH   3   8
ENDBRANCH   1   3
BRANCH   1  11
ATOM     11  C   UNL     1      17.061 -33.822 -21.258  1.00  0.00     0.006 C 
ATOM     12  C   UNL     1      17.569 -35.115 -21.895  1.00  0.00     0.004 C 
ENDBRANCH   1  11
TORSDOF 4
ENDMDL
MODEL 4
REMARK VINA RESULT:    -3.193      2.909      3.995
REMARK INTER + INTRA:          -3.913
REMARK INTER:                  -3.822
REMARK INTRA:                  -0.091
REMARK UNBOUND:                -0.067
REMARK SMILES CC[C@H](C)[C@@H]([NH3+])C(=O)[O-]
REMARK SMILES IDX 3 1 4 2 5 3 6 4 7 8 8 9 9 10 2 11 1 12
REMARK H PARENT 6 5 6 6 6 7
REMARK Flexibility Score: inf
ROOT
ATOM      1  C   UNL     1      17.423 -27.346 -19.373  1.00  0.00     0.050 C 
ATOM      2  C   UNL     1      17.583 -26.470 -20.631  1.00  0.00     0.014 C 
ENDROOT
BRANCH   1   3
ATOM      3  C   UNL     1      18.588 -28.369 -19.196  1.00  0.00     0.230 C 
BRANCH   3   4
ATOM      4  N   UNL     1      18.811 -29.194 -20.393  1.00  0.00    -0.350 N 
ATOM      5  H   UNL     1      18.140 -29.994 -20.436  1.00  0.00     0.345 HD
ATOM      6  H   UNL     1      18.685 -28.608 -21.250  1.00  0.00     0.345 HD
ATOM      7  H   UNL     1      19.789 -29.562 -20.405  1.00  0.00     0.345 HD
ENDBRANCH   3   4
BRANCH   3   8
ATOM      8  C   UNL     1      19.862 -27.674 -18.779  1.00  0.00     0.099 C 
ATOM      9  O   UNL     1      20.826 -27.594 -19.586  1.00  0.00    -0.544 OA
ATOM     10  O   UNL     1      20.003 -27.157 -17.496  1.00  0.00    -0.544 OA
ENDBRANCH   3   8
ENDBRANCH   1   3
BRANCH   1  11
ATOM     11  C   UNL     1      16.046 -28.055 -19.357  1.00  0.00     0.006 C 
ATOM     12  C   UNL     1      15.412 -28.155 -20.744  1.00  0.00     0.004 C 
ENDBRANCH   1  11
TORSDOF 4
ENDMDL
MODEL 5
REMARK VINA RESULT:    -3.116      5.987      6.932
REMARK INTER + INTRA:          -3.820
REMARK INTER:                  -3.747
REMARK INTRA:                  -0.072
REMARK UNBOUND:                -0.067
REMARK SMILES CC[C@H](C)[C@@H]([NH3+])C(=O)[O-]
REMARK SMILES IDX 3 1 4 2 5 3 6 4 7 8 8 9 9 10 2 11 1 12
REMARK H PARENT 6 5 6 6 6 7
REMARK Flexibility Score: inf
ROOT
ATOM      1  C   UNL     1      15.243 -32.276 -22.510  1.00  0.00     0.050 C 
ATOM      2  C   UNL     1      13.741 -32.472 -22.794  1.00  0.00     0.014 C 
ENDROOT
BRANCH   1   3
ATOM      3  C   UNL     1      15.778 -33.233 -21.400  1.00  0.00     0.230 C 
BRANCH   3   4
ATOM      4  N   UNL     1      14.708 -33.775 -20.548  1.00  0.00    -0.350 N 
ATOM      5  H   UNL     1      14.268 -33.027 -19.965  1.00  0.00     0.345 HD
ATOM      6  H   UNL     1      13.968 -34.207 -21.149  1.00  0.00     0.345 HD
ATOM      7  H   UNL     1      15.083 -34.524 -19.924  1.00  0.00     0.345 HD
ENDBRANCH   3   4
BRANCH   3   8
ATOM      8  C   UNL     1      16.605 -34.347 -21.995  1.00  0.00     0.099 C 
ATOM      9  O   UNL     1      16.112 -35.088 -22.886  1.00  0.00    -0.544 OA
ATOM     10  O   UNL     1      17.895 -34.595 -21.540  1.00  0.00    -0.544 OA
ENDBRANCH   3   8
ENDBRANCH   1   3
BRANCH   1  11
ATOM     11  C   UNL     1      15.561 -30.797 -22.178  1.00  0.00     0.006 C 
ATOM     12  C   UNL     1      14.305 -29.952 -21.968  1.00  0.00     0.004 C 
ENDBRANCH   1  11
TORSDOF 4
ENDMDL
MODEL 6
REMARK VINA RESULT:    -3.058      4.310      5.398
REMARK INTER + INTRA:          -3.751
REMARK INTER:                  -3.688
REMARK INTRA:                  -0.063
REMARK UNBOUND:                -0.067
REMARK SMILES CC[C@H](C)[C@@H]([NH3+])C(=O)[O-]
REMARK SMILES IDX 3 1 4 2 5 3 6 4 7 8 8 9 9 10 2 11 1 12
REMARK H PARENT 6 5 6 6 6 7
REMARK Flexibility Score: inf
ROOT
ATOM      1  C   UNL     1      14.223 -31.504 -21.667  1.00  0.00     0.050 C 
ATOM      2  C   UNL     1      12.839 -32.169 -21.794  1.00  0.00     0.014 C 
ENDROOT
BRANCH   1   3
ATOM      3  C   UNL     1      14.220 -30.011 -22.121  1.00  0.00     0.230 C 
BRANCH   3   4
ATOM      4  N   UNL     1      13.003 -29.641 -22.859  1.00  0.00    -0.350 N 
ATOM      5  H   UNL     1      12.269 -30.381 -22.782  1.00  0.00     0.345 HD
ATOM      6  H   UNL     1      12.618 -28.749 -22.472  1.00  0.00     0.345 HD
ATOM      7  H   UNL     1      13.224 -29.477 -23.867  1.00  0.00     0.345 HD
ENDBRANCH   3   4
BRANCH   3   8
ATOM      8  C   UNL     1      14.439 -29.086 -20.948  1.00  0.00     0.099 C 
ATOM      9  O   UNL     1      13.772 -29.244 -19.892  1.00  0.00    -0.544 OA
ATOM     10  O   UNL     1      15.340 -28.031 -21.033  1.00  0.00    -0.544 OA
ENDBRANCH   3   8
ENDBRANCH   1   3
BRANCH   1  11
ATOM     11  C   UNL     1      15.306 -32.318 -22.419  1.00  0.00     0.006 C 
ATOM     12  C   UNL     1      16.043 -33.305 -21.514  1.00  0.00     0.004 C 
ENDBRANCH   1  11
TORSDOF 4
ENDMDL
MODEL 7
REMARK VINA RESULT:    -3.056      4.398      5.472
REMARK INTER + INTRA:          -3.748
REMARK INTER:                  -3.674
REMARK INTRA:                  -0.074
REMARK UNBOUND:                -0.067
REMARK SMILES CC[C@H](C)[C@@H]([NH3+])C(=O)[O-]
REMARK SMILES IDX 3 1 4 2 5 3 6 4 7 8 8 9 9 10 2 11 1 12
REMARK H PARENT 6 5 6 6 6 7
REMARK Flexibility Score: inf
ROOT
ATOM      1  C   UNL     1      14.426 -30.056 -21.578  1.00  0.00     0.050 C 
ATOM      2  C   UNL     1      15.298 -30.982 -22.448  1.00  0.00     0.014 C 
ENDROOT
BRANCH   1   3
ATOM      3  C   UNL     1      12.900 -30.221 -21.860  1.00  0.00     0.230 C 
BRANCH   3   4
ATOM      4  N   UNL     1      12.479 -29.581 -23.116  1.00  0.00    -0.350 N 
ATOM      5  H   UNL     1      11.521 -29.173 -23.034  1.00  0.00     0.345 HD
ATOM      6  H   UNL     1      13.148 -28.814 -23.358  1.00  0.00     0.345 HD
ATOM      7  H   UNL     1      12.495 -30.272 -23.899  1.00  0.00     0.345 HD
ENDBRANCH   3   4
BRANCH   3   8
ATOM      8  C   UNL     1      12.498 -31.676 -21.838  1.00  0.00     0.099 C 
ATOM      9  O   UNL     1      12.554 -32.325 -20.760  1.00  0.00    -0.544 OA
ATOM     10  O   UNL     1      12.106 -32.323 -23.003  1.00  0.00    -0.544 OA
ENDBRANCH   3   8
ENDBRANCH   1   3
BRANCH   1  11
ATOM     11  C   UNL     1      14.867 -28.577 -21.719  1.00  0.00     0.006 C 
ATOM     12  C   UNL     1      15.681 -28.083 -20.523  1.00  0.00     0.004 C 
ENDBRANCH   1  11
TORSDOF 4
ENDMDL
MODEL 8
REMARK VINA RESULT:    -2.964      5.281      5.968
REMARK INTER + INTRA:          -3.638
REMARK INTER:                  -3.578
REMARK INTRA:                  -0.060
REMARK UNBOUND:                -0.067
REMARK SMILES CC[C@H](C)[C@@H]([NH3+])C(=O)[O-]
REMARK SMILES IDX 3 1 4 2 5 3 6 4 7 8 8 9 9 10 2 11 1 12
REMARK H PARENT 6 5 6 6 6 7
REMARK Flexibility Score: inf
ROOT
ATOM      1  C   UNL     1      14.425 -32.446 -21.432  1.00  0.00     0.050 C 
ATOM      2  C   UNL     1      13.409 -33.533 -21.030  1.00  0.00     0.014 C 
ENDROOT
BRANCH   1   3
ATOM      3  C   UNL     1      13.767 -31.260 -22.205  1.00  0.00     0.230 C 
BRANCH   3   4
ATOM      4  N   UNL     1      12.381 -31.541 -22.610  1.00  0.00    -0.350 N 
ATOM      5  H   UNL     1      12.312 -31.712 -23.639  1.00  0.00     0.345 HD
ATOM      6  H   UNL     1      12.036 -32.391 -22.107  1.00  0.00     0.345 HD
ATOM      7  H   UNL     1      11.757 -30.745 -22.349  1.00  0.00     0.345 HD
ENDBRANCH   3   4
BRANCH   3   8
ATOM      8  C   UNL     1      13.844 -29.982 -21.405  1.00  0.00     0.099 C 
ATOM      9  O   UNL     1      13.247 -29.897 -20.299  1.00  0.00    -0.544 OA
ATOM     10  O   UNL     1      14.531 -28.877 -21.895  1.00  0.00    -0.544 OA
ENDBRANCH   3   8
ENDBRANCH   1   3
BRANCH   1  11
ATOM     11  C   UNL     1      15.606 -33.052 -22.232  1.00  0.00     0.006 C 
ATOM     12  C   UNL     1      16.635 -33.745 -21.339  1.00  0.00     0.004 C 
ENDBRANCH   1  11
TORSDOF 4
ENDMDL
