MODEL 1
REMARK VINA RESULT:    18.864      0.000      0.000
REMARK INTER + INTRA:          24.080
REMARK INTER:                  23.276
REMARK INTRA:                   0.805
REMARK UNBOUND:                 0.805
REMARK SMILES C=C1CC[C@H]2[C@H]([C@H]3[C@H](C)CC[C@@H]13)C2(C)C
REMARK SMILES IDX 3 1 2 2 1 3 12 4 9 5 8 6 10 7 7 8 11 9 4 11 5 12 6 13 13 14
REMARK SMILES IDX 14 16 15 17
REMARK H PARENT
REMARK Flexibility Score: 80.00
ROOT
ATOM      1  C   UNL     1      -0.188   7.222  -7.720  1.00  0.00     0.031 C 
ENDROOT
BRANCH   1   2
ATOM      2  C   UNL     1      -1.448   6.890  -8.509  1.00  0.00    -0.074 C 
ATOM      3  C   UNL     1      -2.605   6.818  -7.821  1.00  0.00     0.008 C 
BRANCH   2   4
ATOM      4  C   UNL     1      -1.456   6.804 -10.059  1.00  0.00     0.018 C 
ATOM      5  C   UNL     1      -0.028   5.296 -13.218  1.00  0.00     0.008 C 
ATOM      6  C   UNL     1      -0.732   5.221 -11.855  1.00  0.00    -0.010 C 
ATOM      7  C   UNL     1      -2.221   5.509 -11.978  1.00  0.00     0.004 C 
ATOM      8  C   UNL     1      -0.202   6.255 -10.843  1.00  0.00     0.003 CG0
ATOM      9  C   UNL     1      -2.633   5.974 -10.597  1.00  0.00     0.008 C 
ATOM     10  G   UNL     1       1.045   5.844 -10.007  1.00  0.00     0.000 G0
ENDBRANCH   2   4
ENDBRANCH   1   2
BRANCH   1  11
ATOM     11  C   UNL     1       0.737   6.000  -7.543  1.00  0.00     0.009 C 
BRANCH  11  12
ATOM     12  C   UNL     1       0.646   5.073  -8.760  1.00  0.00    -0.001 C 
ATOM     13  C   UNL     1       1.065   5.869 -10.015  1.00  0.00     0.002 CG0
ATOM     14  C   UNL     1       1.811   4.575  -9.608  1.00  0.00    -0.029 C 
ATOM     15  G   UNL     1      -0.212   6.214 -10.836  1.00  0.00     0.000 G0
ATOM     16  C   UNL     1       3.218   4.761  -9.015  1.00  0.00     0.011 C 
ATOM     17  C   UNL     1       1.568   3.251 -10.349  1.00  0.00     0.011 C 
ENDBRANCH  11  12
ENDBRANCH   1  11
TORSDOF 0
ENDMDL
MODEL 2
REMARK VINA RESULT:    19.726      0.945      3.610
REMARK INTER + INTRA:          25.144
REMARK INTER:                  24.330
REMARK INTRA:                   0.814
REMARK UNBOUND:                 0.805
REMARK SMILES C=C1CC[C@H]2[C@H]([C@H]3[C@H](C)CC[C@@H]13)C2(C)C
REMARK SMILES IDX 3 1 2 2 1 3 12 4 9 5 8 6 10 7 7 8 11 9 4 11 5 12 6 13 13 14
REMARK SMILES IDX 14 16 15 17
REMARK H PARENT
REMARK Flexibility Score: 80.00
ROOT
ATOM      1  C   UNL     1      -2.215   6.761  -8.221  1.00  0.00     0.031 C 
ENDROOT
BRANCH   1   2
ATOM      2  C   UNL     1      -0.754   6.905  -7.816  1.00  0.00    -0.074 C 
ATOM      3  C   UNL     1      -0.412   8.010  -7.124  1.00  0.00     0.008 C 
BRANCH   2   4
ATOM      4  C   UNL     1       0.281   5.767  -8.027  1.00  0.00     0.018 C 
ATOM      5  C   UNL     1       1.966   3.329 -10.375  1.00  0.00     0.008 C 
ATOM      6  C   UNL     1       1.583   4.738  -9.899  1.00  0.00    -0.010 C 
ATOM      7  C   UNL     1       2.526   5.237  -8.814  1.00  0.00     0.004 C 
ATOM      8  C   UNL     1       0.177   4.804  -9.273  1.00  0.00     0.003 CG0
ATOM      9  C   UNL     1       1.727   6.285  -8.069  1.00  0.00     0.008 C 
ATOM     10  G   UNL     1      -1.017   5.018 -10.249  1.00  0.00     0.000 G0
ENDBRANCH   2   4
ENDBRANCH   1   2
BRANCH   1  11
ATOM     11  C   UNL     1      -2.435   6.988  -9.730  1.00  0.00     0.009 C 
BRANCH  11  12
ATOM     12  C   UNL     1      -1.223   6.501 -10.532  1.00  0.00    -0.001 C 
ATOM     13  C   UNL     1      -1.028   4.994 -10.257  1.00  0.00     0.002 CG0
ATOM     14  C   UNL     1      -1.244   5.519 -11.698  1.00  0.00    -0.029 C 
ATOM     15  G   UNL     1       0.189   4.816  -9.303  1.00  0.00     0.000 G0
ATOM     16  C   UNL     1      -2.618   5.230 -12.326  1.00  0.00     0.011 C 
ATOM     17  C   UNL     1      -0.072   5.642 -12.684  1.00  0.00     0.011 C 
ENDBRANCH  11  12
ENDBRANCH   1  11
TORSDOF 0
ENDMDL
MODEL 3
REMARK VINA RESULT:    19.827      1.043      3.819
REMARK INTER + INTRA:          25.268
REMARK INTER:                  24.159
REMARK INTRA:                   1.109
REMARK UNBOUND:                 0.805
REMARK SMILES C=C1CC[C@H]2[C@H]([C@H]3[C@H](C)CC[C@@H]13)C2(C)C
REMARK SMILES IDX 3 1 2 2 1 3 12 4 9 5 8 6 10 7 7 8 11 9 4 11 5 12 6 13 13 14
REMARK SMILES IDX 14 16 15 17
REMARK H PARENT
REMARK Flexibility Score: 80.00
ROOT
ATOM      1  C   UNL     1      -1.898   6.742 -10.910  1.00  0.00     0.031 C 
ENDROOT
BRANCH   1   2
ATOM      2  C   UNL     1      -1.123   5.580 -11.516  1.00  0.00    -0.074 C 
ATOM      3  C   UNL     1      -1.709   4.908 -12.527  1.00  0.00     0.008 C 
BRANCH   2   4
ATOM      4  C   UNL     1       0.347   5.271 -11.124  1.00  0.00     0.018 C 
ATOM      5  C   UNL     1       3.059   5.288  -8.490  1.00  0.00     0.008 C 
ATOM      6  C   UNL     1       1.693   4.870  -9.054  1.00  0.00    -0.010 C 
ATOM      7  C   UNL     1       1.818   3.685 -10.000  1.00  0.00     0.004 C 
ATOM      8  C   UNL     1       1.017   5.979  -9.884  1.00  0.00     0.003 CG0
ATOM      9  C   UNL     1       0.591   3.773 -10.882  1.00  0.00     0.008 C 
ATOM     10  G   UNL     1       0.161   7.018  -9.101  1.00  0.00     0.000 G0
ENDBRANCH   2   4
ENDBRANCH   1   2
BRANCH   1  11
ATOM     11  C   UNL     1      -2.316   6.476  -9.450  1.00  0.00     0.009 C 
BRANCH  11  12
ATOM     12  C   UNL     1      -1.088   6.182  -8.581  1.00  0.00    -0.001 C 
ATOM     13  C   UNL     1       0.108   6.985  -9.138  1.00  0.00     0.002 CG0
ATOM     14  C   UNL     1      -0.364   7.171  -7.675  1.00  0.00    -0.029 C 
ATOM     15  G   UNL     1       1.056   6.007  -9.893  1.00  0.00     0.000 G0
ATOM     16  C   UNL     1      -1.103   8.483  -7.362  1.00  0.00     0.011 C 
ATOM     17  C   UNL     1       0.411   6.546  -6.504  1.00  0.00     0.011 C 
ENDBRANCH  11  12
ENDBRANCH   1  11
TORSDOF 0
ENDMDL
MODEL 4
REMARK VINA RESULT:    20.714      1.296      3.564
REMARK INTER + INTRA:          26.363
REMARK INTER:                  25.566
REMARK INTRA:                   0.796
REMARK UNBOUND:                 0.805
REMARK SMILES C=C1CC[C@H]2[C@H]([C@H]3[C@H](C)CC[C@@H]13)C2(C)C
REMARK SMILES IDX 3 1 2 2 1 3 12 4 9 5 8 6 10 7 7 8 11 9 4 11 5 12 6 13 13 14
REMARK SMILES IDX 14 16 15 17
REMARK H PARENT
REMARK Flexibility Score: 80.00
ROOT
ATOM      1  C   UNL     1       1.906   5.640  -9.238  1.00  0.00     0.031 C 
ENDROOT
BRANCH   1   2
ATOM      2  C   UNL     1       1.245   4.458  -9.936  1.00  0.00    -0.074 C 
ATOM      3  C   UNL     1       1.647   3.224  -9.572  1.00  0.00     0.008 C 
BRANCH   2   4
ATOM      4  C   UNL     1       0.039   4.633 -10.898  1.00  0.00     0.018 C 
ATOM      5  C   UNL     1      -3.187   6.414 -11.742  1.00  0.00     0.008 C 
ATOM      6  C   UNL     1      -1.678   6.363 -11.460  1.00  0.00    -0.010 C 
ATOM      7  C   UNL     1      -0.889   5.982 -12.704  1.00  0.00     0.004 C 
ATOM      8  C   UNL     1      -1.297   5.309 -10.402  1.00  0.00     0.003 CG0
ATOM      9  C   UNL     1       0.408   5.412 -12.170  1.00  0.00     0.008 C 
ATOM     10  G   UNL     1      -1.366   5.754  -8.911  1.00  0.00     0.000 G0
ENDBRANCH   2   4
ENDBRANCH   1   2
BRANCH   1  11
ATOM     11  C   UNL     1       1.023   6.237  -8.124  1.00  0.00     0.009 C 
BRANCH  11  12
ATOM     12  C   UNL     1      -0.258   6.838  -8.713  1.00  0.00    -0.001 C 
ATOM     13  C   UNL     1      -1.290   5.705  -8.897  1.00  0.00     0.002 CG0
ATOM     14  C   UNL     1      -1.612   6.940  -8.021  1.00  0.00    -0.029 C 
ATOM     15  G   UNL     1      -1.380   5.354 -10.412  1.00  0.00     0.000 G0
ATOM     16  C   UNL     1      -1.623   6.709  -6.500  1.00  0.00     0.011 C 
ATOM     17  C   UNL     1      -2.531   8.061  -8.532  1.00  0.00     0.011 C 
ENDBRANCH  11  12
ENDBRANCH   1  11
TORSDOF 0
ENDMDL
MODEL 5
REMARK VINA RESULT:    20.723      1.023      4.098
REMARK INTER + INTRA:          26.373
REMARK INTER:                  25.602
REMARK INTRA:                   0.771
REMARK UNBOUND:                 0.805
REMARK SMILES C=C1CC[C@H]2[C@H]([C@H]3[C@H](C)CC[C@@H]13)C2(C)C
REMARK SMILES IDX 3 1 2 2 1 3 12 4 9 5 8 6 10 7 7 8 11 9 4 11 5 12 6 13 13 14
REMARK SMILES IDX 14 16 15 17
REMARK H PARENT
REMARK Flexibility Score: 80.00
ROOT
ATOM      1  C   UNL     1       1.444   3.915  -9.620  1.00  0.00     0.031 C 
ENDROOT
BRANCH   1   2
ATOM      2  C   UNL     1       1.904   5.245  -9.038  1.00  0.00    -0.074 C 
ATOM      3  C   UNL     1       3.197   5.581  -9.216  1.00  0.00     0.008 C 
BRANCH   2   4
ATOM      4  C   UNL     1       0.912   6.264  -8.416  1.00  0.00     0.018 C 
ATOM      5  C   UNL     1      -2.480   7.933  -8.499  1.00  0.00     0.008 C 
ATOM      6  C   UNL     1      -1.548   6.716  -8.396  1.00  0.00    -0.010 C 
ATOM      7  C   UNL     1      -1.038   6.522  -6.976  1.00  0.00     0.004 C 
ATOM      8  C   UNL     1      -0.283   6.847  -9.265  1.00  0.00     0.003 CG0
ATOM      9  C   UNL     1       0.245   5.733  -7.138  1.00  0.00     0.008 C 
ATOM     10  G   UNL     1      -0.400   6.391 -10.749  1.00  0.00     0.000 G0
ENDBRANCH   2   4
ENDBRANCH   1   2
BRANCH   1  11
ATOM     11  C   UNL     1       0.696   4.083 -10.958  1.00  0.00     0.009 C 
BRANCH  11  12
ATOM     12  C   UNL     1      -0.613   4.855 -10.752  1.00  0.00    -0.001 C 
ATOM     13  C   UNL     1      -0.294   6.365 -10.745  1.00  0.00     0.002 CG0
ATOM     14  C   UNL     1      -1.294   5.768 -11.765  1.00  0.00    -0.029 C 
ATOM     15  G   UNL     1      -0.367   6.883  -9.278  1.00  0.00     0.000 G0
ATOM     16  C   UNL     1      -0.801   5.668 -13.219  1.00  0.00     0.011 C 
ATOM     17  C   UNL     1      -2.810   5.937 -11.584  1.00  0.00     0.011 C 
ENDBRANCH  11  12
ENDBRANCH   1  11
TORSDOF 0
ENDMDL
