MODEL 1
REMARK VINA RESULT:    -2.361      0.000      0.000
REMARK INTER + INTRA:          -2.673
REMARK INTER:                  -2.637
REMARK INTRA:                  -0.036
REMARK UNBOUND:                -0.036
REMARK SMILES CCCC(=O)[O-]
REMARK SMILES IDX 3 1 4 2 5 3 6 4 2 5 1 6
REMARK H PARENT
REMARK Flexibility Score: inf
ROOT
ATOM      1  C   UNL     1      64.326  42.617  14.860  1.00  0.00     0.052 C 
ENDROOT
BRANCH   1   2
ATOM      2  C   UNL     1      64.123  41.639  15.977  1.00  0.00     0.041 C 
ATOM      3  O   UNL     1      64.580  40.470  15.887  1.00  0.00    -0.550 OA
ATOM      4  O   UNL     1      63.458  42.031  17.133  1.00  0.00    -0.550 OA
ENDBRANCH   1   2
BRANCH   1   5
ATOM      5  C   UNL     1      63.541  43.915  15.089  1.00  0.00     0.003 C 
ATOM      6  C   UNL     1      64.437  45.060  15.560  1.00  0.00     0.004 C 
ENDBRANCH   1   5
TORSDOF 2
ENDMDL
MODEL 2
REMARK VINA RESULT:    -2.353      2.262      3.321
REMARK INTER + INTRA:          -2.664
REMARK INTER:                  -2.626
REMARK INTRA:                  -0.039
REMARK UNBOUND:                -0.036
REMARK SMILES CCCC(=O)[O-]
REMARK SMILES IDX 3 1 4 2 5 3 6 4 2 5 1 6
REMARK H PARENT
REMARK Flexibility Score: inf
ROOT
ATOM      1  C   UNL     1      63.623  43.928  14.839  1.00  0.00     0.052 C 
ENDROOT
BRANCH   1   2
ATOM      2  C   UNL     1      63.084  44.775  15.953  1.00  0.00     0.041 C 
ATOM      3  O   UNL     1      62.226  44.308  16.745  1.00  0.00    -0.550 OA
ATOM      4  O   UNL     1      63.558  46.069  16.135  1.00  0.00    -0.550 OA
ENDBRANCH   1   2
BRANCH   1   5
ATOM      5  C   UNL     1      64.714  42.969  15.331  1.00  0.00     0.003 C 
ATOM      6  C   UNL     1      64.190  41.549  15.537  1.00  0.00     0.004 C 
ENDBRANCH   1   5
TORSDOF 2
ENDMDL
MODEL 3
REMARK VINA RESULT:    -2.349      1.512      1.769
REMARK INTER + INTRA:          -2.659
REMARK INTER:                  -2.606
REMARK INTRA:                  -0.053
REMARK UNBOUND:                -0.036
REMARK SMILES CCCC(=O)[O-]
REMARK SMILES IDX 3 1 4 2 5 3 6 4 2 5 1 6
REMARK H PARENT
REMARK Flexibility Score: inf
ROOT
ATOM      1  C   UNL     1      63.637  43.917  14.992  1.00  0.00     0.052 C 
ENDROOT
BRANCH   1   2
ATOM      2  C   UNL     1      64.269  42.745  15.679  1.00  0.00     0.041 C 
ATOM      3  O   UNL     1      64.054  41.577  15.266  1.00  0.00    -0.550 OA
ATOM      4  O   UNL     1      65.125  42.949  16.755  1.00  0.00    -0.550 OA
ENDBRANCH   1   2
BRANCH   1   5
ATOM      5  C   UNL     1      63.277  45.032  15.982  1.00  0.00     0.003 C 
ATOM      6  C   UNL     1      61.999  44.725  16.763  1.00  0.00     0.004 C 
ENDBRANCH   1   5
TORSDOF 2
ENDMDL
MODEL 4
REMARK VINA RESULT:    -2.304     15.712     16.305
REMARK INTER + INTRA:          -2.609
REMARK INTER:                  -2.593
REMARK INTRA:                  -0.017
REMARK UNBOUND:                -0.036
REMARK SMILES CCCC(=O)[O-]
REMARK SMILES IDX 3 1 4 2 5 3 6 4 2 5 1 6
REMARK H PARENT
REMARK Flexibility Score: inf
ROOT
ATOM      1  C   UNL     1      48.585  43.431  14.902  1.00  0.00     0.052 C 
ENDROOT
BRANCH   1   2
ATOM      2  C   UNL     1      47.199  43.078  14.455  1.00  0.00     0.041 C 
ATOM      3  O   UNL     1      46.301  43.959  14.422  1.00  0.00    -0.550 OA
ATOM      4  O   UNL     1      46.909  41.783  14.042  1.00  0.00    -0.550 OA
ENDBRANCH   1   2
BRANCH   1   5
ATOM      5  C   UNL     1      48.805  44.949  14.929  1.00  0.00     0.003 C 
ATOM      6  C   UNL     1      50.154  45.352  14.332  1.00  0.00     0.004 C 
ENDBRANCH   1   5
TORSDOF 2
ENDMDL
MODEL 5
REMARK VINA RESULT:    -2.269     11.438     11.816
REMARK INTER + INTRA:          -2.571
REMARK INTER:                  -2.557
REMARK INTRA:                  -0.013
REMARK UNBOUND:                -0.036
REMARK SMILES CCCC(=O)[O-]
REMARK SMILES IDX 3 1 4 2 5 3 6 4 2 5 1 6
REMARK H PARENT
REMARK Flexibility Score: inf
ROOT
ATOM      1  C   UNL     1      56.052  34.811  12.935  1.00  0.00     0.052 C 
ENDROOT
BRANCH   1   2
ATOM      2  C   UNL     1      55.440  35.977  12.219  1.00  0.00     0.041 C 
ATOM      3  O   UNL     1      54.372  36.490  12.643  1.00  0.00    -0.550 OA
ATOM      4  O   UNL     1      56.069  36.517  11.103  1.00  0.00    -0.550 OA
ENDBRANCH   1   2
BRANCH   1   5
ATOM      5  C   UNL     1      57.073  34.076  12.056  1.00  0.00     0.003 C 
ATOM      6  C   UNL     1      58.150  33.372  12.882  1.00  0.00     0.004 C 
ENDBRANCH   1   5
TORSDOF 2
ENDMDL
MODEL 6
REMARK VINA RESULT:    -2.251     16.676     17.277
REMARK INTER + INTRA:          -2.550
REMARK INTER:                  -2.496
REMARK INTRA:                  -0.054
REMARK UNBOUND:                -0.036
REMARK SMILES CCCC(=O)[O-]
REMARK SMILES IDX 3 1 4 2 5 3 6 4 2 5 1 6
REMARK H PARENT
REMARK Flexibility Score: inf
ROOT
ATOM      1  C   UNL     1      47.053  42.322  14.008  1.00  0.00     0.052 C 
ENDROOT
BRANCH   1   2
ATOM      2  C   UNL     1      47.818  43.328  14.813  1.00  0.00     0.041 C 
ATOM      3  O   UNL     1      48.841  42.978  15.457  1.00  0.00    -0.550 OA
ATOM      4  O   UNL     1      47.420  44.660  14.822  1.00  0.00    -0.550 OA
ENDBRANCH   1   2
BRANCH   1   5
ATOM      5  C   UNL     1      46.174  41.432  14.896  1.00  0.00     0.003 C 
ATOM      6  C   UNL     1      44.902  42.145  15.356  1.00  0.00     0.004 C 
ENDBRANCH   1   5
TORSDOF 2
ENDMDL
MODEL 7
REMARK VINA RESULT:    -2.232     16.888     17.481
REMARK INTER + INTRA:          -2.529
REMARK INTER:                  -2.492
REMARK INTRA:                  -0.037
REMARK UNBOUND:                -0.036
REMARK SMILES CCCC(=O)[O-]
REMARK SMILES IDX 3 1 4 2 5 3 6 4 2 5 1 6
REMARK H PARENT
REMARK Flexibility Score: inf
ROOT
ATOM      1  C   UNL     1      47.133  42.608  14.289  1.00  0.00     0.052 C 
ENDROOT
BRANCH   1   2
ATOM      2  C   UNL     1      45.801  42.926  14.898  1.00  0.00     0.041 C 
ATOM      3  O   UNL     1      45.502  44.115  15.181  1.00  0.00    -0.550 OA
ATOM      4  O   UNL     1      44.877  41.912  15.119  1.00  0.00    -0.550 OA
ENDBRANCH   1   2
BRANCH   1   5
ATOM      5  C   UNL     1      48.290  42.973  15.228  1.00  0.00     0.003 C 
ATOM      6  C   UNL     1      49.040  44.222  14.767  1.00  0.00     0.004 C 
ENDBRANCH   1   5
TORSDOF 2
ENDMDL
MODEL 8
REMARK VINA RESULT:    -2.184      1.903      2.713
REMARK INTER + INTRA:          -2.475
REMARK INTER:                  -2.414
REMARK INTRA:                  -0.061
REMARK UNBOUND:                -0.036
REMARK SMILES CCCC(=O)[O-]
REMARK SMILES IDX 3 1 4 2 5 3 6 4 2 5 1 6
REMARK H PARENT
REMARK Flexibility Score: inf
ROOT
ATOM      1  C   UNL     1      62.872  44.477  15.987  1.00  0.00     0.052 C 
ENDROOT
BRANCH   1   2
ATOM      2  C   UNL     1      63.195  43.940  17.348  1.00  0.00     0.041 C 
ATOM      3  O   UNL     1      64.188  44.381  17.983  1.00  0.00    -0.550 OA
ATOM      4  O   UNL     1      62.379  42.977  17.928  1.00  0.00    -0.550 OA
ENDBRANCH   1   2
BRANCH   1   5
ATOM      5  C   UNL     1      63.935  44.086  14.953  1.00  0.00     0.003 C 
ATOM      6  C   UNL     1      64.218  42.584  14.950  1.00  0.00     0.004 C 
ENDBRANCH   1   5
TORSDOF 2
ENDMDL
MODEL 9
REMARK VINA RESULT:    -2.052     14.974     15.768
REMARK INTER + INTRA:          -2.329
REMARK INTER:                  -2.292
REMARK INTRA:                  -0.036
REMARK UNBOUND:                -0.036
REMARK SMILES CCCC(=O)[O-]
REMARK SMILES IDX 3 1 4 2 5 3 6 4 2 5 1 6
REMARK H PARENT
REMARK Flexibility Score: inf
ROOT
ATOM      1  C   UNL     1      50.125  50.125  11.696  1.00  0.00     0.052 C 
ENDROOT
BRANCH   1   2
ATOM      2  C   UNL     1      51.263  49.402  11.042  1.00  0.00     0.041 C 
ATOM      3  O   UNL     1      51.877  48.496  11.662  1.00  0.00    -0.550 OA
ATOM      4  O   UNL     1      51.621  49.706   9.734  1.00  0.00    -0.550 OA
ENDBRANCH   1   2
BRANCH   1   5
ATOM      5  C   UNL     1      50.136  49.945  13.219  1.00  0.00     0.003 C 
ATOM      6  C   UNL     1      49.021  49.019  13.703  1.00  0.00     0.004 C 
ENDBRANCH   1   5
TORSDOF 2
ENDMDL
