MODEL 1
REMARK VINA RESULT:    -3.441      0.000      0.000
REMARK INTER + INTRA:          -3.857
REMARK INTER:                  -3.843
REMARK INTRA:                  -0.014
REMARK UNBOUND:                -0.014
REMARK SMILES CCCC(=O)[O-]
REMARK SMILES IDX 3 1 4 2 5 3 6 4 2 5 1 6
REMARK H PARENT
REMARK Flexibility Score: inf
ROOT
ATOM      1  C   UNL     1     -21.912 -60.105   0.475  1.00  0.00     0.052 C 
ENDROOT
BRANCH   1   2
ATOM      2  C   UNL     1     -22.049 -59.589  -0.925  1.00  0.00     0.041 C 
ATOM      3  O   UNL     1     -22.290 -58.370  -1.130  1.00  0.00    -0.550 OA
ATOM      4  O   UNL     1     -21.875 -60.446  -2.004  1.00  0.00    -0.550 OA
ENDBRANCH   1   2
BRANCH   1   5
ATOM      5  C   UNL     1     -21.875 -61.638   0.516  1.00  0.00     0.003 C 
ATOM      6  C   UNL     1     -22.705 -62.209   1.666  1.00  0.00     0.004 C 
ENDBRANCH   1   5
TORSDOF 2
ENDMDL
MODEL 2
REMARK VINA RESULT:    -3.250      1.115      1.514
REMARK INTER + INTRA:          -3.644
REMARK INTER:                  -3.631
REMARK INTRA:                  -0.013
REMARK UNBOUND:                -0.014
REMARK SMILES CCCC(=O)[O-]
REMARK SMILES IDX 3 1 4 2 5 3 6 4 2 5 1 6
REMARK H PARENT
REMARK Flexibility Score: inf
ROOT
ATOM      1  C   UNL     1     -22.011 -60.697  -0.431  1.00  0.00     0.052 C 
ENDROOT
BRANCH   1   2
ATOM      2  C   UNL     1     -22.783 -59.654  -1.179  1.00  0.00     0.041 C 
ATOM      3  O   UNL     1     -23.871 -59.953  -1.740  1.00  0.00    -0.550 OA
ATOM      4  O   UNL     1     -22.321 -58.345  -1.227  1.00  0.00    -0.550 OA
ENDBRANCH   1   2
BRANCH   1   5
ATOM      5  C   UNL     1     -22.607 -60.962   0.957  1.00  0.00     0.003 C 
ATOM      6  C   UNL     1     -22.565 -62.443   1.335  1.00  0.00     0.004 C 
ENDBRANCH   1   5
TORSDOF 2
ENDMDL
MODEL 3
REMARK VINA RESULT:    -3.089      2.878      3.381
REMARK INTER + INTRA:          -3.465
REMARK INTER:                  -3.457
REMARK INTRA:                  -0.008
REMARK UNBOUND:                -0.014
REMARK SMILES CCCC(=O)[O-]
REMARK SMILES IDX 3 1 4 2 5 3 6 4 2 5 1 6
REMARK H PARENT
REMARK Flexibility Score: inf
ROOT
ATOM      1  C   UNL     1     -23.922 -58.945  -1.355  1.00  0.00     0.052 C 
ENDROOT
BRANCH   1   2
ATOM      2  C   UNL     1     -25.291 -59.401  -1.755  1.00  0.00     0.041 C 
ATOM      3  O   UNL     1     -26.160 -59.645  -0.876  1.00  0.00    -0.550 OA
ATOM      4  O   UNL     1     -25.620 -59.523  -3.099  1.00  0.00    -0.550 OA
ENDBRANCH   1   2
BRANCH   1   5
ATOM      5  C   UNL     1     -22.938 -60.117  -1.251  1.00  0.00     0.003 C 
ATOM      6  C   UNL     1     -21.891 -59.904  -0.158  1.00  0.00     0.004 C 
ENDBRANCH   1   5
TORSDOF 2
ENDMDL
MODEL 4
REMARK VINA RESULT:    -3.076      2.957      4.014
REMARK INTER + INTRA:          -3.449
REMARK INTER:                  -3.436
REMARK INTRA:                  -0.013
REMARK UNBOUND:                -0.014
REMARK SMILES CCCC(=O)[O-]
REMARK SMILES IDX 3 1 4 2 5 3 6 4 2 5 1 6
REMARK H PARENT
REMARK Flexibility Score: inf
ROOT
ATOM      1  C   UNL     1     -22.844 -61.627   1.463  1.00  0.00     0.052 C 
ENDROOT
BRANCH   1   2
ATOM      2  C   UNL     1     -22.610 -63.106   1.453  1.00  0.00     0.041 C 
ATOM      3  O   UNL     1     -21.876 -63.625   0.571  1.00  0.00    -0.550 OA
ATOM      4  O   UNL     1     -23.173 -63.908   2.438  1.00  0.00    -0.550 OA
ENDBRANCH   1   2
BRANCH   1   5
ATOM      5  C   UNL     1     -22.114 -60.926   0.310  1.00  0.00     0.003 C 
ATOM      6  C   UNL     1     -21.875 -59.443   0.589  1.00  0.00     0.004 C 
ENDBRANCH   1   5
TORSDOF 2
ENDMDL
MODEL 5
REMARK VINA RESULT:    -2.999      2.027      3.030
REMARK INTER + INTRA:          -3.363
REMARK INTER:                  -3.323
REMARK INTRA:                  -0.040
REMARK UNBOUND:                -0.014
REMARK SMILES CCCC(=O)[O-]
REMARK SMILES IDX 3 1 4 2 5 3 6 4 2 5 1 6
REMARK H PARENT
REMARK Flexibility Score: inf
ROOT
ATOM      1  C   UNL     1     -23.616 -60.110  -0.032  1.00  0.00     0.052 C 
ENDROOT
BRANCH   1   2
ATOM      2  C   UNL     1     -22.531 -59.728  -0.992  1.00  0.00     0.041 C 
ATOM      3  O   UNL     1     -21.875 -60.619  -1.593  1.00  0.00    -0.550 OA
ATOM      4  O   UNL     1     -22.269 -58.389  -1.250  1.00  0.00    -0.550 OA
ENDBRANCH   1   2
BRANCH   1   5
ATOM      5  C   UNL     1     -24.883 -59.272  -0.240  1.00  0.00     0.003 C 
ATOM      6  C   UNL     1     -25.503 -59.486  -1.621  1.00  0.00     0.004 C 
ENDBRANCH   1   5
TORSDOF 2
ENDMDL
MODEL 6
REMARK VINA RESULT:    -2.973      3.839      4.592
REMARK INTER + INTRA:          -3.334
REMARK INTER:                  -3.300
REMARK INTRA:                  -0.034
REMARK UNBOUND:                -0.014
REMARK SMILES CCCC(=O)[O-]
REMARK SMILES IDX 3 1 4 2 5 3 6 4 2 5 1 6
REMARK H PARENT
REMARK Flexibility Score: inf
ROOT
ATOM      1  C   UNL     1     -24.952 -58.260  -1.970  1.00  0.00     0.052 C 
ENDROOT
BRANCH   1   2
ATOM      2  C   UNL     1     -25.977 -58.459  -3.044  1.00  0.00     0.041 C 
ATOM      3  O   UNL     1     -25.940 -59.486  -3.773  1.00  0.00    -0.550 OA
ATOM      4  O   UNL     1     -26.994 -57.529  -3.218  1.00  0.00    -0.550 OA
ENDBRANCH   1   2
BRANCH   1   5
ATOM      5  C   UNL     1     -24.635 -59.569  -1.235  1.00  0.00     0.003 C 
ATOM      6  C   UNL     1     -23.141 -59.893  -1.242  1.00  0.00     0.004 C 
ENDBRANCH   1   5
TORSDOF 2
ENDMDL
MODEL 7
REMARK VINA RESULT:    -2.962      4.473      5.495
REMARK INTER + INTRA:          -3.322
REMARK INTER:                  -3.314
REMARK INTRA:                  -0.009
REMARK UNBOUND:                -0.014
REMARK SMILES CCCC(=O)[O-]
REMARK SMILES IDX 3 1 4 2 5 3 6 4 2 5 1 6
REMARK H PARENT
REMARK Flexibility Score: inf
ROOT
ATOM      1  C   UNL     1     -24.494 -62.583   2.755  1.00  0.00     0.052 C 
ENDROOT
BRANCH   1   2
ATOM      2  C   UNL     1     -23.433 -63.630   2.598  1.00  0.00     0.041 C 
ATOM      3  O   UNL     1     -22.751 -63.686   1.541  1.00  0.00    -0.550 OA
ATOM      4  O   UNL     1     -23.174 -64.520   3.632  1.00  0.00    -0.550 OA
ENDBRANCH   1   2
BRANCH   1   5
ATOM      5  C   UNL     1     -25.641 -63.064   3.653  1.00  0.00     0.003 C 
ATOM      6  C   UNL     1     -26.592 -61.931   4.038  1.00  0.00     0.004 C 
ENDBRANCH   1   5
TORSDOF 2
ENDMDL
MODEL 8
REMARK VINA RESULT:    -2.933      4.027      5.024
REMARK INTER + INTRA:          -3.290
REMARK INTER:                  -3.242
REMARK INTRA:                  -0.048
REMARK UNBOUND:                -0.014
REMARK SMILES CCCC(=O)[O-]
REMARK SMILES IDX 3 1 4 2 5 3 6 4 2 5 1 6
REMARK H PARENT
REMARK Flexibility Score: inf
ROOT
ATOM      1  C   UNL     1     -24.635 -62.692   2.902  1.00  0.00     0.052 C 
ENDROOT
BRANCH   1   2
ATOM      2  C   UNL     1     -23.529 -63.687   2.726  1.00  0.00     0.041 C 
ATOM      3  O   UNL     1     -23.245 -64.489   3.655  1.00  0.00    -0.550 OA
ATOM      4  O   UNL     1     -22.836 -63.754   1.524  1.00  0.00    -0.550 OA
ENDBRANCH   1   2
BRANCH   1   5
ATOM      5  C   UNL     1     -24.377 -61.406   2.107  1.00  0.00     0.003 C 
ATOM      6  C   UNL     1     -23.381 -60.481   2.805  1.00  0.00     0.004 C 
ENDBRANCH   1   5
TORSDOF 2
ENDMDL
