MODEL 1
REMARK VINA RESULT:    -4.603      0.000      0.000
REMARK INTER + INTRA:          -4.896
REMARK INTER:                  -4.872
REMARK INTRA:                  -0.023
REMARK UNBOUND:                -0.023
REMARK SMILES O=C([O-])c1cccnc1
REMARK SMILES IDX 4 1 5 2 9 3 6 4 8 5 7 6 2 7 1 8 3 9
REMARK H PARENT
REMARK Flexibility Score: inf
ROOT
ATOM      1  C   UNL     1      -5.566  36.133  22.004  1.00  0.00     0.016 A 
ATOM      2  C   UNL     1      -5.946  34.876  22.499  1.00  0.00     0.013 A 
ATOM      3  C   UNL     1      -5.375  37.182  22.921  1.00  0.00     0.120 A 
ATOM      4  C   UNL     1      -6.124  34.686  23.871  1.00  0.00     0.021 A 
ATOM      5  N   UNL     1      -5.555  36.971  24.253  1.00  0.00    -0.264 NA
ATOM      6  C   UNL     1      -5.923  35.758  24.741  1.00  0.00     0.111 A 
ENDROOT
BRANCH   1   7
ATOM      7  C   UNL     1      -5.374  36.346  20.553  1.00  0.00     0.073 C 
ATOM      8  O   UNL     1      -5.228  35.364  19.777  1.00  0.00    -0.545 OA
ATOM      9  O   UNL     1      -5.351  37.632  20.027  1.00  0.00    -0.545 OA
ENDBRANCH   1   7
TORSDOF 1
ENDMDL
MODEL 2
REMARK VINA RESULT:    -4.599      2.546      3.660
REMARK INTER + INTRA:          -4.892
REMARK INTER:                  -4.868
REMARK INTRA:                  -0.023
REMARK UNBOUND:                -0.023
REMARK SMILES O=C([O-])c1cccnc1
REMARK SMILES IDX 4 1 5 2 9 3 6 4 8 5 7 6 2 7 1 8 3 9
REMARK H PARENT
REMARK Flexibility Score: inf
ROOT
ATOM      1  C   UNL     1      -5.435  36.025  22.364  1.00  0.00     0.016 A 
ATOM      2  C   UNL     1      -5.316  35.340  21.144  1.00  0.00     0.013 A 
ATOM      3  C   UNL     1      -5.380  37.430  22.349  1.00  0.00     0.120 A 
ATOM      4  C   UNL     1      -5.150  36.050  19.953  1.00  0.00     0.021 A 
ATOM      5  N   UNL     1      -5.217  38.099  21.175  1.00  0.00    -0.264 NA
ATOM      6  C   UNL     1      -5.101  37.444  19.990  1.00  0.00     0.111 A 
ENDROOT
BRANCH   1   7
ATOM      7  C   UNL     1      -5.612  35.284  23.631  1.00  0.00     0.073 C 
ATOM      8  O   UNL     1      -5.435  35.858  24.738  1.00  0.00    -0.545 OA
ATOM      9  O   UNL     1      -5.977  33.942  23.616  1.00  0.00    -0.545 OA
ENDBRANCH   1   7
TORSDOF 1
ENDMDL
MODEL 3
REMARK VINA RESULT:    -4.583      2.540      3.527
REMARK INTER + INTRA:          -4.874
REMARK INTER:                  -4.851
REMARK INTRA:                  -0.023
REMARK UNBOUND:                -0.023
REMARK SMILES O=C([O-])c1cccnc1
REMARK SMILES IDX 4 1 5 2 9 3 6 4 8 5 7 6 2 7 1 8 3 9
REMARK H PARENT
REMARK Flexibility Score: inf
ROOT
ATOM      1  C   UNL     1      -5.435  36.006  22.337  1.00  0.00     0.016 A 
ATOM      2  C   UNL     1      -5.258  35.338  21.115  1.00  0.00     0.013 A 
ATOM      3  C   UNL     1      -5.421  37.412  22.338  1.00  0.00     0.120 A 
ATOM      4  C   UNL     1      -5.075  36.066  19.937  1.00  0.00     0.021 A 
ATOM      5  N   UNL     1      -5.240  38.098  21.177  1.00  0.00    -0.264 NA
ATOM      6  C   UNL     1      -5.068  37.460  19.989  1.00  0.00     0.111 A 
ENDROOT
BRANCH   1   7
ATOM      7  C   UNL     1      -5.630  35.246  23.590  1.00  0.00     0.073 C 
ATOM      8  O   UNL     1      -6.017  34.047  23.557  1.00  0.00    -0.545 OA
ATOM      9  O   UNL     1      -5.389  35.844  24.821  1.00  0.00    -0.545 OA
ENDBRANCH   1   7
TORSDOF 1
ENDMDL
MODEL 4
REMARK VINA RESULT:    -4.539      2.929      3.559
REMARK INTER + INTRA:          -4.828
REMARK INTER:                  -4.806
REMARK INTRA:                  -0.022
REMARK UNBOUND:                -0.023
REMARK SMILES O=C([O-])c1cccnc1
REMARK SMILES IDX 4 1 5 2 9 3 6 4 8 5 7 6 2 7 1 8 3 9
REMARK H PARENT
REMARK Flexibility Score: inf
ROOT
ATOM      1  C   UNL     1      -5.242  37.848  21.682  1.00  0.00     0.016 A 
ATOM      2  C   UNL     1      -5.386  36.621  22.349  1.00  0.00     0.013 A 
ATOM      3  C   UNL     1      -5.042  37.834  20.291  1.00  0.00     0.120 A 
ATOM      4  C   UNL     1      -5.332  35.423  21.633  1.00  0.00     0.021 A 
ATOM      5  N   UNL     1      -4.993  36.653  19.617  1.00  0.00    -0.264 NA
ATOM      6  C   UNL     1      -5.132  35.460  20.253  1.00  0.00     0.111 A 
ENDROOT
BRANCH   1   7
ATOM      7  C   UNL     1      -5.298  39.123  22.430  1.00  0.00     0.073 C 
ATOM      8  O   UNL     1      -4.955  39.169  23.642  1.00  0.00    -0.545 OA
ATOM      9  O   UNL     1      -5.731  40.287  21.806  1.00  0.00    -0.545 OA
ENDBRANCH   1   7
TORSDOF 1
ENDMDL
MODEL 5
REMARK VINA RESULT:    -4.485      1.044      1.954
REMARK INTER + INTRA:          -4.771
REMARK INTER:                  -4.749
REMARK INTRA:                  -0.022
REMARK UNBOUND:                -0.023
REMARK SMILES O=C([O-])c1cccnc1
REMARK SMILES IDX 4 1 5 2 9 3 6 4 8 5 7 6 2 7 1 8 3 9
REMARK H PARENT
REMARK Flexibility Score: inf
ROOT
ATOM      1  C   UNL     1      -5.477  36.330  22.097  1.00  0.00     0.016 A 
ATOM      2  C   UNL     1      -5.420  37.171  23.221  1.00  0.00     0.013 A 
ATOM      3  C   UNL     1      -5.828  34.982  22.289  1.00  0.00     0.120 A 
ATOM      4  C   UNL     1      -5.708  36.666  24.490  1.00  0.00     0.021 A 
ATOM      5  N   UNL     1      -6.103  34.515  23.536  1.00  0.00    -0.264 NA
ATOM      6  C   UNL     1      -6.051  35.320  24.630  1.00  0.00     0.111 A 
ENDROOT
BRANCH   1   7
ATOM      7  C   UNL     1      -5.175  36.854  20.748  1.00  0.00     0.073 C 
ATOM      8  O   UNL     1      -5.437  38.051  20.453  1.00  0.00    -0.545 OA
ATOM      9  O   UNL     1      -4.598  36.032  19.787  1.00  0.00    -0.545 OA
ENDBRANCH   1   7
TORSDOF 1
ENDMDL
MODEL 6
REMARK VINA RESULT:    -4.471      2.662      3.710
REMARK INTER + INTRA:          -4.756
REMARK INTER:                  -4.733
REMARK INTRA:                  -0.022
REMARK UNBOUND:                -0.023
REMARK SMILES O=C([O-])c1cccnc1
REMARK SMILES IDX 4 1 5 2 9 3 6 4 8 5 7 6 2 7 1 8 3 9
REMARK H PARENT
REMARK Flexibility Score: inf
ROOT
ATOM      1  C   UNL     1      -5.258  37.789  21.720  1.00  0.00     0.016 A 
ATOM      2  C   UNL     1      -5.012  37.762  20.338  1.00  0.00     0.013 A 
ATOM      3  C   UNL     1      -5.463  36.567  22.386  1.00  0.00     0.120 A 
ATOM      4  C   UNL     1      -4.972  36.544  19.656  1.00  0.00     0.021 A 
ATOM      5  N   UNL     1      -5.420  35.395  21.698  1.00  0.00    -0.264 NA
ATOM      6  C   UNL     1      -5.182  35.358  20.360  1.00  0.00     0.111 A 
ENDROOT
BRANCH   1   7
ATOM      7  C   UNL     1      -5.302  39.072  22.453  1.00  0.00     0.073 C 
ATOM      8  O   UNL     1      -5.670  40.128  21.872  1.00  0.00    -0.545 OA
ATOM      9  O   UNL     1      -4.936  39.130  23.793  1.00  0.00    -0.545 OA
ENDBRANCH   1   7
TORSDOF 1
ENDMDL
MODEL 7
REMARK VINA RESULT:    -4.161      1.725      2.464
REMARK INTER + INTRA:          -4.428
REMARK INTER:                  -4.404
REMARK INTRA:                  -0.024
REMARK UNBOUND:                -0.023
REMARK SMILES O=C([O-])c1cccnc1
REMARK SMILES IDX 4 1 5 2 9 3 6 4 8 5 7 6 2 7 1 8 3 9
REMARK H PARENT
REMARK Flexibility Score: inf
ROOT
ATOM      1  C   UNL     1      -5.495  37.001  23.204  1.00  0.00     0.016 A 
ATOM      2  C   UNL     1      -5.732  36.016  22.233  1.00  0.00     0.013 A 
ATOM      3  C   UNL     1      -5.585  36.638  24.560  1.00  0.00     0.120 A 
ATOM      4  C   UNL     1      -6.047  34.711  22.618  1.00  0.00     0.021 A 
ATOM      5  N   UNL     1      -5.894  35.360  24.909  1.00  0.00    -0.264 NA
ATOM      6  C   UNL     1      -6.125  34.399  23.976  1.00  0.00     0.111 A 
ENDROOT
BRANCH   1   7
ATOM      7  C   UNL     1      -5.161  38.386  22.808  1.00  0.00     0.073 C 
ATOM      8  O   UNL     1      -4.972  38.676  21.596  1.00  0.00    -0.545 OA
ATOM      9  O   UNL     1      -5.050  39.385  23.767  1.00  0.00    -0.545 OA
ENDBRANCH   1   7
TORSDOF 1
ENDMDL
MODEL 8
REMARK VINA RESULT:    -4.049      1.076      2.194
REMARK INTER + INTRA:          -4.309
REMARK INTER:                  -4.285
REMARK INTRA:                  -0.024
REMARK UNBOUND:                -0.023
REMARK SMILES O=C([O-])c1cccnc1
REMARK SMILES IDX 4 1 5 2 9 3 6 4 8 5 7 6 2 7 1 8 3 9
REMARK H PARENT
REMARK Flexibility Score: inf
ROOT
ATOM      1  C   UNL     1      -5.290  36.885  21.887  1.00  0.00     0.016 A 
ATOM      2  C   UNL     1      -5.059  38.188  22.357  1.00  0.00     0.013 A 
ATOM      3  C   UNL     1      -5.522  35.867  22.829  1.00  0.00     0.120 A 
ATOM      4  C   UNL     1      -5.065  38.451  23.729  1.00  0.00     0.021 A 
ATOM      5  N   UNL     1      -5.522  36.149  24.160  1.00  0.00    -0.264 NA
ATOM      6  C   UNL     1      -5.299  37.406  24.624  1.00  0.00     0.111 A 
ENDROOT
BRANCH   1   7
ATOM      7  C   UNL     1      -5.288  36.596  20.437  1.00  0.00     0.073 C 
ATOM      8  O   UNL     1      -4.941  37.480  19.609  1.00  0.00    -0.545 OA
ATOM      9  O   UNL     1      -5.670  35.344  19.969  1.00  0.00    -0.545 OA
ENDBRANCH   1   7
TORSDOF 1
ENDMDL
