MODEL 1
REMARK VINA RESULT:    -4.877      0.000      0.000
REMARK INTER + INTRA:          -5.194
REMARK INTER:                  -5.162
REMARK INTRA:                  -0.032
REMARK UNBOUND:                -0.032
REMARK SMILES COc1ccc2ccc(=O)oc2c1
REMARK SMILES IDX 3 1 13 2 12 3 6 4 5 5 4 6 7 7 8 8 9 9 10 10 11 11 2 12 1 13
REMARK H PARENT
REMARK Flexibility Score: inf
ROOT
ATOM      1  C   UNL     1      16.203  17.455   9.387  1.00  0.00     0.122 A 
ATOM      2  C   UNL     1      15.140  17.267  10.280  1.00  0.00     0.094 A 
ATOM      3  C   UNL     1      13.844  17.039   9.806  1.00  0.00     0.142 A 
ATOM      4  C   UNL     1      13.603  17.000   8.416  1.00  0.00     0.018 A 
ATOM      5  C   UNL     1      14.662  17.188   7.518  1.00  0.00     0.016 A 
ATOM      6  C   UNL     1      15.955  17.414   8.000  1.00  0.00     0.047 A 
ATOM      7  C   UNL     1      12.297  16.771   7.971  1.00  0.00     0.019 A 
ATOM      8  C   UNL     1      11.278  16.590   8.906  1.00  0.00     0.094 A 
ATOM      9  C   UNL     1      11.592  16.642  10.269  1.00  0.00     0.336 A 
ATOM     10  O   UNL     1      10.685  16.481  11.128  1.00  0.00    -0.246 OA
ATOM     11  O   UNL     1      12.843  16.861  10.665  1.00  0.00    -0.423 OA
ENDROOT
BRANCH   1  12
ATOM     12  O   UNL     1      17.483  17.679   9.916  1.00  0.00    -0.497 OA
ATOM     13  C   UNL     1      18.661  17.009   9.478  1.00  0.00     0.278 C 
ENDBRANCH   1  12
TORSDOF 1
ENDMDL
MODEL 2
REMARK VINA RESULT:    -4.831      1.115      4.731
REMARK INTER + INTRA:          -5.146
REMARK INTER:                  -5.104
REMARK INTRA:                  -0.042
REMARK UNBOUND:                -0.032
REMARK SMILES COc1ccc2ccc(=O)oc2c1
REMARK SMILES IDX 3 1 13 2 12 3 6 4 5 5 4 6 7 7 8 8 9 9 10 10 11 11 2 12 1 13
REMARK H PARENT
REMARK Flexibility Score: inf
ROOT
ATOM      1  C   UNL     1      12.752  17.003   9.311  1.00  0.00     0.122 A 
ATOM      2  C   UNL     1      13.803  17.013  10.237  1.00  0.00     0.094 A 
ATOM      3  C   UNL     1      15.128  17.149   9.809  1.00  0.00     0.142 A 
ATOM      4  C   UNL     1      15.408  17.275   8.431  1.00  0.00     0.018 A 
ATOM      5  C   UNL     1      14.362  17.266   7.500  1.00  0.00     0.016 A 
ATOM      6  C   UNL     1      13.040  17.131   7.937  1.00  0.00     0.047 A 
ATOM      7  C   UNL     1      16.743  17.408   8.032  1.00  0.00     0.019 A 
ATOM      8  C   UNL     1      17.748  17.412   8.998  1.00  0.00     0.094 A 
ATOM      9  C   UNL     1      17.394  17.282  10.346  1.00  0.00     0.336 A 
ATOM     10  O   UNL     1      18.288  17.283  11.233  1.00  0.00    -0.246 OA
ATOM     11  O   UNL     1      16.117  17.157  10.698  1.00  0.00    -0.423 OA
ENDROOT
BRANCH   1  12
ATOM     12  O   UNL     1      11.442  16.866   9.794  1.00  0.00    -0.497 OA
ATOM     13  C   UNL     1      11.103  16.245  11.030  1.00  0.00     0.278 C 
ENDBRANCH   1  12
TORSDOF 1
ENDMDL
MODEL 3
REMARK VINA RESULT:    -4.776      1.280      1.742
REMARK INTER + INTRA:          -5.088
REMARK INTER:                  -5.053
REMARK INTRA:                  -0.035
REMARK UNBOUND:                -0.032
REMARK SMILES COc1ccc2ccc(=O)oc2c1
REMARK SMILES IDX 3 1 13 2 12 3 6 4 5 5 4 6 7 7 8 8 9 9 10 10 11 11 2 12 1 13
REMARK H PARENT
REMARK Flexibility Score: inf
ROOT
ATOM      1  C   UNL     1      17.148  17.477  10.625  1.00  0.00     0.122 A 
ATOM      2  C   UNL     1      15.786  17.311  10.913  1.00  0.00     0.094 A 
ATOM      3  C   UNL     1      14.843  17.252   9.882  1.00  0.00     0.142 A 
ATOM      4  C   UNL     1      15.265  17.360   8.540  1.00  0.00     0.018 A 
ATOM      5  C   UNL     1      16.624  17.526   8.245  1.00  0.00     0.016 A 
ATOM      6  C   UNL     1      17.562  17.583   9.282  1.00  0.00     0.047 A 
ATOM      7  C   UNL     1      14.298  17.298   7.530  1.00  0.00     0.019 A 
ATOM      8  C   UNL     1      12.958  17.132   7.876  1.00  0.00     0.094 A 
ATOM      9  C   UNL     1      12.614  17.032   9.229  1.00  0.00     0.336 A 
ATOM     10  O   UNL     1      11.409  16.882   9.561  1.00  0.00    -0.246 OA
ATOM     11  O   UNL     1      13.554  17.094  10.169  1.00  0.00    -0.423 OA
ENDROOT
BRANCH   1  12
ATOM     12  O   UNL     1      18.052  17.529  11.696  1.00  0.00    -0.497 OA
ATOM     13  C   UNL     1      19.461  17.371  11.566  1.00  0.00     0.278 C 
ENDBRANCH   1  12
TORSDOF 1
ENDMDL
MODEL 4
REMARK VINA RESULT:    -4.602      1.475      1.702
REMARK INTER + INTRA:          -4.903
REMARK INTER:                  -4.861
REMARK INTRA:                  -0.042
REMARK UNBOUND:                -0.032
REMARK SMILES COc1ccc2ccc(=O)oc2c1
REMARK SMILES IDX 3 1 13 2 12 3 6 4 5 5 4 6 7 7 8 8 9 9 10 10 11 11 2 12 1 13
REMARK H PARENT
REMARK Flexibility Score: inf
ROOT
ATOM      1  C   UNL     1      15.566  16.606   8.250  1.00  0.00     0.122 A 
ATOM      2  C   UNL     1      15.115  15.930   9.391  1.00  0.00     0.094 A 
ATOM      3  C   UNL     1      13.762  15.952   9.744  1.00  0.00     0.142 A 
ATOM      4  C   UNL     1      12.842  16.663   8.944  1.00  0.00     0.018 A 
ATOM      5  C   UNL     1      13.286  17.340   7.801  1.00  0.00     0.016 A 
ATOM      6  C   UNL     1      14.641  17.313   7.455  1.00  0.00     0.047 A 
ATOM      7  C   UNL     1      11.495  16.668   9.322  1.00  0.00     0.019 A 
ATOM      8  C   UNL     1      11.104  15.977  10.469  1.00  0.00     0.094 A 
ATOM      9  C   UNL     1      12.073  15.294  11.213  1.00  0.00     0.336 A 
ATOM     10  O   UNL     1      11.739  14.665  12.251  1.00  0.00    -0.246 OA
ATOM     11  O   UNL     1      13.347  15.306  10.830  1.00  0.00    -0.423 OA
ENDROOT
BRANCH   1  12
ATOM     12  O   UNL     1      16.933  16.550   7.941  1.00  0.00    -0.497 OA
ATOM     13  C   UNL     1      17.803  15.494   8.336  1.00  0.00     0.278 C 
ENDBRANCH   1  12
TORSDOF 1
ENDMDL
MODEL 5
REMARK VINA RESULT:    -4.419      2.133      3.358
REMARK INTER + INTRA:          -4.709
REMARK INTER:                  -4.672
REMARK INTRA:                  -0.038
REMARK UNBOUND:                -0.032
REMARK SMILES COc1ccc2ccc(=O)oc2c1
REMARK SMILES IDX 3 1 13 2 12 3 6 4 5 5 4 6 7 7 8 8 9 9 10 10 11 11 2 12 1 13
REMARK H PARENT
REMARK Flexibility Score: inf
ROOT
ATOM      1  C   UNL     1      16.023  17.332  12.290  1.00  0.00     0.122 A 
ATOM      2  C   UNL     1      14.787  17.165  11.650  1.00  0.00     0.094 A 
ATOM      3  C   UNL     1      14.705  17.159  10.254  1.00  0.00     0.142 A 
ATOM      4  C   UNL     1      15.875  17.322   9.482  1.00  0.00     0.018 A 
ATOM      5  C   UNL     1      17.113  17.489  10.116  1.00  0.00     0.016 A 
ATOM      6  C   UNL     1      17.188  17.493  11.513  1.00  0.00     0.047 A 
ATOM      7  C   UNL     1      15.761  17.312   8.087  1.00  0.00     0.019 A 
ATOM      8  C   UNL     1      14.505  17.143   7.505  1.00  0.00     0.094 A 
ATOM      9  C   UNL     1      13.389  16.987   8.334  1.00  0.00     0.336 A 
ATOM     10  O   UNL     1      12.247  16.833   7.827  1.00  0.00    -0.246 OA
ATOM     11  O   UNL     1      13.526  17.000   9.658  1.00  0.00    -0.423 OA
ENDROOT
BRANCH   1  12
ATOM     12  O   UNL     1      16.050  17.329  13.692  1.00  0.00    -0.497 OA
ATOM     13  C   UNL     1      15.201  18.125  14.514  1.00  0.00     0.278 C 
ENDBRANCH   1  12
TORSDOF 1
ENDMDL
MODEL 6
REMARK VINA RESULT:    -4.387      1.495      2.207
REMARK INTER + INTRA:          -4.676
REMARK INTER:                  -4.643
REMARK INTRA:                  -0.033
REMARK UNBOUND:                -0.032
REMARK SMILES COc1ccc2ccc(=O)oc2c1
REMARK SMILES IDX 3 1 13 2 12 3 6 4 5 5 4 6 7 7 8 8 9 9 10 10 11 11 2 12 1 13
REMARK H PARENT
REMARK Flexibility Score: inf
ROOT
ATOM      1  C   UNL     1      16.349  17.734   9.372  1.00  0.00     0.122 A 
ATOM      2  C   UNL     1      15.420  17.255   8.439  1.00  0.00     0.094 A 
ATOM      3  C   UNL     1      14.088  17.038   8.807  1.00  0.00     0.142 A 
ATOM      4  C   UNL     1      13.676  17.303  10.131  1.00  0.00     0.018 A 
ATOM      5  C   UNL     1      14.600  17.781  11.068  1.00  0.00     0.016 A 
ATOM      6  C   UNL     1      15.930  17.997  10.692  1.00  0.00     0.047 A 
ATOM      7  C   UNL     1      12.338  17.076  10.471  1.00  0.00     0.019 A 
ATOM      8  C   UNL     1      11.458  16.598   9.500  1.00  0.00     0.094 A 
ATOM      9  C   UNL     1      11.938  16.359   8.208  1.00  0.00     0.336 A 
ATOM     10  O   UNL     1      11.159  15.928   7.318  1.00  0.00    -0.246 OA
ATOM     11  O   UNL     1      13.216  16.584   7.912  1.00  0.00    -0.423 OA
ENDROOT
BRANCH   1  12
ATOM     12  O   UNL     1      17.672  17.935   8.950  1.00  0.00    -0.497 OA
ATOM     13  C   UNL     1      18.782  17.159   9.389  1.00  0.00     0.278 C 
ENDBRANCH   1  12
TORSDOF 1
ENDMDL
MODEL 7
REMARK VINA RESULT:    -4.287      2.071      4.453
REMARK INTER + INTRA:          -4.569
REMARK INTER:                  -4.526
REMARK INTRA:                  -0.043
REMARK UNBOUND:                -0.032
REMARK SMILES COc1ccc2ccc(=O)oc2c1
REMARK SMILES IDX 3 1 13 2 12 3 6 4 5 5 4 6 7 7 8 8 9 9 10 10 11 11 2 12 1 13
REMARK H PARENT
REMARK Flexibility Score: inf
ROOT
ATOM      1  C   UNL     1      14.018  17.063   8.470  1.00  0.00     0.122 A 
ATOM      2  C   UNL     1      13.948  17.070   9.869  1.00  0.00     0.094 A 
ATOM      3  C   UNL     1      15.098  17.277  10.639  1.00  0.00     0.142 A 
ATOM      4  C   UNL     1      16.340  17.479  10.000  1.00  0.00     0.018 A 
ATOM      5  C   UNL     1      16.417  17.473   8.602  1.00  0.00     0.016 A 
ATOM      6  C   UNL     1      15.262  17.266   7.839  1.00  0.00     0.047 A 
ATOM      7  C   UNL     1      17.473  17.683  10.795  1.00  0.00     0.019 A 
ATOM      8  C   UNL     1      17.343  17.680  12.184  1.00  0.00     0.094 A 
ATOM      9  C   UNL     1      16.079  17.473  12.746  1.00  0.00     0.336 A 
ATOM     10  O   UNL     1      15.942  17.467  13.998  1.00  0.00    -0.246 OA
ATOM     11  O   UNL     1      15.017  17.282  11.966  1.00  0.00    -0.423 OA
ENDROOT
BRANCH   1  12
ATOM     12  O   UNL     1      12.835  16.852   7.747  1.00  0.00    -0.497 OA
ATOM     13  C   UNL     1      11.622  16.367   8.314  1.00  0.00     0.278 C 
ENDBRANCH   1  12
TORSDOF 1
ENDMDL
MODEL 8
REMARK VINA RESULT:    -4.231      1.631      5.507
REMARK INTER + INTRA:          -4.511
REMARK INTER:                  -4.478
REMARK INTRA:                  -0.033
REMARK UNBOUND:                -0.032
REMARK SMILES COc1ccc2ccc(=O)oc2c1
REMARK SMILES IDX 3 1 13 2 12 3 6 4 5 5 4 6 7 7 8 8 9 9 10 10 11 11 2 12 1 13
REMARK H PARENT
REMARK Flexibility Score: inf
ROOT
ATOM      1  C   UNL     1      14.162  17.096   9.014  1.00  0.00     0.122 A 
ATOM      2  C   UNL     1      15.488  17.030   8.565  1.00  0.00     0.094 A 
ATOM      3  C   UNL     1      16.550  17.059   9.475  1.00  0.00     0.142 A 
ATOM      4  C   UNL     1      16.285  17.158  10.858  1.00  0.00     0.018 A 
ATOM      5  C   UNL     1      14.962  17.225  11.313  1.00  0.00     0.016 A 
ATOM      6  C   UNL     1      13.905  17.193  10.397  1.00  0.00     0.047 A 
ATOM      7  C   UNL     1      17.367  17.186  11.744  1.00  0.00     0.019 A 
ATOM      8  C   UNL     1      18.665  17.118  11.240  1.00  0.00     0.094 A 
ATOM      9  C   UNL     1      18.851  17.021   9.856  1.00  0.00     0.336 A 
ATOM     10  O   UNL     1      20.016  16.957   9.382  1.00  0.00    -0.246 OA
ATOM     11  O   UNL     1      17.804  16.996   9.036  1.00  0.00    -0.423 OA
ENDROOT
BRANCH   1  12
ATOM     12  O   UNL     1      13.135  17.061   8.060  1.00  0.00    -0.497 OA
ATOM     13  C   UNL     1      11.887  16.399   8.246  1.00  0.00     0.278 C 
ENDBRANCH   1  12
TORSDOF 1
ENDMDL
MODEL 9
REMARK VINA RESULT:    -4.190      1.882      5.865
REMARK INTER + INTRA:          -4.467
REMARK INTER:                  -4.424
REMARK INTRA:                  -0.043
REMARK UNBOUND:                -0.032
REMARK SMILES COc1ccc2ccc(=O)oc2c1
REMARK SMILES IDX 3 1 13 2 12 3 6 4 5 5 4 6 7 7 8 8 9 9 10 10 11 11 2 12 1 13
REMARK H PARENT
REMARK Flexibility Score: inf
ROOT
ATOM      1  C   UNL     1      14.385  17.390  11.020  1.00  0.00     0.122 A 
ATOM      2  C   UNL     1      15.469  17.090  10.184  1.00  0.00     0.094 A 
ATOM      3  C   UNL     1      16.783  17.269  10.630  1.00  0.00     0.142 A 
ATOM      4  C   UNL     1      17.019  17.758  11.934  1.00  0.00     0.018 A 
ATOM      5  C   UNL     1      15.940  18.059  12.773  1.00  0.00     0.016 A 
ATOM      6  C   UNL     1      14.629  17.877  12.320  1.00  0.00     0.047 A 
ATOM      7  C   UNL     1      18.343  17.927  12.352  1.00  0.00     0.019 A 
ATOM      8  C   UNL     1      19.382  17.612  11.477  1.00  0.00     0.094 A 
ATOM      9  C   UNL     1      19.072  17.132  10.200  1.00  0.00     0.336 A 
ATOM     10  O   UNL     1      19.996  16.842   9.396  1.00  0.00    -0.246 OA
ATOM     11  O   UNL     1      17.803  16.980   9.827  1.00  0.00    -0.423 OA
ENDROOT
BRANCH   1  12
ATOM     12  O   UNL     1      13.089  17.191  10.523  1.00  0.00    -0.497 OA
ATOM     13  C   UNL     1      12.779  16.967   9.151  1.00  0.00     0.278 C 
ENDBRANCH   1  12
TORSDOF 1
ENDMDL
