MODEL 1
REMARK VINA RESULT:    -2.695      0.000      0.000
REMARK INTER + INTRA:         -13.790
REMARK INTER:                  -7.106
REMARK INTRA:                  -6.684
REMARK UNBOUND:                -6.684
REMARK SMILES CCCCCCCCCCCCCCCCCCCCCCCCCCCCCC(=O)[O-]
REMARK SMILES IDX 16 1 17 2 18 3 19 4 20 5 21 6 22 7 23 8 24 9 25 10 26 11
REMARK SMILES IDX 27 12 28 13 29 14 30 15 31 16 32 17 15 18 14 19 13 20 12 21
REMARK SMILES IDX 11 22 10 23 9 24 8 25 7 26 6 27 5 28 4 29 3 30 2 31 1 32
REMARK H PARENT
REMARK Flexibility Score: inf
ROOT
ATOM      1  C   UNL     1      62.706  36.130  61.257  1.00  0.00     0.000 C 
ENDROOT
BRANCH   1   2
ATOM      2  C   UNL     1      61.601  35.302  60.574  1.00  0.00     0.000 C 
BRANCH   2   3
ATOM      3  C   UNL     1      61.900  33.798  60.444  1.00  0.00     0.000 C 
BRANCH   3   4
ATOM      4  C   UNL     1      61.500  33.228  59.073  1.00  0.00     0.000 C 
BRANCH   4   5
ATOM      5  C   UNL     1      60.456  32.104  59.174  1.00  0.00     0.000 C 
BRANCH   5   6
ATOM      6  C   UNL     1      60.922  30.725  58.665  1.00  0.00     0.000 C 
BRANCH   6   7
ATOM      7  C   UNL     1      60.975  29.637  59.758  1.00  0.00     0.000 C 
BRANCH   7   8
ATOM      8  C   UNL     1      60.825  30.222  61.175  1.00  0.00     0.000 C 
BRANCH   8   9
ATOM      9  C   UNL     1      62.163  30.318  61.931  1.00  0.00     0.000 C 
BRANCH   9  10
ATOM     10  C   UNL     1      63.241  29.320  61.471  1.00  0.00     0.000 C 
BRANCH  10  11
ATOM     11  C   UNL     1      64.643  29.946  61.386  1.00  0.00     0.000 C 
BRANCH  11  12
ATOM     12  C   UNL     1      64.624  31.358  60.781  1.00  0.00     0.000 C 
BRANCH  12  13
ATOM     13  C   UNL     1      64.617  31.340  59.241  1.00  0.00     0.006 C 
BRANCH  13  14
ATOM     14  C   UNL     1      65.602  30.312  58.669  1.00  0.00     0.053 C 
BRANCH  14  15
ATOM     15  C   UNL     1      66.973  30.893  58.500  1.00  0.00     0.041 C 
ATOM     16  O   UNL     1      67.974  30.313  58.997  1.00  0.00    -0.550 OA
ATOM     17  O   UNL     1      67.142  32.092  57.814  1.00  0.00    -0.550 OA
ENDBRANCH  14  15
ENDBRANCH  13  14
ENDBRANCH  12  13
ENDBRANCH  11  12
ENDBRANCH  10  11
ENDBRANCH   9  10
ENDBRANCH   8   9
ENDBRANCH   7   8
ENDBRANCH   6   7
ENDBRANCH   5   6
ENDBRANCH   4   5
ENDBRANCH   3   4
ENDBRANCH   2   3
ENDBRANCH   1   2
BRANCH   1  18
ATOM     18  C   UNL     1      63.941  35.294  61.624  1.00  0.00     0.000 C 
BRANCH  18  19
ATOM     19  C   UNL     1      65.225  35.925  61.062  1.00  0.00     0.000 C 
BRANCH  19  20
ATOM     20  C   UNL     1      65.126  36.232  59.558  1.00  0.00     0.000 C 
BRANCH  20  21
ATOM     21  C   UNL     1      65.261  34.978  58.682  1.00  0.00     0.000 C 
BRANCH  21  22
ATOM     22  C   UNL     1      64.270  35.016  57.512  1.00  0.00     0.000 C 
BRANCH  22  23
ATOM     23  C   UNL     1      63.407  36.283  57.557  1.00  0.00     0.000 C 
BRANCH  23  24
ATOM     24  C   UNL     1      62.128  36.107  56.726  1.00  0.00    -0.000 C 
BRANCH  24  25
ATOM     25  C   UNL     1      61.030  37.119  57.096  1.00  0.00    -0.000 C 
BRANCH  25  26
ATOM     26  C   UNL     1      59.600  36.610  56.816  1.00  0.00    -0.000 C 
BRANCH  26  27
ATOM     27  C   UNL     1      59.042  35.772  57.978  1.00  0.00    -0.000 C 
BRANCH  27  28
ATOM     28  C   UNL     1      58.347  34.508  57.461  1.00  0.00    -0.000 C 
BRANCH  28  29
ATOM     29  C   UNL     1      58.357  34.459  55.928  1.00  0.00    -0.000 C 
BRANCH  29  30
ATOM     30  C   UNL     1      59.008  33.165  55.425  1.00  0.00    -0.000 C 
BRANCH  30  31
ATOM     31  C   UNL     1      60.379  33.447  54.798  1.00  0.00    -0.003 C 
ATOM     32  C   UNL     1      61.484  32.681  55.520  1.00  0.00     0.004 C 
ENDBRANCH  30  31
ENDBRANCH  29  30
ENDBRANCH  28  29
ENDBRANCH  27  28
ENDBRANCH  26  27
ENDBRANCH  25  26
ENDBRANCH  24  25
ENDBRANCH  23  24
ENDBRANCH  22  23
ENDBRANCH  21  22
ENDBRANCH  20  21
ENDBRANCH  19  20
ENDBRANCH  18  19
ENDBRANCH   1  18
TORSDOF 28
ENDMDL
MODEL 2
REMARK VINA RESULT:    -2.650      3.254      6.672
REMARK INTER + INTRA:         -13.672
REMARK INTER:                  -7.499
REMARK INTRA:                  -6.173
REMARK UNBOUND:                -6.684
REMARK SMILES CCCCCCCCCCCCCCCCCCCCCCCCCCCCCC(=O)[O-]
REMARK SMILES IDX 16 1 17 2 18 3 19 4 20 5 21 6 22 7 23 8 24 9 25 10 26 11
REMARK SMILES IDX 27 12 28 13 29 14 30 15 31 16 32 17 15 18 14 19 13 20 12 21
REMARK SMILES IDX 11 22 10 23 9 24 8 25 7 26 6 27 5 28 4 29 3 30 2 31 1 32
REMARK H PARENT
REMARK Flexibility Score: inf
ROOT
ATOM      1  C   UNL     1      64.422  34.960  61.631  1.00  0.00     0.000 C 
ENDROOT
BRANCH   1   2
ATOM      2  C   UNL     1      63.710  36.311  61.428  1.00  0.00     0.000 C 
BRANCH   2   3
ATOM      3  C   UNL     1      62.184  36.224  61.250  1.00  0.00     0.000 C 
BRANCH   3   4
ATOM      4  C   UNL     1      61.715  36.734  59.877  1.00  0.00     0.000 C 
BRANCH   4   5
ATOM      5  C   UNL     1      60.982  35.658  59.058  1.00  0.00     0.000 C 
BRANCH   5   6
ATOM      6  C   UNL     1      61.813  35.000  57.940  1.00  0.00     0.000 C 
BRANCH   6   7
ATOM      7  C   UNL     1      61.117  33.801  57.261  1.00  0.00     0.000 C 
BRANCH   7   8
ATOM      8  C   UNL     1      59.645  33.660  57.690  1.00  0.00     0.000 C 
BRANCH   8   9
ATOM      9  C   UNL     1      58.778  32.943  56.639  1.00  0.00     0.000 C 
BRANCH   9  10
ATOM     10  C   UNL     1      58.674  31.418  56.815  1.00  0.00     0.000 C 
BRANCH  10  11
ATOM     11  C   UNL     1      58.743  30.977  58.288  1.00  0.00     0.000 C 
BRANCH  11  12
ATOM     12  C   UNL     1      58.239  29.541  58.499  1.00  0.00     0.000 C 
BRANCH  12  13
ATOM     13  C   UNL     1      59.100  28.755  59.504  1.00  0.00     0.006 C 
BRANCH  13  14
ATOM     14  C   UNL     1      58.439  27.436  59.927  1.00  0.00     0.053 C 
BRANCH  14  15
ATOM     15  C   UNL     1      58.298  27.340  61.415  1.00  0.00     0.041 C 
ATOM     16  O   UNL     1      57.409  28.001  62.013  1.00  0.00    -0.550 OA
ATOM     17  O   UNL     1      59.167  26.537  62.146  1.00  0.00    -0.550 OA
ENDBRANCH  14  15
ENDBRANCH  13  14
ENDBRANCH  12  13
ENDBRANCH  11  12
ENDBRANCH  10  11
ENDBRANCH   9  10
ENDBRANCH   8   9
ENDBRANCH   7   8
ENDBRANCH   6   7
ENDBRANCH   5   6
ENDBRANCH   4   5
ENDBRANCH   3   4
ENDBRANCH   2   3
ENDBRANCH   1   2
BRANCH   1  18
ATOM     18  C   UNL     1      64.128  33.954  60.509  1.00  0.00     0.000 C 
BRANCH  18  19
ATOM     19  C   UNL     1      63.508  32.664  61.069  1.00  0.00     0.000 C 
BRANCH  19  20
ATOM     20  C   UNL     1      62.043  32.474  60.640  1.00  0.00     0.000 C 
BRANCH  20  21
ATOM     21  C   UNL     1      61.354  31.311  61.368  1.00  0.00     0.000 C 
BRANCH  21  22
ATOM     22  C   UNL     1      62.385  30.319  61.918  1.00  0.00     0.000 C 
BRANCH  22  23
ATOM     23  C   UNL     1      62.204  28.929  61.297  1.00  0.00     0.000 C 
BRANCH  23  24
ATOM     24  C   UNL     1      63.559  28.318  60.910  1.00  0.00    -0.000 C 
BRANCH  24  25
ATOM     25  C   UNL     1      64.752  29.184  61.351  1.00  0.00    -0.000 C 
BRANCH  25  26
ATOM     26  C   UNL     1      65.557  29.774  60.173  1.00  0.00    -0.000 C 
BRANCH  26  27
ATOM     27  C   UNL     1      64.838  29.592  58.827  1.00  0.00    -0.000 C 
BRANCH  27  28
ATOM     28  C   UNL     1      64.614  30.940  58.136  1.00  0.00    -0.000 C 
BRANCH  28  29
ATOM     29  C   UNL     1      63.398  30.888  57.203  1.00  0.00    -0.000 C 
BRANCH  29  30
ATOM     30  C   UNL     1      62.224  30.163  57.873  1.00  0.00    -0.000 C 
BRANCH  30  31
ATOM     31  C   UNL     1      61.840  28.900  57.092  1.00  0.00    -0.003 C 
ATOM     32  C   UNL     1      61.440  29.239  55.659  1.00  0.00     0.004 C 
ENDBRANCH  30  31
ENDBRANCH  29  30
ENDBRANCH  28  29
ENDBRANCH  27  28
ENDBRANCH  26  27
ENDBRANCH  25  26
ENDBRANCH  24  25
ENDBRANCH  23  24
ENDBRANCH  22  23
ENDBRANCH  21  22
ENDBRANCH  20  21
ENDBRANCH  19  20
ENDBRANCH  18  19
ENDBRANCH   1  18
TORSDOF 28
ENDMDL
MODEL 3
REMARK VINA RESULT:    -2.570      8.616     11.160
REMARK INTER + INTRA:         -13.460
REMARK INTER:                  -7.937
REMARK INTRA:                  -5.523
REMARK UNBOUND:                -6.684
REMARK SMILES CCCCCCCCCCCCCCCCCCCCCCCCCCCCCC(=O)[O-]
REMARK SMILES IDX 16 1 17 2 18 3 19 4 20 5 21 6 22 7 23 8 24 9 25 10 26 11
REMARK SMILES IDX 27 12 28 13 29 14 30 15 31 16 32 17 15 18 14 19 13 20 12 21
REMARK SMILES IDX 11 22 10 23 9 24 8 25 7 26 6 27 5 28 4 29 3 30 2 31 1 32
REMARK H PARENT
REMARK Flexibility Score: inf
ROOT
ATOM      1  C   UNL     1      58.904  25.639  52.132  1.00  0.00     0.000 C 
ENDROOT
BRANCH   1   2
ATOM      2  C   UNL     1      58.766  25.844  53.652  1.00  0.00     0.000 C 
BRANCH   2   3
ATOM      3  C   UNL     1      60.071  26.211  54.382  1.00  0.00     0.000 C 
BRANCH   3   4
ATOM      4  C   UNL     1      61.032  27.031  53.505  1.00  0.00     0.000 C 
BRANCH   4   5
ATOM      5  C   UNL     1      62.498  26.589  53.649  1.00  0.00     0.000 C 
BRANCH   5   6
ATOM      6  C   UNL     1      63.017  25.657  52.536  1.00  0.00     0.000 C 
BRANCH   6   7
ATOM      7  C   UNL     1      62.363  25.899  51.159  1.00  0.00     0.000 C 
BRANCH   7   8
ATOM      8  C   UNL     1      63.406  26.093  50.043  1.00  0.00     0.000 C 
BRANCH   8   9
ATOM      9  C   UNL     1      64.741  26.661  50.557  1.00  0.00     0.000 C 
BRANCH   9  10
ATOM     10  C   UNL     1      65.008  28.130  50.181  1.00  0.00     0.000 C 
BRANCH  10  11
ATOM     11  C   UNL     1      64.659  29.113  51.312  1.00  0.00     0.000 C 
BRANCH  11  12
ATOM     12  C   UNL     1      63.173  29.502  51.319  1.00  0.00     0.000 C 
BRANCH  12  13
ATOM     13  C   UNL     1      62.648  29.853  49.915  1.00  0.00     0.006 C 
BRANCH  13  14
ATOM     14  C   UNL     1      62.168  31.308  49.822  1.00  0.00     0.053 C 
BRANCH  14  15
ATOM     15  C   UNL     1      63.160  32.174  49.107  1.00  0.00     0.041 C 
ATOM     16  O   UNL     1      62.826  33.318  48.700  1.00  0.00    -0.550 OA
ATOM     17  O   UNL     1      64.447  31.706  48.867  1.00  0.00    -0.550 OA
ENDBRANCH  14  15
ENDBRANCH  13  14
ENDBRANCH  12  13
ENDBRANCH  11  12
ENDBRANCH  10  11
ENDBRANCH   9  10
ENDBRANCH   8   9
ENDBRANCH   7   8
ENDBRANCH   6   7
ENDBRANCH   5   6
ENDBRANCH   4   5
ENDBRANCH   3   4
ENDBRANCH   2   3
ENDBRANCH   1   2
BRANCH   1  18
ATOM     18  C   UNL     1      57.560  25.719  51.392  1.00  0.00     0.000 C 
BRANCH  18  19
ATOM     19  C   UNL     1      57.735  26.316  49.987  1.00  0.00     0.000 C 
BRANCH  19  20
ATOM     20  C   UNL     1      59.209  26.390  49.553  1.00  0.00     0.000 C 
BRANCH  20  21
ATOM     21  C   UNL     1      59.620  27.788  49.068  1.00  0.00     0.000 C 
BRANCH  21  22
ATOM     22  C   UNL     1      58.840  28.878  49.813  1.00  0.00     0.000 C 
BRANCH  22  23
ATOM     23  C   UNL     1      59.460  29.163  51.187  1.00  0.00     0.000 C 
BRANCH  23  24
ATOM     24  C   UNL     1      58.509  29.998  52.057  1.00  0.00    -0.000 C 
BRANCH  24  25
ATOM     25  C   UNL     1      57.482  29.139  52.814  1.00  0.00    -0.000 C 
BRANCH  25  26
ATOM     26  C   UNL     1      56.016  29.503  52.496  1.00  0.00    -0.000 C 
BRANCH  26  27
ATOM     27  C   UNL     1      55.663  29.263  51.020  1.00  0.00    -0.000 C 
BRANCH  27  28
ATOM     28  C   UNL     1      54.182  28.905  50.859  1.00  0.00    -0.000 C 
BRANCH  28  29
ATOM     29  C   UNL     1      53.994  27.391  50.695  1.00  0.00    -0.000 C 
BRANCH  29  30
ATOM     30  C   UNL     1      53.230  27.071  49.405  1.00  0.00    -0.000 C 
BRANCH  30  31
ATOM     31  C   UNL     1      53.579  25.668  48.893  1.00  0.00    -0.003 C 
ATOM     32  C   UNL     1      53.399  24.621  49.989  1.00  0.00     0.004 C 
ENDBRANCH  30  31
ENDBRANCH  29  30
ENDBRANCH  28  29
ENDBRANCH  27  28
ENDBRANCH  26  27
ENDBRANCH  25  26
ENDBRANCH  24  25
ENDBRANCH  23  24
ENDBRANCH  22  23
ENDBRANCH  21  22
ENDBRANCH  20  21
ENDBRANCH  19  20
ENDBRANCH  18  19
ENDBRANCH   1  18
TORSDOF 28
ENDMDL
MODEL 4
REMARK VINA RESULT:    -2.567      7.399     11.106
REMARK INTER + INTRA:         -13.453
REMARK INTER:                  -8.003
REMARK INTRA:                  -5.450
REMARK UNBOUND:                -6.684
REMARK SMILES CCCCCCCCCCCCCCCCCCCCCCCCCCCCCC(=O)[O-]
REMARK SMILES IDX 16 1 17 2 18 3 19 4 20 5 21 6 22 7 23 8 24 9 25 10 26 11
REMARK SMILES IDX 27 12 28 13 29 14 30 15 31 16 32 17 15 18 14 19 13 20 12 21
REMARK SMILES IDX 11 22 10 23 9 24 8 25 7 26 6 27 5 28 4 29 3 30 2 31 1 32
REMARK H PARENT
REMARK Flexibility Score: inf
ROOT
ATOM      1  C   UNL     1      59.131  29.007  49.296  1.00  0.00     0.000 C 
ENDROOT
BRANCH   1   2
ATOM      2  C   UNL     1      59.614  27.550  49.173  1.00  0.00     0.000 C 
BRANCH   2   3
ATOM      3  C   UNL     1      61.088  27.318  49.552  1.00  0.00     0.000 C 
BRANCH   3   4
ATOM      4  C   UNL     1      61.261  26.235  50.630  1.00  0.00     0.000 C 
BRANCH   4   5
ATOM      5  C   UNL     1      60.388  26.480  51.871  1.00  0.00     0.000 C 
BRANCH   5   6
ATOM      6  C   UNL     1      60.828  27.656  52.765  1.00  0.00     0.000 C 
BRANCH   6   7
ATOM      7  C   UNL     1      59.661  28.391  53.458  1.00  0.00     0.000 C 
BRANCH   7   8
ATOM      8  C   UNL     1      60.069  29.785  53.968  1.00  0.00     0.000 C 
BRANCH   8   9
ATOM      9  C   UNL     1      60.295  30.800  52.833  1.00  0.00     0.000 C 
BRANCH   9  10
ATOM     10  C   UNL     1      61.716  30.804  52.241  1.00  0.00     0.000 C 
BRANCH  10  11
ATOM     11  C   UNL     1      61.921  31.899  51.180  1.00  0.00     0.000 C 
BRANCH  11  12
ATOM     12  C   UNL     1      61.993  31.333  49.754  1.00  0.00     0.000 C 
BRANCH  12  13
ATOM     13  C   UNL     1      63.441  31.154  49.261  1.00  0.00     0.006 C 
BRANCH  13  14
ATOM     14  C   UNL     1      63.814  29.676  49.083  1.00  0.00     0.053 C 
BRANCH  14  15
ATOM     15  C   UNL     1      64.791  29.222  50.125  1.00  0.00     0.041 C 
ATOM     16  O   UNL     1      65.265  30.045  50.952  1.00  0.00    -0.550 OA
ATOM     17  O   UNL     1      65.197  27.893  50.165  1.00  0.00    -0.550 OA
ENDBRANCH  14  15
ENDBRANCH  13  14
ENDBRANCH  12  13
ENDBRANCH  11  12
ENDBRANCH  10  11
ENDBRANCH   9  10
ENDBRANCH   8   9
ENDBRANCH   7   8
ENDBRANCH   6   7
ENDBRANCH   5   6
ENDBRANCH   4   5
ENDBRANCH   3   4
ENDBRANCH   2   3
ENDBRANCH   1   2
BRANCH   1  18
ATOM     18  C   UNL     1      58.135  29.214  50.447  1.00  0.00     0.000 C 
BRANCH  18  19
ATOM     19  C   UNL     1      56.917  28.289  50.299  1.00  0.00     0.000 C 
BRANCH  19  20
ATOM     20  C   UNL     1      56.801  27.271  51.447  1.00  0.00     0.000 C 
BRANCH  20  21
ATOM     21  C   UNL     1      55.848  26.112  51.123  1.00  0.00     0.000 C 
BRANCH  21  22
ATOM     22  C   UNL     1      55.643  25.976  49.609  1.00  0.00     0.000 C 
BRANCH  22  23
ATOM     23  C   UNL     1      54.157  25.838  49.260  1.00  0.00     0.000 C 
BRANCH  23  24
ATOM     24  C   UNL     1      53.296  26.736  50.161  1.00  0.00    -0.000 C 
BRANCH  24  25
ATOM     25  C   UNL     1      53.225  28.190  49.664  1.00  0.00    -0.000 C 
BRANCH  25  26
ATOM     26  C   UNL     1      53.425  29.237  50.781  1.00  0.00    -0.000 C 
BRANCH  26  27
ATOM     27  C   UNL     1      53.103  28.671  52.173  1.00  0.00    -0.000 C 
BRANCH  27  28
ATOM     28  C   UNL     1      54.155  29.102  53.200  1.00  0.00    -0.000 C 
BRANCH  28  29
ATOM     29  C   UNL     1      54.848  30.401  52.769  1.00  0.00    -0.000 C 
BRANCH  29  30
ATOM     30  C   UNL     1      56.290  30.450  53.289  1.00  0.00    -0.000 C 
BRANCH  30  31
ATOM     31  C   UNL     1      56.647  31.857  53.786  1.00  0.00    -0.003 C 
ATOM     32  C   UNL     1      55.563  32.864  53.413  1.00  0.00     0.004 C 
ENDBRANCH  30  31
ENDBRANCH  29  30
ENDBRANCH  28  29
ENDBRANCH  27  28
ENDBRANCH  26  27
ENDBRANCH  25  26
ENDBRANCH  24  25
ENDBRANCH  23  24
ENDBRANCH  22  23
ENDBRANCH  21  22
ENDBRANCH  20  21
ENDBRANCH  19  20
ENDBRANCH  18  19
ENDBRANCH   1  18
TORSDOF 28
ENDMDL
MODEL 5
REMARK VINA RESULT:    -2.553      8.211     12.083
REMARK INTER + INTRA:         -13.416
REMARK INTER:                  -7.223
REMARK INTRA:                  -6.193
REMARK UNBOUND:                -6.684
REMARK SMILES CCCCCCCCCCCCCCCCCCCCCCCCCCCCCC(=O)[O-]
REMARK SMILES IDX 16 1 17 2 18 3 19 4 20 5 21 6 22 7 23 8 24 9 25 10 26 11
REMARK SMILES IDX 27 12 28 13 29 14 30 15 31 16 32 17 15 18 14 19 13 20 12 21
REMARK SMILES IDX 11 22 10 23 9 24 8 25 7 26 6 27 5 28 4 29 3 30 2 31 1 32
REMARK H PARENT
REMARK Flexibility Score: inf
ROOT
ATOM      1  C   UNL     1      55.972  27.975  50.548  1.00  0.00     0.000 C 
ENDROOT
BRANCH   1   2
ATOM      2  C   UNL     1      54.539  28.491  50.320  1.00  0.00     0.000 C 
BRANCH   2   3
ATOM      3  C   UNL     1      53.605  27.516  49.580  1.00  0.00     0.000 C 
BRANCH   3   4
ATOM      4  C   UNL     1      54.259  26.149  49.317  1.00  0.00     0.000 C 
BRANCH   4   5
ATOM      5  C   UNL     1      53.399  24.971  49.806  1.00  0.00     0.000 C 
BRANCH   5   6
ATOM      6  C   UNL     1      53.031  25.001  51.302  1.00  0.00     0.000 C 
BRANCH   6   7
ATOM      7  C   UNL     1      54.249  25.014  52.250  1.00  0.00     0.000 C 
BRANCH   7   8
ATOM      8  C   UNL     1      53.923  25.652  53.613  1.00  0.00     0.000 C 
BRANCH   8   9
ATOM      9  C   UNL     1      54.510  27.066  53.772  1.00  0.00     0.000 C 
BRANCH   9  10
ATOM     10  C   UNL     1      53.470  28.202  53.775  1.00  0.00     0.000 C 
BRANCH  10  11
ATOM     11  C   UNL     1      54.072  29.566  54.155  1.00  0.00     0.000 C 
BRANCH  11  12
ATOM     12  C   UNL     1      53.802  30.646  53.097  1.00  0.00     0.000 C 
BRANCH  12  13
ATOM     13  C   UNL     1      54.732  31.864  53.246  1.00  0.00     0.006 C 
BRANCH  13  14
ATOM     14  C   UNL     1      54.481  32.628  54.553  1.00  0.00     0.053 C 
BRANCH  14  15
ATOM     15  C   UNL     1      55.712  32.689  55.405  1.00  0.00     0.041 C 
ATOM     16  O   UNL     1      55.661  33.191  56.559  1.00  0.00    -0.550 OA
ATOM     17  O   UNL     1      56.923  32.213  54.914  1.00  0.00    -0.550 OA
ENDBRANCH  14  15
ENDBRANCH  13  14
ENDBRANCH  12  13
ENDBRANCH  11  12
ENDBRANCH  10  11
ENDBRANCH   9  10
ENDBRANCH   8   9
ENDBRANCH   7   8
ENDBRANCH   6   7
ENDBRANCH   5   6
ENDBRANCH   4   5
ENDBRANCH   3   4
ENDBRANCH   2   3
ENDBRANCH   1   2
BRANCH   1  18
ATOM     18  C   UNL     1      57.043  29.044  50.285  1.00  0.00     0.000 C 
BRANCH  18  19
ATOM     19  C   UNL     1      58.074  29.089  51.424  1.00  0.00     0.000 C 
BRANCH  19  20
ATOM     20  C   UNL     1      57.437  29.401  52.789  1.00  0.00     0.000 C 
BRANCH  20  21
ATOM     21  C   UNL     1      57.996  28.528  53.922  1.00  0.00     0.000 C 
BRANCH  21  22
ATOM     22  C   UNL     1      59.435  28.091  53.620  1.00  0.00     0.000 C 
BRANCH  22  23
ATOM     23  C   UNL     1      59.577  26.566  53.687  1.00  0.00     0.000 C 
BRANCH  23  24
ATOM     24  C   UNL     1      58.200  25.888  53.745  1.00  0.00    -0.000 C 
BRANCH  24  25
ATOM     25  C   UNL     1      57.764  25.304  52.390  1.00  0.00    -0.000 C 
BRANCH  25  26
ATOM     26  C   UNL     1      58.923  25.138  51.385  1.00  0.00    -0.000 C 
BRANCH  26  27
ATOM     27  C   UNL     1      58.549  25.631  49.978  1.00  0.00    -0.000 C 
BRANCH  27  28
ATOM     28  C   UNL     1      59.692  26.439  49.356  1.00  0.00    -0.000 C 
BRANCH  28  29
ATOM     29  C   UNL     1      60.980  26.299  50.178  1.00  0.00    -0.000 C 
BRANCH  29  30
ATOM     30  C   UNL     1      61.946  27.453  49.882  1.00  0.00    -0.000 C 
BRANCH  30  31
ATOM     31  C   UNL     1      61.785  28.581  50.909  1.00  0.00    -0.003 C 
ATOM     32  C   UNL     1      61.360  29.883  50.235  1.00  0.00     0.004 C 
ENDBRANCH  30  31
ENDBRANCH  29  30
ENDBRANCH  28  29
ENDBRANCH  27  28
ENDBRANCH  26  27
ENDBRANCH  25  26
ENDBRANCH  24  25
ENDBRANCH  23  24
ENDBRANCH  22  23
ENDBRANCH  21  22
ENDBRANCH  20  21
ENDBRANCH  19  20
ENDBRANCH  18  19
ENDBRANCH   1  18
TORSDOF 28
ENDMDL
MODEL 6
REMARK VINA RESULT:    -2.540      3.032      6.767
REMARK INTER + INTRA:         -13.382
REMARK INTER:                  -8.740
REMARK INTRA:                  -4.643
REMARK UNBOUND:                -6.684
REMARK SMILES CCCCCCCCCCCCCCCCCCCCCCCCCCCCCC(=O)[O-]
REMARK SMILES IDX 16 1 17 2 18 3 19 4 20 5 21 6 22 7 23 8 24 9 25 10 26 11
REMARK SMILES IDX 27 12 28 13 29 14 30 15 31 16 32 17 15 18 14 19 13 20 12 21
REMARK SMILES IDX 11 22 10 23 9 24 8 25 7 26 6 27 5 28 4 29 3 30 2 31 1 32
REMARK H PARENT
REMARK Flexibility Score: inf
ROOT
ATOM      1  C   UNL     1      66.082  29.686  60.064  1.00  0.00     0.000 C 
ENDROOT
BRANCH   1   2
ATOM      2  C   UNL     1      66.313  28.748  61.264  1.00  0.00     0.000 C 
BRANCH   2   3
ATOM      3  C   UNL     1      67.788  28.533  61.649  1.00  0.00     0.000 C 
BRANCH   3   4
ATOM      4  C   UNL     1      68.698  28.325  60.427  1.00  0.00     0.000 C 
BRANCH   4   5
ATOM      5  C   UNL     1      70.149  28.769  60.679  1.00  0.00     0.000 C 
BRANCH   5   6
ATOM      6  C   UNL     1      70.309  30.053  61.516  1.00  0.00     0.000 C 
BRANCH   6   7
ATOM      7  C   UNL     1      71.590  30.854  61.200  1.00  0.00     0.000 C 
BRANCH   7   8
ATOM      8  C   UNL     1      72.593  30.045  60.357  1.00  0.00     0.000 C 
BRANCH   8   9
ATOM      9  C   UNL     1      72.628  30.480  58.881  1.00  0.00     0.000 C 
BRANCH   9  10
ATOM     10  C   UNL     1      71.670  31.630  58.521  1.00  0.00     0.000 C 
BRANCH  10  11
ATOM     11  C   UNL     1      70.470  31.170  57.677  1.00  0.00     0.000 C 
BRANCH  11  12
ATOM     12  C   UNL     1      69.122  31.536  58.316  1.00  0.00     0.000 C 
BRANCH  12  13
ATOM     13  C   UNL     1      68.179  32.257  57.336  1.00  0.00     0.006 C 
BRANCH  13  14
ATOM     14  C   UNL     1      68.852  33.462  56.664  1.00  0.00     0.053 C 
BRANCH  14  15
ATOM     15  C   UNL     1      69.005  34.611  57.614  1.00  0.00     0.041 C 
ATOM     16  O   UNL     1      68.012  35.326  57.910  1.00  0.00    -0.550 OA
ATOM     17  O   UNL     1      70.253  34.908  58.152  1.00  0.00    -0.550 OA
ENDBRANCH  14  15
ENDBRANCH  13  14
ENDBRANCH  12  13
ENDBRANCH  11  12
ENDBRANCH  10  11
ENDBRANCH   9  10
ENDBRANCH   8   9
ENDBRANCH   7   8
ENDBRANCH   6   7
ENDBRANCH   5   6
ENDBRANCH   4   5
ENDBRANCH   3   4
ENDBRANCH   2   3
ENDBRANCH   1   2
BRANCH   1  18
ATOM     18  C   UNL     1      65.128  30.846  60.385  1.00  0.00     0.000 C 
BRANCH  18  19
ATOM     19  C   UNL     1      64.900  31.733  59.151  1.00  0.00     0.000 C 
BRANCH  19  20
ATOM     20  C   UNL     1      64.628  33.202  59.518  1.00  0.00     0.000 C 
BRANCH  20  21
ATOM     21  C   UNL     1      64.293  33.394  61.005  1.00  0.00     0.000 C 
BRANCH  21  22
ATOM     22  C   UNL     1      64.284  34.882  61.378  1.00  0.00     0.000 C 
BRANCH  22  23
ATOM     23  C   UNL     1      62.885  35.487  61.209  1.00  0.00     0.000 C 
BRANCH  23  24
ATOM     24  C   UNL     1      62.650  35.933  59.759  1.00  0.00    -0.000 C 
BRANCH  24  25
ATOM     25  C   UNL     1      61.225  35.630  59.264  1.00  0.00    -0.000 C 
BRANCH  25  26
ATOM     26  C   UNL     1      60.693  34.253  59.713  1.00  0.00    -0.000 C 
BRANCH  26  27
ATOM     27  C   UNL     1      61.274  33.103  58.877  1.00  0.00    -0.000 C 
BRANCH  27  28
ATOM     28  C   UNL     1      61.082  31.757  59.583  1.00  0.00    -0.000 C 
BRANCH  28  29
ATOM     29  C   UNL     1      61.014  31.936  61.105  1.00  0.00    -0.000 C 
BRANCH  29  30
ATOM     30  C   UNL     1      61.726  30.784  61.825  1.00  0.00    -0.000 C 
BRANCH  30  31
ATOM     31  C   UNL     1      61.333  29.431  61.218  1.00  0.00    -0.003 C 
ATOM     32  C   UNL     1      62.485  28.434  61.301  1.00  0.00     0.004 C 
ENDBRANCH  30  31
ENDBRANCH  29  30
ENDBRANCH  28  29
ENDBRANCH  27  28
ENDBRANCH  26  27
ENDBRANCH  25  26
ENDBRANCH  24  25
ENDBRANCH  23  24
ENDBRANCH  22  23
ENDBRANCH  21  22
ENDBRANCH  20  21
ENDBRANCH  19  20
ENDBRANCH  18  19
ENDBRANCH   1  18
TORSDOF 28
ENDMDL
MODEL 7
REMARK VINA RESULT:    -2.535      3.574      5.611
REMARK INTER + INTRA:         -13.369
REMARK INTER:                  -7.791
REMARK INTRA:                  -5.578
REMARK UNBOUND:                -6.684
REMARK SMILES CCCCCCCCCCCCCCCCCCCCCCCCCCCCCC(=O)[O-]
REMARK SMILES IDX 16 1 17 2 18 3 19 4 20 5 21 6 22 7 23 8 24 9 25 10 26 11
REMARK SMILES IDX 27 12 28 13 29 14 30 15 31 16 32 17 15 18 14 19 13 20 12 21
REMARK SMILES IDX 11 22 10 23 9 24 8 25 7 26 6 27 5 28 4 29 3 30 2 31 1 32
REMARK H PARENT
REMARK Flexibility Score: inf
ROOT
ATOM      1  C   UNL     1      64.864  30.333  59.568  1.00  0.00     0.000 C 
ENDROOT
BRANCH   1   2
ATOM      2  C   UNL     1      64.591  29.295  60.672  1.00  0.00     0.000 C 
BRANCH   2   3
ATOM      3  C   UNL     1      63.400  28.356  60.404  1.00  0.00     0.000 C 
BRANCH   3   4
ATOM      4  C   UNL     1      62.257  28.542  61.416  1.00  0.00     0.000 C 
BRANCH   4   5
ATOM      5  C   UNL     1      62.270  29.925  62.086  1.00  0.00     0.000 C 
BRANCH   5   6
ATOM      6  C   UNL     1      61.038  30.807  61.802  1.00  0.00     0.000 C 
BRANCH   6   7
ATOM      7  C   UNL     1      61.363  32.122  61.063  1.00  0.00     0.000 C 
BRANCH   7   8
ATOM      8  C   UNL     1      60.738  32.172  59.656  1.00  0.00     0.000 C 
BRANCH   8   9
ATOM      9  C   UNL     1      61.397  31.191  58.670  1.00  0.00     0.000 C 
BRANCH   9  10
ATOM     10  C   UNL     1      60.562  29.939  58.346  1.00  0.00     0.000 C 
BRANCH  10  11
ATOM     11  C   UNL     1      59.049  30.169  58.502  1.00  0.00     0.000 C 
BRANCH  11  12
ATOM     12  C   UNL     1      58.296  28.894  58.911  1.00  0.00     0.000 C 
BRANCH  12  13
ATOM     13  C   UNL     1      58.861  28.261  60.196  1.00  0.00     0.006 C 
BRANCH  13  14
ATOM     14  C   UNL     1      58.053  27.036  60.642  1.00  0.00     0.053 C 
BRANCH  14  15
ATOM     15  C   UNL     1      56.818  27.430  61.394  1.00  0.00     0.041 C 
ATOM     16  O   UNL     1      56.895  28.221  62.371  1.00  0.00    -0.550 OA
ATOM     17  O   UNL     1      55.584  26.902  61.031  1.00  0.00    -0.550 OA
ENDBRANCH  14  15
ENDBRANCH  13  14
ENDBRANCH  12  13
ENDBRANCH  11  12
ENDBRANCH  10  11
ENDBRANCH   9  10
ENDBRANCH   8   9
ENDBRANCH   7   8
ENDBRANCH   6   7
ENDBRANCH   5   6
ENDBRANCH   4   5
ENDBRANCH   3   4
ENDBRANCH   2   3
ENDBRANCH   1   2
BRANCH   1  18
ATOM     18  C   UNL     1      64.849  31.778  60.087  1.00  0.00     0.000 C 
BRANCH  18  19
ATOM     19  C   UNL     1      64.632  32.777  58.940  1.00  0.00     0.000 C 
BRANCH  19  20
ATOM     20  C   UNL     1      64.430  34.219  59.438  1.00  0.00     0.000 C 
BRANCH  20  21
ATOM     21  C   UNL     1      64.241  34.304  60.959  1.00  0.00     0.000 C 
BRANCH  21  22
ATOM     22  C   UNL     1      63.210  35.379  61.325  1.00  0.00     0.000 C 
BRANCH  22  23
ATOM     23  C   UNL     1      62.295  35.697  60.136  1.00  0.00     0.000 C 
BRANCH  23  24
ATOM     24  C   UNL     1      60.834  35.833  60.588  1.00  0.00    -0.000 C 
BRANCH  24  25
ATOM     25  C   UNL     1      59.930  36.455  59.510  1.00  0.00    -0.000 C 
BRANCH  25  26
ATOM     26  C   UNL     1      60.538  36.413  58.092  1.00  0.00    -0.000 C 
BRANCH  26  27
ATOM     27  C   UNL     1      59.573  35.805  57.062  1.00  0.00    -0.000 C 
BRANCH  27  28
ATOM     28  C   UNL     1      59.866  34.318  56.844  1.00  0.00    -0.000 C 
BRANCH  28  29
ATOM     29  C   UNL     1      58.581  33.484  56.920  1.00  0.00    -0.000 C 
BRANCH  29  30
ATOM     30  C   UNL     1      57.437  34.296  57.538  1.00  0.00    -0.000 C 
BRANCH  30  31
ATOM     31  C   UNL     1      56.205  34.292  56.625  1.00  0.00    -0.003 C 
ATOM     32  C   UNL     1      56.371  33.297  55.479  1.00  0.00     0.004 C 
ENDBRANCH  30  31
ENDBRANCH  29  30
ENDBRANCH  28  29
ENDBRANCH  27  28
ENDBRANCH  26  27
ENDBRANCH  25  26
ENDBRANCH  24  25
ENDBRANCH  23  24
ENDBRANCH  22  23
ENDBRANCH  21  22
ENDBRANCH  20  21
ENDBRANCH  19  20
ENDBRANCH  18  19
ENDBRANCH   1  18
TORSDOF 28
ENDMDL
MODEL 8
REMARK VINA RESULT:    -2.521      3.453      8.153
REMARK INTER + INTRA:         -13.332
REMARK INTER:                  -8.131
REMARK INTRA:                  -5.201
REMARK UNBOUND:                -6.684
REMARK SMILES CCCCCCCCCCCCCCCCCCCCCCCCCCCCCC(=O)[O-]
REMARK SMILES IDX 16 1 17 2 18 3 19 4 20 5 21 6 22 7 23 8 24 9 25 10 26 11
REMARK SMILES IDX 27 12 28 13 29 14 30 15 31 16 32 17 15 18 14 19 13 20 12 21
REMARK SMILES IDX 11 22 10 23 9 24 8 25 7 26 6 27 5 28 4 29 3 30 2 31 1 32
REMARK H PARENT
REMARK Flexibility Score: inf
ROOT
ATOM      1  C   UNL     1      63.743  32.763  57.327  1.00  0.00     0.000 C 
ENDROOT
BRANCH   1   2
ATOM      2  C   UNL     1      63.995  32.636  58.842  1.00  0.00     0.000 C 
BRANCH   2   3
ATOM      3  C   UNL     1      64.437  33.935  59.540  1.00  0.00     0.000 C 
BRANCH   3   4
ATOM      4  C   UNL     1      64.171  33.917  61.054  1.00  0.00     0.000 C 
BRANCH   4   5
ATOM      5  C   UNL     1      64.411  35.282  61.720  1.00  0.00     0.000 C 
BRANCH   5   6
ATOM      6  C   UNL     1      63.701  36.475  61.050  1.00  0.00     0.000 C 
BRANCH   6   7
ATOM      7  C   UNL     1      62.171  36.492  61.255  1.00  0.00     0.000 C 
BRANCH   7   8
ATOM      8  C   UNL     1      61.425  37.088  60.047  1.00  0.00     0.000 C 
BRANCH   8   9
ATOM      9  C   UNL     1      61.576  36.242  58.770  1.00  0.00     0.000 C 
BRANCH   9  10
ATOM     10  C   UNL     1      60.936  34.844  58.839  1.00  0.00     0.000 C 
BRANCH  10  11
ATOM     11  C   UNL     1      59.740  34.682  57.884  1.00  0.00     0.000 C 
BRANCH  11  12
ATOM     12  C   UNL     1      59.904  33.490  56.929  1.00  0.00     0.000 C 
BRANCH  12  13
ATOM     13  C   UNL     1      58.554  32.937  56.438  1.00  0.00     0.006 C 
BRANCH  13  14
ATOM     14  C   UNL     1      57.932  31.953  57.439  1.00  0.00     0.053 C 
BRANCH  14  15
ATOM     15  C   UNL     1      56.558  32.380  57.855  1.00  0.00     0.041 C 
ATOM     16  O   UNL     1      55.711  31.524  58.223  1.00  0.00    -0.550 OA
ATOM     17  O   UNL     1      56.204  33.725  57.812  1.00  0.00    -0.550 OA
ENDBRANCH  14  15
ENDBRANCH  13  14
ENDBRANCH  12  13
ENDBRANCH  11  12
ENDBRANCH  10  11
ENDBRANCH   9  10
ENDBRANCH   8   9
ENDBRANCH   7   8
ENDBRANCH   6   7
ENDBRANCH   5   6
ENDBRANCH   4   5
ENDBRANCH   3   4
ENDBRANCH   2   3
ENDBRANCH   1   2
BRANCH   1  18
ATOM     18  C   UNL     1      62.884  31.621  56.765  1.00  0.00     0.000 C 
BRANCH  18  19
ATOM     19  C   UNL     1      62.659  30.525  57.819  1.00  0.00     0.000 C 
BRANCH  19  20
ATOM     20  C   UNL     1      61.188  30.085  57.914  1.00  0.00     0.000 C 
BRANCH  20  21
ATOM     21  C   UNL     1      60.654  30.092  59.353  1.00  0.00     0.000 C 
BRANCH  21  22
ATOM     22  C   UNL     1      60.688  31.507  59.944  1.00  0.00     0.000 C 
BRANCH  22  23
ATOM     23  C   UNL     1      61.388  31.521  61.309  1.00  0.00     0.000 C 
BRANCH  23  24
ATOM     24  C   UNL     1      62.020  30.156  61.617  1.00  0.00    -0.000 C 
BRANCH  24  25
ATOM     25  C   UNL     1      63.558  30.200  61.636  1.00  0.00    -0.000 C 
BRANCH  25  26
ATOM     26  C   UNL     1      64.220  28.852  61.281  1.00  0.00    -0.000 C 
BRANCH  26  27
ATOM     27  C   UNL     1      64.559  28.746  59.785  1.00  0.00    -0.000 C 
BRANCH  27  28
ATOM     28  C   UNL     1      65.899  28.033  59.574  1.00  0.00    -0.000 C 
BRANCH  28  29
ATOM     29  C   UNL     1      66.375  27.357  60.866  1.00  0.00    -0.000 C 
BRANCH  29  30
ATOM     30  C   UNL     1      67.885  27.544  61.057  1.00  0.00    -0.000 C 
BRANCH  30  31
ATOM     31  C   UNL     1      68.191  28.892  61.722  1.00  0.00    -0.003 C 
ATOM     32  C   UNL     1      69.594  29.377  61.366  1.00  0.00     0.004 C 
ENDBRANCH  30  31
ENDBRANCH  29  30
ENDBRANCH  28  29
ENDBRANCH  27  28
ENDBRANCH  26  27
ENDBRANCH  25  26
ENDBRANCH  24  25
ENDBRANCH  23  24
ENDBRANCH  22  23
ENDBRANCH  21  22
ENDBRANCH  20  21
ENDBRANCH  19  20
ENDBRANCH  18  19
ENDBRANCH   1  18
TORSDOF 28
ENDMDL
MODEL 9
REMARK VINA RESULT:    -2.509      3.472      7.533
REMARK INTER + INTRA:         -13.301
REMARK INTER:                  -8.532
REMARK INTRA:                  -4.768
REMARK UNBOUND:                -6.684
REMARK SMILES CCCCCCCCCCCCCCCCCCCCCCCCCCCCCC(=O)[O-]
REMARK SMILES IDX 16 1 17 2 18 3 19 4 20 5 21 6 22 7 23 8 24 9 25 10 26 11
REMARK SMILES IDX 27 12 28 13 29 14 30 15 31 16 32 17 15 18 14 19 13 20 12 21
REMARK SMILES IDX 11 22 10 23 9 24 8 25 7 26 6 27 5 28 4 29 3 30 2 31 1 32
REMARK H PARENT
REMARK Flexibility Score: inf
ROOT
ATOM      1  C   UNL     1      67.144  28.868  61.513  1.00  0.00     0.000 C 
ENDROOT
BRANCH   1   2
ATOM      2  C   UNL     1      66.874  28.705  60.005  1.00  0.00     0.000 C 
BRANCH   2   3
ATOM      3  C   UNL     1      65.627  27.874  59.652  1.00  0.00     0.000 C 
BRANCH   3   4
ATOM      4  C   UNL     1      64.884  27.358  60.896  1.00  0.00     0.000 C 
BRANCH   4   5
ATOM      5  C   UNL     1      63.534  28.061  61.120  1.00  0.00     0.000 C 
BRANCH   5   6
ATOM      6  C   UNL     1      63.624  29.526  61.590  1.00  0.00     0.000 C 
BRANCH   6   7
ATOM      7  C   UNL     1      62.265  30.146  61.979  1.00  0.00     0.000 C 
BRANCH   7   8
ATOM      8  C   UNL     1      61.564  30.816  60.783  1.00  0.00     0.000 C 
BRANCH   8   9
ATOM      9  C   UNL     1      61.061  32.236  61.097  1.00  0.00     0.000 C 
BRANCH   9  10
ATOM     10  C   UNL     1      61.645  33.344  60.202  1.00  0.00     0.000 C 
BRANCH  10  11
ATOM     11  C   UNL     1      62.733  34.174  60.904  1.00  0.00     0.000 C 
BRANCH  11  12
ATOM     12  C   UNL     1      64.117  33.511  60.839  1.00  0.00     0.000 C 
BRANCH  12  13
ATOM     13  C   UNL     1      64.579  33.251  59.394  1.00  0.00     0.006 C 
BRANCH  13  14
ATOM     14  C   UNL     1      65.118  31.827  59.205  1.00  0.00     0.053 C 
BRANCH  14  15
ATOM     15  C   UNL     1      64.509  31.157  58.012  1.00  0.00     0.041 C 
ATOM     16  O   UNL     1      65.201  30.391  57.291  1.00  0.00    -0.550 OA
ATOM     17  O   UNL     1      63.180  31.399  57.681  1.00  0.00    -0.550 OA
ENDBRANCH  14  15
ENDBRANCH  13  14
ENDBRANCH  12  13
ENDBRANCH  11  12
ENDBRANCH  10  11
ENDBRANCH   9  10
ENDBRANCH   8   9
ENDBRANCH   7   8
ENDBRANCH   6   7
ENDBRANCH   5   6
ENDBRANCH   4   5
ENDBRANCH   3   4
ENDBRANCH   2   3
ENDBRANCH   1   2
BRANCH   1  18
ATOM     18  C   UNL     1      68.641  28.889  61.855  1.00  0.00     0.000 C 
BRANCH  18  19
ATOM     19  C   UNL     1      69.501  28.878  60.581  1.00  0.00     0.000 C 
BRANCH  19  20
ATOM     20  C   UNL     1      70.963  29.275  60.848  1.00  0.00     0.000 C 
BRANCH  20  21
ATOM     21  C   UNL     1      71.094  30.629  61.559  1.00  0.00     0.000 C 
BRANCH  21  22
ATOM     22  C   UNL     1      71.974  31.591  60.751  1.00  0.00     0.000 C 
BRANCH  22  23
ATOM     23  C   UNL     1      71.170  32.279  59.642  1.00  0.00     0.000 C 
BRANCH  23  24
ATOM     24  C   UNL     1      71.535  31.710  58.264  1.00  0.00    -0.000 C 
BRANCH  24  25
ATOM     25  C   UNL     1      70.344  31.039  57.558  1.00  0.00    -0.000 C 
BRANCH  25  26
ATOM     26  C   UNL     1      68.971  31.472  58.116  1.00  0.00    -0.000 C 
BRANCH  26  27
ATOM     27  C   UNL     1      68.170  32.310  57.107  1.00  0.00    -0.000 C 
BRANCH  27  28
ATOM     28  C   UNL     1      68.295  33.806  57.412  1.00  0.00    -0.000 C 
BRANCH  28  29
ATOM     29  C   UNL     1      68.470  34.620  56.123  1.00  0.00    -0.000 C 
BRANCH  29  30
ATOM     30  C   UNL     1      69.710  34.158  55.348  1.00  0.00    -0.000 C 
BRANCH  30  31
ATOM     31  C   UNL     1      70.836  35.195  55.446  1.00  0.00    -0.003 C 
ATOM     32  C   UNL     1      71.688  34.968  56.692  1.00  0.00     0.004 C 
ENDBRANCH  30  31
ENDBRANCH  29  30
ENDBRANCH  28  29
ENDBRANCH  27  28
ENDBRANCH  26  27
ENDBRANCH  25  26
ENDBRANCH  24  25
ENDBRANCH  23  24
ENDBRANCH  22  23
ENDBRANCH  21  22
ENDBRANCH  20  21
ENDBRANCH  19  20
ENDBRANCH  18  19
ENDBRANCH   1  18
TORSDOF 28
ENDMDL
