MODEL 1
REMARK VINA RESULT:    -2.878      0.000      0.000
REMARK INTER + INTRA:          -3.478
REMARK INTER:                  -3.383
REMARK INTRA:                  -0.096
REMARK UNBOUND:                -0.096
REMARK SMILES CCOC(=O)C(C)C
REMARK SMILES IDX 4 1 5 2 3 3 2 4 1 5 6 6 7 7 8 8
REMARK H PARENT
REMARK Flexibility Score: inf
ROOT
ATOM      1  C   UNL     1     195.973 201.151 218.722  1.00  0.00     0.308 C 
ATOM      2  O   UNL     1     195.326 202.103 219.237  1.00  0.00    -0.252 OA
ENDROOT
BRANCH   1   3
ATOM      3  O   UNL     1     197.371 201.121 218.789  1.00  0.00    -0.466 OA
BRANCH   3   4
ATOM      4  C   UNL     1     198.093 200.468 219.831  1.00  0.00     0.229 C 
ATOM      5  C   UNL     1     199.531 200.971 219.887  1.00  0.00     0.049 C 
ENDBRANCH   3   4
ENDBRANCH   1   3
BRANCH   1   6
ATOM      6  C   UNL     1     195.247 200.035 218.025  1.00  0.00     0.093 C 
ATOM      7  C   UNL     1     196.087 199.488 216.867  1.00  0.00     0.019 C 
ATOM      8  C   UNL     1     194.888 198.923 219.016  1.00  0.00     0.019 C 
ENDBRANCH   1   6
TORSDOF 3
ENDMDL
MODEL 2
REMARK VINA RESULT:    -2.824     17.439     18.475
REMARK INTER + INTRA:          -3.415
REMARK INTER:                  -3.149
REMARK INTRA:                  -0.265
REMARK UNBOUND:                -0.096
REMARK SMILES CCOC(=O)C(C)C
REMARK SMILES IDX 4 1 5 2 3 3 2 4 1 5 6 6 7 7 8 8
REMARK H PARENT
REMARK Flexibility Score: inf
ROOT
ATOM      1  C   UNL     1     212.477 207.995 218.623  1.00  0.00     0.308 C 
ATOM      2  O   UNL     1     211.409 207.824 219.274  1.00  0.00    -0.252 OA
ENDROOT
BRANCH   1   3
ATOM      3  O   UNL     1     213.565 207.132 218.801  1.00  0.00    -0.466 OA
BRANCH   3   4
ATOM      4  C   UNL     1     214.178 206.892 220.065  1.00  0.00     0.229 C 
ATOM      5  C   UNL     1     214.703 208.192 220.664  1.00  0.00     0.049 C 
ENDBRANCH   3   4
ENDBRANCH   1   3
BRANCH   1   6
ATOM      6  C   UNL     1     212.593 209.132 217.648  1.00  0.00     0.093 C 
ATOM      7  C   UNL     1     212.059 210.427 218.268  1.00  0.00     0.019 C 
ATOM      8  C   UNL     1     214.044 209.302 217.187  1.00  0.00     0.019 C 
ENDBRANCH   1   6
TORSDOF 3
ENDMDL
MODEL 3
REMARK VINA RESULT:    -2.809      1.737      3.535
REMARK INTER + INTRA:          -3.397
REMARK INTER:                  -3.105
REMARK INTRA:                  -0.292
REMARK UNBOUND:                -0.096
REMARK SMILES CCOC(=O)C(C)C
REMARK SMILES IDX 4 1 5 2 3 3 2 4 1 5 6 6 7 7 8 8
REMARK H PARENT
REMARK Flexibility Score: inf
ROOT
ATOM      1  C   UNL     1     196.002 200.229 217.650  1.00  0.00     0.308 C 
ATOM      2  O   UNL     1     196.751 200.120 216.640  1.00  0.00    -0.252 OA
ENDROOT
BRANCH   1   3
ATOM      3  O   UNL     1     194.875 199.411 217.792  1.00  0.00    -0.466 OA
BRANCH   3   4
ATOM      4  C   UNL     1     194.949 198.006 218.020  1.00  0.00     0.229 C 
ATOM      5  C   UNL     1     195.179 197.711 219.498  1.00  0.00     0.049 C 
ENDBRANCH   3   4
ENDBRANCH   1   3
BRANCH   1   6
ATOM      6  C   UNL     1     196.313 201.244 218.713  1.00  0.00     0.093 C 
ATOM      7  C   UNL     1     195.082 201.497 219.590  1.00  0.00     0.019 C 
ATOM      8  C   UNL     1     197.506 200.791 219.560  1.00  0.00     0.019 C 
ENDBRANCH   1   6
TORSDOF 3
ENDMDL
MODEL 4
REMARK VINA RESULT:    -2.798      1.255      3.301
REMARK INTER + INTRA:          -3.384
REMARK INTER:                  -3.093
REMARK INTRA:                  -0.291
REMARK UNBOUND:                -0.096
REMARK SMILES CCOC(=O)C(C)C
REMARK SMILES IDX 4 1 5 2 3 3 2 4 1 5 6 6 7 7 8 8
REMARK H PARENT
REMARK Flexibility Score: inf
ROOT
ATOM      1  C   UNL     1     196.830 200.928 218.779  1.00  0.00     0.308 C 
ATOM      2  O   UNL     1     196.119 201.966 218.874  1.00  0.00    -0.252 OA
ENDROOT
BRANCH   1   3
ATOM      3  O   UNL     1     196.996 200.288 217.545  1.00  0.00    -0.466 OA
BRANCH   3   4
ATOM      4  C   UNL     1     195.921 199.704 216.813  1.00  0.00     0.229 C 
ATOM      5  C   UNL     1     195.179 198.684 217.670  1.00  0.00     0.049 C 
ENDBRANCH   3   4
ENDBRANCH   1   3
BRANCH   1   6
ATOM      6  C   UNL     1     197.507 200.363 219.996  1.00  0.00     0.093 C 
ATOM      7  C   UNL     1     196.468 199.911 221.027  1.00  0.00     0.019 C 
ATOM      8  C   UNL     1     198.436 199.209 219.610  1.00  0.00     0.019 C 
ENDBRANCH   1   6
TORSDOF 3
ENDMDL
MODEL 5
REMARK VINA RESULT:    -2.795     16.918     18.255
REMARK INTER + INTRA:          -3.381
REMARK INTER:                  -3.112
REMARK INTRA:                  -0.269
REMARK UNBOUND:                -0.096
REMARK SMILES CCOC(=O)C(C)C
REMARK SMILES IDX 4 1 5 2 3 3 2 4 1 5 6 6 7 7 8 8
REMARK H PARENT
REMARK Flexibility Score: inf
ROOT
ATOM      1  C   UNL     1     212.853 207.673 218.806  1.00  0.00     0.308 C 
ATOM      2  O   UNL     1     213.262 206.561 219.241  1.00  0.00    -0.252 OA
ENDROOT
BRANCH   1   3
ATOM      3  O   UNL     1     211.532 208.082 219.026  1.00  0.00    -0.466 OA
BRANCH   3   4
ATOM      4  C   UNL     1     211.113 208.788 220.191  1.00  0.00     0.229 C 
ATOM      5  C   UNL     1     210.698 210.212 219.839  1.00  0.00     0.049 C 
ENDBRANCH   3   4
ENDBRANCH   1   3
BRANCH   1   6
ATOM      6  C   UNL     1     213.783 208.572 218.041  1.00  0.00     0.093 C 
ATOM      7  C   UNL     1     213.009 209.381 216.996  1.00  0.00     0.019 C 
ATOM      8  C   UNL     1     214.546 209.496 218.995  1.00  0.00     0.019 C 
ENDBRANCH   1   6
TORSDOF 3
ENDMDL
MODEL 6
REMARK VINA RESULT:    -2.772     17.598     19.035
REMARK INTER + INTRA:          -3.353
REMARK INTER:                  -3.062
REMARK INTRA:                  -0.291
REMARK UNBOUND:                -0.096
REMARK SMILES CCOC(=O)C(C)C
REMARK SMILES IDX 4 1 5 2 3 3 2 4 1 5 6 6 7 7 8 8
REMARK H PARENT
REMARK Flexibility Score: inf
ROOT
ATOM      1  C   UNL     1     213.308 208.793 217.761  1.00  0.00     0.308 C 
ATOM      2  O   UNL     1     212.742 209.241 216.726  1.00  0.00    -0.252 OA
ENDROOT
BRANCH   1   3
ATOM      3  O   UNL     1     214.598 209.211 218.106  1.00  0.00    -0.466 OA
BRANCH   3   4
ATOM      4  C   UNL     1     214.879 210.471 218.710  1.00  0.00     0.229 C 
ATOM      5  C   UNL     1     215.029 210.323 220.220  1.00  0.00     0.049 C 
ENDBRANCH   3   4
ENDBRANCH   1   3
BRANCH   1   6
ATOM      6  C   UNL     1     212.599 207.797 218.635  1.00  0.00     0.093 C 
ATOM      7  C   UNL     1     213.610 206.890 219.344  1.00  0.00     0.019 C 
ATOM      8  C   UNL     1     211.700 208.512 219.648  1.00  0.00     0.019 C 
ENDBRANCH   1   6
TORSDOF 3
ENDMDL
MODEL 7
REMARK VINA RESULT:    -2.749      1.708      2.444
REMARK INTER + INTRA:          -3.326
REMARK INTER:                  -3.036
REMARK INTRA:                  -0.291
REMARK UNBOUND:                -0.096
REMARK SMILES CCOC(=O)C(C)C
REMARK SMILES IDX 4 1 5 2 3 3 2 4 1 5 6 6 7 7 8 8
REMARK H PARENT
REMARK Flexibility Score: inf
ROOT
ATOM      1  C   UNL     1     197.330 200.395 218.688  1.00  0.00     0.308 C 
ATOM      2  O   UNL     1     198.153 201.163 219.258  1.00  0.00    -0.252 OA
ENDROOT
BRANCH   1   3
ATOM      3  O   UNL     1     197.620 199.035 218.524  1.00  0.00    -0.466 OA
BRANCH   3   4
ATOM      4  C   UNL     1     197.896 198.155 219.610  1.00  0.00     0.229 C 
ATOM      5  C   UNL     1     196.733 198.136 220.596  1.00  0.00     0.049 C 
ENDBRANCH   3   4
ENDBRANCH   1   3
BRANCH   1   6
ATOM      6  C   UNL     1     196.026 200.935 218.174  1.00  0.00     0.093 C 
ATOM      7  C   UNL     1     195.201 199.820 217.524  1.00  0.00     0.019 C 
ATOM      8  C   UNL     1     195.241 201.612 219.301  1.00  0.00     0.019 C 
ENDBRANCH   1   6
TORSDOF 3
ENDMDL
MODEL 8
REMARK VINA RESULT:    -2.721      1.848      3.158
REMARK INTER + INTRA:          -3.294
REMARK INTER:                  -3.124
REMARK INTRA:                  -0.171
REMARK UNBOUND:                -0.096
REMARK SMILES CCOC(=O)C(C)C
REMARK SMILES IDX 4 1 5 2 3 3 2 4 1 5 6 6 7 7 8 8
REMARK H PARENT
REMARK Flexibility Score: inf
ROOT
ATOM      1  C   UNL     1     196.592 200.688 218.565  1.00  0.00     0.308 C 
ATOM      2  O   UNL     1     197.628 201.126 219.139  1.00  0.00    -0.252 OA
ENDROOT
BRANCH   1   3
ATOM      3  O   UNL     1     196.671 200.128 217.284  1.00  0.00    -0.466 OA
BRANCH   3   4
ATOM      4  C   UNL     1     195.897 199.004 216.871  1.00  0.00     0.229 C 
ATOM      5  C   UNL     1     196.290 197.760 217.660  1.00  0.00     0.049 C 
ENDBRANCH   3   4
ENDBRANCH   1   3
BRANCH   1   6
ATOM      6  C   UNL     1     195.258 200.768 219.252  1.00  0.00     0.093 C 
ATOM      7  C   UNL     1     195.274 199.959 220.552  1.00  0.00     0.019 C 
ATOM      8  C   UNL     1     194.875 202.227 219.518  1.00  0.00     0.019 C 
ENDBRANCH   1   6
TORSDOF 3
ENDMDL
