MODEL 1
REMARK VINA RESULT:    15.588      0.000      0.000
REMARK INTER + INTRA:          34.556
REMARK INTER:                  35.636
REMARK INTRA:                  -1.080
REMARK UNBOUND:                -1.080
REMARK SMILES CCCCCCCCCCCCCCCCCCCCCCCC(=O)[O-]
REMARK SMILES IDX 13 1 14 2 15 3 16 4 17 5 18 6 19 7 20 8 21 9 22 10 23 11
REMARK SMILES IDX 24 12 25 13 26 14 12 15 11 16 10 17 9 18 8 19 7 20 6 21 5 22
REMARK SMILES IDX 4 23 3 24 2 25 1 26
REMARK H PARENT
REMARK Flexibility Score: inf
ROOT
ATOM      1  C   UNL     1      76.159  50.518  -3.945  1.00  0.00     0.000 C 
ENDROOT
BRANCH   1   2
ATOM      2  C   UNL     1      75.514  51.431  -2.888  1.00  0.00     0.000 C 
BRANCH   2   3
ATOM      3  C   UNL     1      74.023  51.696  -3.161  1.00  0.00     0.000 C 
BRANCH   3   4
ATOM      4  C   UNL     1      73.794  52.718  -4.289  1.00  0.00     0.000 C 
BRANCH   4   5
ATOM      5  C   UNL     1      73.731  54.187  -3.833  1.00  0.00     0.000 C 
BRANCH   5   6
ATOM      6  C   UNL     1      72.294  54.737  -3.788  1.00  0.00     0.000 C 
BRANCH   6   7
ATOM      7  C   UNL     1      72.231  56.206  -3.336  1.00  0.00     0.000 C 
BRANCH   7   8
ATOM      8  C   UNL     1      70.814  56.809  -3.273  1.00  0.00     0.000 C 
BRANCH   8   9
ATOM      9  C   UNL     1      70.763  58.218  -2.645  1.00  0.00     0.000 C 
BRANCH   9  10
ATOM     10  C   UNL     1      71.880  58.433  -1.608  1.00  0.00     0.006 C 
BRANCH  10  11
ATOM     11  C   UNL     1      72.427  59.865  -1.632  1.00  0.00     0.053 C 
BRANCH  11  12
ATOM     12  C   UNL     1      73.428  60.054  -2.730  1.00  0.00     0.041 C 
ATOM     13  O   UNL     1      74.660  59.942  -2.493  1.00  0.00    -0.550 OA
ATOM     14  O   UNL     1      72.999  60.321  -4.023  1.00  0.00    -0.550 OA
ENDBRANCH  11  12
ENDBRANCH  10  11
ENDBRANCH   9  10
ENDBRANCH   8   9
ENDBRANCH   7   8
ENDBRANCH   6   7
ENDBRANCH   5   6
ENDBRANCH   4   5
ENDBRANCH   3   4
ENDBRANCH   2   3
ENDBRANCH   1   2
BRANCH   1  15
ATOM     15  C   UNL     1      77.680  50.311  -3.787  1.00  0.00     0.000 C 
BRANCH  15  16
ATOM     16  C   UNL     1      78.135  48.848  -3.628  1.00  0.00     0.000 C 
BRANCH  16  17
ATOM     17  C   UNL     1      79.365  48.698  -2.717  1.00  0.00     0.000 C 
BRANCH  17  18
ATOM     18  C   UNL     1      80.497  47.888  -3.377  1.00  0.00    -0.000 C 
BRANCH  18  19
ATOM     19  C   UNL     1      81.923  48.382  -3.061  1.00  0.00    -0.000 C 
BRANCH  19  20
ATOM     20  C   UNL     1      82.125  49.908  -3.152  1.00  0.00    -0.000 C 
BRANCH  20  21
ATOM     21  C   UNL     1      81.952  50.667  -1.824  1.00  0.00    -0.000 C 
BRANCH  21  22
ATOM     22  C   UNL     1      80.570  51.321  -1.685  1.00  0.00    -0.000 C 
BRANCH  22  23
ATOM     23  C   UNL     1      80.697  52.776  -1.213  1.00  0.00    -0.000 C 
BRANCH  23  24
ATOM     24  C   UNL     1      80.131  53.786  -2.228  1.00  0.00    -0.000 C 
BRANCH  24  25
ATOM     25  C   UNL     1      79.475  53.155  -3.469  1.00  0.00    -0.003 C 
ATOM     26  C   UNL     1      80.169  53.542  -4.774  1.00  0.00     0.004 C 
ENDBRANCH  24  25
ENDBRANCH  23  24
ENDBRANCH  22  23
ENDBRANCH  21  22
ENDBRANCH  20  21
ENDBRANCH  19  20
ENDBRANCH  18  19
ENDBRANCH  17  18
ENDBRANCH  16  17
ENDBRANCH  15  16
ENDBRANCH   1  15
TORSDOF 22
ENDMDL
MODEL 2
REMARK VINA RESULT:    16.208      2.476      9.444
REMARK INTER + INTRA:          35.974
REMARK INTER:                  36.794
REMARK INTRA:                  -0.820
REMARK UNBOUND:                -1.080
REMARK SMILES CCCCCCCCCCCCCCCCCCCCCCCC(=O)[O-]
REMARK SMILES IDX 13 1 14 2 15 3 16 4 17 5 18 6 19 7 20 8 21 9 22 10 23 11
REMARK SMILES IDX 24 12 25 13 26 14 12 15 11 16 10 17 9 18 8 19 7 20 6 21 5 22
REMARK SMILES IDX 4 23 3 24 2 25 1 26
REMARK H PARENT
REMARK Flexibility Score: inf
ROOT
ATOM      1  C   UNL     1      76.109  51.146  -3.120  1.00  0.00     0.000 C 
ENDROOT
BRANCH   1   2
ATOM      2  C   UNL     1      76.958  50.859  -4.371  1.00  0.00     0.000 C 
BRANCH   2   3
ATOM      3  C   UNL     1      77.409  49.392  -4.460  1.00  0.00     0.000 C 
BRANCH   3   4
ATOM      4  C   UNL     1      77.950  48.850  -3.124  1.00  0.00     0.000 C 
BRANCH   4   5
ATOM      5  C   UNL     1      79.364  49.332  -2.751  1.00  0.00     0.000 C 
BRANCH   5   6
ATOM      6  C   UNL     1      80.458  48.314  -3.121  1.00  0.00     0.000 C 
BRANCH   6   7
ATOM      7  C   UNL     1      81.879  48.865  -2.913  1.00  0.00     0.000 C 
BRANCH   7   8
ATOM      8  C   UNL     1      81.970  50.395  -2.751  1.00  0.00     0.000 C 
BRANCH   8   9
ATOM      9  C   UNL     1      81.439  50.912  -1.397  1.00  0.00     0.000 C 
BRANCH   9  10
ATOM     10  C   UNL     1      80.800  52.307  -1.517  1.00  0.00     0.006 C 
BRANCH  10  11
ATOM     11  C   UNL     1      79.819  52.396  -2.693  1.00  0.00     0.053 C 
BRANCH  11  12
ATOM     12  C   UNL     1      80.130  53.560  -3.582  1.00  0.00     0.041 C 
ATOM     13  O   UNL     1      80.201  53.406  -4.830  1.00  0.00    -0.550 OA
ATOM     14  O   UNL     1      80.309  54.824  -3.035  1.00  0.00    -0.550 OA
ENDBRANCH  11  12
ENDBRANCH  10  11
ENDBRANCH   9  10
ENDBRANCH   8   9
ENDBRANCH   7   8
ENDBRANCH   6   7
ENDBRANCH   5   6
ENDBRANCH   4   5
ENDBRANCH   3   4
ENDBRANCH   2   3
ENDBRANCH   1   2
BRANCH   1  15
ATOM     15  C   UNL     1      74.624  50.744  -3.233  1.00  0.00     0.000 C 
BRANCH  15  16
ATOM     16  C   UNL     1      73.618  51.910  -3.202  1.00  0.00     0.000 C 
BRANCH  16  17
ATOM     17  C   UNL     1      74.267  53.270  -3.510  1.00  0.00     0.000 C 
BRANCH  17  18
ATOM     18  C   UNL     1      73.296  54.250  -4.196  1.00  0.00    -0.000 C 
BRANCH  18  19
ATOM     19  C   UNL     1      71.975  54.497  -3.440  1.00  0.00    -0.000 C 
BRANCH  19  20
ATOM     20  C   UNL     1      71.366  55.902  -3.627  1.00  0.00    -0.000 C 
BRANCH  20  21
ATOM     21  C   UNL     1      71.914  56.981  -2.676  1.00  0.00    -0.000 C 
BRANCH  21  22
ATOM     22  C   UNL     1      70.890  58.084  -2.371  1.00  0.00    -0.000 C 
BRANCH  22  23
ATOM     23  C   UNL     1      71.585  59.345  -1.838  1.00  0.00    -0.000 C 
BRANCH  23  24
ATOM     24  C   UNL     1      73.111  59.182  -1.722  1.00  0.00    -0.000 C 
BRANCH  24  25
ATOM     25  C   UNL     1      73.931  60.156  -2.586  1.00  0.00    -0.003 C 
ATOM     26  C   UNL     1      73.209  60.571  -3.867  1.00  0.00     0.004 C 
ENDBRANCH  24  25
ENDBRANCH  23  24
ENDBRANCH  22  23
ENDBRANCH  21  22
ENDBRANCH  20  21
ENDBRANCH  19  20
ENDBRANCH  18  19
ENDBRANCH  17  18
ENDBRANCH  16  17
ENDBRANCH  15  16
ENDBRANCH   1  15
TORSDOF 22
ENDMDL
MODEL 3
REMARK VINA RESULT:    16.264      0.794      1.162
REMARK INTER + INTRA:          36.101
REMARK INTER:                  37.780
REMARK INTRA:                  -1.680
REMARK UNBOUND:                -1.080
REMARK SMILES CCCCCCCCCCCCCCCCCCCCCCCC(=O)[O-]
REMARK SMILES IDX 13 1 14 2 15 3 16 4 17 5 18 6 19 7 20 8 21 9 22 10 23 11
REMARK SMILES IDX 24 12 25 13 26 14 12 15 11 16 10 17 9 18 8 19 7 20 6 21 5 22
REMARK SMILES IDX 4 23 3 24 2 25 1 26
REMARK H PARENT
REMARK Flexibility Score: inf
ROOT
ATOM      1  C   UNL     1      76.398  49.918  -3.852  1.00  0.00     0.000 C 
ENDROOT
BRANCH   1   2
ATOM      2  C   UNL     1      75.924  51.326  -3.455  1.00  0.00     0.000 C 
BRANCH   2   3
ATOM      3  C   UNL     1      74.488  51.338  -2.903  1.00  0.00     0.000 C 
BRANCH   3   4
ATOM      4  C   UNL     1      73.625  52.461  -3.506  1.00  0.00     0.000 C 
BRANCH   4   5
ATOM      5  C   UNL     1      74.391  53.742  -3.879  1.00  0.00     0.000 C 
BRANCH   5   6
ATOM      6  C   UNL     1      73.516  55.006  -3.804  1.00  0.00     0.000 C 
BRANCH   6   7
ATOM      7  C   UNL     1      72.011  54.688  -3.776  1.00  0.00     0.000 C 
BRANCH   7   8
ATOM      8  C   UNL     1      71.090  55.907  -3.569  1.00  0.00     0.000 C 
BRANCH   8   9
ATOM      9  C   UNL     1      71.564  56.865  -2.457  1.00  0.00     0.000 C 
BRANCH   9  10
ATOM     10  C   UNL     1      71.544  58.337  -2.910  1.00  0.00     0.006 C 
BRANCH  10  11
ATOM     11  C   UNL     1      72.276  59.256  -1.925  1.00  0.00     0.053 C 
BRANCH  11  12
ATOM     12  C   UNL     1      73.368  60.028  -2.601  1.00  0.00     0.041 C 
ATOM     13  O   UNL     1      73.128  60.683  -3.650  1.00  0.00    -0.550 OA
ATOM     14  O   UNL     1      74.644  60.051  -2.053  1.00  0.00    -0.550 OA
ENDBRANCH  11  12
ENDBRANCH  10  11
ENDBRANCH   9  10
ENDBRANCH   8   9
ENDBRANCH   7   8
ENDBRANCH   6   7
ENDBRANCH   5   6
ENDBRANCH   4   5
ENDBRANCH   3   4
ENDBRANCH   2   3
ENDBRANCH   1   2
BRANCH   1  15
ATOM     15  C   UNL     1      77.928  49.750  -3.959  1.00  0.00     0.000 C 
BRANCH  15  16
ATOM     16  C   UNL     1      78.565  48.812  -2.915  1.00  0.00     0.000 C 
BRANCH  16  17
ATOM     17  C   UNL     1      79.859  48.150  -3.416  1.00  0.00     0.000 C 
BRANCH  17  18
ATOM     18  C   UNL     1      81.073  48.468  -2.523  1.00  0.00    -0.000 C 
BRANCH  18  19
ATOM     19  C   UNL     1      82.125  49.401  -3.155  1.00  0.00    -0.000 C 
BRANCH  19  20
ATOM     20  C   UNL     1      81.974  50.895  -2.801  1.00  0.00    -0.000 C 
BRANCH  20  21
ATOM     21  C   UNL     1      81.625  51.182  -1.329  1.00  0.00    -0.000 C 
BRANCH  21  22
ATOM     22  C   UNL     1      80.136  51.493  -1.118  1.00  0.00    -0.000 C 
BRANCH  22  23
ATOM     23  C   UNL     1      79.558  52.249  -2.323  1.00  0.00    -0.000 C 
BRANCH  23  24
ATOM     24  C   UNL     1      80.229  53.617  -2.548  1.00  0.00    -0.000 C 
BRANCH  24  25
ATOM     25  C   UNL     1      79.940  54.259  -3.916  1.00  0.00    -0.003 C 
ATOM     26  C   UNL     1      80.290  53.347  -5.091  1.00  0.00     0.004 C 
ENDBRANCH  24  25
ENDBRANCH  23  24
ENDBRANCH  22  23
ENDBRANCH  21  22
ENDBRANCH  20  21
ENDBRANCH  19  20
ENDBRANCH  18  19
ENDBRANCH  17  18
ENDBRANCH  16  17
ENDBRANCH  15  16
ENDBRANCH   1  15
TORSDOF 22
ENDMDL
MODEL 4
REMARK VINA RESULT:    16.360      0.758      1.849
REMARK INTER + INTRA:          36.321
REMARK INTER:                  38.127
REMARK INTRA:                  -1.806
REMARK UNBOUND:                -1.080
REMARK SMILES CCCCCCCCCCCCCCCCCCCCCCCC(=O)[O-]
REMARK SMILES IDX 13 1 14 2 15 3 16 4 17 5 18 6 19 7 20 8 21 9 22 10 23 11
REMARK SMILES IDX 24 12 25 13 26 14 12 15 11 16 10 17 9 18 8 19 7 20 6 21 5 22
REMARK SMILES IDX 4 23 3 24 2 25 1 26
REMARK H PARENT
REMARK Flexibility Score: inf
ROOT
ATOM      1  C   UNL     1      74.429  50.994  -2.618  1.00  0.00     0.000 C 
ENDROOT
BRANCH   1   2
ATOM      2  C   UNL     1      73.696  52.334  -2.798  1.00  0.00     0.000 C 
BRANCH   2   3
ATOM      3  C   UNL     1      73.877  52.928  -4.205  1.00  0.00     0.000 C 
BRANCH   3   4
ATOM      4  C   UNL     1      73.534  54.427  -4.271  1.00  0.00     0.000 C 
BRANCH   4   5
ATOM      5  C   UNL     1      72.230  54.828  -3.558  1.00  0.00     0.000 C 
BRANCH   5   6
ATOM      6  C   UNL     1      72.170  56.329  -3.221  1.00  0.00     0.000 C 
BRANCH   6   7
ATOM      7  C   UNL     1      70.773  56.934  -3.438  1.00  0.00     0.000 C 
BRANCH   7   8
ATOM      8  C   UNL     1      70.454  58.169  -2.572  1.00  0.00     0.000 C 
BRANCH   8   9
ATOM      9  C   UNL     1      71.477  58.420  -1.444  1.00  0.00     0.000 C 
BRANCH   9  10
ATOM     10  C   UNL     1      72.046  59.850  -1.482  1.00  0.00     0.006 C 
BRANCH  10  11
ATOM     11  C   UNL     1      73.544  59.869  -1.804  1.00  0.00     0.053 C 
BRANCH  11  12
ATOM     12  C   UNL     1      73.790  59.941  -3.280  1.00  0.00     0.041 C 
ATOM     13  O   UNL     1      74.598  59.147  -3.830  1.00  0.00    -0.550 OA
ATOM     14  O   UNL     1      73.100  60.866  -4.054  1.00  0.00    -0.550 OA
ENDBRANCH  11  12
ENDBRANCH  10  11
ENDBRANCH   9  10
ENDBRANCH   8   9
ENDBRANCH   7   8
ENDBRANCH   6   7
ENDBRANCH   5   6
ENDBRANCH   4   5
ENDBRANCH   3   4
ENDBRANCH   2   3
ENDBRANCH   1   2
BRANCH   1  15
ATOM     15  C   UNL     1      75.360  50.598  -3.783  1.00  0.00     0.000 C 
BRANCH  15  16
ATOM     16  C   UNL     1      76.856  50.898  -3.565  1.00  0.00     0.000 C 
BRANCH  16  17
ATOM     17  C   UNL     1      77.778  49.892  -4.272  1.00  0.00     0.000 C 
BRANCH  17  18
ATOM     18  C   UNL     1      78.154  48.698  -3.375  1.00  0.00    -0.000 C 
BRANCH  18  19
ATOM     19  C   UNL     1      79.468  48.861  -2.585  1.00  0.00    -0.000 C 
BRANCH  19  20
ATOM     20  C   UNL     1      80.732  48.343  -3.300  1.00  0.00    -0.000 C 
BRANCH  20  21
ATOM     21  C   UNL     1      81.924  49.318  -3.301  1.00  0.00    -0.000 C 
BRANCH  21  22
ATOM     22  C   UNL     1      82.125  50.016  -1.948  1.00  0.00    -0.000 C 
BRANCH  22  23
ATOM     23  C   UNL     1      81.751  51.502  -2.037  1.00  0.00    -0.000 C 
BRANCH  23  24
ATOM     24  C   UNL     1      80.427  51.830  -1.322  1.00  0.00    -0.000 C 
BRANCH  24  25
ATOM     25  C   UNL     1      79.428  52.648  -2.158  1.00  0.00    -0.003 C 
ATOM     26  C   UNL     1      80.045  53.224  -3.432  1.00  0.00     0.004 C 
ENDBRANCH  24  25
ENDBRANCH  23  24
ENDBRANCH  22  23
ENDBRANCH  21  22
ENDBRANCH  20  21
ENDBRANCH  19  20
ENDBRANCH  18  19
ENDBRANCH  17  18
ENDBRANCH  16  17
ENDBRANCH  15  16
ENDBRANCH   1  15
TORSDOF 22
ENDMDL
MODEL 5
REMARK VINA RESULT:    17.004      2.525      9.742
REMARK INTER + INTRA:          37.793
REMARK INTER:                  39.246
REMARK INTRA:                  -1.452
REMARK UNBOUND:                -1.080
REMARK SMILES CCCCCCCCCCCCCCCCCCCCCCCC(=O)[O-]
REMARK SMILES IDX 13 1 14 2 15 3 16 4 17 5 18 6 19 7 20 8 21 9 22 10 23 11
REMARK SMILES IDX 24 12 25 13 26 14 12 15 11 16 10 17 9 18 8 19 7 20 6 21 5 22
REMARK SMILES IDX 4 23 3 24 2 25 1 26
REMARK H PARENT
REMARK Flexibility Score: inf
ROOT
ATOM      1  C   UNL     1      74.299  50.973  -2.895  1.00  0.00     0.000 C 
ENDROOT
BRANCH   1   2
ATOM      2  C   UNL     1      75.830  51.111  -2.967  1.00  0.00     0.000 C 
BRANCH   2   3
ATOM      3  C   UNL     1      76.454  50.249  -4.077  1.00  0.00     0.000 C 
BRANCH   3   4
ATOM      4  C   UNL     1      77.978  50.090  -3.926  1.00  0.00     0.000 C 
BRANCH   4   5
ATOM      5  C   UNL     1      78.442  48.710  -3.426  1.00  0.00     0.000 C 
BRANCH   5   6
ATOM      6  C   UNL     1      79.623  48.798  -2.442  1.00  0.00     0.000 C 
BRANCH   6   7
ATOM      7  C   UNL     1      80.980  48.530  -3.114  1.00  0.00     0.000 C 
BRANCH   7   8
ATOM      8  C   UNL     1      82.056  49.607  -2.866  1.00  0.00     0.000 C 
BRANCH   8   9
ATOM      9  C   UNL     1      81.902  50.342  -1.518  1.00  0.00     0.000 C 
BRANCH   9  10
ATOM     10  C   UNL     1      80.921  51.525  -1.610  1.00  0.00     0.006 C 
BRANCH  10  11
ATOM     11  C   UNL     1      81.022  52.259  -2.953  1.00  0.00     0.053 C 
BRANCH  11  12
ATOM     12  C   UNL     1      79.877  53.204  -3.151  1.00  0.00     0.041 C 
ATOM     13  O   UNL     1      79.902  54.045  -4.088  1.00  0.00    -0.550 OA
ATOM     14  O   UNL     1      78.766  53.134  -2.320  1.00  0.00    -0.550 OA
ENDBRANCH  11  12
ENDBRANCH  10  11
ENDBRANCH   9  10
ENDBRANCH   8   9
ENDBRANCH   7   8
ENDBRANCH   6   7
ENDBRANCH   5   6
ENDBRANCH   4   5
ENDBRANCH   3   4
ENDBRANCH   2   3
ENDBRANCH   1   2
BRANCH   1  15
ATOM     15  C   UNL     1      73.509  52.160  -3.483  1.00  0.00     0.000 C 
BRANCH  15  16
ATOM     16  C   UNL     1      74.331  53.437  -3.747  1.00  0.00     0.000 C 
BRANCH  16  17
ATOM     17  C   UNL     1      73.454  54.683  -3.953  1.00  0.00     0.000 C 
BRANCH  17  18
ATOM     18  C   UNL     1      71.948  54.363  -3.910  1.00  0.00    -0.000 C 
BRANCH  18  19
ATOM     19  C   UNL     1      71.026  55.582  -3.705  1.00  0.00    -0.000 C 
BRANCH  19  20
ATOM     20  C   UNL     1      71.535  56.626  -2.691  1.00  0.00    -0.000 C 
BRANCH  20  21
ATOM     21  C   UNL     1      70.714  57.926  -2.628  1.00  0.00    -0.000 C 
BRANCH  21  22
ATOM     22  C   UNL     1      71.042  58.781  -1.396  1.00  0.00    -0.000 C 
BRANCH  22  23
ATOM     23  C   UNL     1      71.850  60.026  -1.792  1.00  0.00    -0.000 C 
BRANCH  23  24
ATOM     24  C   UNL     1      73.342  59.911  -1.428  1.00  0.00    -0.000 C 
BRANCH  24  25
ATOM     25  C   UNL     1      74.311  60.126  -2.604  1.00  0.00    -0.003 C 
ATOM     26  C   UNL     1      73.594  60.366  -3.932  1.00  0.00     0.004 C 
ENDBRANCH  24  25
ENDBRANCH  23  24
ENDBRANCH  22  23
ENDBRANCH  21  22
ENDBRANCH  20  21
ENDBRANCH  19  20
ENDBRANCH  18  19
ENDBRANCH  17  18
ENDBRANCH  16  17
ENDBRANCH  15  16
ENDBRANCH   1  15
TORSDOF 22
ENDMDL
MODEL 6
REMARK VINA RESULT:    17.654      2.876     10.090
REMARK INTER + INTRA:          39.278
REMARK INTER:                  40.082
REMARK INTRA:                  -0.803
REMARK UNBOUND:                -1.080
REMARK SMILES CCCCCCCCCCCCCCCCCCCCCCCC(=O)[O-]
REMARK SMILES IDX 13 1 14 2 15 3 16 4 17 5 18 6 19 7 20 8 21 9 22 10 23 11
REMARK SMILES IDX 24 12 25 13 26 14 12 15 11 16 10 17 9 18 8 19 7 20 6 21 5 22
REMARK SMILES IDX 4 23 3 24 2 25 1 26
REMARK H PARENT
REMARK Flexibility Score: inf
ROOT
ATOM      1  C   UNL     1      74.540  52.466  -3.108  1.00  0.00     0.000 C 
ENDROOT
BRANCH   1   2
ATOM      2  C   UNL     1      74.132  51.005  -2.852  1.00  0.00     0.000 C 
BRANCH   2   3
ATOM      3  C   UNL     1      75.325  50.036  -2.903  1.00  0.00     0.000 C 
BRANCH   3   4
ATOM      4  C   UNL     1      76.474  50.549  -3.790  1.00  0.00     0.000 C 
BRANCH   4   5
ATOM      5  C   UNL     1      77.557  49.505  -4.119  1.00  0.00     0.000 C 
BRANCH   5   6
ATOM      6  C   UNL     1      78.834  49.683  -3.279  1.00  0.00     0.000 C 
BRANCH   6   7
ATOM      7  C   UNL     1      79.345  48.360  -2.682  1.00  0.00     0.000 C 
BRANCH   7   8
ATOM      8  C   UNL     1      80.815  48.024  -3.005  1.00  0.00     0.000 C 
BRANCH   8   9
ATOM      9  C   UNL     1      81.697  49.264  -3.258  1.00  0.00     0.000 C 
BRANCH   9  10
ATOM     10  C   UNL     1      81.941  50.076  -1.972  1.00  0.00     0.006 C 
BRANCH  10  11
ATOM     11  C   UNL     1      81.738  51.580  -2.190  1.00  0.00     0.053 C 
BRANCH  11  12
ATOM     12  C   UNL     1      80.474  52.064  -1.547  1.00  0.00     0.041 C 
ATOM     13  O   UNL     1      79.633  52.722  -2.214  1.00  0.00    -0.550 OA
ATOM     14  O   UNL     1      80.211  51.759  -0.218  1.00  0.00    -0.550 OA
ENDBRANCH  11  12
ENDBRANCH  10  11
ENDBRANCH   9  10
ENDBRANCH   8   9
ENDBRANCH   7   8
ENDBRANCH   6   7
ENDBRANCH   5   6
ENDBRANCH   4   5
ENDBRANCH   3   4
ENDBRANCH   2   3
ENDBRANCH   1   2
BRANCH   1  15
ATOM     15  C   UNL     1      73.793  53.158  -4.267  1.00  0.00     0.000 C 
BRANCH  15  16
ATOM     16  C   UNL     1      73.416  54.633  -4.025  1.00  0.00     0.000 C 
BRANCH  16  17
ATOM     17  C   UNL     1      71.897  54.870  -4.019  1.00  0.00     0.000 C 
BRANCH  17  18
ATOM     18  C   UNL     1      71.451  55.831  -2.901  1.00  0.00    -0.000 C 
BRANCH  18  19
ATOM     19  C   UNL     1      71.299  57.305  -3.328  1.00  0.00    -0.000 C 
BRANCH  19  20
ATOM     20  C   UNL     1      70.599  58.217  -2.300  1.00  0.00    -0.000 C 
BRANCH  20  21
ATOM     21  C   UNL     1      71.515  58.773  -1.194  1.00  0.00    -0.000 C 
BRANCH  21  22
ATOM     22  C   UNL     1      72.188  60.097  -1.585  1.00  0.00    -0.000 C 
BRANCH  22  23
ATOM     23  C   UNL     1      73.152  59.894  -2.763  1.00  0.00    -0.000 C 
BRANCH  23  24
ATOM     24  C   UNL     1      74.632  59.939  -2.339  1.00  0.00    -0.000 C 
BRANCH  24  25
ATOM     25  C   UNL     1      74.868  60.274  -0.856  1.00  0.00    -0.003 C 
ATOM     26  C   UNL     1      76.055  59.522  -0.256  1.00  0.00     0.004 C 
ENDBRANCH  24  25
ENDBRANCH  23  24
ENDBRANCH  22  23
ENDBRANCH  21  22
ENDBRANCH  20  21
ENDBRANCH  19  20
ENDBRANCH  18  19
ENDBRANCH  17  18
ENDBRANCH  16  17
ENDBRANCH  15  16
ENDBRANCH   1  15
TORSDOF 22
ENDMDL
