MODEL 1
REMARK VINA RESULT:    -6.447      0.000      0.000
REMARK INTER + INTRA:          -8.059
REMARK INTER:                  -7.766
REMARK INTRA:                  -0.292
REMARK UNBOUND:                -0.292
REMARK SMILES O=c1c(O)c(-c2ccc(O)c(O)c2)oc2cc(O)cc(O)c12
REMARK SMILES IDX 5 1 3 2 2 3 1 4 22 5 20 6 19 7 17 8 16 9 15 10 14 11 6 12
REMARK SMILES IDX 7 13 8 14 9 15 13 16 11 17 10 18 12 20 4 22 21 24 18 26
REMARK H PARENT 10 19 12 21 4 23 21 25 18 27
REMARK Flexibility Score: inf
ROOT
ATOM      1  C   UNL     1       0.119   6.861  -5.647  1.00  0.00     0.180 A 
ATOM      2  C   UNL     1      -1.203   7.239  -5.941  1.00  0.00     0.208 A 
ATOM      3  C   UNL     1      -1.909   8.023  -5.015  1.00  0.00     0.238 A 
ATOM      4  O   UNL     1      -3.109   8.314  -5.260  1.00  0.00    -0.285 OA
ATOM      5  C   UNL     1      -1.280   8.433  -3.814  1.00  0.00     0.111 A 
ATOM      6  C   UNL     1      -1.888   9.261  -2.825  1.00  0.00     0.134 A 
ATOM      7  C   UNL     1      -1.220   9.496  -1.616  1.00  0.00     0.093 A 
ATOM      8  C   UNL     1       0.060   8.985  -1.389  1.00  0.00     0.123 A 
ATOM      9  C   UNL     1       0.685   8.223  -2.374  1.00  0.00     0.094 A 
ATOM     10  C   UNL     1       0.030   7.942  -3.576  1.00  0.00     0.146 A 
ATOM     11  O   UNL     1       0.658   7.205  -4.484  1.00  0.00    -0.452 OA
ENDROOT
BRANCH   1  12
ATOM     12  C   UNL     1       0.936   6.056  -6.585  1.00  0.00     0.025 A 
ATOM     13  C   UNL     1       1.534   6.682  -7.690  1.00  0.00     0.016 A 
ATOM     14  C   UNL     1       2.292   5.939  -8.598  1.00  0.00     0.051 A 
ATOM     15  C   UNL     1       2.450   4.560  -8.427  1.00  0.00     0.157 A 
ATOM     16  C   UNL     1       1.079   4.667  -6.425  1.00  0.00     0.062 A 
ATOM     17  C   UNL     1       1.837   3.919  -7.337  1.00  0.00     0.158 A 
BRANCH  15  18
ATOM     18  O   UNL     1       3.214   3.844  -9.349  1.00  0.00    -0.504 OA
ATOM     19  H   UNL     1       3.466   2.875  -9.201  1.00  0.00     0.293 HD
ENDBRANCH  15  18
BRANCH  17  20
ATOM     20  O   UNL     1       1.979   2.542  -7.168  1.00  0.00    -0.504 OA
ATOM     21  H   UNL     1       2.407   1.961  -7.878  1.00  0.00     0.293 HD
ENDBRANCH  17  20
ENDBRANCH   1  12
BRANCH   2  22
ATOM     22  O   UNL     1      -1.810   6.807  -7.124  1.00  0.00    -0.502 OA
ATOM     23  H   UNL     1      -2.381   7.417  -7.696  1.00  0.00     0.293 HD
ENDBRANCH   2  22
BRANCH   6  24
ATOM     24  O   UNL     1      -3.122   9.897  -2.988  1.00  0.00    -0.507 OA
ATOM     25  H   UNL     1      -3.710  10.213  -2.232  1.00  0.00     0.293 HD
ENDBRANCH   6  24
BRANCH   8  26
ATOM     26  O   UNL     1       0.724   9.234  -0.190  1.00  0.00    -0.508 OA
ATOM     27  H   UNL     1       1.496   8.656   0.119  1.00  0.00     0.293 HD
ENDBRANCH   8  26
TORSDOF 6
ENDMDL
MODEL 2
REMARK VINA RESULT:    -6.393      2.123      3.926
REMARK INTER + INTRA:          -7.994
REMARK INTER:                  -7.693
REMARK INTRA:                  -0.301
REMARK UNBOUND:                -0.292
REMARK SMILES O=c1c(O)c(-c2ccc(O)c(O)c2)oc2cc(O)cc(O)c12
REMARK SMILES IDX 5 1 3 2 2 3 1 4 22 5 20 6 19 7 17 8 16 9 15 10 14 11 6 12
REMARK SMILES IDX 7 13 8 14 9 15 13 16 11 17 10 18 12 20 4 22 21 24 18 26
REMARK H PARENT 10 19 12 21 4 23 21 25 18 27
REMARK Flexibility Score: inf
ROOT
ATOM      1  C   UNL     1       1.386   6.285  -6.398  1.00  0.00     0.180 A 
ATOM      2  C   UNL     1       1.311   6.602  -5.031  1.00  0.00     0.208 A 
ATOM      3  C   UNL     1       0.386   7.570  -4.606  1.00  0.00     0.238 A 
ATOM      4  O   UNL     1       0.361   7.888  -3.389  1.00  0.00    -0.285 OA
ATOM      5  C   UNL     1      -0.462   8.196  -5.552  1.00  0.00     0.111 A 
ATOM      6  C   UNL     1      -1.462   9.160  -5.227  1.00  0.00     0.134 A 
ATOM      7  C   UNL     1      -2.154   9.810  -6.257  1.00  0.00     0.093 A 
ATOM      8  C   UNL     1      -1.927   9.484  -7.595  1.00  0.00     0.123 A 
ATOM      9  C   UNL     1      -0.993   8.501  -7.919  1.00  0.00     0.094 A 
ATOM     10  C   UNL     1      -0.262   7.860  -6.916  1.00  0.00     0.146 A 
ATOM     11  O   UNL     1       0.624   6.937  -7.268  1.00  0.00    -0.452 OA
ENDROOT
BRANCH   1  12
ATOM     12  C   UNL     1       2.318   5.258  -6.919  1.00  0.00     0.025 A 
ATOM     13  C   UNL     1       1.858   3.947  -7.119  1.00  0.00     0.016 A 
ATOM     14  C   UNL     1       2.725   2.957  -7.590  1.00  0.00     0.051 A 
ATOM     15  C   UNL     1       4.065   3.257  -7.852  1.00  0.00     0.157 A 
ATOM     16  C   UNL     1       3.670   5.553  -7.164  1.00  0.00     0.062 A 
ATOM     17  C   UNL     1       4.543   4.560  -7.634  1.00  0.00     0.158 A 
BRANCH  15  18
ATOM     18  O   UNL     1       4.906   2.249  -8.323  1.00  0.00    -0.504 OA
ATOM     19  H   UNL     1       5.707   1.927  -7.795  1.00  0.00     0.293 HD
ENDBRANCH  15  18
BRANCH  17  20
ATOM     20  O   UNL     1       5.882   4.863  -7.881  1.00  0.00    -0.504 OA
ATOM     21  H   UNL     1       6.309   4.685  -8.781  1.00  0.00     0.293 HD
ENDBRANCH  17  20
ENDBRANCH   1  12
BRANCH   2  22
ATOM     22  O   UNL     1       2.172   5.986  -4.118  1.00  0.00    -0.502 OA
ATOM     23  H   UNL     1       2.165   6.209  -3.130  1.00  0.00     0.293 HD
ENDBRANCH   2  22
BRANCH   6  24
ATOM     24  O   UNL     1      -1.832   9.493  -3.921  1.00  0.00    -0.507 OA
ATOM     25  H   UNL     1      -2.703   9.932  -3.664  1.00  0.00     0.293 HD
ENDBRANCH   6  24
BRANCH   8  26
ATOM     26  O   UNL     1      -2.630  10.125  -8.613  1.00  0.00    -0.508 OA
ATOM     27  H   UNL     1      -3.405   9.675  -9.087  1.00  0.00     0.293 HD
ENDBRANCH   8  26
TORSDOF 6
ENDMDL
MODEL 3
REMARK VINA RESULT:    -6.256      2.232      7.472
REMARK INTER + INTRA:          -7.828
REMARK INTER:                  -7.494
REMARK INTRA:                  -0.334
REMARK UNBOUND:                -0.292
REMARK SMILES O=c1c(O)c(-c2ccc(O)c(O)c2)oc2cc(O)cc(O)c12
REMARK SMILES IDX 5 1 3 2 2 3 1 4 22 5 20 6 19 7 17 8 16 9 15 10 14 11 6 12
REMARK SMILES IDX 7 13 8 14 9 15 13 16 11 17 10 18 12 20 4 22 21 24 18 26
REMARK H PARENT 10 19 12 21 4 23 21 25 18 27
REMARK Flexibility Score: inf
ROOT
ATOM      1  C   UNL     1       2.038   5.732  -6.572  1.00  0.00     0.180 A 
ATOM      2  C   UNL     1       2.981   6.471  -7.307  1.00  0.00     0.208 A 
ATOM      3  C   UNL     1       4.075   5.801  -7.879  1.00  0.00     0.238 A 
ATOM      4  O   UNL     1       4.944   6.475  -8.491  1.00  0.00    -0.285 OA
ATOM      5  C   UNL     1       4.203   4.399  -7.722  1.00  0.00     0.111 A 
ATOM      6  C   UNL     1       5.249   3.614  -8.291  1.00  0.00     0.134 A 
ATOM      7  C   UNL     1       5.350   2.256  -7.962  1.00  0.00     0.093 A 
ATOM      8  C   UNL     1       4.405   1.643  -7.136  1.00  0.00     0.123 A 
ATOM      9  C   UNL     1       3.347   2.390  -6.622  1.00  0.00     0.094 A 
ATOM     10  C   UNL     1       3.240   3.754  -6.904  1.00  0.00     0.146 A 
ATOM     11  O   UNL     1       2.222   4.430  -6.387  1.00  0.00    -0.452 OA
ENDROOT
BRANCH   1  12
ATOM     12  C   UNL     1       0.846   6.364  -5.962  1.00  0.00     0.025 A 
ATOM     13  C   UNL     1       0.896   6.782  -4.623  1.00  0.00     0.016 A 
ATOM     14  C   UNL     1      -0.224   7.362  -4.020  1.00  0.00     0.051 A 
ATOM     15  C   UNL     1      -1.413   7.518  -4.739  1.00  0.00     0.157 A 
ATOM     16  C   UNL     1      -0.356   6.503  -6.677  1.00  0.00     0.062 A 
ATOM     17  C   UNL     1      -1.482   7.083  -6.073  1.00  0.00     0.158 A 
BRANCH  15  18
ATOM     18  O   UNL     1      -2.514   8.102  -4.113  1.00  0.00    -0.504 OA
ATOM     19  H   UNL     1      -2.570   8.200  -3.107  1.00  0.00     0.293 HD
ENDBRANCH  15  18
BRANCH  17  20
ATOM     20  O   UNL     1      -2.669   7.222  -6.793  1.00  0.00    -0.504 OA
ATOM     21  H   UNL     1      -3.317   6.452  -6.901  1.00  0.00     0.293 HD
ENDBRANCH  17  20
ENDBRANCH   1  12
BRANCH   2  22
ATOM     22  O   UNL     1       2.846   7.856  -7.433  1.00  0.00    -0.502 OA
ATOM     23  H   UNL     1       3.636   8.466  -7.605  1.00  0.00     0.293 HD
ENDBRANCH   2  22
BRANCH   6  24
ATOM     24  O   UNL     1       6.190   4.106  -9.200  1.00  0.00    -0.507 OA
ATOM     25  H   UNL     1       7.078   4.511  -8.945  1.00  0.00     0.293 HD
ENDBRANCH   6  24
BRANCH   8  26
ATOM     26  O   UNL     1       4.504   0.289  -6.825  1.00  0.00    -0.508 OA
ATOM     27  H   UNL     1       5.320  -0.256  -7.081  1.00  0.00     0.293 HD
ENDBRANCH   8  26
TORSDOF 6
ENDMDL
MODEL 4
REMARK VINA RESULT:    -6.214      1.830      2.540
REMARK INTER + INTRA:          -7.778
REMARK INTER:                  -7.448
REMARK INTRA:                  -0.330
REMARK UNBOUND:                -0.292
REMARK SMILES O=c1c(O)c(-c2ccc(O)c(O)c2)oc2cc(O)cc(O)c12
REMARK SMILES IDX 5 1 3 2 2 3 1 4 22 5 20 6 19 7 17 8 16 9 15 10 14 11 6 12
REMARK SMILES IDX 7 13 8 14 9 15 13 16 11 17 10 18 12 20 4 22 21 24 18 26
REMARK H PARENT 10 19 12 21 4 23 21 25 18 27
REMARK Flexibility Score: inf
ROOT
ATOM      1  C   UNL     1       1.563   6.073  -6.313  1.00  0.00     0.180 A 
ATOM      2  C   UNL     1       0.747   6.782  -7.210  1.00  0.00     0.208 A 
ATOM      3  C   UNL     1      -0.071   7.813  -6.718  1.00  0.00     0.238 A 
ATOM      4  O   UNL     1      -0.839   8.408  -7.517  1.00  0.00    -0.285 OA
ATOM      5  C   UNL     1      -0.049   8.131  -5.338  1.00  0.00     0.111 A 
ATOM      6  C   UNL     1      -0.806   9.181  -4.738  1.00  0.00     0.134 A 
ATOM      7  C   UNL     1      -0.807   9.321  -3.344  1.00  0.00     0.093 A 
ATOM      8  C   UNL     1      -0.028   8.490  -2.536  1.00  0.00     0.123 A 
ATOM      9  C   UNL     1       0.760   7.499  -3.118  1.00  0.00     0.094 A 
ATOM     10  C   UNL     1       0.755   7.312  -4.503  1.00  0.00     0.146 A 
ATOM     11  O   UNL     1       1.512   6.351  -5.016  1.00  0.00    -0.452 OA
ENDROOT
BRANCH   1  12
ATOM     12  C   UNL     1       2.471   4.991  -6.761  1.00  0.00     0.025 A 
ATOM     13  C   UNL     1       2.012   3.664  -6.766  1.00  0.00     0.016 A 
ATOM     14  C   UNL     1       2.858   2.626  -7.166  1.00  0.00     0.051 A 
ATOM     15  C   UNL     1       4.176   2.894  -7.549  1.00  0.00     0.157 A 
ATOM     16  C   UNL     1       3.802   5.256  -7.128  1.00  0.00     0.062 A 
ATOM     17  C   UNL     1       4.653   4.215  -7.526  1.00  0.00     0.158 A 
BRANCH  15  18
ATOM     18  O   UNL     1       4.996   1.837  -7.945  1.00  0.00    -0.504 OA
ATOM     19  H   UNL     1       5.935   1.986  -8.290  1.00  0.00     0.293 HD
ENDBRANCH  15  18
BRANCH  17  20
ATOM     20  O   UNL     1       5.970   4.488  -7.894  1.00  0.00    -0.504 OA
ATOM     21  H   UNL     1       6.535   5.157  -7.385  1.00  0.00     0.293 HD
ENDBRANCH  17  20
ENDBRANCH   1  12
BRANCH   2  22
ATOM     22  O   UNL     1       0.726   6.439  -8.565  1.00  0.00    -0.502 OA
ATOM     23  H   UNL     1       0.626   5.481  -8.881  1.00  0.00     0.293 HD
ENDBRANCH   2  22
BRANCH   6  24
ATOM     24  O   UNL     1      -1.544  10.122  -5.460  1.00  0.00    -0.507 OA
ATOM     25  H   UNL     1      -1.369  11.115  -5.456  1.00  0.00     0.293 HD
ENDBRANCH   6  24
BRANCH   8  26
ATOM     26  O   UNL     1      -0.023   8.645  -1.151  1.00  0.00    -0.508 OA
ATOM     27  H   UNL     1       0.286   9.507  -0.716  1.00  0.00     0.293 HD
ENDBRANCH   8  26
TORSDOF 6
ENDMDL
MODEL 5
REMARK VINA RESULT:    -6.164      2.499      7.245
REMARK INTER + INTRA:          -7.717
REMARK INTER:                  -7.413
REMARK INTRA:                  -0.304
REMARK UNBOUND:                -0.292
REMARK SMILES O=c1c(O)c(-c2ccc(O)c(O)c2)oc2cc(O)cc(O)c12
REMARK SMILES IDX 5 1 3 2 2 3 1 4 22 5 20 6 19 7 17 8 16 9 15 10 14 11 6 12
REMARK SMILES IDX 7 13 8 14 9 15 13 16 11 17 10 18 12 20 4 22 21 24 18 26
REMARK H PARENT 10 19 12 21 4 23 21 25 18 27
REMARK Flexibility Score: inf
ROOT
ATOM      1  C   UNL     1       1.551   6.008  -6.883  1.00  0.00     0.180 A 
ATOM      2  C   UNL     1       1.214   4.650  -6.754  1.00  0.00     0.208 A 
ATOM      3  C   UNL     1       2.185   3.678  -7.047  1.00  0.00     0.238 A 
ATOM      4  O   UNL     1       1.861   2.463  -6.981  1.00  0.00    -0.285 OA
ATOM      5  C   UNL     1       3.483   4.076  -7.448  1.00  0.00     0.111 A 
ATOM      6  C   UNL     1       4.554   3.177  -7.731  1.00  0.00     0.134 A 
ATOM      7  C   UNL     1       5.756   3.676  -8.247  1.00  0.00     0.093 A 
ATOM      8  C   UNL     1       5.947   5.048  -8.429  1.00  0.00     0.123 A 
ATOM      9  C   UNL     1       4.927   5.938  -8.100  1.00  0.00     0.094 A 
ATOM     10  C   UNL     1       3.704   5.468  -7.617  1.00  0.00     0.146 A 
ATOM     11  O   UNL     1       2.756   6.349  -7.325  1.00  0.00    -0.452 OA
ENDROOT
BRANCH   1  12
ATOM     12  C   UNL     1       0.591   7.091  -6.568  1.00  0.00     0.025 A 
ATOM     13  C   UNL     1       0.610   7.682  -5.294  1.00  0.00     0.016 A 
ATOM     14  C   UNL     1      -0.301   8.691  -4.969  1.00  0.00     0.051 A 
ATOM     15  C   UNL     1      -1.252   9.114  -5.903  1.00  0.00     0.157 A 
ATOM     16  C   UNL     1      -0.379   7.504  -7.498  1.00  0.00     0.062 A 
ATOM     17  C   UNL     1      -1.295   8.515  -7.173  1.00  0.00     0.158 A 
BRANCH  15  18
ATOM     18  O   UNL     1      -2.146  10.124  -5.551  1.00  0.00    -0.504 OA
ATOM     19  H   UNL     1      -2.475  10.809  -6.220  1.00  0.00     0.293 HD
ENDBRANCH  15  18
BRANCH  17  20
ATOM     20  O   UNL     1      -2.250   8.921  -8.104  1.00  0.00    -0.504 OA
ATOM     21  H   UNL     1      -2.192   9.821  -8.566  1.00  0.00     0.293 HD
ENDBRANCH  17  20
ENDBRANCH   1  12
BRANCH   2  22
ATOM     22  O   UNL     1      -0.079   4.279  -6.375  1.00  0.00    -0.502 OA
ATOM     23  H   UNL     1      -0.261   3.687  -5.574  1.00  0.00     0.293 HD
ENDBRANCH   2  22
BRANCH   6  24
ATOM     24  O   UNL     1       4.499   1.799  -7.498  1.00  0.00    -0.507 OA
ATOM     25  H   UNL     1       3.734   1.323  -7.046  1.00  0.00     0.293 HD
ENDBRANCH   6  24
BRANCH   8  26
ATOM     26  O   UNL     1       7.152   5.538  -8.929  1.00  0.00    -0.508 OA
ATOM     27  H   UNL     1       8.044   5.181  -8.606  1.00  0.00     0.293 HD
ENDBRANCH   8  26
TORSDOF 6
ENDMDL
MODEL 6
REMARK VINA RESULT:    -6.082      1.294      2.998
REMARK INTER + INTRA:          -7.619
REMARK INTER:                  -7.310
REMARK INTRA:                  -0.310
REMARK UNBOUND:                -0.292
REMARK SMILES O=c1c(O)c(-c2ccc(O)c(O)c2)oc2cc(O)cc(O)c12
REMARK SMILES IDX 5 1 3 2 2 3 1 4 22 5 20 6 19 7 17 8 16 9 15 10 14 11 6 12
REMARK SMILES IDX 7 13 8 14 9 15 13 16 11 17 10 18 12 20 4 22 21 24 18 26
REMARK H PARENT 10 19 12 21 4 23 21 25 18 27
REMARK Flexibility Score: inf
ROOT
ATOM      1  C   UNL     1       0.310   6.588  -5.648  1.00  0.00     0.180 A 
ATOM      2  C   UNL     1       0.709   6.833  -4.323  1.00  0.00     0.208 A 
ATOM      3  C   UNL     1      -0.069   7.687  -3.524  1.00  0.00     0.238 A 
ATOM      4  O   UNL     1       0.322   7.944  -2.356  1.00  0.00    -0.285 OA
ATOM      5  C   UNL     1      -1.244   8.272  -4.056  1.00  0.00     0.111 A 
ATOM      6  C   UNL     1      -2.128   9.120  -3.324  1.00  0.00     0.134 A 
ATOM      7  C   UNL     1      -3.189   9.748  -3.989  1.00  0.00     0.093 A 
ATOM      8  C   UNL     1      -3.435   9.507  -5.342  1.00  0.00     0.123 A 
ATOM      9  C   UNL     1      -2.611   8.634  -6.051  1.00  0.00     0.094 A 
ATOM     10  C   UNL     1      -1.524   8.021  -5.424  1.00  0.00     0.146 A 
ATOM     11  O   UNL     1      -0.759   7.204  -6.138  1.00  0.00    -0.452 OA
ENDROOT
BRANCH   1  12
ATOM     12  C   UNL     1       1.065   5.680  -6.543  1.00  0.00     0.025 A 
ATOM     13  C   UNL     1       1.904   6.223  -7.528  1.00  0.00     0.016 A 
ATOM     14  C   UNL     1       2.610   5.385  -8.396  1.00  0.00     0.051 A 
ATOM     15  C   UNL     1       2.475   3.997  -8.304  1.00  0.00     0.157 A 
ATOM     16  C   UNL     1       0.915   4.285  -6.465  1.00  0.00     0.062 A 
ATOM     17  C   UNL     1       1.621   3.442  -7.337  1.00  0.00     0.158 A 
BRANCH  15  18
ATOM     18  O   UNL     1       3.193   3.186  -9.183  1.00  0.00    -0.504 OA
ATOM     19  H   UNL     1       2.795   2.848 -10.050  1.00  0.00     0.293 HD
ENDBRANCH  15  18
BRANCH  17  20
ATOM     20  O   UNL     1       1.471   2.058  -7.249  1.00  0.00    -0.504 OA
ATOM     21  H   UNL     1       0.569   1.632  -7.073  1.00  0.00     0.293 HD
ENDBRANCH  17  20
ENDBRANCH   1  12
BRANCH   2  22
ATOM     22  O   UNL     1       1.883   6.260  -3.825  1.00  0.00    -0.502 OA
ATOM     23  H   UNL     1       2.369   5.514  -4.306  1.00  0.00     0.293 HD
ENDBRANCH   2  22
BRANCH   6  24
ATOM     24  O   UNL     1      -2.026   9.354  -1.950  1.00  0.00    -0.507 OA
ATOM     25  H   UNL     1      -1.337   9.951  -1.519  1.00  0.00     0.293 HD
ENDBRANCH   6  24
BRANCH   8  26
ATOM     26  O   UNL     1      -4.501  10.125  -5.992  1.00  0.00    -0.508 OA
ATOM     27  H   UNL     1      -4.433  11.075  -6.338  1.00  0.00     0.293 HD
ENDBRANCH   8  26
TORSDOF 6
ENDMDL
MODEL 7
REMARK VINA RESULT:    -5.940     11.601     13.979
REMARK INTER + INTRA:          -7.448
REMARK INTER:                  -7.623
REMARK INTRA:                   0.175
REMARK UNBOUND:                -0.292
REMARK SMILES O=c1c(O)c(-c2ccc(O)c(O)c2)oc2cc(O)cc(O)c12
REMARK SMILES IDX 5 1 3 2 2 3 1 4 22 5 20 6 19 7 17 8 16 9 15 10 14 11 6 12
REMARK SMILES IDX 7 13 8 14 9 15 13 16 11 17 10 18 12 20 4 22 21 24 18 26
REMARK H PARENT 10 19 12 21 4 23 21 25 18 27
REMARK Flexibility Score: inf
ROOT
ATOM      1  C   UNL     1      -2.406   4.088   7.632  1.00  0.00     0.180 A 
ATOM      2  C   UNL     1      -1.838   5.336   7.941  1.00  0.00     0.208 A 
ATOM      3  C   UNL     1      -2.351   6.489   7.324  1.00  0.00     0.238 A 
ATOM      4  O   UNL     1      -1.803   7.596   7.565  1.00  0.00    -0.285 OA
ATOM      5  C   UNL     1      -3.434   6.381   6.418  1.00  0.00     0.111 A 
ATOM      6  C   UNL     1      -4.057   7.486   5.767  1.00  0.00     0.134 A 
ATOM      7  C   UNL     1      -5.034   7.251   4.791  1.00  0.00     0.093 A 
ATOM      8  C   UNL     1      -5.455   5.954   4.491  1.00  0.00     0.123 A 
ATOM      9  C   UNL     1      -4.893   4.871   5.165  1.00  0.00     0.094 A 
ATOM     10  C   UNL     1      -3.891   5.071   6.117  1.00  0.00     0.146 A 
ATOM     11  O   UNL     1      -3.376   4.012   6.729  1.00  0.00    -0.452 OA
ENDROOT
BRANCH   1  12
ATOM     12  C   UNL     1      -1.937   2.831   8.261  1.00  0.00     0.025 A 
ATOM     13  C   UNL     1      -2.877   1.870   8.665  1.00  0.00     0.016 A 
ATOM     14  C   UNL     1      -2.458   0.687   9.279  1.00  0.00     0.051 A 
ATOM     15  C   UNL     1      -1.099   0.453   9.512  1.00  0.00     0.157 A 
ATOM     16  C   UNL     1      -0.573   2.603   8.514  1.00  0.00     0.062 A 
ATOM     17  C   UNL     1      -0.151   1.417   9.132  1.00  0.00     0.158 A 
BRANCH  15  18
ATOM     18  O   UNL     1      -0.711  -0.739  10.125  1.00  0.00    -0.504 OA
ATOM     19  H   UNL     1       0.070  -0.783  10.768  1.00  0.00     0.293 HD
ENDBRANCH  15  18
BRANCH  17  20
ATOM     20  O   UNL     1       1.205   1.197   9.374  1.00  0.00    -0.504 OA
ATOM     21  H   UNL     1       1.526   0.392   9.898  1.00  0.00     0.293 HD
ENDBRANCH  17  20
ENDBRANCH   1  12
BRANCH   2  22
ATOM     22  O   UNL     1      -0.757   5.417   8.823  1.00  0.00    -0.502 OA
ATOM     23  H   UNL     1      -0.182   6.247   8.903  1.00  0.00     0.293 HD
ENDBRANCH   2  22
BRANCH   6  24
ATOM     24  O   UNL     1      -3.776   8.824   6.059  1.00  0.00    -0.507 OA
ATOM     25  H   UNL     1      -3.057   9.371   5.610  1.00  0.00     0.293 HD
ENDBRANCH   6  24
BRANCH   8  26
ATOM     26  O   UNL     1      -6.438   5.729   3.530  1.00  0.00    -0.508 OA
ATOM     27  H   UNL     1      -6.224   5.749   2.539  1.00  0.00     0.293 HD
ENDBRANCH   8  26
TORSDOF 6
ENDMDL
MODEL 8
REMARK VINA RESULT:    -5.854      1.557      7.044
REMARK INTER + INTRA:          -7.344
REMARK INTER:                  -7.022
REMARK INTRA:                  -0.322
REMARK UNBOUND:                -0.292
REMARK SMILES O=c1c(O)c(-c2ccc(O)c(O)c2)oc2cc(O)cc(O)c12
REMARK SMILES IDX 5 1 3 2 2 3 1 4 22 5 20 6 19 7 17 8 16 9 15 10 14 11 6 12
REMARK SMILES IDX 7 13 8 14 9 15 13 16 11 17 10 18 12 20 4 22 21 24 18 26
REMARK H PARENT 10 19 12 21 4 23 21 25 18 27
REMARK Flexibility Score: inf
ROOT
ATOM      1  C   UNL     1       0.831   7.694  -5.069  1.00  0.00     0.180 A 
ATOM      2  C   UNL     1       1.658   8.472  -5.897  1.00  0.00     0.208 A 
ATOM      3  C   UNL     1       2.296   7.861  -6.988  1.00  0.00     0.238 A 
ATOM      4  O   UNL     1       3.077   8.551  -7.694  1.00  0.00    -0.285 OA
ATOM      5  C   UNL     1       2.087   6.485  -7.247  1.00  0.00     0.111 A 
ATOM      6  C   UNL     1       2.651   5.774  -8.348  1.00  0.00     0.134 A 
ATOM      7  C   UNL     1       2.482   4.386  -8.432  1.00  0.00     0.093 A 
ATOM      8  C   UNL     1       1.716   3.695  -7.491  1.00  0.00     0.123 A 
ATOM      9  C   UNL     1       1.112   4.391  -6.445  1.00  0.00     0.094 A 
ATOM     10  C   UNL     1       1.292   5.770  -6.314  1.00  0.00     0.146 A 
ATOM     11  O   UNL     1       0.707   6.392  -5.299  1.00  0.00    -0.452 OA
ENDROOT
BRANCH   1  12
ATOM     12  C   UNL     1       0.104   8.271  -3.914  1.00  0.00     0.025 A 
ATOM     13  C   UNL     1      -1.182   8.800  -4.103  1.00  0.00     0.016 A 
ATOM     14  C   UNL     1      -1.878   9.368  -3.033  1.00  0.00     0.051 A 
ATOM     15  C   UNL     1      -1.294   9.432  -1.763  1.00  0.00     0.157 A 
ATOM     16  C   UNL     1       0.697   8.354  -2.642  1.00  0.00     0.062 A 
ATOM     17  C   UNL     1       0.002   8.926  -1.567  1.00  0.00     0.158 A 
BRANCH  15  18
ATOM     18  O   UNL     1      -2.013  10.002  -0.713  1.00  0.00    -0.504 OA
ATOM     19  H   UNL     1      -2.799  10.621  -0.873  1.00  0.00     0.293 HD
ENDBRANCH  15  18
BRANCH  17  20
ATOM     20  O   UNL     1       0.596   8.998  -0.307  1.00  0.00    -0.504 OA
ATOM     21  H   UNL     1       1.022   8.188   0.126  1.00  0.00     0.293 HD
ENDBRANCH  17  20
ENDBRANCH   1  12
BRANCH   2  22
ATOM     22  O   UNL     1       1.866   9.824  -5.611  1.00  0.00    -0.502 OA
ATOM     23  H   UNL     1       2.123  10.151  -4.687  1.00  0.00     0.293 HD
ENDBRANCH   2  22
BRANCH   6  24
ATOM     24  O   UNL     1       3.356   6.381  -9.391  1.00  0.00    -0.507 OA
ATOM     25  H   UNL     1       3.051   7.205  -9.887  1.00  0.00     0.293 HD
ENDBRANCH   6  24
BRANCH   8  26
ATOM     26  O   UNL     1       1.541   2.316  -7.590  1.00  0.00    -0.508 OA
ATOM     27  H   UNL     1       2.251   1.720  -7.999  1.00  0.00     0.293 HD
ENDBRANCH   8  26
TORSDOF 6
ENDMDL
MODEL 9
REMARK VINA RESULT:    -5.837      2.144      3.332
REMARK INTER + INTRA:          -7.323
REMARK INTER:                  -7.186
REMARK INTRA:                  -0.137
REMARK UNBOUND:                -0.292
REMARK SMILES O=c1c(O)c(-c2ccc(O)c(O)c2)oc2cc(O)cc(O)c12
REMARK SMILES IDX 5 1 3 2 2 3 1 4 22 5 20 6 19 7 17 8 16 9 15 10 14 11 6 12
REMARK SMILES IDX 7 13 8 14 9 15 13 16 11 17 10 18 12 20 4 22 21 24 18 26
REMARK H PARENT 10 19 12 21 4 23 21 25 18 27
REMARK Flexibility Score: inf
ROOT
ATOM      1  C   UNL     1       1.252   6.410  -7.489  1.00  0.00     0.180 A 
ATOM      2  C   UNL     1       0.746   6.985  -8.668  1.00  0.00     0.208 A 
ATOM      3  C   UNL     1      -0.321   7.894  -8.579  1.00  0.00     0.238 A 
ATOM      4  O   UNL     1      -0.804   8.364  -9.642  1.00  0.00    -0.285 OA
ATOM      5  C   UNL     1      -0.857   8.228  -7.312  1.00  0.00     0.111 A 
ATOM      6  C   UNL     1      -1.911   9.167  -7.102  1.00  0.00     0.134 A 
ATOM      7  C   UNL     1      -2.451   9.322  -5.819  1.00  0.00     0.093 A 
ATOM      8  C   UNL     1      -1.931   8.621  -4.729  1.00  0.00     0.123 A 
ATOM      9  C   UNL     1      -0.863   7.746  -4.915  1.00  0.00     0.094 A 
ATOM     10  C   UNL     1      -0.326   7.542  -6.188  1.00  0.00     0.146 A 
ATOM     11  O   UNL     1       0.684   6.693  -6.323  1.00  0.00    -0.452 OA
ENDROOT
BRANCH   1  12
ATOM     12  C   UNL     1       2.391   5.463  -7.500  1.00  0.00     0.025 A 
ATOM     13  C   UNL     1       3.641   5.894  -7.974  1.00  0.00     0.016 A 
ATOM     14  C   UNL     1       4.724   5.012  -8.012  1.00  0.00     0.051 A 
ATOM     15  C   UNL     1       4.573   3.686  -7.594  1.00  0.00     0.157 A 
ATOM     16  C   UNL     1       2.236   4.125  -7.100  1.00  0.00     0.062 A 
ATOM     17  C   UNL     1       3.321   3.238  -7.140  1.00  0.00     0.158 A 
BRANCH  15  18
ATOM     18  O   UNL     1       5.672   2.829  -7.642  1.00  0.00    -0.504 OA
ATOM     19  H   UNL     1       5.735   2.002  -7.061  1.00  0.00     0.293 HD
ENDBRANCH  15  18
BRANCH  17  20
ATOM     20  O   UNL     1       3.159   1.913  -6.735  1.00  0.00    -0.504 OA
ATOM     21  H   UNL     1       2.703   1.229  -7.327  1.00  0.00     0.293 HD
ENDBRANCH  17  20
ENDBRANCH   1  12
BRANCH   2  22
ATOM     22  O   UNL     1       1.278   6.625  -9.910  1.00  0.00    -0.502 OA
ATOM     23  H   UNL     1       0.912   6.986 -10.782  1.00  0.00     0.293 HD
ENDBRANCH   2  22
BRANCH   6  24
ATOM     24  O   UNL     1      -2.440   9.985  -8.104  1.00  0.00    -0.507 OA
ATOM     25  H   UNL     1      -2.023  10.122  -9.012  1.00  0.00     0.293 HD
ENDBRANCH   6  24
BRANCH   8  26
ATOM     26  O   UNL     1      -2.464   8.792  -3.453  1.00  0.00    -0.508 OA
ATOM     27  H   UNL     1      -2.336   9.654  -2.936  1.00  0.00     0.293 HD
ENDBRANCH   8  26
TORSDOF 6
ENDMDL
