MODEL 1
REMARK VINA RESULT:    -3.059      0.000      0.000
REMARK INTER + INTRA:          -3.468
REMARK INTER:                  -3.417
REMARK INTRA:                  -0.051
REMARK UNBOUND:                -0.051
REMARK SMILES CCCC(=O)[O-]
REMARK SMILES IDX 3 1 4 2 5 3 6 4 2 5 1 6
REMARK H PARENT
REMARK Flexibility Score: inf
ROOT
ATOM      1  C   UNL     1     140.147 135.437 130.085  1.00  0.00     0.052 C 
ENDROOT
BRANCH   1   2
ATOM      2  C   UNL     1     140.460 134.461 131.176  1.00  0.00     0.041 C 
ATOM      3  O   UNL     1     141.168 134.812 132.156  1.00  0.00    -0.550 OA
ATOM      4  O   UNL     1     139.930 133.178 131.133  1.00  0.00    -0.550 OA
ENDBRANCH   1   2
BRANCH   1   5
ATOM      5  C   UNL     1     139.502 136.699 130.665  1.00  0.00     0.003 C 
ATOM      6  C   UNL     1     137.986 136.553 130.752  1.00  0.00     0.004 C 
ENDBRANCH   1   5
TORSDOF 2
ENDMDL
MODEL 2
REMARK VINA RESULT:    -3.020      2.742      3.479
REMARK INTER + INTRA:          -3.424
REMARK INTER:                  -3.386
REMARK INTRA:                  -0.038
REMARK UNBOUND:                -0.051
REMARK SMILES CCCC(=O)[O-]
REMARK SMILES IDX 3 1 4 2 5 3 6 4 2 5 1 6
REMARK H PARENT
REMARK Flexibility Score: inf
ROOT
ATOM      1  C   UNL     1     139.308 136.886 131.000  1.00  0.00     0.052 C 
ENDROOT
BRANCH   1   2
ATOM      2  C   UNL     1     137.858 137.006 130.649  1.00  0.00     0.041 C 
ATOM      3  O   UNL     1     137.368 138.128 130.356  1.00  0.00    -0.550 OA
ATOM      4  O   UNL     1     137.060 135.871 130.598  1.00  0.00    -0.550 OA
ENDBRANCH   1   2
BRANCH   1   5
ATOM      5  C   UNL     1     139.984 135.823 130.129  1.00  0.00     0.003 C 
ATOM      6  C   UNL     1     140.425 134.626 130.964  1.00  0.00     0.004 C 
ENDBRANCH   1   5
TORSDOF 2
ENDMDL
MODEL 3
REMARK VINA RESULT:    -2.976      1.728      2.445
REMARK INTER + INTRA:          -3.376
REMARK INTER:                  -3.364
REMARK INTRA:                  -0.012
REMARK UNBOUND:                -0.051
REMARK SMILES CCCC(=O)[O-]
REMARK SMILES IDX 3 1 4 2 5 3 6 4 2 5 1 6
REMARK H PARENT
REMARK Flexibility Score: inf
ROOT
ATOM      1  C   UNL     1     139.038 137.260 130.497  1.00  0.00     0.052 C 
ENDROOT
BRANCH   1   2
ATOM      2  C   UNL     1     139.572 135.891 130.213  1.00  0.00     0.041 C 
ATOM      3  O   UNL     1     139.241 135.288 129.159  1.00  0.00    -0.550 OA
ATOM      4  O   UNL     1     140.473 135.301 131.090  1.00  0.00    -0.550 OA
ENDBRANCH   1   2
BRANCH   1   5
ATOM      5  C   UNL     1     137.516 137.219 130.660  1.00  0.00     0.003 C 
ATOM      6  C   UNL     1     136.892 138.577 130.354  1.00  0.00     0.004 C 
ENDBRANCH   1   5
TORSDOF 2
ENDMDL
MODEL 4
REMARK VINA RESULT:    -2.950      1.970      2.400
REMARK INTER + INTRA:          -3.346
REMARK INTER:                  -3.308
REMARK INTRA:                  -0.039
REMARK UNBOUND:                -0.051
REMARK SMILES CCCC(=O)[O-]
REMARK SMILES IDX 3 1 4 2 5 3 6 4 2 5 1 6
REMARK H PARENT
REMARK Flexibility Score: inf
ROOT
ATOM      1  C   UNL     1     140.051 133.980 130.937  1.00  0.00     0.052 C 
ENDROOT
BRANCH   1   2
ATOM      2  C   UNL     1     139.292 132.988 130.113  1.00  0.00     0.041 C 
ATOM      3  O   UNL     1     138.248 133.338 129.503  1.00  0.00    -0.550 OA
ATOM      4  O   UNL     1     139.766 131.690 129.978  1.00  0.00    -0.550 OA
ENDBRANCH   1   2
BRANCH   1   5
ATOM      5  C   UNL     1     140.332 135.248 130.126  1.00  0.00     0.003 C 
ATOM      6  C   UNL     1     139.609 136.453 130.720  1.00  0.00     0.004 C 
ENDBRANCH   1   5
TORSDOF 2
ENDMDL
MODEL 5
REMARK VINA RESULT:    -2.928      2.270      2.740
REMARK INTER + INTRA:          -3.322
REMARK INTER:                  -3.250
REMARK INTRA:                  -0.072
REMARK UNBOUND:                -0.051
REMARK SMILES CCCC(=O)[O-]
REMARK SMILES IDX 3 1 4 2 5 3 6 4 2 5 1 6
REMARK H PARENT
REMARK Flexibility Score: inf
ROOT
ATOM      1  C   UNL     1     139.625 134.024 130.434  1.00  0.00     0.052 C 
ENDROOT
BRANCH   1   2
ATOM      2  C   UNL     1     138.212 134.012 129.940  1.00  0.00     0.041 C 
ATOM      3  O   UNL     1     137.971 134.120 128.710  1.00  0.00    -0.550 OA
ATOM      4  O   UNL     1     137.165 133.834 130.835  1.00  0.00    -0.550 OA
ENDBRANCH   1   2
BRANCH   1   5
ATOM      5  C   UNL     1     140.285 135.373 130.139  1.00  0.00     0.003 C 
ATOM      6  C   UNL     1     139.558 136.510 130.851  1.00  0.00     0.004 C 
ENDBRANCH   1   5
TORSDOF 2
ENDMDL
MODEL 6
REMARK VINA RESULT:    -2.891      3.581      4.556
REMARK INTER + INTRA:          -3.280
REMARK INTER:                  -3.243
REMARK INTRA:                  -0.037
REMARK UNBOUND:                -0.051
REMARK SMILES CCCC(=O)[O-]
REMARK SMILES IDX 3 1 4 2 5 3 6 4 2 5 1 6
REMARK H PARENT
REMARK Flexibility Score: inf
ROOT
ATOM      1  C   UNL     1     139.716 131.237 129.773  1.00  0.00     0.052 C 
ENDROOT
BRANCH   1   2
ATOM      2  C   UNL     1     139.230 132.338 130.662  1.00  0.00     0.041 C 
ATOM      3  O   UNL     1     138.098 132.261 131.206  1.00  0.00    -0.550 OA
ATOM      4  O   UNL     1     140.049 133.428 130.929  1.00  0.00    -0.550 OA
ENDBRANCH   1   2
BRANCH   1   5
ATOM      5  C   UNL     1     138.544 130.368 129.308  1.00  0.00     0.003 C 
ATOM      6  C   UNL     1     138.018 130.833 127.954  1.00  0.00     0.004 C 
ENDBRANCH   1   5
TORSDOF 2
ENDMDL
MODEL 7
REMARK VINA RESULT:    -2.852      3.034      3.999
REMARK INTER + INTRA:          -3.237
REMARK INTER:                  -3.199
REMARK INTRA:                  -0.038
REMARK UNBOUND:                -0.051
REMARK SMILES CCCC(=O)[O-]
REMARK SMILES IDX 3 1 4 2 5 3 6 4 2 5 1 6
REMARK H PARENT
REMARK Flexibility Score: inf
ROOT
ATOM      1  C   UNL     1     138.887 132.018 130.785  1.00  0.00     0.052 C 
ENDROOT
BRANCH   1   2
ATOM      2  C   UNL     1     139.469 133.382 130.584  1.00  0.00     0.041 C 
ATOM      3  O   UNL     1     140.347 133.819 131.373  1.00  0.00    -0.550 OA
ATOM      4  O   UNL     1     139.077 134.151 129.496  1.00  0.00    -0.550 OA
ENDBRANCH   1   2
BRANCH   1   5
ATOM      5  C   UNL     1     139.536 131.013 129.829  1.00  0.00     0.003 C 
ATOM      6  C   UNL     1     138.561 130.582 128.737  1.00  0.00     0.004 C 
ENDBRANCH   1   5
TORSDOF 2
ENDMDL
MODEL 8
REMARK VINA RESULT:    -2.848      3.411      4.233
REMARK INTER + INTRA:          -3.232
REMARK INTER:                  -3.194
REMARK INTRA:                  -0.039
REMARK UNBOUND:                -0.051
REMARK SMILES CCCC(=O)[O-]
REMARK SMILES IDX 3 1 4 2 5 3 6 4 2 5 1 6
REMARK H PARENT
REMARK Flexibility Score: inf
ROOT
ATOM      1  C   UNL     1     139.680 131.554 129.868  1.00  0.00     0.052 C 
ENDROOT
BRANCH   1   2
ATOM      2  C   UNL     1     139.235 132.709 130.708  1.00  0.00     0.041 C 
ATOM      3  O   UNL     1     140.080 133.519 131.171  1.00  0.00    -0.550 OA
ATOM      4  O   UNL     1     137.882 132.920 130.939  1.00  0.00    -0.550 OA
ENDBRANCH   1   2
BRANCH   1   5
ATOM      5  C   UNL     1     138.488 130.659 129.514  1.00  0.00     0.003 C 
ATOM      6  C   UNL     1     138.110 130.804 128.043  1.00  0.00     0.004 C 
ENDBRANCH   1   5
TORSDOF 2
ENDMDL
MODEL 9
REMARK VINA RESULT:    -2.820      5.136      5.900
REMARK INTER + INTRA:          -3.200
REMARK INTER:                  -3.140
REMARK INTRA:                  -0.061
REMARK UNBOUND:                -0.051
REMARK SMILES CCCC(=O)[O-]
REMARK SMILES IDX 3 1 4 2 5 3 6 4 2 5 1 6
REMARK H PARENT
REMARK Flexibility Score: inf
ROOT
ATOM      1  C   UNL     1     137.567 131.189 127.856  1.00  0.00     0.052 C 
ENDROOT
BRANCH   1   2
ATOM      2  C   UNL     1     136.366 131.557 128.669  1.00  0.00     0.041 C 
ATOM      3  O   UNL     1     136.005 132.759 128.759  1.00  0.00    -0.550 OA
ATOM      4  O   UNL     1     135.615 130.565 129.288  1.00  0.00    -0.550 OA
ENDBRANCH   1   2
BRANCH   1   5
ATOM      5  C   UNL     1     138.545 130.357 128.691  1.00  0.00     0.003 C 
ATOM      6  C   UNL     1     139.375 131.245 129.613  1.00  0.00     0.004 C 
ENDBRANCH   1   5
TORSDOF 2
ENDMDL
