MODEL 1
REMARK VINA RESULT:    -5.587      0.000      0.000
REMARK INTER + INTRA:         -11.044
REMARK INTER:                 -10.160
REMARK INTRA:                  -0.884
REMARK UNBOUND:                -0.884
REMARK SMILES CCCCCCCCCCCCCC[C@@H](C)C(=O)[O-]
REMARK SMILES IDX 9 1 10 2 11 3 12 4 13 5 14 6 15 7 16 8 17 9 18 10 19 11 8 12
REMARK SMILES IDX 7 13 6 14 5 15 4 16 3 17 2 18 1 19
REMARK H PARENT
REMARK Flexibility Score: inf
ROOT
ATOM      1  C   UNL     1      47.338  20.791  50.136  1.00  0.00     0.000 C 
ENDROOT
BRANCH   1   2
ATOM      2  C   UNL     1      47.040  19.717  51.198  1.00  0.00     0.000 C 
BRANCH   2   3
ATOM      3  C   UNL     1      45.626  19.103  51.137  1.00  0.00     0.000 C 
BRANCH   3   4
ATOM      4  C   UNL     1      45.380  17.917  52.086  1.00  0.00     0.000 C 
BRANCH   4   5
ATOM      5  C   UNL     1      43.885  17.627  52.304  1.00  0.00     0.001 C 
BRANCH   5   6
ATOM      6  C   UNL     1      43.198  18.662  53.217  1.00  0.00     0.009 C 
BRANCH   6   7
ATOM      7  C   UNL     1      43.614  18.607  54.707  1.00  0.00     0.032 C 
ATOM      8  C   UNL     1      44.385  19.858  55.152  1.00  0.00     0.014 C 
BRANCH   7   9
ATOM      9  C   UNL     1      42.389  18.426  55.562  1.00  0.00     0.044 C 
ATOM     10  O   UNL     1      41.243  18.678  55.101  1.00  0.00    -0.550 OA
ATOM     11  O   UNL     1      42.515  17.954  56.862  1.00  0.00    -0.550 OA
ENDBRANCH   7   9
ENDBRANCH   6   7
ENDBRANCH   5   6
ENDBRANCH   4   5
ENDBRANCH   3   4
ENDBRANCH   2   3
ENDBRANCH   1   2
BRANCH   1  12
ATOM     12  C   UNL     1      48.762  20.685  49.564  1.00  0.00     0.000 C 
BRANCH  12  13
ATOM     13  C   UNL     1      49.498  19.418  50.033  1.00  0.00    -0.000 C 
BRANCH  13  14
ATOM     14  C   UNL     1      50.842  19.728  50.717  1.00  0.00    -0.000 C 
BRANCH  14  15
ATOM     15  C   UNL     1      51.471  21.034  50.204  1.00  0.00    -0.000 C 
BRANCH  15  16
ATOM     16  C   UNL     1      53.009  20.984  50.200  1.00  0.00    -0.000 C 
BRANCH  16  17
ATOM     17  C   UNL     1      53.570  19.957  49.199  1.00  0.00    -0.000 C 
BRANCH  17  18
ATOM     18  C   UNL     1      55.054  20.153  48.840  1.00  0.00    -0.003 C 
ATOM     19  C   UNL     1      55.317  21.437  48.053  1.00  0.00     0.004 C 
ENDBRANCH  17  18
ENDBRANCH  16  17
ENDBRANCH  15  16
ENDBRANCH  14  15
ENDBRANCH  13  14
ENDBRANCH  12  13
ENDBRANCH   1  12
TORSDOF 14
ENDMDL
MODEL 2
REMARK VINA RESULT:    -5.408      5.221      7.041
REMARK INTER + INTRA:         -10.718
REMARK INTER:                  -8.913
REMARK INTRA:                  -1.805
REMARK UNBOUND:                -0.884
REMARK SMILES CCCCCCCCCCCCCC[C@@H](C)C(=O)[O-]
REMARK SMILES IDX 9 1 10 2 11 3 12 4 13 5 14 6 15 7 16 8 17 9 18 10 19 11 8 12
REMARK SMILES IDX 7 13 6 14 5 15 4 16 3 17 2 18 1 19
REMARK H PARENT
REMARK Flexibility Score: inf
ROOT
ATOM      1  C   UNL     1      48.093  21.407  51.977  1.00  0.00     0.000 C 
ENDROOT
BRANCH   1   2
ATOM      2  C   UNL     1      47.901  22.931  52.083  1.00  0.00     0.000 C 
BRANCH   2   3
ATOM      3  C   UNL     1      49.118  23.714  52.618  1.00  0.00     0.000 C 
BRANCH   3   4
ATOM      4  C   UNL     1      50.411  23.566  51.796  1.00  0.00     0.000 C 
BRANCH   4   5
ATOM      5  C   UNL     1      51.662  23.405  52.677  1.00  0.00     0.001 C 
BRANCH   5   6
ATOM      6  C   UNL     1      51.332  22.964  54.116  1.00  0.00     0.009 C 
BRANCH   6   7
ATOM      7  C   UNL     1      52.392  22.060  54.790  1.00  0.00     0.032 C 
ATOM      8  C   UNL     1      53.269  21.317  53.772  1.00  0.00     0.014 C 
BRANCH   7   9
ATOM      9  C   UNL     1      53.254  22.893  55.700  1.00  0.00     0.044 C 
ATOM     10  O   UNL     1      54.335  22.434  56.156  1.00  0.00    -0.550 OA
ATOM     11  O   UNL     1      52.872  24.190  56.021  1.00  0.00    -0.550 OA
ENDBRANCH   7   9
ENDBRANCH   6   7
ENDBRANCH   5   6
ENDBRANCH   4   5
ENDBRANCH   3   4
ENDBRANCH   2   3
ENDBRANCH   1   2
BRANCH   1  12
ATOM     12  C   UNL     1      47.694  20.850  50.599  1.00  0.00     0.000 C 
BRANCH  12  13
ATOM     13  C   UNL     1      48.905  20.619  49.679  1.00  0.00    -0.000 C 
BRANCH  13  14
ATOM     14  C   UNL     1      49.875  19.555  50.225  1.00  0.00    -0.000 C 
BRANCH  14  15
ATOM     15  C   UNL     1      51.143  20.178  50.832  1.00  0.00    -0.000 C 
BRANCH  15  16
ATOM     16  C   UNL     1      52.070  20.785  49.764  1.00  0.00    -0.000 C 
BRANCH  16  17
ATOM     17  C   UNL     1      53.557  20.726  50.162  1.00  0.00    -0.000 C 
BRANCH  17  18
ATOM     18  C   UNL     1      54.491  20.162  49.077  1.00  0.00    -0.003 C 
ATOM     19  C   UNL     1      55.013  21.230  48.118  1.00  0.00     0.004 C 
ENDBRANCH  17  18
ENDBRANCH  16  17
ENDBRANCH  15  16
ENDBRANCH  14  15
ENDBRANCH  13  14
ENDBRANCH  12  13
ENDBRANCH   1  12
TORSDOF 14
ENDMDL
MODEL 3
REMARK VINA RESULT:    -5.145      3.403      4.190
REMARK INTER + INTRA:         -10.240
REMARK INTER:                  -8.926
REMARK INTRA:                  -1.314
REMARK UNBOUND:                -0.884
REMARK SMILES CCCCCCCCCCCCCC[C@@H](C)C(=O)[O-]
REMARK SMILES IDX 9 1 10 2 11 3 12 4 13 5 14 6 15 7 16 8 17 9 18 10 19 11 8 12
REMARK SMILES IDX 7 13 6 14 5 15 4 16 3 17 2 18 1 19
REMARK H PARENT
REMARK Flexibility Score: inf
ROOT
ATOM      1  C   UNL     1      49.168  19.232  49.969  1.00  0.00     0.000 C 
ENDROOT
BRANCH   1   2
ATOM      2  C   UNL     1      48.383  20.514  49.633  1.00  0.00     0.000 C 
BRANCH   2   3
ATOM      3  C   UNL     1      47.291  20.905  50.651  1.00  0.00     0.000 C 
BRANCH   3   4
ATOM      4  C   UNL     1      47.808  21.386  52.019  1.00  0.00     0.000 C 
BRANCH   4   5
ATOM      5  C   UNL     1      48.025  22.908  52.074  1.00  0.00     0.001 C 
BRANCH   5   6
ATOM      6  C   UNL     1      48.129  23.449  53.513  1.00  0.00     0.009 C 
BRANCH   6   7
ATOM      7  C   UNL     1      48.300  22.373  54.613  1.00  0.00     0.032 C 
ATOM      8  C   UNL     1      49.550  22.601  55.474  1.00  0.00     0.014 C 
BRANCH   7   9
ATOM      9  C   UNL     1      47.073  22.349  55.484  1.00  0.00     0.044 C 
ATOM     10  O   UNL     1      46.449  23.414  55.742  1.00  0.00    -0.550 OA
ATOM     11  O   UNL     1      46.605  21.143  55.990  1.00  0.00    -0.550 OA
ENDBRANCH   7   9
ENDBRANCH   6   7
ENDBRANCH   5   6
ENDBRANCH   4   5
ENDBRANCH   3   4
ENDBRANCH   2   3
ENDBRANCH   1   2
BRANCH   1  12
ATOM     12  C   UNL     1      50.676  19.484  50.136  1.00  0.00     0.000 C 
BRANCH  12  13
ATOM     13  C   UNL     1      51.046  20.973  50.021  1.00  0.00    -0.000 C 
BRANCH  13  14
ATOM     14  C   UNL     1      51.500  21.580  51.361  1.00  0.00    -0.000 C 
BRANCH  14  15
ATOM     15  C   UNL     1      53.030  21.578  51.514  1.00  0.00    -0.000 C 
BRANCH  15  16
ATOM     16  C   UNL     1      53.758  21.552  50.159  1.00  0.00    -0.000 C 
BRANCH  16  17
ATOM     17  C   UNL     1      54.292  20.154  49.795  1.00  0.00    -0.000 C 
BRANCH  17  18
ATOM     18  C   UNL     1      55.110  20.097  48.493  1.00  0.00    -0.003 C 
ATOM     19  C   UNL     1      55.328  21.470  47.860  1.00  0.00     0.004 C 
ENDBRANCH  17  18
ENDBRANCH  16  17
ENDBRANCH  15  16
ENDBRANCH  14  15
ENDBRANCH  13  14
ENDBRANCH  12  13
ENDBRANCH   1  12
TORSDOF 14
ENDMDL
MODEL 4
REMARK VINA RESULT:    -5.124      4.519      6.433
REMARK INTER + INTRA:         -10.202
REMARK INTER:                  -8.146
REMARK INTRA:                  -2.056
REMARK UNBOUND:                -0.884
REMARK SMILES CCCCCCCCCCCCCC[C@@H](C)C(=O)[O-]
REMARK SMILES IDX 9 1 10 2 11 3 12 4 13 5 14 6 15 7 16 8 17 9 18 10 19 11 8 12
REMARK SMILES IDX 7 13 6 14 5 15 4 16 3 17 2 18 1 19
REMARK H PARENT
REMARK Flexibility Score: inf
ROOT
ATOM      1  C   UNL     1      53.639  21.338  54.614  1.00  0.00     0.000 C 
ENDROOT
BRANCH   1   2
ATOM      2  C   UNL     1      53.804  22.578  55.513  1.00  0.00     0.000 C 
BRANCH   2   3
ATOM      3  C   UNL     1      52.588  23.527  55.557  1.00  0.00     0.000 C 
BRANCH   3   4
ATOM      4  C   UNL     1      52.447  24.475  54.352  1.00  0.00     0.000 C 
BRANCH   4   5
ATOM      5  C   UNL     1      51.081  24.354  53.655  1.00  0.00     0.001 C 
BRANCH   5   6
ATOM      6  C   UNL     1      49.981  23.798  54.580  1.00  0.00     0.009 C 
BRANCH   6   7
ATOM      7  C   UNL     1      48.601  23.586  53.913  1.00  0.00     0.032 C 
ATOM      8  C   UNL     1      48.715  23.143  52.447  1.00  0.00     0.014 C 
BRANCH   7   9
ATOM      9  C   UNL     1      47.817  22.568  54.697  1.00  0.00     0.044 C 
ATOM     10  O   UNL     1      46.606  22.772  54.980  1.00  0.00    -0.550 OA
ATOM     11  O   UNL     1      48.421  21.381  55.092  1.00  0.00    -0.550 OA
ENDBRANCH   7   9
ENDBRANCH   6   7
ENDBRANCH   5   6
ENDBRANCH   4   5
ENDBRANCH   3   4
ENDBRANCH   2   3
ENDBRANCH   1   2
BRANCH   1  12
ATOM     12  C   UNL     1      52.244  20.699  54.731  1.00  0.00     0.000 C 
BRANCH  12  13
ATOM     13  C   UNL     1      51.506  20.635  53.383  1.00  0.00    -0.000 C 
BRANCH  13  14
ATOM     14  C   UNL     1      52.323  21.237  52.226  1.00  0.00    -0.000 C 
BRANCH  14  15
ATOM     15  C   UNL     1      51.541  21.246  50.901  1.00  0.00    -0.000 C 
BRANCH  15  16
ATOM     16  C   UNL     1      52.333  20.611  49.745  1.00  0.00    -0.000 C 
BRANCH  16  17
ATOM     17  C   UNL     1      53.858  20.712  49.942  1.00  0.00    -0.000 C 
BRANCH  17  18
ATOM     18  C   UNL     1      54.693  20.236  48.740  1.00  0.00    -0.003 C 
ATOM     19  C   UNL     1      55.348  21.382  47.971  1.00  0.00     0.004 C 
ENDBRANCH  17  18
ENDBRANCH  16  17
ENDBRANCH  15  16
ENDBRANCH  14  15
ENDBRANCH  13  14
ENDBRANCH  12  13
ENDBRANCH   1  12
TORSDOF 14
ENDMDL
MODEL 5
REMARK VINA RESULT:    -5.113      5.611      7.579
REMARK INTER + INTRA:         -10.181
REMARK INTER:                  -8.039
REMARK INTRA:                  -2.142
REMARK UNBOUND:                -0.884
REMARK SMILES CCCCCCCCCCCCCC[C@@H](C)C(=O)[O-]
REMARK SMILES IDX 9 1 10 2 11 3 12 4 13 5 14 6 15 7 16 8 17 9 18 10 19 11 8 12
REMARK SMILES IDX 7 13 6 14 5 15 4 16 3 17 2 18 1 19
REMARK H PARENT
REMARK Flexibility Score: inf
ROOT
ATOM      1  C   UNL     1      53.853  21.361  54.276  1.00  0.00     0.000 C 
ENDROOT
BRANCH   1   2
ATOM      2  C   UNL     1      54.382  22.483  55.188  1.00  0.00     0.000 C 
BRANCH   2   3
ATOM      3  C   UNL     1      54.675  23.823  54.482  1.00  0.00     0.000 C 
BRANCH   3   4
ATOM      4  C   UNL     1      54.256  23.895  53.003  1.00  0.00     0.000 C 
BRANCH   4   5
ATOM      5  C   UNL     1      53.056  24.830  52.767  1.00  0.00     0.001 C 
BRANCH   5   6
ATOM      6  C   UNL     1      51.920  24.619  53.787  1.00  0.00     0.009 C 
BRANCH   6   7
ATOM      7  C   UNL     1      50.488  24.706  53.207  1.00  0.00     0.032 C 
ATOM      8  C   UNL     1      50.446  24.451  51.694  1.00  0.00     0.014 C 
BRANCH   7   9
ATOM      9  C   UNL     1      49.599  23.721  53.919  1.00  0.00     0.044 C 
ATOM     10  O   UNL     1      48.794  23.000  53.272  1.00  0.00    -0.550 OA
ATOM     11  O   UNL     1      49.683  23.585  55.300  1.00  0.00    -0.550 OA
ENDBRANCH   7   9
ENDBRANCH   6   7
ENDBRANCH   5   6
ENDBRANCH   4   5
ENDBRANCH   3   4
ENDBRANCH   2   3
ENDBRANCH   1   2
BRANCH   1  12
ATOM     12  C   UNL     1      52.546  20.738  54.795  1.00  0.00     0.000 C 
BRANCH  12  13
ATOM     13  C   UNL     1      51.462  20.640  53.708  1.00  0.00    -0.000 C 
BRANCH  13  14
ATOM     14  C   UNL     1      51.934  21.177  52.345  1.00  0.00    -0.000 C 
BRANCH  14  15
ATOM     15  C   UNL     1      51.120  20.598  51.175  1.00  0.00    -0.000 C 
BRANCH  15  16
ATOM     16  C   UNL     1      51.911  20.591  49.855  1.00  0.00    -0.000 C 
BRANCH  16  17
ATOM     17  C   UNL     1      53.403  20.918  50.051  1.00  0.00    -0.000 C 
BRANCH  17  18
ATOM     18  C   UNL     1      54.348  20.240  49.043  1.00  0.00    -0.003 C 
ATOM     19  C   UNL     1      55.123  21.235  48.182  1.00  0.00     0.004 C 
ENDBRANCH  17  18
ENDBRANCH  16  17
ENDBRANCH  15  16
ENDBRANCH  14  15
ENDBRANCH  13  14
ENDBRANCH  12  13
ENDBRANCH   1  12
TORSDOF 14
ENDMDL
MODEL 6
REMARK VINA RESULT:    -5.112      1.955      2.644
REMARK INTER + INTRA:         -10.180
REMARK INTER:                  -9.393
REMARK INTRA:                  -0.787
REMARK UNBOUND:                -0.884
REMARK SMILES CCCCCCCCCCCCCC[C@@H](C)C(=O)[O-]
REMARK SMILES IDX 9 1 10 2 11 3 12 4 13 5 14 6 15 7 16 8 17 9 18 10 19 11 8 12
REMARK SMILES IDX 7 13 6 14 5 15 4 16 3 17 2 18 1 19
REMARK H PARENT
REMARK Flexibility Score: inf
ROOT
ATOM      1  C   UNL     1      48.064  22.567  51.876  1.00  0.00     0.000 C 
ENDROOT
BRANCH   1   2
ATOM      2  C   UNL     1      48.347  22.843  53.364  1.00  0.00     0.000 C 
BRANCH   2   3
ATOM      3  C   UNL     1      47.889  21.737  54.338  1.00  0.00     0.000 C 
BRANCH   3   4
ATOM      4  C   UNL     1      46.555  22.004  55.059  1.00  0.00     0.000 C 
BRANCH   4   5
ATOM      5  C   UNL     1      45.953  20.736  55.688  1.00  0.00     0.001 C 
BRANCH   5   6
ATOM      6  C   UNL     1      44.956  20.018  54.758  1.00  0.00     0.009 C 
BRANCH   6   7
ATOM      7  C   UNL     1      43.620  19.599  55.418  1.00  0.00     0.032 C 
ATOM      8  C   UNL     1      42.471  20.565  55.094  1.00  0.00     0.014 C 
BRANCH   7   9
ATOM      9  C   UNL     1      43.260  18.206  54.979  1.00  0.00     0.044 C 
ATOM     10  O   UNL     1      43.459  17.838  53.790  1.00  0.00    -0.550 OA
ATOM     11  O   UNL     1      42.727  17.306  55.894  1.00  0.00    -0.550 OA
ENDBRANCH   7   9
ENDBRANCH   6   7
ENDBRANCH   5   6
ENDBRANCH   4   5
ENDBRANCH   3   4
ENDBRANCH   2   3
ENDBRANCH   1   2
BRANCH   1  12
ATOM     12  C   UNL     1      47.756  21.087  51.591  1.00  0.00     0.000 C 
BRANCH  12  13
ATOM     13  C   UNL     1      48.731  20.461  50.580  1.00  0.00    -0.000 C 
BRANCH  13  14
ATOM     14  C   UNL     1      50.162  21.015  50.710  1.00  0.00    -0.000 C 
BRANCH  14  15
ATOM     15  C   UNL     1      51.193  20.147  49.969  1.00  0.00    -0.000 C 
BRANCH  15  16
ATOM     16  C   UNL     1      52.389  20.965  49.452  1.00  0.00    -0.000 C 
BRANCH  16  17
ATOM     17  C   UNL     1      53.734  20.483  50.027  1.00  0.00    -0.000 C 
BRANCH  17  18
ATOM     18  C   UNL     1      54.804  20.157  48.969  1.00  0.00    -0.003 C 
ATOM     19  C   UNL     1      55.011  21.281  47.956  1.00  0.00     0.004 C 
ENDBRANCH  17  18
ENDBRANCH  16  17
ENDBRANCH  15  16
ENDBRANCH  14  15
ENDBRANCH  13  14
ENDBRANCH  12  13
ENDBRANCH   1  12
TORSDOF 14
ENDMDL
MODEL 7
REMARK VINA RESULT:    -5.108      1.984      3.158
REMARK INTER + INTRA:         -10.174
REMARK INTER:                  -9.366
REMARK INTRA:                  -0.808
REMARK UNBOUND:                -0.884
REMARK SMILES CCCCCCCCCCCCCC[C@@H](C)C(=O)[O-]
REMARK SMILES IDX 9 1 10 2 11 3 12 4 13 5 14 6 15 7 16 8 17 9 18 10 19 11 8 12
REMARK SMILES IDX 7 13 6 14 5 15 4 16 3 17 2 18 1 19
REMARK H PARENT
REMARK Flexibility Score: inf
ROOT
ATOM      1  C   UNL     1      48.676  23.177  52.557  1.00  0.00     0.000 C 
ENDROOT
BRANCH   1   2
ATOM      2  C   UNL     1      48.057  21.787  52.320  1.00  0.00     0.000 C 
BRANCH   2   3
ATOM      3  C   UNL     1      48.160  21.257  50.874  1.00  0.00     0.000 C 
BRANCH   3   4
ATOM      4  C   UNL     1      47.396  19.950  50.595  1.00  0.00     0.000 C 
BRANCH   4   5
ATOM      5  C   UNL     1      46.276  19.683  51.616  1.00  0.00     0.001 C 
BRANCH   5   6
ATOM      6  C   UNL     1      45.866  18.199  51.684  1.00  0.00     0.009 C 
BRANCH   6   7
ATOM      7  C   UNL     1      44.360  17.920  51.462  1.00  0.00     0.032 C 
ATOM      8  C   UNL     1      44.075  16.449  51.124  1.00  0.00     0.014 C 
BRANCH   7   9
ATOM      9  C   UNL     1      43.589  18.324  52.689  1.00  0.00     0.044 C 
ATOM     10  O   UNL     1      43.953  17.935  53.831  1.00  0.00    -0.550 OA
ATOM     11  O   UNL     1      42.482  19.155  52.571  1.00  0.00    -0.550 OA
ENDBRANCH   7   9
ENDBRANCH   6   7
ENDBRANCH   5   6
ENDBRANCH   4   5
ENDBRANCH   3   4
ENDBRANCH   2   3
ENDBRANCH   1   2
BRANCH   1  12
ATOM     12  C   UNL     1      50.052  23.338  51.888  1.00  0.00     0.000 C 
BRANCH  12  13
ATOM     13  C   UNL     1      51.203  22.816  52.764  1.00  0.00    -0.000 C 
BRANCH  13  14
ATOM     14  C   UNL     1      51.572  21.354  52.455  1.00  0.00    -0.000 C 
BRANCH  14  15
ATOM     15  C   UNL     1      53.048  21.196  52.052  1.00  0.00    -0.000 C 
BRANCH  15  16
ATOM     16  C   UNL     1      53.312  21.634  50.601  1.00  0.00    -0.000 C 
BRANCH  16  17
ATOM     17  C   UNL     1      53.419  20.444  49.629  1.00  0.00    -0.000 C 
BRANCH  17  18
ATOM     18  C   UNL     1      54.822  20.223  49.036  1.00  0.00    -0.003 C 
ATOM     19  C   UNL     1      55.210  21.277  48.000  1.00  0.00     0.004 C 
ENDBRANCH  17  18
ENDBRANCH  16  17
ENDBRANCH  15  16
ENDBRANCH  14  15
ENDBRANCH  13  14
ENDBRANCH  12  13
ENDBRANCH   1  12
TORSDOF 14
ENDMDL
MODEL 8
REMARK VINA RESULT:    -5.077      3.987      5.848
REMARK INTER + INTRA:         -10.116
REMARK INTER:                  -8.241
REMARK INTRA:                  -1.875
REMARK UNBOUND:                -0.884
REMARK SMILES CCCCCCCCCCCCCC[C@@H](C)C(=O)[O-]
REMARK SMILES IDX 9 1 10 2 11 3 12 4 13 5 14 6 15 7 16 8 17 9 18 10 19 11 8 12
REMARK SMILES IDX 7 13 6 14 5 15 4 16 3 17 2 18 1 19
REMARK H PARENT
REMARK Flexibility Score: inf
ROOT
ATOM      1  C   UNL     1      51.967  23.745  54.268  1.00  0.00     0.000 C 
ENDROOT
BRANCH   1   2
ATOM      2  C   UNL     1      50.781  24.539  53.688  1.00  0.00     0.000 C 
BRANCH   2   3
ATOM      3  C   UNL     1      50.275  24.056  52.313  1.00  0.00     0.000 C 
BRANCH   3   4
ATOM      4  C   UNL     1      48.745  23.961  52.170  1.00  0.00     0.000 C 
BRANCH   4   5
ATOM      5  C   UNL     1      48.210  22.540  52.417  1.00  0.00     0.001 C 
BRANCH   5   6
ATOM      6  C   UNL     1      49.190  21.440  51.961  1.00  0.00     0.009 C 
BRANCH   6   7
ATOM      7  C   UNL     1      48.892  20.824  50.573  1.00  0.00     0.032 C 
ATOM      8  C   UNL     1      49.802  19.630  50.249  1.00  0.00     0.014 C 
BRANCH   7   9
ATOM      9  C   UNL     1      47.449  20.402  50.513  1.00  0.00     0.044 C 
ATOM     10  O   UNL     1      47.023  19.467  51.243  1.00  0.00    -0.550 OA
ATOM     11  O   UNL     1      46.568  21.063  49.666  1.00  0.00    -0.550 OA
ENDBRANCH   7   9
ENDBRANCH   6   7
ENDBRANCH   5   6
ENDBRANCH   4   5
ENDBRANCH   3   4
ENDBRANCH   2   3
ENDBRANCH   1   2
BRANCH   1  12
ATOM     12  C   UNL     1      51.548  22.379  54.838  1.00  0.00     0.000 C 
BRANCH  12  13
ATOM     13  C   UNL     1      52.501  21.245  54.423  1.00  0.00    -0.000 C 
BRANCH  13  14
ATOM     14  C   UNL     1      53.308  21.579  53.155  1.00  0.00    -0.000 C 
BRANCH  14  15
ATOM     15  C   UNL     1      52.652  21.020  51.881  1.00  0.00    -0.000 C 
BRANCH  15  16
ATOM     16  C   UNL     1      53.372  21.475  50.600  1.00  0.00    -0.000 C 
BRANCH  16  17
ATOM     17  C   UNL     1      53.445  20.368  49.531  1.00  0.00    -0.000 C 
BRANCH  17  18
ATOM     18  C   UNL     1      54.837  20.170  48.905  1.00  0.00    -0.003 C 
ATOM     19  C   UNL     1      55.275  21.344  48.031  1.00  0.00     0.004 C 
ENDBRANCH  17  18
ENDBRANCH  16  17
ENDBRANCH  15  16
ENDBRANCH  14  15
ENDBRANCH  13  14
ENDBRANCH  12  13
ENDBRANCH   1  12
TORSDOF 14
ENDMDL
MODEL 9
REMARK VINA RESULT:    -5.073      4.756      6.634
REMARK INTER + INTRA:         -10.109
REMARK INTER:                  -8.393
REMARK INTRA:                  -1.717
REMARK UNBOUND:                -0.884
REMARK SMILES CCCCCCCCCCCCCC[C@@H](C)C(=O)[O-]
REMARK SMILES IDX 9 1 10 2 11 3 12 4 13 5 14 6 15 7 16 8 17 9 18 10 19 11 8 12
REMARK SMILES IDX 7 13 6 14 5 15 4 16 3 17 2 18 1 19
REMARK H PARENT
REMARK Flexibility Score: inf
ROOT
ATOM      1  C   UNL     1      48.057  22.789  52.500  1.00  0.00     0.000 C 
ENDROOT
BRANCH   1   2
ATOM      2  C   UNL     1      47.749  21.961  53.761  1.00  0.00     0.000 C 
BRANCH   2   3
ATOM      3  C   UNL     1      47.884  22.719  55.098  1.00  0.00     0.000 C 
BRANCH   3   4
ATOM      4  C   UNL     1      49.251  22.593  55.793  1.00  0.00     0.000 C 
BRANCH   4   5
ATOM      5  C   UNL     1      50.176  23.790  55.512  1.00  0.00     0.001 C 
BRANCH   5   6
ATOM      6  C   UNL     1      51.611  23.366  55.139  1.00  0.00     0.009 C 
BRANCH   6   7
ATOM      7  C   UNL     1      51.727  22.449  53.898  1.00  0.00     0.032 C 
ATOM      8  C   UNL     1      52.470  23.120  52.734  1.00  0.00     0.014 C 
BRANCH   7   9
ATOM      9  C   UNL     1      52.423  21.171  54.284  1.00  0.00     0.044 C 
ATOM     10  O   UNL     1      53.680  21.094  54.259  1.00  0.00    -0.550 OA
ATOM     11  O   UNL     1      51.678  20.074  54.697  1.00  0.00    -0.550 OA
ENDBRANCH   7   9
ENDBRANCH   6   7
ENDBRANCH   5   6
ENDBRANCH   4   5
ENDBRANCH   3   4
ENDBRANCH   2   3
ENDBRANCH   1   2
BRANCH   1  12
ATOM     12  C   UNL     1      49.063  22.098  51.564  1.00  0.00     0.000 C 
BRANCH  12  13
ATOM     13  C   UNL     1      48.424  20.976  50.729  1.00  0.00    -0.000 C 
BRANCH  13  14
ATOM     14  C   UNL     1      49.465  20.032  50.100  1.00  0.00    -0.000 C 
BRANCH  14  15
ATOM     15  C   UNL     1      50.873  20.246  50.682  1.00  0.00    -0.000 C 
BRANCH  15  16
ATOM     16  C   UNL     1      51.859  20.809  49.644  1.00  0.00    -0.000 C 
BRANCH  16  17
ATOM     17  C   UNL     1      53.326  20.719  50.106  1.00  0.00    -0.000 C 
BRANCH  17  18
ATOM     18  C   UNL     1      54.291  20.120  49.067  1.00  0.00    -0.003 C 
ATOM     19  C   UNL     1      55.106  21.177  48.324  1.00  0.00     0.004 C 
ENDBRANCH  17  18
ENDBRANCH  16  17
ENDBRANCH  15  16
ENDBRANCH  14  15
ENDBRANCH  13  14
ENDBRANCH  12  13
ENDBRANCH   1  12
TORSDOF 14
ENDMDL
