MODEL 1
REMARK VINA RESULT:    -4.553      0.000      0.000
REMARK INTER + INTRA:         -13.354
REMARK INTER:                  -9.877
REMARK INTRA:                  -3.477
REMARK UNBOUND:                -3.477
REMARK SMILES CCCCCCCCCCCCCCCCCCCCCC(=O)[O-]
REMARK SMILES IDX 12 1 11 2 10 3 9 4 8 5 7 6 6 7 5 8 4 9 3 10 2 11 1 12 13 13
REMARK SMILES IDX 14 14 15 15 16 16 17 17 18 18 19 19 20 20 21 21 22 22 23 23
REMARK SMILES IDX 24 24
REMARK H PARENT
REMARK Flexibility Score: inf
ROOT
ATOM      1  C   UNL     1       3.734  52.657   1.502  1.00  0.00     0.000 C 
ENDROOT
BRANCH   1   2
ATOM      2  C   UNL     1       5.125  53.305   1.433  1.00  0.00     0.000 C 
BRANCH   2   3
ATOM      3  C   UNL     1       6.232  52.255   1.585  1.00  0.00     0.000 C 
BRANCH   3   4
ATOM      4  C   UNL     1       7.516  52.701   0.870  1.00  0.00    -0.000 C 
BRANCH   4   5
ATOM      5  C   UNL     1       8.793  52.267   1.620  1.00  0.00    -0.000 C 
BRANCH   5   6
ATOM      6  C   UNL     1       9.776  51.457   0.754  1.00  0.00    -0.000 C 
BRANCH   6   7
ATOM      7  C   UNL     1       9.548  51.573  -0.764  1.00  0.00    -0.000 C 
BRANCH   7   8
ATOM      8  C   UNL     1      10.730  52.164  -1.560  1.00  0.00    -0.000 C 
BRANCH   8   9
ATOM      9  C   UNL     1      11.246  53.523  -1.053  1.00  0.00    -0.000 C 
BRANCH   9  10
ATOM     10  C   UNL     1      10.162  54.610  -1.047  1.00  0.00    -0.000 C 
BRANCH  10  11
ATOM     11  C   UNL     1      10.504  55.719  -0.044  1.00  0.00    -0.003 C 
ATOM     12  C   UNL     1      11.200  55.152   1.190  1.00  0.00     0.004 C 
ENDBRANCH  10  11
ENDBRANCH   9  10
ENDBRANCH   8   9
ENDBRANCH   7   8
ENDBRANCH   6   7
ENDBRANCH   5   6
ENDBRANCH   4   5
ENDBRANCH   3   4
ENDBRANCH   2   3
ENDBRANCH   1   2
BRANCH   1  13
ATOM     13  C   UNL     1       3.805  51.116   1.421  1.00  0.00     0.000 C 
BRANCH  13  14
ATOM     14  C   UNL     1       2.593  50.477   0.721  1.00  0.00     0.000 C 
BRANCH  14  15
ATOM     15  C   UNL     1       2.004  51.371  -0.383  1.00  0.00     0.000 C 
BRANCH  15  16
ATOM     16  C   UNL     1       2.268  50.832  -1.801  1.00  0.00     0.000 C 
BRANCH  16  17
ATOM     17  C   UNL     1       2.880  51.844  -2.788  1.00  0.00     0.000 C 
BRANCH  17  18
ATOM     18  C   UNL     1       3.986  52.706  -2.158  1.00  0.00     0.000 C 
BRANCH  18  19
ATOM     19  C   UNL     1       5.296  51.928  -1.957  1.00  0.00     0.000 C 
BRANCH  19  20
ATOM     20  C   UNL     1       6.394  52.351  -2.948  1.00  0.00     0.006 C 
BRANCH  20  21
ATOM     21  C   UNL     1       6.908  53.770  -2.673  1.00  0.00     0.053 C 
BRANCH  21  22
ATOM     22  C   UNL     1       6.743  54.665  -3.862  1.00  0.00     0.041 C 
ATOM     23  O   UNL     1       7.402  55.736  -3.945  1.00  0.00    -0.550 OA
ATOM     24  O   UNL     1       5.837  54.335  -4.862  1.00  0.00    -0.550 OA
ENDBRANCH  21  22
ENDBRANCH  20  21
ENDBRANCH  19  20
ENDBRANCH  18  19
ENDBRANCH  17  18
ENDBRANCH  16  17
ENDBRANCH  15  16
ENDBRANCH  14  15
ENDBRANCH  13  14
ENDBRANCH   1  13
TORSDOF 20
ENDMDL
MODEL 2
REMARK VINA RESULT:    -4.487      1.820      2.396
REMARK INTER + INTRA:         -13.211
REMARK INTER:                 -10.236
REMARK INTRA:                  -2.975
REMARK UNBOUND:                -3.477
REMARK SMILES CCCCCCCCCCCCCCCCCCCCCC(=O)[O-]
REMARK SMILES IDX 12 1 11 2 10 3 9 4 8 5 7 6 6 7 5 8 4 9 3 10 2 11 1 12 13 13
REMARK SMILES IDX 14 14 15 15 16 16 17 17 18 18 19 19 20 20 21 21 22 22 23 23
REMARK SMILES IDX 24 24
REMARK H PARENT
REMARK Flexibility Score: inf
ROOT
ATOM      1  C   UNL     1       2.905  50.977   0.327  1.00  0.00     0.000 C 
ENDROOT
BRANCH   1   2
ATOM      2  C   UNL     1       4.090  51.247   1.266  1.00  0.00     0.000 C 
BRANCH   2   3
ATOM      3  C   UNL     1       5.187  52.048   0.555  1.00  0.00     0.000 C 
BRANCH   3   4
ATOM      4  C   UNL     1       6.287  52.471   1.540  1.00  0.00    -0.000 C 
BRANCH   4   5
ATOM      5  C   UNL     1       7.666  52.612   0.862  1.00  0.00    -0.000 C 
BRANCH   5   6
ATOM      6  C   UNL     1       7.637  52.368  -0.659  1.00  0.00    -0.000 C 
BRANCH   6   7
ATOM      7  C   UNL     1       8.922  51.749  -1.240  1.00  0.00    -0.000 C 
BRANCH   7   8
ATOM      8  C   UNL     1      10.062  51.532  -0.224  1.00  0.00    -0.000 C 
BRANCH   8   9
ATOM      9  C   UNL     1      11.426  52.115  -0.639  1.00  0.00    -0.000 C 
BRANCH   9  10
ATOM     10  C   UNL     1      11.305  53.459  -1.370  1.00  0.00    -0.000 C 
BRANCH  10  11
ATOM     11  C   UNL     1      11.076  54.605  -0.377  1.00  0.00    -0.003 C 
ATOM     12  C   UNL     1       9.812  55.388  -0.721  1.00  0.00     0.004 C 
ENDBRANCH  10  11
ENDBRANCH   9  10
ENDBRANCH   8   9
ENDBRANCH   7   8
ENDBRANCH   6   7
ENDBRANCH   5   6
ENDBRANCH   4   5
ENDBRANCH   3   4
ENDBRANCH   2   3
ENDBRANCH   1   2
BRANCH   1  13
ATOM     13  C   UNL     1       2.315  52.280  -0.254  1.00  0.00     0.000 C 
BRANCH  13  14
ATOM     14  C   UNL     1       1.875  52.157  -1.724  1.00  0.00     0.000 C 
BRANCH  14  15
ATOM     15  C   UNL     1       2.560  50.990  -2.454  1.00  0.00     0.000 C 
BRANCH  15  16
ATOM     16  C   UNL     1       2.415  51.069  -3.985  1.00  0.00     0.000 C 
BRANCH  16  17
ATOM     17  C   UNL     1       3.622  51.667  -4.732  1.00  0.00     0.000 C 
BRANCH  17  18
ATOM     18  C   UNL     1       4.919  51.627  -3.908  1.00  0.00     0.000 C 
BRANCH  18  19
ATOM     19  C   UNL     1       5.585  53.008  -3.789  1.00  0.00     0.000 C 
BRANCH  19  20
ATOM     20  C   UNL     1       5.036  53.829  -2.609  1.00  0.00     0.006 C 
BRANCH  20  21
ATOM     21  C   UNL     1       4.101  54.954  -3.071  1.00  0.00     0.053 C 
BRANCH  21  22
ATOM     22  C   UNL     1       4.165  56.142  -2.162  1.00  0.00     0.041 C 
ATOM     23  O   UNL     1       5.237  56.793  -2.045  1.00  0.00    -0.550 OA
ATOM     24  O   UNL     1       3.052  56.510  -1.417  1.00  0.00    -0.550 OA
ENDBRANCH  21  22
ENDBRANCH  20  21
ENDBRANCH  19  20
ENDBRANCH  18  19
ENDBRANCH  17  18
ENDBRANCH  16  17
ENDBRANCH  15  16
ENDBRANCH  14  15
ENDBRANCH  13  14
ENDBRANCH   1  13
TORSDOF 20
ENDMDL
MODEL 3
REMARK VINA RESULT:    -4.473      2.305      3.106
REMARK INTER + INTRA:         -13.179
REMARK INTER:                  -9.740
REMARK INTRA:                  -3.438
REMARK UNBOUND:                -3.477
REMARK SMILES CCCCCCCCCCCCCCCCCCCCCC(=O)[O-]
REMARK SMILES IDX 12 1 11 2 10 3 9 4 8 5 7 6 6 7 5 8 4 9 3 10 2 11 1 12 13 13
REMARK SMILES IDX 14 14 15 15 16 16 17 17 18 18 19 19 20 20 21 21 22 22 23 23
REMARK SMILES IDX 24 24
REMARK H PARENT
REMARK Flexibility Score: inf
ROOT
ATOM      1  C   UNL     1       4.466  51.220   1.548  1.00  0.00     0.000 C 
ENDROOT
BRANCH   1   2
ATOM      2  C   UNL     1       5.488  52.138   0.860  1.00  0.00     0.000 C 
BRANCH   2   3
ATOM      3  C   UNL     1       6.479  52.718   1.875  1.00  0.00     0.000 C 
BRANCH   3   4
ATOM      4  C   UNL     1       6.874  54.155   1.500  1.00  0.00    -0.000 C 
BRANCH   4   5
ATOM      5  C   UNL     1       8.190  54.216   0.694  1.00  0.00    -0.000 C 
BRANCH   5   6
ATOM      6  C   UNL     1       8.025  54.814  -0.716  1.00  0.00    -0.000 C 
BRANCH   6   7
ATOM      7  C   UNL     1       8.376  53.857  -1.870  1.00  0.00    -0.000 C 
BRANCH   7   8
ATOM      8  C   UNL     1       8.100  52.365  -1.591  1.00  0.00    -0.000 C 
BRANCH   8   9
ATOM      9  C   UNL     1       9.342  51.526  -1.237  1.00  0.00    -0.000 C 
BRANCH   9  10
ATOM     10  C   UNL     1      10.660  52.255  -1.529  1.00  0.00    -0.000 C 
BRANCH  10  11
ATOM     11  C   UNL     1      11.492  52.416  -0.251  1.00  0.00    -0.003 C 
ATOM     12  C   UNL     1      10.848  51.683   0.922  1.00  0.00     0.004 C 
ENDBRANCH  10  11
ENDBRANCH   9  10
ENDBRANCH   8   9
ENDBRANCH   7   8
ENDBRANCH   6   7
ENDBRANCH   5   6
ENDBRANCH   4   5
ENDBRANCH   3   4
ENDBRANCH   2   3
ENDBRANCH   1   2
BRANCH   1  13
ATOM     13  C   UNL     1       3.015  51.552   1.138  1.00  0.00     0.000 C 
BRANCH  13  14
ATOM     14  C   UNL     1       2.456  50.630   0.041  1.00  0.00     0.000 C 
BRANCH  14  15
ATOM     15  C   UNL     1       1.888  51.407  -1.157  1.00  0.00     0.000 C 
BRANCH  15  16
ATOM     16  C   UNL     1       2.249  50.774  -2.513  1.00  0.00     0.000 C 
BRANCH  16  17
ATOM     17  C   UNL     1       3.288  51.548  -3.347  1.00  0.00     0.000 C 
BRANCH  17  18
ATOM     18  C   UNL     1       4.320  52.292  -2.482  1.00  0.00     0.000 C 
BRANCH  18  19
ATOM     19  C   UNL     1       4.407  53.787  -2.825  1.00  0.00     0.000 C 
BRANCH  19  20
ATOM     20  C   UNL     1       4.558  54.672  -1.576  1.00  0.00     0.006 C 
BRANCH  20  21
ATOM     21  C   UNL     1       3.246  54.794  -0.789  1.00  0.00     0.053 C 
BRANCH  21  22
ATOM     22  C   UNL     1       3.213  56.030   0.055  1.00  0.00     0.041 C 
ATOM     23  O   UNL     1       2.190  56.766   0.060  1.00  0.00    -0.550 OA
ATOM     24  O   UNL     1       4.323  56.390   0.808  1.00  0.00    -0.550 OA
ENDBRANCH  21  22
ENDBRANCH  20  21
ENDBRANCH  19  20
ENDBRANCH  18  19
ENDBRANCH  17  18
ENDBRANCH  16  17
ENDBRANCH  15  16
ENDBRANCH  14  15
ENDBRANCH  13  14
ENDBRANCH   1  13
TORSDOF 20
ENDMDL
MODEL 4
REMARK VINA RESULT:    -4.458      2.300      2.944
REMARK INTER + INTRA:         -13.146
REMARK INTER:                  -9.798
REMARK INTRA:                  -3.348
REMARK UNBOUND:                -3.477
REMARK SMILES CCCCCCCCCCCCCCCCCCCCCC(=O)[O-]
REMARK SMILES IDX 12 1 11 2 10 3 9 4 8 5 7 6 6 7 5 8 4 9 3 10 2 11 1 12 13 13
REMARK SMILES IDX 14 14 15 15 16 16 17 17 18 18 19 19 20 20 21 21 22 22 23 23
REMARK SMILES IDX 24 24
REMARK H PARENT
REMARK Flexibility Score: inf
ROOT
ATOM      1  C   UNL     1       5.183  51.880   0.746  1.00  0.00     0.000 C 
ENDROOT
BRANCH   1   2
ATOM      2  C   UNL     1       6.345  52.353   1.632  1.00  0.00     0.000 C 
BRANCH   2   3
ATOM      3  C   UNL     1       7.563  52.738   0.785  1.00  0.00     0.000 C 
BRANCH   3   4
ATOM      4  C   UNL     1       7.248  52.631  -0.714  1.00  0.00    -0.000 C 
BRANCH   4   5
ATOM      5  C   UNL     1       8.459  52.150  -1.541  1.00  0.00    -0.000 C 
BRANCH   5   6
ATOM      6  C   UNL     1       9.568  51.496  -0.694  1.00  0.00    -0.000 C 
BRANCH   6   7
ATOM      7  C   UNL     1      10.930  52.211  -0.749  1.00  0.00    -0.000 C 
BRANCH   7   8
ATOM      8  C   UNL     1      10.875  53.698  -1.157  1.00  0.00    -0.000 C 
BRANCH   8   9
ATOM      9  C   UNL     1      11.210  54.696  -0.033  1.00  0.00    -0.000 C 
BRANCH   9  10
ATOM     10  C   UNL     1      10.418  56.007  -0.141  1.00  0.00    -0.000 C 
BRANCH  10  11
ATOM     11  C   UNL     1       9.316  55.895  -1.202  1.00  0.00    -0.003 C 
ATOM     12  C   UNL     1       7.950  56.243  -0.617  1.00  0.00     0.004 C 
ENDBRANCH  10  11
ENDBRANCH   9  10
ENDBRANCH   8   9
ENDBRANCH   7   8
ENDBRANCH   6   7
ENDBRANCH   5   6
ENDBRANCH   4   5
ENDBRANCH   3   4
ENDBRANCH   2   3
ENDBRANCH   1   2
BRANCH   1  13
ATOM     13  C   UNL     1       3.863  51.748   1.537  1.00  0.00     0.000 C 
BRANCH  13  14
ATOM     14  C   UNL     1       2.950  50.618   1.033  1.00  0.00     0.000 C 
BRANCH  14  15
ATOM     15  C   UNL     1       1.875  51.114   0.051  1.00  0.00     0.000 C 
BRANCH  15  16
ATOM     16  C   UNL     1       2.214  50.810  -1.419  1.00  0.00     0.000 C 
BRANCH  16  17
ATOM     17  C   UNL     1       3.063  51.877  -2.136  1.00  0.00     0.000 C 
BRANCH  17  18
ATOM     18  C   UNL     1       2.743  53.309  -1.675  1.00  0.00     0.000 C 
BRANCH  18  19
ATOM     19  C   UNL     1       3.590  54.365  -2.404  1.00  0.00     0.000 C 
BRANCH  19  20
ATOM     20  C   UNL     1       4.573  55.085  -1.464  1.00  0.00     0.006 C 
BRANCH  20  21
ATOM     21  C   UNL     1       3.994  55.276  -0.056  1.00  0.00     0.053 C 
BRANCH  21  22
ATOM     22  C   UNL     1       3.774  56.722   0.266  1.00  0.00     0.041 C 
ATOM     23  O   UNL     1       2.650  57.253   0.060  1.00  0.00    -0.550 OA
ATOM     24  O   UNL     1       4.818  57.493   0.761  1.00  0.00    -0.550 OA
ENDBRANCH  21  22
ENDBRANCH  20  21
ENDBRANCH  19  20
ENDBRANCH  18  19
ENDBRANCH  17  18
ENDBRANCH  16  17
ENDBRANCH  15  16
ENDBRANCH  14  15
ENDBRANCH  13  14
ENDBRANCH   1  13
TORSDOF 20
ENDMDL
MODEL 5
REMARK VINA RESULT:    -4.417      2.296      5.040
REMARK INTER + INTRA:         -13.059
REMARK INTER:                 -10.118
REMARK INTRA:                  -2.941
REMARK UNBOUND:                -3.477
REMARK SMILES CCCCCCCCCCCCCCCCCCCCCC(=O)[O-]
REMARK SMILES IDX 12 1 11 2 10 3 9 4 8 5 7 6 6 7 5 8 4 9 3 10 2 11 1 12 13 13
REMARK SMILES IDX 14 14 15 15 16 16 17 17 18 18 19 19 20 20 21 21 22 22 23 23
REMARK SMILES IDX 24 24
REMARK H PARENT
REMARK Flexibility Score: inf
ROOT
ATOM      1  C   UNL     1       2.527  50.404  -1.071  1.00  0.00     0.000 C 
ENDROOT
BRANCH   1   2
ATOM      2  C   UNL     1       1.923  50.604   0.328  1.00  0.00     0.000 C 
BRANCH   2   3
ATOM      3  C   UNL     1       3.019  50.825   1.376  1.00  0.00     0.000 C 
BRANCH   3   4
ATOM      4  C   UNL     1       3.945  51.982   0.970  1.00  0.00    -0.000 C 
BRANCH   4   5
ATOM      5  C   UNL     1       5.349  51.866   1.600  1.00  0.00    -0.000 C 
BRANCH   5   6
ATOM      6  C   UNL     1       6.193  53.149   1.472  1.00  0.00    -0.000 C 
BRANCH   6   7
ATOM      7  C   UNL     1       5.611  54.381   2.188  1.00  0.00    -0.000 C 
BRANCH   7   8
ATOM      8  C   UNL     1       5.602  55.679   1.355  1.00  0.00    -0.000 C 
BRANCH   8   9
ATOM      9  C   UNL     1       4.986  55.549  -0.051  1.00  0.00    -0.000 C 
BRANCH   9  10
ATOM     10  C   UNL     1       3.474  55.812  -0.070  1.00  0.00    -0.000 C 
BRANCH  10  11
ATOM     11  C   UNL     1       2.729  54.674  -0.775  1.00  0.00    -0.003 C 
ATOM     12  C   UNL     1       2.629  54.927  -2.277  1.00  0.00     0.004 C 
ENDBRANCH  10  11
ENDBRANCH   9  10
ENDBRANCH   8   9
ENDBRANCH   7   8
ENDBRANCH   6   7
ENDBRANCH   5   6
ENDBRANCH   4   5
ENDBRANCH   3   4
ENDBRANCH   2   3
ENDBRANCH   1   2
BRANCH   1  13
ATOM     13  C   UNL     1       1.893  51.344  -2.119  1.00  0.00     0.000 C 
BRANCH  13  14
ATOM     14  C   UNL     1       2.057  50.854  -3.568  1.00  0.00     0.000 C 
BRANCH  14  15
ATOM     15  C   UNL     1       3.018  51.732  -4.387  1.00  0.00     0.000 C 
BRANCH  15  16
ATOM     16  C   UNL     1       4.500  51.434  -4.100  1.00  0.00     0.000 C 
BRANCH  16  17
ATOM     17  C   UNL     1       5.289  52.581  -3.441  1.00  0.00     0.000 C 
BRANCH  17  18
ATOM     18  C   UNL     1       6.099  52.128  -2.216  1.00  0.00     0.000 C 
BRANCH  18  19
ATOM     19  C   UNL     1       7.407  52.918  -2.050  1.00  0.00     0.000 C 
BRANCH  19  20
ATOM     20  C   UNL     1       8.278  52.385  -0.899  1.00  0.00     0.006 C 
BRANCH  20  21
ATOM     21  C   UNL     1       9.549  51.691  -1.406  1.00  0.00     0.053 C 
BRANCH  21  22
ATOM     22  C   UNL     1      10.756  52.566  -1.268  1.00  0.00     0.041 C 
ATOM     23  O   UNL     1      10.627  53.778  -0.949  1.00  0.00    -0.550 OA
ATOM     24  O   UNL     1      12.021  52.054  -1.526  1.00  0.00    -0.550 OA
ENDBRANCH  21  22
ENDBRANCH  20  21
ENDBRANCH  19  20
ENDBRANCH  18  19
ENDBRANCH  17  18
ENDBRANCH  16  17
ENDBRANCH  15  16
ENDBRANCH  14  15
ENDBRANCH  13  14
ENDBRANCH   1  13
TORSDOF 20
ENDMDL
MODEL 6
REMARK VINA RESULT:    -4.417      2.312      4.037
REMARK INTER + INTRA:         -13.058
REMARK INTER:                  -9.632
REMARK INTRA:                  -3.426
REMARK UNBOUND:                -3.477
REMARK SMILES CCCCCCCCCCCCCCCCCCCCCC(=O)[O-]
REMARK SMILES IDX 12 1 11 2 10 3 9 4 8 5 7 6 6 7 5 8 4 9 3 10 2 11 1 12 13 13
REMARK SMILES IDX 14 14 15 15 16 16 17 17 18 18 19 19 20 20 21 21 22 22 23 23
REMARK SMILES IDX 24 24
REMARK H PARENT
REMARK Flexibility Score: inf
ROOT
ATOM      1  C   UNL     1       3.734  51.420  -3.807  1.00  0.00     0.000 C 
ENDROOT
BRANCH   1   2
ATOM      2  C   UNL     1       4.101  52.827  -3.311  1.00  0.00     0.000 C 
BRANCH   2   3
ATOM      3  C   UNL     1       5.620  53.032  -3.306  1.00  0.00     0.000 C 
BRANCH   3   4
ATOM      4  C   UNL     1       6.321  51.931  -2.497  1.00  0.00    -0.000 C 
BRANCH   4   5
ATOM      5  C   UNL     1       7.411  52.489  -1.558  1.00  0.00    -0.000 C 
BRANCH   5   6
ATOM      6  C   UNL     1       8.667  51.601  -1.469  1.00  0.00    -0.000 C 
BRANCH   6   7
ATOM      7  C   UNL     1      10.003  52.367  -1.471  1.00  0.00    -0.000 C 
BRANCH   7   8
ATOM      8  C   UNL     1      10.889  52.142  -0.228  1.00  0.00    -0.000 C 
BRANCH   8   9
ATOM      9  C   UNL     1      10.172  51.511   0.980  1.00  0.00    -0.000 C 
BRANCH   9  10
ATOM     10  C   UNL     1       9.812  52.536   2.064  1.00  0.00    -0.000 C 
BRANCH  10  11
ATOM     11  C   UNL     1       8.314  52.861   2.035  1.00  0.00    -0.003 C 
ATOM     12  C   UNL     1       7.519  51.881   2.894  1.00  0.00     0.004 C 
ENDBRANCH  10  11
ENDBRANCH   9  10
ENDBRANCH   8   9
ENDBRANCH   7   8
ENDBRANCH   6   7
ENDBRANCH   5   6
ENDBRANCH   4   5
ENDBRANCH   3   4
ENDBRANCH   2   3
ENDBRANCH   1   2
BRANCH   1  13
ATOM     13  C   UNL     1       2.389  50.931  -3.228  1.00  0.00     0.000 C 
BRANCH  13  14
ATOM     14  C   UNL     1       2.075  51.496  -1.832  1.00  0.00     0.000 C 
BRANCH  14  15
ATOM     15  C   UNL     1       2.401  50.505  -0.702  1.00  0.00     0.000 C 
BRANCH  15  16
ATOM     16  C   UNL     1       2.776  51.199   0.620  1.00  0.00     0.000 C 
BRANCH  16  17
ATOM     17  C   UNL     1       4.278  51.473   0.818  1.00  0.00     0.000 C 
BRANCH  17  18
ATOM     18  C   UNL     1       4.627  52.970   0.781  1.00  0.00     0.000 C 
BRANCH  18  19
ATOM     19  C   UNL     1       3.379  53.864   0.698  1.00  0.00     0.000 C 
BRANCH  19  20
ATOM     20  C   UNL     1       3.516  54.974  -0.359  1.00  0.00     0.006 C 
BRANCH  20  21
ATOM     21  C   UNL     1       4.947  55.519  -0.445  1.00  0.00     0.053 C 
BRANCH  21  22
ATOM     22  C   UNL     1       5.174  56.644   0.517  1.00  0.00     0.041 C 
ATOM     23  O   UNL     1       6.057  56.545   1.411  1.00  0.00    -0.550 OA
ATOM     24  O   UNL     1       4.390  57.789   0.448  1.00  0.00    -0.550 OA
ENDBRANCH  21  22
ENDBRANCH  20  21
ENDBRANCH  19  20
ENDBRANCH  18  19
ENDBRANCH  17  18
ENDBRANCH  16  17
ENDBRANCH  15  16
ENDBRANCH  14  15
ENDBRANCH  13  14
ENDBRANCH   1  13
TORSDOF 20
ENDMDL
MODEL 7
REMARK VINA RESULT:    -4.360      2.869      5.710
REMARK INTER + INTRA:         -12.935
REMARK INTER:                  -9.327
REMARK INTRA:                  -3.608
REMARK UNBOUND:                -3.477
REMARK SMILES CCCCCCCCCCCCCCCCCCCCCC(=O)[O-]
REMARK SMILES IDX 12 1 11 2 10 3 9 4 8 5 7 6 6 7 5 8 4 9 3 10 2 11 1 12 13 13
REMARK SMILES IDX 14 14 15 15 16 16 17 17 18 18 19 19 20 20 21 21 22 22 23 23
REMARK SMILES IDX 24 24
REMARK H PARENT
REMARK Flexibility Score: inf
ROOT
ATOM      1  C   UNL     1       2.616  51.333  -1.942  1.00  0.00     0.000 C 
ENDROOT
BRANCH   1   2
ATOM      2  C   UNL     1       2.155  51.659  -0.513  1.00  0.00     0.000 C 
BRANCH   2   3
ATOM      3  C   UNL     1       2.831  50.739   0.509  1.00  0.00     0.000 C 
BRANCH   3   4
ATOM      4  C   UNL     1       3.742  51.538   1.453  1.00  0.00    -0.000 C 
BRANCH   4   5
ATOM      5  C   UNL     1       5.109  51.867   0.817  1.00  0.00    -0.000 C 
BRANCH   5   6
ATOM      6  C   UNL     1       6.199  52.229   1.844  1.00  0.00    -0.000 C 
BRANCH   6   7
ATOM      7  C   UNL     1       6.753  53.660   1.724  1.00  0.00    -0.000 C 
BRANCH   7   8
ATOM      8  C   UNL     1       5.693  54.779   1.773  1.00  0.00    -0.000 C 
BRANCH   8   9
ATOM      9  C   UNL     1       5.625  55.671   0.519  1.00  0.00    -0.000 C 
BRANCH   9  10
ATOM     10  C   UNL     1       4.461  55.307  -0.412  1.00  0.00    -0.000 C 
BRANCH  10  11
ATOM     11  C   UNL     1       3.161  55.125   0.381  1.00  0.00    -0.003 C 
ATOM     12  C   UNL     1       1.941  55.215  -0.531  1.00  0.00     0.004 C 
ENDBRANCH  10  11
ENDBRANCH   9  10
ENDBRANCH   8   9
ENDBRANCH   7   8
ENDBRANCH   6   7
ENDBRANCH   5   6
ENDBRANCH   4   5
ENDBRANCH   3   4
ENDBRANCH   2   3
ENDBRANCH   1   2
BRANCH   1  13
ATOM     13  C   UNL     1       3.548  52.422  -2.516  1.00  0.00     0.000 C 
BRANCH  13  14
ATOM     14  C   UNL     1       4.642  51.871  -3.447  1.00  0.00     0.000 C 
BRANCH  14  15
ATOM     15  C   UNL     1       6.039  51.898  -2.804  1.00  0.00     0.000 C 
BRANCH  15  16
ATOM     16  C   UNL     1       6.592  53.323  -2.623  1.00  0.00     0.000 C 
BRANCH  16  17
ATOM     17  C   UNL     1       7.886  53.428  -1.794  1.00  0.00     0.000 C 
BRANCH  17  18
ATOM     18  C   UNL     1       8.360  52.073  -1.244  1.00  0.00     0.000 C 
BRANCH  18  19
ATOM     19  C   UNL     1       9.861  51.835  -1.476  1.00  0.00     0.000 C 
BRANCH  19  20
ATOM     20  C   UNL     1      10.741  52.882  -0.773  1.00  0.00     0.006 C 
BRANCH  20  21
ATOM     21  C   UNL     1      10.381  53.041   0.710  1.00  0.00     0.053 C 
BRANCH  21  22
ATOM     22  C   UNL     1      11.253  52.200   1.590  1.00  0.00     0.041 C 
ATOM     23  O   UNL     1      12.390  52.616   1.939  1.00  0.00    -0.550 OA
ATOM     24  O   UNL     1      10.826  50.942   1.997  1.00  0.00    -0.550 OA
ENDBRANCH  21  22
ENDBRANCH  20  21
ENDBRANCH  19  20
ENDBRANCH  18  19
ENDBRANCH  17  18
ENDBRANCH  16  17
ENDBRANCH  15  16
ENDBRANCH  14  15
ENDBRANCH  13  14
ENDBRANCH   1  13
TORSDOF 20
ENDMDL
MODEL 8
REMARK VINA RESULT:    -4.350      2.472      4.530
REMARK INTER + INTRA:         -12.913
REMARK INTER:                  -9.695
REMARK INTRA:                  -3.218
REMARK UNBOUND:                -3.477
REMARK SMILES CCCCCCCCCCCCCCCCCCCCCC(=O)[O-]
REMARK SMILES IDX 12 1 11 2 10 3 9 4 8 5 7 6 6 7 5 8 4 9 3 10 2 11 1 12 13 13
REMARK SMILES IDX 14 14 15 15 16 16 17 17 18 18 19 19 20 20 21 21 22 22 23 23
REMARK SMILES IDX 24 24
REMARK H PARENT
REMARK Flexibility Score: inf
ROOT
ATOM      1  C   UNL     1       1.935  51.385  -0.434  1.00  0.00     0.000 C 
ENDROOT
BRANCH   1   2
ATOM      2  C   UNL     1       2.242  50.948  -1.875  1.00  0.00     0.000 C 
BRANCH   2   3
ATOM      3  C   UNL     1       2.943  52.067  -2.653  1.00  0.00     0.000 C 
BRANCH   3   4
ATOM      4  C   UNL     1       3.675  51.508  -3.883  1.00  0.00    -0.000 C 
BRANCH   4   5
ATOM      5  C   UNL     1       5.209  51.613  -3.757  1.00  0.00    -0.000 C 
BRANCH   5   6
ATOM      6  C   UNL     1       5.735  53.060  -3.780  1.00  0.00    -0.000 C 
BRANCH   6   7
ATOM      7  C   UNL     1       6.864  53.355  -2.776  1.00  0.00    -0.000 C 
BRANCH   7   8
ATOM      8  C   UNL     1       7.223  52.188  -1.832  1.00  0.00    -0.000 C 
BRANCH   8   9
ATOM      9  C   UNL     1       7.876  52.602  -0.501  1.00  0.00    -0.000 C 
BRANCH   9  10
ATOM     10  C   UNL     1       9.241  51.938  -0.272  1.00  0.00    -0.000 C 
BRANCH  10  11
ATOM     11  C   UNL     1      10.030  51.840  -1.583  1.00  0.00    -0.003 C 
ATOM     12  C   UNL     1      11.377  52.549  -1.471  1.00  0.00     0.004 C 
ENDBRANCH  10  11
ENDBRANCH   9  10
ENDBRANCH   8   9
ENDBRANCH   7   8
ENDBRANCH   6   7
ENDBRANCH   5   6
ENDBRANCH   4   5
ENDBRANCH   3   4
ENDBRANCH   2   3
ENDBRANCH   1   2
BRANCH   1  13
ATOM     13  C   UNL     1       2.527  50.412   0.608  1.00  0.00     0.000 C 
BRANCH  13  14
ATOM     14  C   UNL     1       3.614  51.043   1.495  1.00  0.00     0.000 C 
BRANCH  14  15
ATOM     15  C   UNL     1       4.362  52.189   0.795  1.00  0.00     0.000 C 
BRANCH  15  16
ATOM     16  C   UNL     1       4.166  53.549   1.489  1.00  0.00     0.000 C 
BRANCH  16  17
ATOM     17  C   UNL     1       3.649  54.683   0.584  1.00  0.00     0.000 C 
BRANCH  17  18
ATOM     18  C   UNL     1       4.434  54.806  -0.733  1.00  0.00     0.000 C 
BRANCH  18  19
ATOM     19  C   UNL     1       4.591  56.265  -1.191  1.00  0.00     0.000 C 
BRANCH  19  20
ATOM     20  C   UNL     1       5.708  57.005  -0.435  1.00  0.00     0.006 C 
BRANCH  20  21
ATOM     21  C   UNL     1       6.981  56.159  -0.307  1.00  0.00     0.053 C 
BRANCH  21  22
ATOM     22  C   UNL     1       7.401  55.993   1.121  1.00  0.00     0.041 C 
ATOM     23  O   UNL     1       8.583  55.654   1.398  1.00  0.00    -0.550 OA
ATOM     24  O   UNL     1       6.481  56.179   2.144  1.00  0.00    -0.550 OA
ENDBRANCH  21  22
ENDBRANCH  20  21
ENDBRANCH  19  20
ENDBRANCH  18  19
ENDBRANCH  17  18
ENDBRANCH  16  17
ENDBRANCH  15  16
ENDBRANCH  14  15
ENDBRANCH  13  14
ENDBRANCH   1  13
TORSDOF 20
ENDMDL
MODEL 9
REMARK VINA RESULT:    -4.291      2.351      4.467
REMARK INTER + INTRA:         -12.786
REMARK INTER:                  -9.877
REMARK INTRA:                  -2.909
REMARK UNBOUND:                -3.477
REMARK SMILES CCCCCCCCCCCCCCCCCCCCCC(=O)[O-]
REMARK SMILES IDX 12 1 11 2 10 3 9 4 8 5 7 6 6 7 5 8 4 9 3 10 2 11 1 12 13 13
REMARK SMILES IDX 14 14 15 15 16 16 17 17 18 18 19 19 20 20 21 21 22 22 23 23
REMARK SMILES IDX 24 24
REMARK H PARENT
REMARK Flexibility Score: inf
ROOT
ATOM      1  C   UNL     1       2.268  50.747  -1.838  1.00  0.00     0.000 C 
ENDROOT
BRANCH   1   2
ATOM      2  C   UNL     1       2.054  52.266  -1.931  1.00  0.00     0.000 C 
BRANCH   2   3
ATOM      3  C   UNL     1       2.967  52.888  -2.993  1.00  0.00     0.000 C 
BRANCH   3   4
ATOM      4  C   UNL     1       3.458  51.826  -3.988  1.00  0.00    -0.000 C 
BRANCH   4   5
ATOM      5  C   UNL     1       4.991  51.845  -4.167  1.00  0.00    -0.000 C 
BRANCH   5   6
ATOM      6  C   UNL     1       5.730  52.660  -3.088  1.00  0.00    -0.000 C 
BRANCH   6   7
ATOM      7  C   UNL     1       6.764  51.864  -2.271  1.00  0.00    -0.000 C 
BRANCH   7   8
ATOM      8  C   UNL     1       7.946  52.692  -1.725  1.00  0.00    -0.000 C 
BRANCH   8   9
ATOM      9  C   UNL     1       8.999  51.888  -0.940  1.00  0.00    -0.000 C 
BRANCH   9  10
ATOM     10  C   UNL     1      10.395  51.950  -1.575  1.00  0.00    -0.000 C 
BRANCH  10  11
ATOM     11  C   UNL     1      11.156  53.194  -1.103  1.00  0.00    -0.003 C 
ATOM     12  C   UNL     1      11.342  53.186   0.412  1.00  0.00     0.004 C 
ENDBRANCH  10  11
ENDBRANCH   9  10
ENDBRANCH   8   9
ENDBRANCH   7   8
ENDBRANCH   6   7
ENDBRANCH   5   6
ENDBRANCH   4   5
ENDBRANCH   3   4
ENDBRANCH   2   3
ENDBRANCH   1   2
BRANCH   1  13
ATOM     13  C   UNL     1       2.288  50.250  -0.377  1.00  0.00     0.000 C 
BRANCH  13  14
ATOM     14  C   UNL     1       2.530  51.368   0.653  1.00  0.00     0.000 C 
BRANCH  14  15
ATOM     15  C   UNL     1       3.842  51.185   1.432  1.00  0.00     0.000 C 
BRANCH  15  16
ATOM     16  C   UNL     1       5.056  51.818   0.727  1.00  0.00     0.000 C 
BRANCH  16  17
ATOM     17  C   UNL     1       5.665  53.043   1.434  1.00  0.00     0.000 C 
BRANCH  17  18
ATOM     18  C   UNL     1       4.724  54.259   1.451  1.00  0.00     0.000 C 
BRANCH  18  19
ATOM     19  C   UNL     1       4.265  54.667   0.042  1.00  0.00     0.000 C 
BRANCH  19  20
ATOM     20  C   UNL     1       2.820  55.195   0.021  1.00  0.00     0.006 C 
BRANCH  20  21
ATOM     21  C   UNL     1       2.764  56.728  -0.025  1.00  0.00     0.053 C 
BRANCH  21  22
ATOM     22  C   UNL     1       2.681  57.242  -1.429  1.00  0.00     0.041 C 
ATOM     23  O   UNL     1       2.163  56.534  -2.333  1.00  0.00    -0.550 OA
ATOM     24  O   UNL     1       3.205  58.488  -1.746  1.00  0.00    -0.550 OA
ENDBRANCH  21  22
ENDBRANCH  20  21
ENDBRANCH  19  20
ENDBRANCH  18  19
ENDBRANCH  17  18
ENDBRANCH  16  17
ENDBRANCH  15  16
ENDBRANCH  14  15
ENDBRANCH  13  14
ENDBRANCH   1  13
TORSDOF 20
ENDMDL
