MODEL 1
REMARK VINA RESULT:    -3.185      0.000      0.000
REMARK INTER + INTRA:          -3.744
REMARK INTER:                  -3.650
REMARK INTRA:                  -0.094
REMARK UNBOUND:                -0.094
REMARK SMILES C=Cc1ccc(O)c(OC)c1
REMARK SMILES IDX 8 1 6 2 5 3 4 4 3 5 11 6 9 7 10 8 7 9 2 11 1 12
REMARK H PARENT 7 10
REMARK Flexibility Score: inf
ROOT
ATOM      1  C   UNL     1     107.969 111.808 106.182  1.00  0.00     0.161 A 
ATOM      2  C   UNL     1     107.266 112.222 105.036  1.00  0.00     0.157 A 
ATOM      3  C   UNL     1     107.965 112.616 103.892  1.00  0.00     0.051 A 
ATOM      4  C   UNL     1     109.360 112.607 103.875  1.00  0.00     0.012 A 
ATOM      5  C   UNL     1     110.084 112.210 105.014  1.00  0.00    -0.022 A 
ATOM      6  C   UNL     1     109.378 111.802 106.159  1.00  0.00     0.058 A 
ENDROOT
BRANCH   1   7
ATOM      7  O   UNL     1     107.241 111.414 107.316  1.00  0.00    -0.493 OA
ATOM      8  C   UNL     1     107.003 112.240 108.452  1.00  0.00     0.278 C 
ENDBRANCH   1   7
BRANCH   2   9
ATOM      9  O   UNL     1     105.872 112.246 105.015  1.00  0.00    -0.504 OA
ATOM     10  H   UNL     1     105.324 112.511 105.825  1.00  0.00     0.293 HD
ENDBRANCH   2   9
BRANCH   5  11
ATOM     11  C   UNL     1     111.567 112.174 105.046  1.00  0.00     0.000 C 
ATOM     12  C   UNL     1     112.325 113.049 105.709  1.00  0.00     0.009 C 
ENDBRANCH   5  11
TORSDOF 3
ENDMDL
MODEL 2
REMARK VINA RESULT:    -3.151      3.799      4.508
REMARK INTER + INTRA:          -3.705
REMARK INTER:                  -3.620
REMARK INTRA:                  -0.086
REMARK UNBOUND:                -0.094
REMARK SMILES C=Cc1ccc(O)c(OC)c1
REMARK SMILES IDX 8 1 6 2 5 3 4 4 3 5 11 6 9 7 10 8 7 9 2 11 1 12
REMARK H PARENT 7 10
REMARK Flexibility Score: inf
ROOT
ATOM      1  C   UNL     1     108.118 108.014 106.201  1.00  0.00     0.161 A 
ATOM      2  C   UNL     1     107.763 107.324 105.028  1.00  0.00     0.157 A 
ATOM      3  C   UNL     1     107.420 108.034 103.875  1.00  0.00     0.051 A 
ATOM      4  C   UNL     1     107.421 109.430 103.875  1.00  0.00     0.012 A 
ATOM      5  C   UNL     1     107.760 110.142 105.041  1.00  0.00    -0.022 A 
ATOM      6  C   UNL     1     108.116 109.423 106.195  1.00  0.00     0.058 A 
ENDROOT
BRANCH   1   7
ATOM      7  O   UNL     1     108.462 107.275 107.343  1.00  0.00    -0.493 OA
ATOM      8  C   UNL     1     107.546 106.890 108.364  1.00  0.00     0.278 C 
ENDBRANCH   1   7
BRANCH   2   9
ATOM      9  O   UNL     1     107.749 105.929 104.989  1.00  0.00    -0.504 OA
ATOM     10  H   UNL     1     106.889 105.396 105.044  1.00  0.00     0.293 HD
ENDBRANCH   2   9
BRANCH   5  11
ATOM     11  C   UNL     1     107.785 111.624 105.092  1.00  0.00     0.000 C 
ATOM     12  C   UNL     1     107.165 112.354 106.021  1.00  0.00     0.009 C 
ENDBRANCH   5  11
TORSDOF 3
ENDMDL
MODEL 3
REMARK VINA RESULT:    -3.108      2.473      3.143
REMARK INTER + INTRA:          -3.656
REMARK INTER:                  -3.574
REMARK INTRA:                  -0.083
REMARK UNBOUND:                -0.094
REMARK SMILES C=Cc1ccc(O)c(OC)c1
REMARK SMILES IDX 8 1 6 2 5 3 4 4 3 5 11 6 9 7 10 8 7 9 2 11 1 12
REMARK H PARENT 7 10
REMARK Flexibility Score: inf
ROOT
ATOM      1  C   UNL     1     107.649 111.266 106.584  1.00  0.00     0.161 A 
ATOM      2  C   UNL     1     106.880 112.092 105.744  1.00  0.00     0.157 A 
ATOM      3  C   UNL     1     106.705 111.754 104.400  1.00  0.00     0.051 A 
ATOM      4  C   UNL     1     107.292 110.601 103.877  1.00  0.00     0.012 A 
ATOM      5  C   UNL     1     108.076 109.766 104.695  1.00  0.00    -0.022 A 
ATOM      6  C   UNL     1     108.239 110.103 106.050  1.00  0.00     0.058 A 
ENDROOT
BRANCH   1   7
ATOM      7  O   UNL     1     107.804 111.628 107.931  1.00  0.00    -0.493 OA
ATOM      8  C   UNL     1     108.847 112.462 108.430  1.00  0.00     0.278 C 
ENDBRANCH   1   7
BRANCH   2   9
ATOM      9  O   UNL     1     106.279 113.254 106.230  1.00  0.00    -0.504 OA
ATOM     10  H   UNL     1     106.143 113.417 107.221  1.00  0.00     0.293 HD
ENDBRANCH   2   9
BRANCH   5  11
ATOM     11  C   UNL     1     108.714 108.525 104.191  1.00  0.00     0.000 C 
ATOM     12  C   UNL     1     108.071 107.370 104.012  1.00  0.00     0.009 C 
ENDBRANCH   5  11
TORSDOF 3
ENDMDL
MODEL 4
REMARK VINA RESULT:    -3.100      5.278      6.465
REMARK INTER + INTRA:          -3.647
REMARK INTER:                  -3.554
REMARK INTRA:                  -0.093
REMARK UNBOUND:                -0.094
REMARK SMILES C=Cc1ccc(O)c(OC)c1
REMARK SMILES IDX 8 1 6 2 5 3 4 4 3 5 11 6 9 7 10 8 7 9 2 11 1 12
REMARK H PARENT 7 10
REMARK Flexibility Score: inf
ROOT
ATOM      1  C   UNL     1     112.146 108.099 106.243  1.00  0.00     0.161 A 
ATOM      2  C   UNL     1     112.715 107.846 104.981  1.00  0.00     0.157 A 
ATOM      3  C   UNL     1     111.892 107.624 103.875  1.00  0.00     0.051 A 
ATOM      4  C   UNL     1     110.503 107.645 104.009  1.00  0.00     0.012 A 
ATOM      5  C   UNL     1     109.911 107.882 105.263  1.00  0.00    -0.022 A 
ATOM      6  C   UNL     1     110.743 108.118 106.372  1.00  0.00     0.058 A 
ENDROOT
BRANCH   1   7
ATOM      7  O   UNL     1     112.997 108.324 107.336  1.00  0.00    -0.493 OA
ATOM      8  C   UNL     1     113.240 107.383 108.378  1.00  0.00     0.278 C 
ENDBRANCH   1   7
BRANCH   2   9
ATOM      9  O   UNL     1     114.099 107.815 104.808  1.00  0.00    -0.504 OA
ATOM     10  H   UNL     1     114.597 106.960 104.589  1.00  0.00     0.293 HD
ENDBRANCH   2   9
BRANCH   5  11
ATOM     11  C   UNL     1     108.441 107.924 105.458  1.00  0.00     0.000 C 
ATOM     12  C   UNL     1     107.727 106.935 105.995  1.00  0.00     0.009 C 
ENDBRANCH   5  11
TORSDOF 3
ENDMDL
MODEL 5
REMARK VINA RESULT:    -3.087      4.393      4.716
REMARK INTER + INTRA:          -3.632
REMARK INTER:                  -3.539
REMARK INTRA:                  -0.093
REMARK UNBOUND:                -0.094
REMARK SMILES C=Cc1ccc(O)c(OC)c1
REMARK SMILES IDX 8 1 6 2 5 3 4 4 3 5 11 6 9 7 10 8 7 9 2 11 1 12
REMARK H PARENT 7 10
REMARK Flexibility Score: inf
ROOT
ATOM      1  C   UNL     1     108.799 107.698 106.574  1.00  0.00     0.161 A 
ATOM      2  C   UNL     1     107.930 106.968 105.743  1.00  0.00     0.157 A 
ATOM      3  C   UNL     1     108.272 106.734 104.409  1.00  0.00     0.051 A 
ATOM      4  C   UNL     1     109.471 107.222 103.887  1.00  0.00     0.012 A 
ATOM      5  C   UNL     1     110.350 107.966 104.697  1.00  0.00    -0.022 A 
ATOM      6  C   UNL     1     110.008 108.189 106.042  1.00  0.00     0.058 A 
ENDROOT
BRANCH   1   7
ATOM      7  O   UNL     1     108.432 107.914 107.911  1.00  0.00    -0.493 OA
ATOM      8  C   UNL     1     107.771 109.082 108.390  1.00  0.00     0.278 C 
ENDBRANCH   1   7
BRANCH   2   9
ATOM      9  O   UNL     1     106.722 106.466 106.227  1.00  0.00    -0.504 OA
ATOM     10  H   UNL     1     105.953 107.070 106.490  1.00  0.00     0.293 HD
ENDBRANCH   2   9
BRANCH   5  11
ATOM     11  C   UNL     1     111.640 108.499 104.195  1.00  0.00     0.000 C 
ATOM     12  C   UNL     1     112.822 107.916 104.396  1.00  0.00     0.009 C 
ENDBRANCH   5  11
TORSDOF 3
ENDMDL
MODEL 6
REMARK VINA RESULT:    -3.073      2.929      4.391
REMARK INTER + INTRA:          -3.616
REMARK INTER:                  -3.524
REMARK INTRA:                  -0.092
REMARK UNBOUND:                -0.094
REMARK SMILES C=Cc1ccc(O)c(OC)c1
REMARK SMILES IDX 8 1 6 2 5 3 4 4 3 5 11 6 9 7 10 8 7 9 2 11 1 12
REMARK H PARENT 7 10
REMARK Flexibility Score: inf
ROOT
ATOM      1  C   UNL     1     111.489 112.600 106.871  1.00  0.00     0.161 A 
ATOM      2  C   UNL     1     112.255 113.371 105.978  1.00  0.00     0.157 A 
ATOM      3  C   UNL     1     111.933 113.394 104.620  1.00  0.00     0.051 A 
ATOM      4  C   UNL     1     110.856 112.652 104.134  1.00  0.00     0.012 A 
ATOM      5  C   UNL     1     110.082 111.864 105.006  1.00  0.00    -0.022 A 
ATOM      6  C   UNL     1     110.402 111.853 106.375  1.00  0.00     0.058 A 
ENDROOT
BRANCH   1   7
ATOM      7  O   UNL     1     111.833 112.600 108.232  1.00  0.00    -0.493 OA
ATOM      8  C   UNL     1     112.653 111.618 108.859  1.00  0.00     0.278 C 
ENDBRANCH   1   7
BRANCH   2   9
ATOM      9  O   UNL     1     113.341 114.125 106.426  1.00  0.00    -0.504 OA
ATOM     10  H   UNL     1     113.671 114.082 107.383  1.00  0.00     0.293 HD
ENDBRANCH   2   9
BRANCH   5  11
ATOM     11  C   UNL     1     108.921 111.064 104.543  1.00  0.00     0.000 C 
ATOM     12  C   UNL     1     107.681 111.200 105.013  1.00  0.00     0.009 C 
ENDBRANCH   5  11
TORSDOF 3
ENDMDL
MODEL 7
REMARK VINA RESULT:    -3.065      4.359      5.644
REMARK INTER + INTRA:          -3.606
REMARK INTER:                  -3.510
REMARK INTRA:                  -0.096
REMARK UNBOUND:                -0.094
REMARK SMILES C=Cc1ccc(O)c(OC)c1
REMARK SMILES IDX 8 1 6 2 5 3 4 4 3 5 11 6 9 7 10 8 7 9 2 11 1 12
REMARK H PARENT 7 10
REMARK Flexibility Score: inf
ROOT
ATOM      1  C   UNL     1     112.596 108.839 106.605  1.00  0.00     0.161 A 
ATOM      2  C   UNL     1     113.363 108.088 105.697  1.00  0.00     0.157 A 
ATOM      3  C   UNL     1     113.375 108.427 104.342  1.00  0.00     0.051 A 
ATOM      4  C   UNL     1     112.624 109.507 103.875  1.00  0.00     0.012 A 
ATOM      5  C   UNL     1     111.839 110.265 104.763  1.00  0.00    -0.022 A 
ATOM      6  C   UNL     1     111.840 109.929 106.128  1.00  0.00     0.058 A 
ENDROOT
BRANCH   1   7
ATOM      7  O   UNL     1     112.607 108.479 107.961  1.00  0.00    -0.493 OA
ATOM      8  C   UNL     1     111.629 107.654 108.587  1.00  0.00     0.278 C 
ENDBRANCH   1   7
BRANCH   2   9
ATOM      9  O   UNL     1     114.125 107.000 106.125  1.00  0.00    -0.504 OA
ATOM     10  H   UNL     1     113.723 106.080 106.263  1.00  0.00     0.293 HD
ENDBRANCH   2   9
BRANCH   5  11
ATOM     11  C   UNL     1     111.030 111.428 104.320  1.00  0.00     0.000 C 
ATOM     12  C   UNL     1     111.497 112.674 104.224  1.00  0.00     0.009 C 
ENDBRANCH   5  11
TORSDOF 3
ENDMDL
MODEL 8
REMARK VINA RESULT:    -3.055      3.739      4.472
REMARK INTER + INTRA:          -3.596
REMARK INTER:                  -3.526
REMARK INTRA:                  -0.070
REMARK UNBOUND:                -0.094
REMARK SMILES C=Cc1ccc(O)c(OC)c1
REMARK SMILES IDX 8 1 6 2 5 3 4 4 3 5 11 6 9 7 10 8 7 9 2 11 1 12
REMARK H PARENT 7 10
REMARK Flexibility Score: inf
ROOT
ATOM      1  C   UNL     1     111.861 112.041 106.181  1.00  0.00     0.161 A 
ATOM      2  C   UNL     1     112.248 112.733 105.019  1.00  0.00     0.157 A 
ATOM      3  C   UNL     1     112.626 112.025 103.876  1.00  0.00     0.051 A 
ATOM      4  C   UNL     1     112.628 110.629 103.875  1.00  0.00     0.012 A 
ATOM      5  C   UNL     1     112.258 109.915 105.030  1.00  0.00    -0.022 A 
ATOM      6  C   UNL     1     111.866 110.632 106.174  1.00  0.00     0.058 A 
ENDROOT
BRANCH   1   7
ATOM      7  O   UNL     1     111.482 112.778 107.313  1.00  0.00    -0.493 OA
ATOM      8  C   UNL     1     111.218 112.214 108.594  1.00  0.00     0.278 C 
ENDBRANCH   1   7
BRANCH   2   9
ATOM      9  O   UNL     1     112.260 114.128 104.982  1.00  0.00    -0.504 OA
ATOM     10  H   UNL     1     111.523 114.662 104.535  1.00  0.00     0.293 HD
ENDBRANCH   2   9
BRANCH   5  11
ATOM     11  C   UNL     1     112.235 108.432 105.079  1.00  0.00     0.000 C 
ATOM     12  C   UNL     1     112.972 107.698 105.912  1.00  0.00     0.009 C 
ENDBRANCH   5  11
TORSDOF 3
ENDMDL
MODEL 9
REMARK VINA RESULT:    -3.039      8.642     10.364
REMARK INTER + INTRA:          -3.577
REMARK INTER:                  -3.485
REMARK INTRA:                  -0.092
REMARK UNBOUND:                -0.094
REMARK SMILES C=Cc1ccc(O)c(OC)c1
REMARK SMILES IDX 8 1 6 2 5 3 4 4 3 5 11 6 9 7 10 8 7 9 2 11 1 12
REMARK H PARENT 7 10
REMARK Flexibility Score: inf
ROOT
ATOM      1  C   UNL     1     117.825 116.169 108.669  1.00  0.00     0.161 A 
ATOM      2  C   UNL     1     117.864 114.789 108.397  1.00  0.00     0.157 A 
ATOM      3  C   UNL     1     116.694 114.030 108.462  1.00  0.00     0.051 A 
ATOM      4  C   UNL     1     115.478 114.627 108.799  1.00  0.00     0.012 A 
ATOM      5  C   UNL     1     115.417 116.003 109.088  1.00  0.00    -0.022 A 
ATOM      6  C   UNL     1     116.595 116.766 109.010  1.00  0.00     0.058 A 
ENDROOT
BRANCH   1   7
ATOM      7  O   UNL     1     119.015 116.908 108.592  1.00  0.00    -0.493 OA
ATOM      8  C   UNL     1     119.400 117.920 109.518  1.00  0.00     0.278 C 
ENDBRANCH   1   7
BRANCH   2   9
ATOM      9  O   UNL     1     119.060 114.156 108.058  1.00  0.00    -0.504 OA
ATOM     10  H   UNL     1     119.926 114.667 107.933  1.00  0.00     0.293 HD
ENDBRANCH   2   9
BRANCH   5  11
ATOM     11  C   UNL     1     114.150 116.689 109.443  1.00  0.00     0.000 C 
ATOM     12  C   UNL     1     113.132 116.104 110.076  1.00  0.00     0.009 C 
ENDBRANCH   5  11
TORSDOF 3
ENDMDL
