MODEL 1
REMARK VINA RESULT:    -1.469      0.000      0.000
REMARK INTER + INTRA:          -3.343
REMARK INTER:                  -2.672
REMARK INTRA:                  -0.672
REMARK UNBOUND:                -0.672
REMARK SMILES CCCCCCCCCCCCCCCC(=O)[O-]
REMARK SMILES IDX 9 1 10 2 11 3 12 4 13 5 14 6 15 7 16 8 17 9 18 10 8 11 7 12
REMARK SMILES IDX 6 13 5 14 4 15 3 16 2 17 1 18
REMARK H PARENT
REMARK Flexibility Score: inf
ROOT
ATOM      1  C   UNL     1      -8.427  50.107  -3.018  1.00  0.00     0.000 C 
ENDROOT
BRANCH   1   2
ATOM      2  C   UNL     1      -8.736  50.293  -4.508  1.00  0.00     0.000 C 
BRANCH   2   3
ATOM      3  C   UNL     1      -8.805  51.783  -4.874  1.00  0.00     0.000 C 
BRANCH   3   4
ATOM      4  C   UNL     1      -7.972  52.124  -6.120  1.00  0.00     0.000 C 
BRANCH   4   5
ATOM      5  C   UNL     1      -7.778  50.916  -7.050  1.00  0.00     0.000 C 
BRANCH   5   6
ATOM      6  C   UNL     1      -7.253  51.307  -8.444  1.00  0.00     0.006 C 
BRANCH   6   7
ATOM      7  C   UNL     1      -6.020  50.504  -8.894  1.00  0.00     0.053 C 
BRANCH   7   8
ATOM      8  C   UNL     1      -4.749  51.291  -8.799  1.00  0.00     0.041 C 
ATOM      9  O   UNL     1      -4.266  51.586  -7.673  1.00  0.00    -0.550 OA
ATOM     10  O   UNL     1      -4.079  51.673  -9.954  1.00  0.00    -0.550 OA
ENDBRANCH   7   8
ENDBRANCH   6   7
ENDBRANCH   5   6
ENDBRANCH   4   5
ENDBRANCH   3   4
ENDBRANCH   2   3
ENDBRANCH   1   2
BRANCH   1  11
ATOM     11  C   UNL     1      -7.898  51.406  -2.398  1.00  0.00     0.000 C 
BRANCH  11  12
ATOM     12  C   UNL     1      -7.837  51.300  -0.867  1.00  0.00    -0.000 C 
BRANCH  12  13
ATOM     13  C   UNL     1      -6.689  52.125  -0.263  1.00  0.00    -0.000 C 
BRANCH  13  14
ATOM     14  C   UNL     1      -5.530  51.246   0.239  1.00  0.00    -0.000 C 
BRANCH  14  15
ATOM     15  C   UNL     1      -4.199  52.011   0.312  1.00  0.00    -0.000 C 
BRANCH  15  16
ATOM     16  C   UNL     1      -3.007  51.166  -0.168  1.00  0.00    -0.000 C 
BRANCH  16  17
ATOM     17  C   UNL     1      -1.678  51.934  -0.107  1.00  0.00    -0.003 C 
ATOM     18  C   UNL     1      -0.934  51.723   1.212  1.00  0.00     0.004 C 
ENDBRANCH  16  17
ENDBRANCH  15  16
ENDBRANCH  14  15
ENDBRANCH  13  14
ENDBRANCH  12  13
ENDBRANCH  11  12
ENDBRANCH   1  11
TORSDOF 14
ENDMDL
MODEL 2
REMARK VINA RESULT:    -1.361      1.424      2.503
REMARK INTER + INTRA:          -3.146
REMARK INTER:                  -2.413
REMARK INTRA:                  -0.733
REMARK UNBOUND:                -0.672
REMARK SMILES CCCCCCCCCCCCCCCC(=O)[O-]
REMARK SMILES IDX 9 1 10 2 11 3 12 4 13 5 14 6 15 7 16 8 17 9 18 10 8 11 7 12
REMARK SMILES IDX 6 13 5 14 4 15 3 16 2 17 1 18
REMARK H PARENT
REMARK Flexibility Score: inf
ROOT
ATOM      1  C   UNL     1      -7.862  50.861  -4.989  1.00  0.00     0.000 C 
ENDROOT
BRANCH   1   2
ATOM      2  C   UNL     1      -7.727  52.121  -5.851  1.00  0.00     0.000 C 
BRANCH   2   3
ATOM      3  C   UNL     1      -8.517  51.979  -7.161  1.00  0.00     0.000 C 
BRANCH   3   4
ATOM      4  C   UNL     1      -7.653  51.449  -8.317  1.00  0.00     0.000 C 
BRANCH   4   5
ATOM      5  C   UNL     1      -6.274  52.125  -8.383  1.00  0.00     0.000 C 
BRANCH   5   6
ATOM      6  C   UNL     1      -5.190  51.224  -9.001  1.00  0.00     0.006 C 
BRANCH   6   7
ATOM      7  C   UNL     1      -3.752  51.692  -8.715  1.00  0.00     0.053 C 
BRANCH   7   8
ATOM      8  C   UNL     1      -3.192  51.108  -7.454  1.00  0.00     0.041 C 
ATOM      9  O   UNL     1      -3.656  50.033  -6.990  1.00  0.00    -0.550 OA
ATOM     10  O   UNL     1      -2.135  51.734  -6.807  1.00  0.00    -0.550 OA
ENDBRANCH   7   8
ENDBRANCH   6   7
ENDBRANCH   5   6
ENDBRANCH   4   5
ENDBRANCH   3   4
ENDBRANCH   2   3
ENDBRANCH   1   2
BRANCH   1  11
ATOM     11  C   UNL     1      -9.077  50.958  -4.057  1.00  0.00     0.000 C 
BRANCH  11  12
ATOM     12  C   UNL     1      -8.803  51.926  -2.897  1.00  0.00    -0.000 C 
BRANCH  12  13
ATOM     13  C   UNL     1      -8.512  51.196  -1.575  1.00  0.00    -0.000 C 
BRANCH  13  14
ATOM     14  C   UNL     1      -7.890  52.121  -0.514  1.00  0.00    -0.000 C 
BRANCH  14  15
ATOM     15  C   UNL     1      -6.353  52.098  -0.543  1.00  0.00    -0.000 C 
BRANCH  15  16
ATOM     16  C   UNL     1      -5.748  51.539   0.756  1.00  0.00    -0.000 C 
BRANCH  16  17
ATOM     17  C   UNL     1      -4.479  50.710   0.506  1.00  0.00    -0.003 C 
ATOM     18  C   UNL     1      -3.305  51.561   0.022  1.00  0.00     0.004 C 
ENDBRANCH  16  17
ENDBRANCH  15  16
ENDBRANCH  14  15
ENDBRANCH  13  14
ENDBRANCH  12  13
ENDBRANCH  11  12
ENDBRANCH   1  11
TORSDOF 14
ENDMDL
MODEL 3
REMARK VINA RESULT:    -0.451      2.927      7.824
REMARK INTER + INTRA:          -1.492
REMARK INTER:                  -0.937
REMARK INTRA:                  -0.555
REMARK UNBOUND:                -0.672
REMARK SMILES CCCCCCCCCCCCCCCC(=O)[O-]
REMARK SMILES IDX 9 1 10 2 11 3 12 4 13 5 14 6 15 7 16 8 17 9 18 10 8 11 7 12
REMARK SMILES IDX 6 13 5 14 4 15 3 16 2 17 1 18
REMARK H PARENT
REMARK Flexibility Score: inf
ROOT
ATOM      1  C   UNL     1      -8.510  51.169  -2.939  1.00  0.00     0.000 C 
ENDROOT
BRANCH   1   2
ATOM      2  C   UNL     1      -7.963  50.404  -1.729  1.00  0.00     0.000 C 
BRANCH   2   3
ATOM      3  C   UNL     1      -7.393  51.369  -0.679  1.00  0.00     0.000 C 
BRANCH   3   4
ATOM      4  C   UNL     1      -6.435  50.675   0.302  1.00  0.00     0.000 C 
BRANCH   4   5
ATOM      5  C   UNL     1      -5.560  51.672   1.079  1.00  0.00     0.000 C 
BRANCH   5   6
ATOM      6  C   UNL     1      -4.316  52.124   0.292  1.00  0.00     0.006 C 
BRANCH   6   7
ATOM      7  C   UNL     1      -3.338  50.983  -0.038  1.00  0.00     0.053 C 
BRANCH   7   8
ATOM      8  C   UNL     1      -1.907  51.429  -0.040  1.00  0.00     0.041 C 
ATOM      9  O   UNL     1      -1.207  51.316  -1.081  1.00  0.00    -0.550 OA
ATOM     10  O   UNL     1      -1.356  52.002   1.099  1.00  0.00    -0.550 OA
ENDBRANCH   7   8
ENDBRANCH   6   7
ENDBRANCH   5   6
ENDBRANCH   4   5
ENDBRANCH   3   4
ENDBRANCH   2   3
ENDBRANCH   1   2
BRANCH   1  11
ATOM     11  C   UNL     1      -7.699  50.856  -4.202  1.00  0.00     0.000 C 
BRANCH  11  12
ATOM     12  C   UNL     1      -8.506  51.182  -5.468  1.00  0.00    -0.000 C 
BRANCH  12  13
ATOM     13  C   UNL     1      -7.738  52.093  -6.440  1.00  0.00    -0.000 C 
BRANCH  13  14
ATOM     14  C   UNL     1      -8.272  52.005  -7.880  1.00  0.00    -0.000 C 
BRANCH  14  15
ATOM     15  C   UNL     1      -7.145  51.975  -8.925  1.00  0.00    -0.000 C 
BRANCH  15  16
ATOM     16  C   UNL     1      -5.782  51.612  -8.311  1.00  0.00    -0.000 C 
BRANCH  16  17
ATOM     17  C   UNL     1      -4.740  51.229  -9.373  1.00  0.00    -0.003 C 
ATOM     18  C   UNL     1      -3.404  51.944  -9.174  1.00  0.00     0.004 C 
ENDBRANCH  16  17
ENDBRANCH  15  16
ENDBRANCH  14  15
ENDBRANCH  13  14
ENDBRANCH  12  13
ENDBRANCH  11  12
ENDBRANCH   1  11
TORSDOF 14
ENDMDL
MODEL 4
REMARK VINA RESULT:    -0.068      3.130      7.744
REMARK INTER + INTRA:          -0.794
REMARK INTER:                   0.014
REMARK INTRA:                  -0.809
REMARK UNBOUND:                -0.672
REMARK SMILES CCCCCCCCCCCCCCCC(=O)[O-]
REMARK SMILES IDX 9 1 10 2 11 3 12 4 13 5 14 6 15 7 16 8 17 9 18 10 8 11 7 12
REMARK SMILES IDX 6 13 5 14 4 15 3 16 2 17 1 18
REMARK H PARENT
REMARK Flexibility Score: inf
ROOT
ATOM      1  C   UNL     1      -7.768  50.049  -3.222  1.00  0.00     0.000 C 
ENDROOT
BRANCH   1   2
ATOM      2  C   UNL     1      -8.839  49.804  -2.153  1.00  0.00     0.000 C 
BRANCH   2   3
ATOM      3  C   UNL     1      -8.670  50.772  -0.973  1.00  0.00     0.000 C 
BRANCH   3   4
ATOM      4  C   UNL     1      -7.273  50.688  -0.336  1.00  0.00     0.000 C 
BRANCH   4   5
ATOM      5  C   UNL     1      -6.494  52.008  -0.444  1.00  0.00     0.000 C 
BRANCH   5   6
ATOM      6  C   UNL     1      -5.231  52.037   0.437  1.00  0.00     0.006 C 
BRANCH   6   7
ATOM      7  C   UNL     1      -3.917  52.125  -0.359  1.00  0.00     0.053 C 
BRANCH   7   8
ATOM      8  C   UNL     1      -2.891  51.137   0.107  1.00  0.00     0.041 C 
ATOM      9  O   UNL     1      -2.011  51.480   0.940  1.00  0.00    -0.550 OA
ATOM     10  O   UNL     1      -2.926  49.828  -0.355  1.00  0.00    -0.550 OA
ENDBRANCH   7   8
ENDBRANCH   6   7
ENDBRANCH   5   6
ENDBRANCH   4   5
ENDBRANCH   3   4
ENDBRANCH   2   3
ENDBRANCH   1   2
BRANCH   1  11
ATOM     11  C   UNL     1      -8.402  50.491  -4.547  1.00  0.00     0.000 C 
BRANCH  11  12
ATOM     12  C   UNL     1      -8.066  51.959  -4.853  1.00  0.00    -0.000 C 
BRANCH  12  13
ATOM     13  C   UNL     1      -6.716  52.119  -5.570  1.00  0.00    -0.000 C 
BRANCH  13  14
ATOM     14  C   UNL     1      -6.857  52.125  -7.102  1.00  0.00    -0.000 C 
BRANCH  14  15
ATOM     15  C   UNL     1      -5.638  51.508  -7.807  1.00  0.00    -0.000 C 
BRANCH  15  16
ATOM     16  C   UNL     1      -5.974  50.988  -9.215  1.00  0.00    -0.000 C 
BRANCH  16  17
ATOM     17  C   UNL     1      -7.486  50.842  -9.444  1.00  0.00    -0.003 C 
ATOM     18  C   UNL     1      -7.977  49.407  -9.248  1.00  0.00     0.004 C 
ENDBRANCH  16  17
ENDBRANCH  15  16
ENDBRANCH  14  15
ENDBRANCH  13  14
ENDBRANCH  12  13
ENDBRANCH  11  12
ENDBRANCH   1  11
TORSDOF 14
ENDMDL
MODEL 5
REMARK VINA RESULT:     0.571      1.495      1.848
REMARK INTER + INTRA:           0.367
REMARK INTER:                   0.222
REMARK INTRA:                   0.145
REMARK UNBOUND:                -0.672
REMARK SMILES CCCCCCCCCCCCCCCC(=O)[O-]
REMARK SMILES IDX 9 1 10 2 11 3 12 4 13 5 14 6 15 7 16 8 17 9 18 10 8 11 7 12
REMARK SMILES IDX 6 13 5 14 4 15 3 16 2 17 1 18
REMARK H PARENT
REMARK Flexibility Score: inf
ROOT
ATOM      1  C   UNL     1      -8.363  49.494  -2.526  1.00  0.00     0.000 C 
ENDROOT
BRANCH   1   2
ATOM      2  C   UNL     1      -9.001  50.846  -2.867  1.00  0.00     0.000 C 
BRANCH   2   3
ATOM      3  C   UNL     1      -9.096  51.041  -4.388  1.00  0.00     0.000 C 
BRANCH   3   4
ATOM      4  C   UNL     1      -8.135  52.123  -4.906  1.00  0.00     0.000 C 
BRANCH   4   5
ATOM      5  C   UNL     1      -7.813  51.961  -6.400  1.00  0.00     0.000 C 
BRANCH   5   6
ATOM      6  C   UNL     1      -6.301  51.931  -6.691  1.00  0.00     0.006 C 
BRANCH   6   7
ATOM      7  C   UNL     1      -5.949  52.094  -8.180  1.00  0.00     0.053 C 
BRANCH   7   8
ATOM      8  C   UNL     1      -6.632  51.083  -9.050  1.00  0.00     0.041 C 
ATOM      9  O   UNL     1      -6.021  50.564 -10.022  1.00  0.00    -0.550 OA
ATOM     10  O   UNL     1      -7.934  50.689  -8.769  1.00  0.00    -0.550 OA
ENDBRANCH   7   8
ENDBRANCH   6   7
ENDBRANCH   5   6
ENDBRANCH   4   5
ENDBRANCH   3   4
ENDBRANCH   2   3
ENDBRANCH   1   2
BRANCH   1  11
ATOM     11  C   UNL     1      -7.905  49.455  -1.063  1.00  0.00     0.000 C 
BRANCH  11  12
ATOM     12  C   UNL     1      -6.722  50.408  -0.832  1.00  0.00    -0.000 C 
BRANCH  12  13
ATOM     13  C   UNL     1      -6.068  50.214   0.546  1.00  0.00    -0.000 C 
BRANCH  13  14
ATOM     14  C   UNL     1      -5.188  51.408   0.955  1.00  0.00    -0.000 C 
BRANCH  14  15
ATOM     15  C   UNL     1      -3.687  51.105   0.827  1.00  0.00    -0.000 C 
BRANCH  15  16
ATOM     16  C   UNL     1      -2.966  52.085  -0.114  1.00  0.00    -0.000 C 
BRANCH  16  17
ATOM     17  C   UNL     1      -1.526  51.651  -0.426  1.00  0.00    -0.003 C 
ATOM     18  C   UNL     1      -0.536  52.064   0.663  1.00  0.00     0.004 C 
ENDBRANCH  16  17
ENDBRANCH  15  16
ENDBRANCH  14  15
ENDBRANCH  13  14
ENDBRANCH  12  13
ENDBRANCH  11  12
ENDBRANCH   1  11
TORSDOF 14
ENDMDL
MODEL 6
REMARK VINA RESULT:     1.024      4.340      7.924
REMARK INTER + INTRA:           1.190
REMARK INTER:                   1.843
REMARK INTRA:                  -0.653
REMARK UNBOUND:                -0.672
REMARK SMILES CCCCCCCCCCCCCCCC(=O)[O-]
REMARK SMILES IDX 9 1 10 2 11 3 12 4 13 5 14 6 15 7 16 8 17 9 18 10 8 11 7 12
REMARK SMILES IDX 6 13 5 14 4 15 3 16 2 17 1 18
REMARK H PARENT
REMARK Flexibility Score: inf
ROOT
ATOM      1  C   UNL     1      -8.445  51.144  -3.487  1.00  0.00     0.000 C 
ENDROOT
BRANCH   1   2
ATOM      2  C   UNL     1      -8.561  49.739  -2.886  1.00  0.00     0.000 C 
BRANCH   2   3
ATOM      3  C   UNL     1      -8.495  49.789  -1.353  1.00  0.00     0.000 C 
BRANCH   3   4
ATOM      4  C   UNL     1      -7.373  48.907  -0.781  1.00  0.00     0.000 C 
BRANCH   4   5
ATOM      5  C   UNL     1      -7.720  47.410  -0.819  1.00  0.00     0.000 C 
BRANCH   5   6
ATOM      6  C   UNL     1      -6.696  46.574  -1.609  1.00  0.00     0.006 C 
BRANCH   6   7
ATOM      7  C   UNL     1      -6.765  45.065  -1.316  1.00  0.00     0.053 C 
BRANCH   7   8
ATOM      8  C   UNL     1      -6.354  44.228  -2.489  1.00  0.00     0.041 C 
ATOM      9  O   UNL     1      -6.689  44.562  -3.657  1.00  0.00    -0.550 OA
ATOM     10  O   UNL     1      -5.573  43.096  -2.297  1.00  0.00    -0.550 OA
ENDBRANCH   7   8
ENDBRANCH   6   7
ENDBRANCH   5   6
ENDBRANCH   4   5
ENDBRANCH   3   4
ENDBRANCH   2   3
ENDBRANCH   1   2
BRANCH   1  11
ATOM     11  C   UNL     1      -8.535  51.098  -5.017  1.00  0.00     0.000 C 
BRANCH  11  12
ATOM     12  C   UNL     1      -7.355  51.844  -5.660  1.00  0.00    -0.000 C 
BRANCH  12  13
ATOM     13  C   UNL     1      -7.578  52.125  -7.155  1.00  0.00    -0.000 C 
BRANCH  13  14
ATOM     14  C   UNL     1      -7.816  50.841  -7.968  1.00  0.00    -0.000 C 
BRANCH  14  15
ATOM     15  C   UNL     1      -7.566  51.042  -9.472  1.00  0.00    -0.000 C 
BRANCH  15  16
ATOM     16  C   UNL     1      -6.209  51.708  -9.759  1.00  0.00    -0.000 C 
BRANCH  16  17
ATOM     17  C   UNL     1      -5.028  50.911  -9.185  1.00  0.00    -0.003 C 
ATOM     18  C   UNL     1      -3.893  51.809  -8.694  1.00  0.00     0.004 C 
ENDBRANCH  16  17
ENDBRANCH  15  16
ENDBRANCH  14  15
ENDBRANCH  13  14
ENDBRANCH  12  13
ENDBRANCH  11  12
ENDBRANCH   1  11
TORSDOF 14
ENDMDL
MODEL 7
REMARK VINA RESULT:     1.197      3.114      3.835
REMARK INTER + INTRA:           1.504
REMARK INTER:                   1.839
REMARK INTRA:                  -0.335
REMARK UNBOUND:                -0.672
REMARK SMILES CCCCCCCCCCCCCCCC(=O)[O-]
REMARK SMILES IDX 9 1 10 2 11 3 12 4 13 5 14 6 15 7 16 8 17 9 18 10 8 11 7 12
REMARK SMILES IDX 6 13 5 14 4 15 3 16 2 17 1 18
REMARK H PARENT
REMARK Flexibility Score: inf
ROOT
ATOM      1  C   UNL     1      -8.358  50.677  -4.354  1.00  0.00     0.000 C 
ENDROOT
BRANCH   1   2
ATOM      2  C   UNL     1      -7.592  51.411  -5.461  1.00  0.00     0.000 C 
BRANCH   2   3
ATOM      3  C   UNL     1      -8.559  52.012  -6.492  1.00  0.00     0.000 C 
BRANCH   3   4
ATOM      4  C   UNL     1      -7.973  52.023  -7.914  1.00  0.00     0.000 C 
BRANCH   4   5
ATOM      5  C   UNL     1      -6.439  52.125  -7.921  1.00  0.00     0.000 C 
BRANCH   5   6
ATOM      6  C   UNL     1      -5.818  51.773  -9.285  1.00  0.00     0.006 C 
BRANCH   6   7
ATOM      7  C   UNL     1      -4.281  51.846  -9.308  1.00  0.00     0.053 C 
BRANCH   7   8
ATOM      8  C   UNL     1      -3.653  51.195  -8.113  1.00  0.00     0.041 C 
ATOM      9  O   UNL     1      -2.673  51.737  -7.535  1.00  0.00    -0.550 OA
ATOM     10  O   UNL     1      -4.170  50.005  -7.618  1.00  0.00    -0.550 OA
ENDBRANCH   7   8
ENDBRANCH   6   7
ENDBRANCH   5   6
ENDBRANCH   4   5
ENDBRANCH   3   4
ENDBRANCH   2   3
ENDBRANCH   1   2
BRANCH   1  11
ATOM     11  C   UNL     1      -9.046  51.669  -3.409  1.00  0.00     0.000 C 
BRANCH  11  12
ATOM     12  C   UNL     1      -8.092  52.116  -2.291  1.00  0.00    -0.000 C 
BRANCH  12  13
ATOM     13  C   UNL     1      -8.237  51.267  -1.017  1.00  0.00    -0.000 C 
BRANCH  13  14
ATOM     14  C   UNL     1      -8.548  49.791  -1.322  1.00  0.00    -0.000 C 
BRANCH  14  15
ATOM     15  C   UNL     1      -7.348  48.869  -1.054  1.00  0.00    -0.000 C 
BRANCH  15  16
ATOM     16  C   UNL     1      -7.458  47.528  -1.799  1.00  0.00    -0.000 C 
BRANCH  16  17
ATOM     17  C   UNL     1      -7.126  46.327  -0.900  1.00  0.00    -0.003 C 
ATOM     18  C   UNL     1      -6.792  45.067  -1.699  1.00  0.00     0.004 C 
ENDBRANCH  16  17
ENDBRANCH  15  16
ENDBRANCH  14  15
ENDBRANCH  13  14
ENDBRANCH  12  13
ENDBRANCH  11  12
ENDBRANCH   1  11
TORSDOF 14
ENDMDL
MODEL 8
REMARK VINA RESULT:     1.288      5.368      8.182
REMARK INTER + INTRA:           1.671
REMARK INTER:                   2.356
REMARK INTRA:                  -0.686
REMARK UNBOUND:                -0.672
REMARK SMILES CCCCCCCCCCCCCCCC(=O)[O-]
REMARK SMILES IDX 9 1 10 2 11 3 12 4 13 5 14 6 15 7 16 8 17 9 18 10 8 11 7 12
REMARK SMILES IDX 6 13 5 14 4 15 3 16 2 17 1 18
REMARK H PARENT
REMARK Flexibility Score: inf
ROOT
ATOM      1  C   UNL     1      -7.748  49.012  -2.577  1.00  0.00     0.000 C 
ENDROOT
BRANCH   1   2
ATOM      2  C   UNL     1      -7.181  48.333  -1.326  1.00  0.00     0.000 C 
BRANCH   2   3
ATOM      3  C   UNL     1      -6.592  46.955  -1.666  1.00  0.00     0.000 C 
BRANCH   3   4
ATOM      4  C   UNL     1      -7.527  45.800  -1.270  1.00  0.00     0.000 C 
BRANCH   4   5
ATOM      5  C   UNL     1      -7.226  44.505  -2.042  1.00  0.00     0.000 C 
BRANCH   5   6
ATOM      6  C   UNL     1      -5.718  44.233  -2.199  1.00  0.00     0.006 C 
BRANCH   6   7
ATOM      7  C   UNL     1      -5.274  42.859  -1.667  1.00  0.00     0.053 C 
BRANCH   7   8
ATOM      8  C   UNL     1      -3.947  42.908  -0.973  1.00  0.00     0.041 C 
ATOM      9  O   UNL     1      -2.966  43.480  -1.518  1.00  0.00    -0.550 OA
ATOM     10  O   UNL     1      -3.802  42.351   0.291  1.00  0.00    -0.550 OA
ENDBRANCH   7   8
ENDBRANCH   6   7
ENDBRANCH   5   6
ENDBRANCH   4   5
ENDBRANCH   3   4
ENDBRANCH   2   3
ENDBRANCH   1   2
BRANCH   1  11
ATOM     11  C   UNL     1      -9.125  49.625  -2.296  1.00  0.00     0.000 C 
BRANCH  11  12
ATOM     12  C   UNL     1      -9.000  51.110  -1.924  1.00  0.00    -0.000 C 
BRANCH  12  13
ATOM     13  C   UNL     1      -7.959  51.848  -2.782  1.00  0.00    -0.000 C 
BRANCH  13  14
ATOM     14  C   UNL     1      -8.457  52.120  -4.212  1.00  0.00    -0.000 C 
BRANCH  14  15
ATOM     15  C   UNL     1      -7.449  51.672  -5.282  1.00  0.00    -0.000 C 
BRANCH  15  16
ATOM     16  C   UNL     1      -7.988  51.852  -6.712  1.00  0.00    -0.000 C 
BRANCH  16  17
ATOM     17  C   UNL     1      -6.872  52.125  -7.732  1.00  0.00    -0.003 C 
ATOM     18  C   UNL     1      -7.216  51.618  -9.132  1.00  0.00     0.004 C 
ENDBRANCH  16  17
ENDBRANCH  15  16
ENDBRANCH  14  15
ENDBRANCH  13  14
ENDBRANCH  12  13
ENDBRANCH  11  12
ENDBRANCH   1  11
TORSDOF 14
ENDMDL
