MODEL 1
REMARK VINA RESULT:    -3.577      0.000      0.000
REMARK INTER + INTRA:         -10.787
REMARK INTER:                  -7.759
REMARK INTRA:                  -3.028
REMARK UNBOUND:                -3.028
REMARK SMILES CCCCCCCCCCCCCCCCCCCCCC(=O)[O-]
REMARK SMILES IDX 12 1 11 2 10 3 9 4 8 5 7 6 6 7 5 8 4 9 3 10 2 11 1 12 13 13
REMARK SMILES IDX 14 14 15 15 16 16 17 17 18 18 19 19 20 20 21 21 22 22 23 23
REMARK SMILES IDX 24 24
REMARK H PARENT
REMARK Flexibility Score: inf
ROOT
ATOM      1  C   UNL     1     -30.130  69.391  86.203  1.00  0.00     0.000 C 
ENDROOT
BRANCH   1   2
ATOM      2  C   UNL     1     -29.185  69.086  87.377  1.00  0.00     0.000 C 
BRANCH   2   3
ATOM      3  C   UNL     1     -28.079  68.084  87.004  1.00  0.00     0.000 C 
BRANCH   3   4
ATOM      4  C   UNL     1     -27.202  68.577  85.841  1.00  0.00    -0.000 C 
BRANCH   4   5
ATOM      5  C   UNL     1     -26.548  67.424  85.058  1.00  0.00    -0.000 C 
BRANCH   5   6
ATOM      6  C   UNL     1     -27.559  66.380  84.536  1.00  0.00    -0.000 C 
BRANCH   6   7
ATOM      7  C   UNL     1     -28.639  67.016  83.642  1.00  0.00    -0.000 C 
BRANCH   7   8
ATOM      8  C   UNL     1     -28.235  67.043  82.159  1.00  0.00    -0.000 C 
BRANCH   8   9
ATOM      9  C   UNL     1     -27.665  65.699  81.678  1.00  0.00    -0.000 C 
BRANCH   9  10
ATOM     10  C   UNL     1     -28.715  64.911  80.880  1.00  0.00    -0.000 C 
BRANCH  10  11
ATOM     11  C   UNL     1     -29.994  64.644  81.689  1.00  0.00    -0.003 C 
ATOM     12  C   UNL     1     -30.980  63.735  80.955  1.00  0.00     0.004 C 
ENDBRANCH  10  11
ENDBRANCH   9  10
ENDBRANCH   8   9
ENDBRANCH   7   8
ENDBRANCH   6   7
ENDBRANCH   5   6
ENDBRANCH   4   5
ENDBRANCH   3   4
ENDBRANCH   2   3
ENDBRANCH   1   2
BRANCH   1  13
ATOM     13  C   UNL     1     -31.603  69.085  86.529  1.00  0.00     0.000 C 
BRANCH  13  14
ATOM     14  C   UNL     1     -31.900  67.614  86.887  1.00  0.00     0.000 C 
BRANCH  14  15
ATOM     15  C   UNL     1     -32.191  66.692  85.686  1.00  0.00     0.000 C 
BRANCH  15  16
ATOM     16  C   UNL     1     -31.072  65.689  85.346  1.00  0.00     0.000 C 
BRANCH  16  17
ATOM     17  C   UNL     1     -30.275  65.246  86.585  1.00  0.00     0.000 C 
BRANCH  17  18
ATOM     18  C   UNL     1     -30.083  63.722  86.649  1.00  0.00     0.000 C 
BRANCH  18  19
ATOM     19  C   UNL     1     -30.054  63.067  85.256  1.00  0.00     0.000 C 
BRANCH  19  20
ATOM     20  C   UNL     1     -28.638  63.016  84.657  1.00  0.00     0.006 C 
BRANCH  20  21
ATOM     21  C   UNL     1     -28.533  62.045  83.474  1.00  0.00     0.053 C 
BRANCH  21  22
ATOM     22  C   UNL     1     -27.510  60.990  83.756  1.00  0.00     0.041 C 
ATOM     23  O   UNL     1     -26.670  61.154  84.679  1.00  0.00    -0.550 OA
ATOM     24  O   UNL     1     -27.451  59.850  82.964  1.00  0.00    -0.550 OA
ENDBRANCH  21  22
ENDBRANCH  20  21
ENDBRANCH  19  20
ENDBRANCH  18  19
ENDBRANCH  17  18
ENDBRANCH  16  17
ENDBRANCH  15  16
ENDBRANCH  14  15
ENDBRANCH  13  14
ENDBRANCH   1  13
TORSDOF 20
ENDMDL
MODEL 2
REMARK VINA RESULT:    -3.397      2.874      5.344
REMARK INTER + INTRA:         -10.396
REMARK INTER:                  -6.807
REMARK INTRA:                  -3.589
REMARK UNBOUND:                -3.028
REMARK SMILES CCCCCCCCCCCCCCCCCCCCCC(=O)[O-]
REMARK SMILES IDX 12 1 11 2 10 3 9 4 8 5 7 6 6 7 5 8 4 9 3 10 2 11 1 12 13 13
REMARK SMILES IDX 14 14 15 15 16 16 17 17 18 18 19 19 20 20 21 21 22 22 23 23
REMARK SMILES IDX 24 24
REMARK H PARENT
REMARK Flexibility Score: inf
ROOT
ATOM      1  C   UNL     1     -27.437  65.534  85.692  1.00  0.00     0.000 C 
ENDROOT
BRANCH   1   2
ATOM      2  C   UNL     1     -27.058  66.611  84.661  1.00  0.00     0.000 C 
BRANCH   2   3
ATOM      3  C   UNL     1     -28.229  67.548  84.324  1.00  0.00     0.000 C 
BRANCH   3   4
ATOM      4  C   UNL     1     -28.969  67.133  83.041  1.00  0.00    -0.000 C 
BRANCH   4   5
ATOM      5  C   UNL     1     -28.015  66.663  81.929  1.00  0.00    -0.000 C 
BRANCH   5   6
ATOM      6  C   UNL     1     -28.271  65.212  81.468  1.00  0.00    -0.000 C 
BRANCH   6   7
ATOM      7  C   UNL     1     -29.703  64.746  81.787  1.00  0.00    -0.000 C 
BRANCH   7   8
ATOM      8  C   UNL     1     -29.734  63.559  82.762  1.00  0.00    -0.000 C 
BRANCH   8   9
ATOM      9  C   UNL     1     -28.352  63.253  83.362  1.00  0.00    -0.000 C 
BRANCH   9  10
ATOM     10  C   UNL     1     -28.440  62.119  84.395  1.00  0.00    -0.000 C 
BRANCH  10  11
ATOM     11  C   UNL     1     -27.279  61.118  84.275  1.00  0.00    -0.003 C 
ATOM     12  C   UNL     1     -27.501  60.084  83.172  1.00  0.00     0.004 C 
ENDBRANCH  10  11
ENDBRANCH   9  10
ENDBRANCH   8   9
ENDBRANCH   7   8
ENDBRANCH   6   7
ENDBRANCH   5   6
ENDBRANCH   4   5
ENDBRANCH   3   4
ENDBRANCH   2   3
ENDBRANCH   1   2
BRANCH   1  13
ATOM     13  C   UNL     1     -28.666  65.921  86.533  1.00  0.00     0.000 C 
BRANCH  13  14
ATOM     14  C   UNL     1     -29.765  64.842  86.618  1.00  0.00     0.000 C 
BRANCH  14  15
ATOM     15  C   UNL     1     -30.906  64.983  85.590  1.00  0.00     0.000 C 
BRANCH  15  16
ATOM     16  C   UNL     1     -31.412  66.421  85.369  1.00  0.00     0.000 C 
BRANCH  16  17
ATOM     17  C   UNL     1     -32.223  66.956  86.562  1.00  0.00     0.000 C 
BRANCH  17  18
ATOM     18  C   UNL     1     -31.729  68.330  87.044  1.00  0.00     0.000 C 
BRANCH  18  19
ATOM     19  C   UNL     1     -30.819  69.028  86.017  1.00  0.00     0.000 C 
BRANCH  19  20
ATOM     20  C   UNL     1     -29.525  69.570  86.648  1.00  0.00     0.006 C 
BRANCH  20  21
ATOM     21  C   UNL     1     -29.298  69.045  88.072  1.00  0.00     0.053 C 
BRANCH  21  22
ATOM     22  C   UNL     1     -27.835  68.892  88.343  1.00  0.00     0.041 C 
ATOM     23  O   UNL     1     -27.427  68.688  89.517  1.00  0.00    -0.550 OA
ATOM     24  O   UNL     1     -26.918  69.028  87.308  1.00  0.00    -0.550 OA
ENDBRANCH  21  22
ENDBRANCH  20  21
ENDBRANCH  19  20
ENDBRANCH  18  19
ENDBRANCH  17  18
ENDBRANCH  16  17
ENDBRANCH  15  16
ENDBRANCH  14  15
ENDBRANCH  13  14
ENDBRANCH   1  13
TORSDOF 20
ENDMDL
MODEL 3
REMARK VINA RESULT:    -3.247      0.998      5.186
REMARK INTER + INTRA:         -10.072
REMARK INTER:                  -7.201
REMARK INTRA:                  -2.871
REMARK UNBOUND:                -3.028
REMARK SMILES CCCCCCCCCCCCCCCCCCCCCC(=O)[O-]
REMARK SMILES IDX 12 1 11 2 10 3 9 4 8 5 7 6 6 7 5 8 4 9 3 10 2 11 1 12 13 13
REMARK SMILES IDX 14 14 15 15 16 16 17 17 18 18 19 19 20 20 21 21 22 22 23 23
REMARK SMILES IDX 24 24
REMARK H PARENT
REMARK Flexibility Score: inf
ROOT
ATOM      1  C   UNL     1     -28.737  65.988  86.555  1.00  0.00     0.000 C 
ENDROOT
BRANCH   1   2
ATOM      2  C   UNL     1     -29.540  64.677  86.609  1.00  0.00     0.000 C 
BRANCH   2   3
ATOM      3  C   UNL     1     -30.810  64.723  85.744  1.00  0.00     0.000 C 
BRANCH   3   4
ATOM      4  C   UNL     1     -31.138  66.141  85.248  1.00  0.00    -0.000 C 
BRANCH   4   5
ATOM      5  C   UNL     1     -32.326  66.773  85.995  1.00  0.00    -0.000 C 
BRANCH   5   6
ATOM      6  C   UNL     1     -31.904  67.701  87.155  1.00  0.00    -0.000 C 
BRANCH   6   7
ATOM      7  C   UNL     1     -32.192  69.182  86.846  1.00  0.00    -0.000 C 
BRANCH   7   8
ATOM      8  C   UNL     1     -31.018  69.875  86.137  1.00  0.00    -0.000 C 
BRANCH   8   9
ATOM      9  C   UNL     1     -29.674  69.176  86.399  1.00  0.00    -0.000 C 
BRANCH   9  10
ATOM     10  C   UNL     1     -29.151  69.500  87.807  1.00  0.00    -0.000 C 
BRANCH  10  11
ATOM     11  C   UNL     1     -27.747  68.929  88.063  1.00  0.00    -0.003 C 
ATOM     12  C   UNL     1     -27.485  68.644  89.541  1.00  0.00     0.004 C 
ENDBRANCH  10  11
ENDBRANCH   9  10
ENDBRANCH   8   9
ENDBRANCH   7   8
ENDBRANCH   6   7
ENDBRANCH   5   6
ENDBRANCH   4   5
ENDBRANCH   3   4
ENDBRANCH   2   3
ENDBRANCH   1   2
BRANCH   1  13
ATOM     13  C   UNL     1     -27.552  65.921  85.575  1.00  0.00     0.000 C 
BRANCH  13  14
ATOM     14  C   UNL     1     -27.464  67.093  84.576  1.00  0.00     0.000 C 
BRANCH  14  15
ATOM     15  C   UNL     1     -28.519  67.077  83.451  1.00  0.00     0.000 C 
BRANCH  15  16
ATOM     16  C   UNL     1     -27.965  66.809  82.039  1.00  0.00     0.000 C 
BRANCH  16  17
ATOM     17  C   UNL     1     -28.255  65.382  81.547  1.00  0.00     0.000 C 
BRANCH  17  18
ATOM     18  C   UNL     1     -29.658  64.893  81.944  1.00  0.00     0.000 C 
BRANCH  18  19
ATOM     19  C   UNL     1     -29.646  63.474  82.540  1.00  0.00     0.000 C 
BRANCH  19  20
ATOM     20  C   UNL     1     -28.493  63.261  83.534  1.00  0.00     0.006 C 
BRANCH  20  21
ATOM     21  C   UNL     1     -28.626  61.950  84.321  1.00  0.00     0.053 C 
BRANCH  21  22
ATOM     22  C   UNL     1     -27.488  61.033  84.002  1.00  0.00     0.041 C 
ATOM     23  O   UNL     1     -27.586  60.207  83.057  1.00  0.00    -0.550 OA
ATOM     24  O   UNL     1     -26.338  61.055  84.782  1.00  0.00    -0.550 OA
ENDBRANCH  21  22
ENDBRANCH  20  21
ENDBRANCH  19  20
ENDBRANCH  18  19
ENDBRANCH  17  18
ENDBRANCH  16  17
ENDBRANCH  15  16
ENDBRANCH  14  15
ENDBRANCH  13  14
ENDBRANCH   1  13
TORSDOF 20
ENDMDL
MODEL 4
REMARK VINA RESULT:    -3.210      1.694      4.565
REMARK INTER + INTRA:          -9.990
REMARK INTER:                  -7.224
REMARK INTRA:                  -2.766
REMARK UNBOUND:                -3.028
REMARK SMILES CCCCCCCCCCCCCCCCCCCCCC(=O)[O-]
REMARK SMILES IDX 12 1 11 2 10 3 9 4 8 5 7 6 6 7 5 8 4 9 3 10 2 11 1 12 13 13
REMARK SMILES IDX 14 14 15 15 16 16 17 17 18 18 19 19 20 20 21 21 22 22 23 23
REMARK SMILES IDX 24 24
REMARK H PARENT
REMARK Flexibility Score: inf
ROOT
ATOM      1  C   UNL     1     -29.718  69.646  86.506  1.00  0.00     0.000 C 
ENDROOT
BRANCH   1   2
ATOM      2  C   UNL     1     -31.005  69.024  85.939  1.00  0.00     0.000 C 
BRANCH   2   3
ATOM      3  C   UNL     1     -31.663  68.032  86.913  1.00  0.00     0.000 C 
BRANCH   3   4
ATOM      4  C   UNL     1     -32.143  66.747  86.215  1.00  0.00    -0.000 C 
BRANCH   4   5
ATOM      5  C   UNL     1     -31.023  66.042  85.430  1.00  0.00    -0.000 C 
BRANCH   5   6
ATOM      6  C   UNL     1     -30.038  65.259  86.325  1.00  0.00    -0.000 C 
BRANCH   6   7
ATOM      7  C   UNL     1     -30.538  63.835  86.628  1.00  0.00    -0.000 C 
BRANCH   7   8
ATOM      8  C   UNL     1     -30.054  62.808  85.592  1.00  0.00    -0.000 C 
BRANCH   8   9
ATOM      9  C   UNL     1     -28.627  63.096  85.098  1.00  0.00    -0.000 C 
BRANCH   9  10
ATOM     10  C   UNL     1     -28.325  62.317  83.808  1.00  0.00    -0.000 C 
BRANCH  10  11
ATOM     11  C   UNL     1     -27.271  61.217  84.015  1.00  0.00    -0.003 C 
ATOM     12  C   UNL     1     -27.536  59.977  83.162  1.00  0.00     0.004 C 
ENDBRANCH  10  11
ENDBRANCH   9  10
ENDBRANCH   8   9
ENDBRANCH   7   8
ENDBRANCH   6   7
ENDBRANCH   5   6
ENDBRANCH   4   5
ENDBRANCH   3   4
ENDBRANCH   2   3
ENDBRANCH   1   2
BRANCH   1  13
ATOM     13  C   UNL     1     -29.087  68.796  87.622  1.00  0.00     0.000 C 
BRANCH  13  14
ATOM     14  C   UNL     1     -27.722  68.169  87.273  1.00  0.00     0.000 C 
BRANCH  14  15
ATOM     15  C   UNL     1     -27.196  68.486  85.858  1.00  0.00     0.000 C 
BRANCH  15  16
ATOM     16  C   UNL     1     -26.546  67.301  85.122  1.00  0.00     0.000 C 
BRANCH  16  17
ATOM     17  C   UNL     1     -27.569  66.437  84.365  1.00  0.00     0.000 C 
BRANCH  17  18
ATOM     18  C   UNL     1     -28.456  67.264  83.420  1.00  0.00     0.000 C 
BRANCH  18  19
ATOM     19  C   UNL     1     -28.205  66.942  81.935  1.00  0.00     0.000 C 
BRANCH  19  20
ATOM     20  C   UNL     1     -27.953  65.445  81.691  1.00  0.00     0.006 C 
BRANCH  20  21
ATOM     21  C   UNL     1     -28.884  64.857  80.623  1.00  0.00     0.053 C 
BRANCH  21  22
ATOM     22  C   UNL     1     -30.143  64.348  81.252  1.00  0.00     0.041 C 
ATOM     23  O   UNL     1     -31.012  63.768  80.550  1.00  0.00    -0.550 OA
ATOM     24  O   UNL     1     -30.379  64.562  82.605  1.00  0.00    -0.550 OA
ENDBRANCH  21  22
ENDBRANCH  20  21
ENDBRANCH  19  20
ENDBRANCH  18  19
ENDBRANCH  17  18
ENDBRANCH  16  17
ENDBRANCH  15  16
ENDBRANCH  14  15
ENDBRANCH  13  14
ENDBRANCH   1  13
TORSDOF 20
ENDMDL
MODEL 5
REMARK VINA RESULT:    -3.196      0.798      4.184
REMARK INTER + INTRA:          -9.961
REMARK INTER:                  -6.666
REMARK INTRA:                  -3.295
REMARK UNBOUND:                -3.028
REMARK SMILES CCCCCCCCCCCCCCCCCCCCCC(=O)[O-]
REMARK SMILES IDX 12 1 11 2 10 3 9 4 8 5 7 6 6 7 5 8 4 9 3 10 2 11 1 12 13 13
REMARK SMILES IDX 14 14 15 15 16 16 17 17 18 18 19 19 20 20 21 21 22 22 23 23
REMARK SMILES IDX 24 24
REMARK H PARENT
REMARK Flexibility Score: inf
ROOT
ATOM      1  C   UNL     1     -26.361  67.517  85.386  1.00  0.00     0.000 C 
ENDROOT
BRANCH   1   2
ATOM      2  C   UNL     1     -26.952  68.792  86.013  1.00  0.00     0.000 C 
BRANCH   2   3
ATOM      3  C   UNL     1     -27.511  68.554  87.425  1.00  0.00     0.000 C 
BRANCH   3   4
ATOM      4  C   UNL     1     -29.048  68.539  87.459  1.00  0.00    -0.000 C 
BRANCH   4   5
ATOM      5  C   UNL     1     -29.674  69.619  86.559  1.00  0.00    -0.000 C 
BRANCH   5   6
ATOM      6  C   UNL     1     -31.087  69.258  86.051  1.00  0.00    -0.000 C 
BRANCH   6   7
ATOM      7  C   UNL     1     -31.896  68.471  87.098  1.00  0.00    -0.000 C 
BRANCH   7   8
ATOM      8  C   UNL     1     -32.181  67.026  86.659  1.00  0.00    -0.000 C 
BRANCH   8   9
ATOM      9  C   UNL     1     -31.656  66.725  85.246  1.00  0.00    -0.000 C 
BRANCH   9  10
ATOM     10  C   UNL     1     -30.975  65.349  85.194  1.00  0.00    -0.000 C 
BRANCH  10  11
ATOM     11  C   UNL     1     -30.093  65.079  86.423  1.00  0.00    -0.003 C 
ATOM     12  C   UNL     1     -30.271  63.667  86.981  1.00  0.00     0.004 C 
ENDBRANCH  10  11
ENDBRANCH   9  10
ENDBRANCH   8   9
ENDBRANCH   7   8
ENDBRANCH   6   7
ENDBRANCH   5   6
ENDBRANCH   4   5
ENDBRANCH   3   4
ENDBRANCH   2   3
ENDBRANCH   1   2
BRANCH   1  13
ATOM     13  C   UNL     1     -27.401  66.707  84.591  1.00  0.00     0.000 C 
BRANCH  13  14
ATOM     14  C   UNL     1     -28.526  67.543  83.947  1.00  0.00     0.000 C 
BRANCH  14  15
ATOM     15  C   UNL     1     -29.016  67.038  82.575  1.00  0.00     0.000 C 
BRANCH  15  16
ATOM     16  C   UNL     1     -27.906  66.546  81.626  1.00  0.00     0.000 C 
BRANCH  16  17
ATOM     17  C   UNL     1     -27.993  65.037  81.342  1.00  0.00     0.000 C 
BRANCH  17  18
ATOM     18  C   UNL     1     -29.442  64.524  81.308  1.00  0.00     0.000 C 
BRANCH  18  19
ATOM     19  C   UNL     1     -29.789  63.645  82.523  1.00  0.00     0.000 C 
BRANCH  19  20
ATOM     20  C   UNL     1     -28.593  63.445  83.468  1.00  0.00     0.006 C 
BRANCH  20  21
ATOM     21  C   UNL     1     -28.714  62.170  84.312  1.00  0.00     0.053 C 
BRANCH  21  22
ATOM     22  C   UNL     1     -27.598  61.226  83.993  1.00  0.00     0.041 C 
ATOM     23  O   UNL     1     -27.729  60.378  83.072  1.00  0.00    -0.550 OA
ATOM     24  O   UNL     1     -26.432  61.247  84.750  1.00  0.00    -0.550 OA
ENDBRANCH  21  22
ENDBRANCH  20  21
ENDBRANCH  19  20
ENDBRANCH  18  19
ENDBRANCH  17  18
ENDBRANCH  16  17
ENDBRANCH  15  16
ENDBRANCH  14  15
ENDBRANCH  13  14
ENDBRANCH   1  13
TORSDOF 20
ENDMDL
MODEL 6
REMARK VINA RESULT:    -3.046      2.981      6.711
REMARK INTER + INTRA:          -9.636
REMARK INTER:                  -6.899
REMARK INTRA:                  -2.737
REMARK UNBOUND:                -3.028
REMARK SMILES CCCCCCCCCCCCCCCCCCCCCC(=O)[O-]
REMARK SMILES IDX 12 1 11 2 10 3 9 4 8 5 7 6 6 7 5 8 4 9 3 10 2 11 1 12 13 13
REMARK SMILES IDX 14 14 15 15 16 16 17 17 18 18 19 19 20 20 21 21 22 22 23 23
REMARK SMILES IDX 24 24
REMARK H PARENT
REMARK Flexibility Score: inf
ROOT
ATOM      1  C   UNL     1     -29.977  63.749  82.741  1.00  0.00     0.000 C 
ENDROOT
BRANCH   1   2
ATOM      2  C   UNL     1     -28.674  63.179  83.329  1.00  0.00     0.000 C 
BRANCH   2   3
ATOM      3  C   UNL     1     -28.704  63.095  84.864  1.00  0.00     0.000 C 
BRANCH   3   4
ATOM      4  C   UNL     1     -30.129  62.934  85.421  1.00  0.00    -0.000 C 
BRANCH   4   5
ATOM      5  C   UNL     1     -30.365  63.756  86.700  1.00  0.00    -0.000 C 
BRANCH   5   6
ATOM      6  C   UNL     1     -30.126  65.270  86.514  1.00  0.00    -0.000 C 
BRANCH   6   7
ATOM      7  C   UNL     1     -31.075  65.884  85.469  1.00  0.00    -0.000 C 
BRANCH   7   8
ATOM      8  C   UNL     1     -32.155  66.774  86.103  1.00  0.00    -0.000 C 
BRANCH   8   9
ATOM      9  C   UNL     1     -31.561  67.969  86.866  1.00  0.00    -0.000 C 
BRANCH   9  10
ATOM     10  C   UNL     1     -30.865  68.945  85.905  1.00  0.00    -0.000 C 
BRANCH  10  11
ATOM     11  C   UNL     1     -30.916  70.399  86.399  1.00  0.00    -0.003 C 
ATOM     12  C   UNL     1     -31.525  71.352  85.370  1.00  0.00     0.004 C 
ENDBRANCH  10  11
ENDBRANCH   9  10
ENDBRANCH   8   9
ENDBRANCH   7   8
ENDBRANCH   6   7
ENDBRANCH   5   6
ENDBRANCH   4   5
ENDBRANCH   3   4
ENDBRANCH   2   3
ENDBRANCH   1   2
BRANCH   1  13
ATOM     13  C   UNL     1     -29.730  64.677  81.538  1.00  0.00     0.000 C 
BRANCH  13  14
ATOM     14  C   UNL     1     -28.248  64.983  81.242  1.00  0.00     0.000 C 
BRANCH  14  15
ATOM     15  C   UNL     1     -27.659  66.185  82.008  1.00  0.00     0.000 C 
BRANCH  15  16
ATOM     16  C   UNL     1     -28.688  67.234  82.467  1.00  0.00     0.000 C 
BRANCH  16  17
ATOM     17  C   UNL     1     -28.635  67.496  83.982  1.00  0.00     0.000 C 
BRANCH  17  18
ATOM     18  C   UNL     1     -27.463  66.773  84.666  1.00  0.00     0.000 C 
BRANCH  18  19
ATOM     19  C   UNL     1     -26.382  67.744  85.175  1.00  0.00     0.000 C 
BRANCH  19  20
ATOM     20  C   UNL     1     -26.902  68.680  86.279  1.00  0.00     0.006 C 
BRANCH  20  21
ATOM     21  C   UNL     1     -27.818  67.961  87.279  1.00  0.00     0.053 C 
BRANCH  21  22
ATOM     22  C   UNL     1     -27.956  68.768  88.531  1.00  0.00     0.041 C 
ATOM     23  O   UNL     1     -28.606  69.846  88.520  1.00  0.00    -0.550 OA
ATOM     24  O   UNL     1     -27.323  68.355  89.697  1.00  0.00    -0.550 OA
ENDBRANCH  21  22
ENDBRANCH  20  21
ENDBRANCH  19  20
ENDBRANCH  18  19
ENDBRANCH  17  18
ENDBRANCH  16  17
ENDBRANCH  15  16
ENDBRANCH  14  15
ENDBRANCH  13  14
ENDBRANCH   1  13
TORSDOF 20
ENDMDL
MODEL 7
REMARK VINA RESULT:    -2.968      1.031      4.659
REMARK INTER + INTRA:          -9.465
REMARK INTER:                  -7.020
REMARK INTRA:                  -2.445
REMARK UNBOUND:                -3.028
REMARK SMILES CCCCCCCCCCCCCCCCCCCCCC(=O)[O-]
REMARK SMILES IDX 12 1 11 2 10 3 9 4 8 5 7 6 6 7 5 8 4 9 3 10 2 11 1 12 13 13
REMARK SMILES IDX 14 14 15 15 16 16 17 17 18 18 19 19 20 20 21 21 22 22 23 23
REMARK SMILES IDX 24 24
REMARK H PARENT
REMARK Flexibility Score: inf
ROOT
ATOM      1  C   UNL     1     -26.626  67.778  85.555  1.00  0.00     0.000 C 
ENDROOT
BRANCH   1   2
ATOM      2  C   UNL     1     -27.773  68.140  86.513  1.00  0.00     0.000 C 
BRANCH   2   3
ATOM      3  C   UNL     1     -28.257  66.937  87.340  1.00  0.00     0.000 C 
BRANCH   3   4
ATOM      4  C   UNL     1     -28.474  65.678  86.484  1.00  0.00    -0.000 C 
BRANCH   4   5
ATOM      5  C   UNL     1     -29.815  64.983  86.775  1.00  0.00    -0.000 C 
BRANCH   5   6
ATOM      6  C   UNL     1     -30.800  65.017  85.586  1.00  0.00    -0.000 C 
BRANCH   6   7
ATOM      7  C   UNL     1     -31.364  66.427  85.340  1.00  0.00    -0.000 C 
BRANCH   7   8
ATOM      8  C   UNL     1     -32.300  66.892  86.467  1.00  0.00    -0.000 C 
BRANCH   8   9
ATOM      9  C   UNL     1     -31.971  68.311  86.959  1.00  0.00    -0.000 C 
BRANCH   9  10
ATOM     10  C   UNL     1     -30.877  68.953  86.093  1.00  0.00    -0.000 C 
BRANCH  10  11
ATOM     11  C   UNL     1     -30.704  70.454  86.375  1.00  0.00    -0.003 C 
ATOM     12  C   UNL     1     -31.546  71.331  85.449  1.00  0.00     0.004 C 
ENDBRANCH  10  11
ENDBRANCH   9  10
ENDBRANCH   8   9
ENDBRANCH   7   8
ENDBRANCH   6   7
ENDBRANCH   5   6
ENDBRANCH   4   5
ENDBRANCH   3   4
ENDBRANCH   2   3
ENDBRANCH   1   2
BRANCH   1  13
ATOM     13  C   UNL     1     -27.126  67.223  84.209  1.00  0.00     0.000 C 
BRANCH  13  14
ATOM     14  C   UNL     1     -28.557  67.648  83.820  1.00  0.00     0.000 C 
BRANCH  14  15
ATOM     15  C   UNL     1     -29.110  66.994  82.537  1.00  0.00     0.000 C 
BRANCH  15  16
ATOM     16  C   UNL     1     -28.042  66.489  81.548  1.00  0.00     0.000 C 
BRANCH  16  17
ATOM     17  C   UNL     1     -28.157  64.982  81.267  1.00  0.00     0.000 C 
BRANCH  17  18
ATOM     18  C   UNL     1     -29.605  64.473  81.353  1.00  0.00     0.000 C 
BRANCH  18  19
ATOM     19  C   UNL     1     -29.846  63.568  82.576  1.00  0.00     0.000 C 
BRANCH  19  20
ATOM     20  C   UNL     1     -28.602  63.446  83.472  1.00  0.00     0.006 C 
BRANCH  20  21
ATOM     21  C   UNL     1     -28.655  62.218  84.390  1.00  0.00     0.053 C 
BRANCH  21  22
ATOM     22  C   UNL     1     -27.565  61.256  84.037  1.00  0.00     0.041 C 
ATOM     23  O   UNL     1     -27.731  60.426  83.105  1.00  0.00    -0.550 OA
ATOM     24  O   UNL     1     -26.386  61.240  84.772  1.00  0.00    -0.550 OA
ENDBRANCH  21  22
ENDBRANCH  20  21
ENDBRANCH  19  20
ENDBRANCH  18  19
ENDBRANCH  17  18
ENDBRANCH  16  17
ENDBRANCH  15  16
ENDBRANCH  14  15
ENDBRANCH  13  14
ENDBRANCH   1  13
TORSDOF 20
ENDMDL
MODEL 8
REMARK VINA RESULT:    -2.956      3.333      6.593
REMARK INTER + INTRA:          -9.440
REMARK INTER:                  -6.892
REMARK INTRA:                  -2.548
REMARK UNBOUND:                -3.028
REMARK SMILES CCCCCCCCCCCCCCCCCCCCCC(=O)[O-]
REMARK SMILES IDX 12 1 11 2 10 3 9 4 8 5 7 6 6 7 5 8 4 9 3 10 2 11 1 12 13 13
REMARK SMILES IDX 14 14 15 15 16 16 17 17 18 18 19 19 20 20 21 21 22 22 23 23
REMARK SMILES IDX 24 24
REMARK H PARENT
REMARK Flexibility Score: inf
ROOT
ATOM      1  C   UNL     1     -28.004  66.735  81.963  1.00  0.00     0.000 C 
ENDROOT
BRANCH   1   2
ATOM      2  C   UNL     1     -28.300  65.254  81.670  1.00  0.00     0.000 C 
BRANCH   2   3
ATOM      3  C   UNL     1     -29.685  64.816  82.174  1.00  0.00     0.000 C 
BRANCH   3   4
ATOM      4  C   UNL     1     -29.656  63.444  82.869  1.00  0.00    -0.000 C 
BRANCH   4   5
ATOM      5  C   UNL     1     -28.303  63.144  83.537  1.00  0.00    -0.000 C 
BRANCH   5   6
ATOM      6  C   UNL     1     -28.337  61.921  84.479  1.00  0.00    -0.000 C 
BRANCH   6   7
ATOM      7  C   UNL     1     -27.216  60.914  84.163  1.00  0.00    -0.000 C 
BRANCH   7   8
ATOM      8  C   UNL     1     -27.588  59.958  83.019  1.00  0.00    -0.000 C 
BRANCH   8   9
ATOM      9  C   UNL     1     -26.756  58.666  83.035  1.00  0.00    -0.000 C 
BRANCH   9  10
ATOM     10  C   UNL     1     -27.502  57.522  82.331  1.00  0.00    -0.000 C 
BRANCH  10  11
ATOM     11  C   UNL     1     -27.165  56.144  82.923  1.00  0.00    -0.003 C 
ATOM     12  C   UNL     1     -25.857  56.144  83.715  1.00  0.00     0.004 C 
ENDBRANCH  10  11
ENDBRANCH   9  10
ENDBRANCH   8   9
ENDBRANCH   7   8
ENDBRANCH   6   7
ENDBRANCH   5   6
ENDBRANCH   4   5
ENDBRANCH   3   4
ENDBRANCH   2   3
ENDBRANCH   1   2
BRANCH   1  13
ATOM     13  C   UNL     1     -28.528  67.187  83.338  1.00  0.00     0.000 C 
BRANCH  13  14
ATOM     14  C   UNL     1     -27.459  67.774  84.282  1.00  0.00     0.000 C 
BRANCH  14  15
ATOM     15  C   UNL     1     -26.967  66.820  85.390  1.00  0.00     0.000 C 
BRANCH  15  16
ATOM     16  C   UNL     1     -27.767  65.512  85.529  1.00  0.00     0.000 C 
BRANCH  16  17
ATOM     17  C   UNL     1     -28.888  65.609  86.577  1.00  0.00     0.000 C 
BRANCH  17  18
ATOM     18  C   UNL     1     -30.168  64.874  86.144  1.00  0.00     0.000 C 
BRANCH  18  19
ATOM     19  C   UNL     1     -31.221  65.822  85.541  1.00  0.00     0.000 C 
BRANCH  19  20
ATOM     20  C   UNL     1     -31.356  67.133  86.333  1.00  0.00     0.006 C 
BRANCH  20  21
ATOM     21  C   UNL     1     -30.852  68.351  85.548  1.00  0.00     0.053 C 
BRANCH  21  22
ATOM     22  C   UNL     1     -30.155  69.308  86.463  1.00  0.00     0.041 C 
ATOM     23  O   UNL     1     -30.490  70.522  86.483  1.00  0.00    -0.550 OA
ATOM     24  O   UNL     1     -29.100  68.870  87.254  1.00  0.00    -0.550 OA
ENDBRANCH  21  22
ENDBRANCH  20  21
ENDBRANCH  19  20
ENDBRANCH  18  19
ENDBRANCH  17  18
ENDBRANCH  16  17
ENDBRANCH  15  16
ENDBRANCH  14  15
ENDBRANCH  13  14
ENDBRANCH   1  13
TORSDOF 20
ENDMDL
MODEL 9
REMARK VINA RESULT:    -2.940      1.415      4.385
REMARK INTER + INTRA:          -9.406
REMARK INTER:                  -6.499
REMARK INTRA:                  -2.907
REMARK UNBOUND:                -3.028
REMARK SMILES CCCCCCCCCCCCCCCCCCCCCC(=O)[O-]
REMARK SMILES IDX 12 1 11 2 10 3 9 4 8 5 7 6 6 7 5 8 4 9 3 10 2 11 1 12 13 13
REMARK SMILES IDX 14 14 15 15 16 16 17 17 18 18 19 19 20 20 21 21 22 22 23 23
REMARK SMILES IDX 24 24
REMARK H PARENT
REMARK Flexibility Score: inf
ROOT
ATOM      1  C   UNL     1     -28.578  67.305  83.467  1.00  0.00     0.000 C 
ENDROOT
BRANCH   1   2
ATOM      2  C   UNL     1     -27.715  66.629  84.546  1.00  0.00     0.000 C 
BRANCH   2   3
ATOM      3  C   UNL     1     -26.559  67.522  85.028  1.00  0.00     0.000 C 
BRANCH   3   4
ATOM      4  C   UNL     1     -27.020  68.599  86.025  1.00  0.00    -0.000 C 
BRANCH   4   5
ATOM      5  C   UNL     1     -27.929  68.037  87.131  1.00  0.00    -0.000 C 
BRANCH   5   6
ATOM      6  C   UNL     1     -29.134  68.944  87.461  1.00  0.00    -0.000 C 
BRANCH   6   7
ATOM      7  C   UNL     1     -30.002  69.229  86.222  1.00  0.00    -0.000 C 
BRANCH   7   8
ATOM      8  C   UNL     1     -31.446  68.727  86.385  1.00  0.00    -0.000 C 
BRANCH   8   9
ATOM      9  C   UNL     1     -31.516  67.223  86.695  1.00  0.00    -0.000 C 
BRANCH   9  10
ATOM     10  C   UNL     1     -31.395  66.390  85.410  1.00  0.00    -0.000 C 
BRANCH  10  11
ATOM     11  C   UNL     1     -30.847  64.978  85.670  1.00  0.00    -0.003 C 
ATOM     12  C   UNL     1     -29.750  64.956  86.734  1.00  0.00     0.004 C 
ENDBRANCH  10  11
ENDBRANCH   9  10
ENDBRANCH   8   9
ENDBRANCH   7   8
ENDBRANCH   6   7
ENDBRANCH   5   6
ENDBRANCH   4   5
ENDBRANCH   3   4
ENDBRANCH   2   3
ENDBRANCH   1   2
BRANCH   1  13
ATOM     13  C   UNL     1     -28.188  66.881  82.040  1.00  0.00     0.000 C 
BRANCH  13  14
ATOM     14  C   UNL     1     -28.265  65.365  81.766  1.00  0.00     0.000 C 
BRANCH  14  15
ATOM     15  C   UNL     1     -29.651  64.727  81.988  1.00  0.00     0.000 C 
BRANCH  15  16
ATOM     16  C   UNL     1     -29.645  63.412  82.789  1.00  0.00     0.000 C 
BRANCH  16  17
ATOM     17  C   UNL     1     -28.424  63.285  83.715  1.00  0.00     0.000 C 
BRANCH  17  18
ATOM     18  C   UNL     1     -28.419  61.969  84.510  1.00  0.00     0.000 C 
BRANCH  18  19
ATOM     19  C   UNL     1     -27.234  61.057  84.143  1.00  0.00     0.000 C 
BRANCH  19  20
ATOM     20  C   UNL     1     -27.576  60.073  83.012  1.00  0.00     0.006 C 
BRANCH  20  21
ATOM     21  C   UNL     1     -26.755  58.779  83.088  1.00  0.00     0.053 C 
BRANCH  21  22
ATOM     22  C   UNL     1     -27.477  57.663  82.402  1.00  0.00     0.041 C 
ATOM     23  O   UNL     1     -27.251  56.468  82.728  1.00  0.00    -0.550 OA
ATOM     24  O   UNL     1     -28.361  57.940  81.366  1.00  0.00    -0.550 OA
ENDBRANCH  21  22
ENDBRANCH  20  21
ENDBRANCH  19  20
ENDBRANCH  18  19
ENDBRANCH  17  18
ENDBRANCH  16  17
ENDBRANCH  15  16
ENDBRANCH  14  15
ENDBRANCH  13  14
ENDBRANCH   1  13
TORSDOF 20
ENDMDL
