MODEL 1
REMARK VINA RESULT:    -3.639      0.000      0.000
REMARK INTER + INTRA:          -4.308
REMARK INTER:                  -4.277
REMARK INTRA:                  -0.031
REMARK UNBOUND:                -0.031
REMARK SMILES O=C([O-])CCC(=O)[O-]
REMARK SMILES IDX 4 1 2 2 1 3 3 4 5 5 6 6 7 7 8 8
REMARK H PARENT
REMARK Flexibility Score: inf
ROOT
ATOM      1  C   UNL     1      10.788   5.510  38.036  1.00  0.00     0.059 C 
ENDROOT
BRANCH   1   2
ATOM      2  C   UNL     1      11.345   6.467  39.041  1.00  0.00     0.042 C 
ATOM      3  O   UNL     1      10.579   7.053  39.850  1.00  0.00    -0.550 OA
ATOM      4  O   UNL     1      12.716   6.676  39.116  1.00  0.00    -0.550 OA
ENDBRANCH   1   2
BRANCH   1   5
ATOM      5  C   UNL     1      11.677   4.269  37.928  1.00  0.00     0.059 C 
BRANCH   5   6
ATOM      6  C   UNL     1      11.122   3.314  36.920  1.00  0.00     0.042 C 
ATOM      7  O   UNL     1       9.943   2.886  37.032  1.00  0.00    -0.550 OA
ATOM      8  O   UNL     1      11.892   2.932  35.827  1.00  0.00    -0.550 OA
ENDBRANCH   5   6
ENDBRANCH   1   5
TORSDOF 3
ENDMDL
MODEL 2
REMARK VINA RESULT:    -3.636     16.505     17.483
REMARK INTER + INTRA:          -4.304
REMARK INTER:                  -4.166
REMARK INTRA:                  -0.138
REMARK UNBOUND:                -0.031
REMARK SMILES O=C([O-])CCC(=O)[O-]
REMARK SMILES IDX 4 1 2 2 1 3 3 4 5 5 6 6 7 7 8 8
REMARK H PARENT
REMARK Flexibility Score: inf
ROOT
ATOM      1  C   UNL     1      23.703  -6.812  38.730  1.00  0.00     0.059 C 
ENDROOT
BRANCH   1   2
ATOM      2  C   UNL     1      24.712  -6.861  39.834  1.00  0.00     0.042 C 
ATOM      3  O   UNL     1      24.940  -5.839  40.531  1.00  0.00    -0.550 OA
ATOM      4  O   UNL     1      25.367  -8.052  40.122  1.00  0.00    -0.550 OA
ENDBRANCH   1   2
BRANCH   1   5
ATOM      5  C   UNL     1      22.286  -6.744  39.304  1.00  0.00     0.059 C 
BRANCH   5   6
ATOM      6  C   UNL     1      21.803  -8.113  39.667  1.00  0.00     0.042 C 
ATOM      7  O   UNL     1      22.169  -9.113  38.995  1.00  0.00    -0.550 OA
ATOM      8  O   UNL     1      20.987  -8.290  40.777  1.00  0.00    -0.550 OA
ENDBRANCH   5   6
ENDBRANCH   1   5
TORSDOF 3
ENDMDL
MODEL 3
REMARK VINA RESULT:    -3.629     17.675     18.882
REMARK INTER + INTRA:          -4.297
REMARK INTER:                  -4.115
REMARK INTRA:                  -0.182
REMARK UNBOUND:                -0.031
REMARK SMILES O=C([O-])CCC(=O)[O-]
REMARK SMILES IDX 4 1 2 2 1 3 3 4 5 5 6 6 7 7 8 8
REMARK H PARENT
REMARK Flexibility Score: inf
ROOT
ATOM      1  C   UNL     1      25.222  -5.523  40.362  1.00  0.00     0.059 C 
ENDROOT
BRANCH   1   2
ATOM      2  C   UNL     1      24.607  -6.511  39.422  1.00  0.00     0.042 C 
ATOM      3  O   UNL     1      24.269  -7.651  39.832  1.00  0.00    -0.550 OA
ATOM      4  O   UNL     1      24.364  -6.153  38.101  1.00  0.00    -0.550 OA
ENDBRANCH   1   2
BRANCH   1   5
ATOM      5  C   UNL     1      26.606  -5.999  40.809  1.00  0.00     0.059 C 
BRANCH   5   6
ATOM      6  C   UNL     1      27.537  -6.068  39.640  1.00  0.00     0.042 C 
ATOM      7  O   UNL     1      27.891  -5.015  39.047  1.00  0.00    -0.550 OA
ATOM      8  O   UNL     1      28.054  -7.293  39.234  1.00  0.00    -0.550 OA
ENDBRANCH   5   6
ENDBRANCH   1   5
TORSDOF 3
ENDMDL
MODEL 4
REMARK VINA RESULT:    -3.621      0.126      4.274
REMARK INTER + INTRA:          -4.287
REMARK INTER:                  -4.258
REMARK INTRA:                  -0.029
REMARK UNBOUND:                -0.031
REMARK SMILES O=C([O-])CCC(=O)[O-]
REMARK SMILES IDX 4 1 2 2 1 3 3 4 5 5 6 6 7 7 8 8
REMARK H PARENT
REMARK Flexibility Score: inf
ROOT
ATOM      1  C   UNL     1      11.687   4.275  38.016  1.00  0.00     0.059 C 
ENDROOT
BRANCH   1   2
ATOM      2  C   UNL     1      11.201   3.344  36.951  1.00  0.00     0.042 C 
ATOM      3  O   UNL     1      11.998   2.905  36.081  1.00  0.00    -0.550 OA
ATOM      4  O   UNL     1       9.877   2.924  36.948  1.00  0.00    -0.550 OA
ENDBRANCH   1   2
BRANCH   1   5
ATOM      5  C   UNL     1      10.834   5.545  38.047  1.00  0.00     0.059 C 
BRANCH   5   6
ATOM      6  C   UNL     1      11.357   6.502  39.071  1.00  0.00     0.042 C 
ATOM      7  O   UNL     1      10.576   7.025  39.909  1.00  0.00    -0.550 OA
ATOM      8  O   UNL     1      12.718   6.780  39.131  1.00  0.00    -0.550 OA
ENDBRANCH   5   6
ENDBRANCH   1   5
TORSDOF 3
ENDMDL
MODEL 5
REMARK VINA RESULT:    -3.578     17.445     18.762
REMARK INTER + INTRA:          -4.237
REMARK INTER:                  -4.190
REMARK INTRA:                  -0.047
REMARK UNBOUND:                -0.031
REMARK SMILES O=C([O-])CCC(=O)[O-]
REMARK SMILES IDX 4 1 2 2 1 3 3 4 5 5 6 6 7 7 8 8
REMARK H PARENT
REMARK Flexibility Score: inf
ROOT
ATOM      1  C   UNL     1      24.146  -7.106  39.967  1.00  0.00     0.059 C 
ENDROOT
BRANCH   1   2
ATOM      2  C   UNL     1      22.963  -7.902  39.514  1.00  0.00     0.042 C 
ATOM      3  O   UNL     1      23.003  -8.532  38.425  1.00  0.00    -0.550 OA
ATOM      4  O   UNL     1      21.834  -7.987  40.319  1.00  0.00    -0.550 OA
ENDBRANCH   1   2
BRANCH   1   5
ATOM      5  C   UNL     1      25.409  -7.968  39.951  1.00  0.00     0.059 C 
BRANCH   5   6
ATOM      6  C   UNL     1      26.608  -7.133  39.629  1.00  0.00     0.042 C 
ATOM      7  O   UNL     1      27.683  -7.680  39.267  1.00  0.00    -0.550 OA
ATOM      8  O   UNL     1      26.524  -5.747  39.681  1.00  0.00    -0.550 OA
ENDBRANCH   5   6
ENDBRANCH   1   5
TORSDOF 3
ENDMDL
MODEL 6
REMARK VINA RESULT:    -3.571     17.522     18.678
REMARK INTER + INTRA:          -4.228
REMARK INTER:                  -4.187
REMARK INTRA:                  -0.041
REMARK UNBOUND:                -0.031
REMARK SMILES O=C([O-])CCC(=O)[O-]
REMARK SMILES IDX 4 1 2 2 1 3 3 4 5 5 6 6 7 7 8 8
REMARK H PARENT
REMARK Flexibility Score: inf
ROOT
ATOM      1  C   UNL     1      25.574  -7.908  39.982  1.00  0.00     0.059 C 
ENDROOT
BRANCH   1   2
ATOM      2  C   UNL     1      26.829  -7.179  39.620  1.00  0.00     0.042 C 
ATOM      3  O   UNL     1      27.846  -7.818  39.241  1.00  0.00    -0.550 OA
ATOM      4  O   UNL     1      26.861  -5.791  39.655  1.00  0.00    -0.550 OA
ENDBRANCH   1   2
BRANCH   1   5
ATOM      5  C   UNL     1      24.384  -6.947  40.002  1.00  0.00     0.059 C 
BRANCH   5   6
ATOM      6  C   UNL     1      23.155  -7.625  39.486  1.00  0.00     0.042 C 
ATOM      7  O   UNL     1      22.248  -7.987  40.282  1.00  0.00    -0.550 OA
ATOM      8  O   UNL     1      22.987  -7.815  38.120  1.00  0.00    -0.550 OA
ENDBRANCH   5   6
ENDBRANCH   1   5
TORSDOF 3
ENDMDL
MODEL 7
REMARK VINA RESULT:    -3.562     17.220     18.325
REMARK INTER + INTRA:          -4.218
REMARK INTER:                  -4.066
REMARK INTRA:                  -0.152
REMARK UNBOUND:                -0.031
REMARK SMILES O=C([O-])CCC(=O)[O-]
REMARK SMILES IDX 4 1 2 2 1 3 3 4 5 5 6 6 7 7 8 8
REMARK H PARENT
REMARK Flexibility Score: inf
ROOT
ATOM      1  C   UNL     1      25.828  -5.755  40.763  1.00  0.00     0.059 C 
ENDROOT
BRANCH   1   2
ATOM      2  C   UNL     1      26.976  -5.980  39.832  1.00  0.00     0.042 C 
ATOM      3  O   UNL     1      27.532  -5.004  39.263  1.00  0.00    -0.550 OA
ATOM      4  O   UNL     1      27.464  -7.265  39.628  1.00  0.00    -0.550 OA
ENDBRANCH   1   2
BRANCH   1   5
ATOM      5  C   UNL     1      24.559  -5.418  39.977  1.00  0.00     0.059 C 
BRANCH   5   6
ATOM      6  C   UNL     1      23.970  -6.656  39.379  1.00  0.00     0.042 C 
ATOM      7  O   UNL     1      23.769  -7.673  40.095  1.00  0.00    -0.550 OA
ATOM      8  O   UNL     1      23.598  -6.672  38.040  1.00  0.00    -0.550 OA
ENDBRANCH   5   6
ENDBRANCH   1   5
TORSDOF 3
ENDMDL
MODEL 8
REMARK VINA RESULT:    -3.501      1.674      4.373
REMARK INTER + INTRA:          -4.146
REMARK INTER:                  -4.065
REMARK INTRA:                  -0.080
REMARK UNBOUND:                -0.031
REMARK SMILES O=C([O-])CCC(=O)[O-]
REMARK SMILES IDX 4 1 2 2 1 3 3 4 5 5 6 6 7 7 8 8
REMARK H PARENT
REMARK Flexibility Score: inf
ROOT
ATOM      1  C   UNL     1      12.059   2.551  37.501  1.00  0.00     0.059 C 
ENDROOT
BRANCH   1   2
ATOM      2  C   UNL     1      12.435   2.114  36.121  1.00  0.00     0.042 C 
ATOM      3  O   UNL     1      12.091   2.800  35.124  1.00  0.00    -0.550 OA
ATOM      4  O   UNL     1      13.206   0.973  35.939  1.00  0.00    -0.550 OA
ENDBRANCH   1   2
BRANCH   1   5
ATOM      5  C   UNL     1      10.881   3.525  37.452  1.00  0.00     0.059 C 
BRANCH   5   6
ATOM      6  C   UNL     1      11.267   4.844  38.044  1.00  0.00     0.042 C 
ATOM      7  O   UNL     1      10.520   5.847  37.901  1.00  0.00    -0.550 OA
ATOM      8  O   UNL     1      12.430   4.953  38.797  1.00  0.00    -0.550 OA
ENDBRANCH   5   6
ENDBRANCH   1   5
TORSDOF 3
ENDMDL
MODEL 9
REMARK VINA RESULT:    -3.467      1.820      2.105
REMARK INTER + INTRA:          -4.106
REMARK INTER:                  -3.988
REMARK INTRA:                  -0.118
REMARK UNBOUND:                -0.031
REMARK SMILES O=C([O-])CCC(=O)[O-]
REMARK SMILES IDX 4 1 2 2 1 3 3 4 5 5 6 6 7 7 8 8
REMARK H PARENT
REMARK Flexibility Score: inf
ROOT
ATOM      1  C   UNL     1      12.239   6.394  39.265  1.00  0.00     0.059 C 
ENDROOT
BRANCH   1   2
ATOM      2  C   UNL     1      11.101   6.939  40.069  1.00  0.00     0.042 C 
ATOM      3  O   UNL     1       9.947   7.004  39.570  1.00  0.00    -0.550 OA
ATOM      4  O   UNL     1      11.306   7.329  41.387  1.00  0.00    -0.550 OA
ENDBRANCH   1   2
BRANCH   1   5
ATOM      5  C   UNL     1      12.425   4.901  39.543  1.00  0.00     0.059 C 
BRANCH   5   6
ATOM      6  C   UNL     1      11.642   4.086  38.564  1.00  0.00     0.042 C 
ATOM      7  O   UNL     1      11.323   4.570  37.446  1.00  0.00    -0.550 OA
ATOM      8  O   UNL     1      11.307   2.771  38.865  1.00  0.00    -0.550 OA
ENDBRANCH   5   6
ENDBRANCH   1   5
TORSDOF 3
ENDMDL
