MODEL 1
REMARK VINA RESULT:    -3.527      0.000      0.000
REMARK INTER + INTRA:          -5.898
REMARK INTER:                  -5.383
REMARK INTRA:                  -0.515
REMARK UNBOUND:                -0.515
REMARK SMILES CC1=CCC[C@H](C)C(=O)C[C@H](C(C)C)C(=O)C1
REMARK SMILES IDX 8 1 9 2 6 3 7 4 5 5 4 6 3 7 2 8 1 9 10 11 11 12 15 13 16 14
REMARK SMILES IDX 17 15 12 17 13 18 14 19
REMARK H PARENT
REMARK Flexibility Score: 70.00
ROOT
ATOM      1  C   UNL     1      54.185  19.070  -2.960  1.00  0.00     0.136 C 
ATOM      2  O   UNL     1      54.875  19.362  -1.993  1.00  0.00    -0.299 OA
ENDROOT
BRANCH   1   3
ATOM      3  C   UNL     1      54.860  18.370  -4.129  1.00  0.00     0.053 C 
ATOM      4  C   UNL     1      56.106  19.100  -4.656  1.00  0.00     0.016 C 
BRANCH   3   5
ATOM      5  C   UNL     1      55.097  16.870  -3.845  1.00  0.00     0.015 C 
BRANCH   5   6
ATOM      6  C   UNL     1      54.076  15.933  -4.518  1.00  0.00     0.028 C 
BRANCH   6   7
ATOM      7  C   UNL     1      53.011  15.444  -3.565  1.00  0.00    -0.028 C 
ATOM      8  C   UNL     1      51.715  15.845  -3.564  1.00  0.00    -0.070 CG0
ATOM      9  C   UNL     1      50.817  15.307  -2.477  1.00  0.00     0.039 C 
ATOM     10  G   UNL     1      51.117  16.772  -4.615  1.00  0.00     0.000 G0
ENDBRANCH   6   7
ENDBRANCH   5   6
ENDBRANCH   3   5
ENDBRANCH   1   3
BRANCH   1  11
ATOM     11  C   UNL     1      52.704  19.402  -2.905  1.00  0.00     0.087 C 
BRANCH  11  12
ATOM     12  C   UNL     1      52.011  19.214  -4.284  1.00  0.00     0.066 C 
BRANCH  12  13
ATOM     13  C   UNL     1      50.894  18.190  -4.145  1.00  0.00     0.140 C 
ATOM     14  O   UNL     1      49.817  18.522  -3.668  1.00  0.00    -0.299 OA
BRANCH  13  15
ATOM     15  C   UNL     1      51.099  16.774  -4.621  1.00  0.00     0.106 CG0
ATOM     16  G   UNL     1      51.695  15.853  -3.562  1.00  0.00     0.000 G0
ENDBRANCH  13  15
ENDBRANCH  12  13
BRANCH  12  17
ATOM     17  C   UNL     1      51.478  20.553  -4.895  1.00  0.00    -0.006 C 
ATOM     18  C   UNL     1      51.218  21.630  -3.824  1.00  0.00     0.008 C 
ATOM     19  C   UNL     1      52.472  21.122  -5.929  1.00  0.00     0.008 C 
ENDBRANCH  12  17
ENDBRANCH  11  12
ENDBRANCH   1  11
TORSDOF 1
ENDMDL
MODEL 2
REMARK VINA RESULT:    -3.262      1.803      3.942
REMARK INTER + INTRA:          -5.493
REMARK INTER:                  -5.053
REMARK INTRA:                  -0.440
REMARK UNBOUND:                -0.515
REMARK SMILES CC1=CCC[C@H](C)C(=O)C[C@H](C(C)C)C(=O)C1
REMARK SMILES IDX 8 1 9 2 6 3 7 4 5 5 4 6 3 7 2 8 1 9 10 11 11 12 15 13 16 14
REMARK SMILES IDX 17 15 12 17 13 18 14 19
REMARK H PARENT
REMARK Flexibility Score: 70.00
ROOT
ATOM      1  C   UNL     1      52.355  20.268  -5.271  1.00  0.00     0.136 C 
ATOM      2  O   UNL     1      52.117  20.988  -6.230  1.00  0.00    -0.299 OA
ENDROOT
BRANCH   1   3
ATOM      3  C   UNL     1      51.442  20.378  -4.059  1.00  0.00     0.053 C 
ATOM      4  C   UNL     1      51.408  21.780  -3.430  1.00  0.00     0.016 C 
BRANCH   3   5
ATOM      5  C   UNL     1      50.040  19.791  -4.337  1.00  0.00     0.015 C 
BRANCH   5   6
ATOM      6  C   UNL     1      49.766  18.452  -3.626  1.00  0.00     0.028 C 
BRANCH   6   7
ATOM      7  C   UNL     1      49.756  17.276  -4.574  1.00  0.00    -0.028 C 
ATOM      8  C   UNL     1      50.757  16.371  -4.715  1.00  0.00    -0.070 CG0
ATOM      9  C   UNL     1      50.599  15.312  -5.777  1.00  0.00     0.039 C 
ATOM     10  G   UNL     1      52.004  16.350  -3.837  1.00  0.00     0.000 G0
ENDBRANCH   6   7
ENDBRANCH   5   6
ENDBRANCH   3   5
ENDBRANCH   1   3
BRANCH   1  11
ATOM     11  C   UNL     1      53.521  19.301  -5.374  1.00  0.00     0.087 C 
BRANCH  11  12
ATOM     12  C   UNL     1      53.645  18.396  -4.116  1.00  0.00     0.066 C 
BRANCH  12  13
ATOM     13  C   UNL     1      53.232  16.978  -4.479  1.00  0.00     0.140 C 
ATOM     14  O   UNL     1      53.891  16.336  -5.285  1.00  0.00    -0.299 OA
BRANCH  13  15
ATOM     15  C   UNL     1      52.026  16.350  -3.827  1.00  0.00     0.106 CG0
ATOM     16  G   UNL     1      50.778  16.365  -4.703  1.00  0.00     0.000 G0
ENDBRANCH  13  15
ENDBRANCH  12  13
BRANCH  12  17
ATOM     17  C   UNL     1      55.073  18.423  -3.475  1.00  0.00    -0.006 C 
ATOM     18  C   UNL     1      56.087  19.217  -4.322  1.00  0.00     0.008 C 
ATOM     19  C   UNL     1      55.032  19.037  -2.060  1.00  0.00     0.008 C 
ENDBRANCH  12  17
ENDBRANCH  11  12
ENDBRANCH   1  11
TORSDOF 1
ENDMDL
MODEL 3
REMARK VINA RESULT:    -3.175      2.235      4.330
REMARK INTER + INTRA:          -5.361
REMARK INTER:                  -4.986
REMARK INTRA:                  -0.375
REMARK UNBOUND:                -0.515
REMARK SMILES CC1=CCC[C@H](C)C(=O)C[C@H](C(C)C)C(=O)C1
REMARK SMILES IDX 8 1 9 2 6 3 7 4 5 5 4 6 3 7 2 8 1 9 10 11 11 12 15 13 16 14
REMARK SMILES IDX 17 15 12 17 13 18 14 19
REMARK H PARENT
REMARK Flexibility Score: 70.00
ROOT
ATOM      1  C   UNL     1      54.807  17.910  -2.689  1.00  0.00     0.136 C 
ATOM      2  O   UNL     1      54.609  18.150  -1.507  1.00  0.00    -0.299 OA
ENDROOT
BRANCH   1   3
ATOM      3  C   UNL     1      54.772  19.076  -3.665  1.00  0.00     0.053 C 
ATOM      4  C   UNL     1      55.849  19.006  -4.760  1.00  0.00     0.016 C 
BRANCH   3   5
ATOM      5  C   UNL     1      53.349  19.328  -4.215  1.00  0.00     0.015 C 
BRANCH   5   6
ATOM      6  C   UNL     1      53.084  18.688  -5.591  1.00  0.00     0.028 C 
BRANCH   6   7
ATOM      7  C   UNL     1      51.936  17.706  -5.570  1.00  0.00    -0.028 C 
ATOM      8  C   UNL     1      52.058  16.355  -5.574  1.00  0.00    -0.070 CG0
ATOM      9  C   UNL     1      50.791  15.539  -5.637  1.00  0.00     0.039 C 
ATOM     10  G   UNL     1      53.395  15.628  -5.484  1.00  0.00     0.000 G0
ENDBRANCH   6   7
ENDBRANCH   5   6
ENDBRANCH   3   5
ENDBRANCH   1   3
BRANCH   1  11
ATOM     11  C   UNL     1      55.102  16.475  -3.088  1.00  0.00     0.087 C 
BRANCH  11  12
ATOM     12  C   UNL     1      53.874  15.545  -2.882  1.00  0.00     0.066 C 
BRANCH  12  13
ATOM     13  C   UNL     1      53.563  14.832  -4.189  1.00  0.00     0.140 C 
ATOM     14  O   UNL     1      53.419  13.617  -4.204  1.00  0.00    -0.299 OA
BRANCH  13  15
ATOM     15  C   UNL     1      53.402  15.622  -5.464  1.00  0.00     0.106 CG0
ATOM     16  G   UNL     1      52.075  16.366  -5.561  1.00  0.00     0.000 G0
ENDBRANCH  13  15
ENDBRANCH  12  13
BRANCH  12  17
ATOM     17  C   UNL     1      54.062  14.523  -1.711  1.00  0.00    -0.006 C 
ATOM     18  C   UNL     1      55.545  14.292  -1.360  1.00  0.00     0.008 C 
ATOM     19  C   UNL     1      53.327  14.997  -0.440  1.00  0.00     0.008 C 
ENDBRANCH  12  17
ENDBRANCH  11  12
ENDBRANCH   1  11
TORSDOF 1
ENDMDL
MODEL 4
REMARK VINA RESULT:    -3.146      2.172      4.398
REMARK INTER + INTRA:          -5.316
REMARK INTER:                  -4.911
REMARK INTRA:                  -0.405
REMARK UNBOUND:                -0.515
REMARK SMILES CC1=CCC[C@H](C)C(=O)C[C@H](C(C)C)C(=O)C1
REMARK SMILES IDX 8 1 9 2 6 3 7 4 5 5 4 6 3 7 2 8 1 9 10 11 11 12 15 13 16 14
REMARK SMILES IDX 17 15 12 17 13 18 14 19
REMARK H PARENT
REMARK Flexibility Score: 70.00
ROOT
ATOM      1  C   UNL     1      54.186  17.155  -4.915  1.00  0.00     0.136 C 
ATOM      2  O   UNL     1      53.497  17.231  -5.923  1.00  0.00    -0.299 OA
ENDROOT
BRANCH   1   3
ATOM      3  C   UNL     1      54.695  18.452  -4.306  1.00  0.00     0.053 C 
ATOM      4  C   UNL     1      55.888  19.067  -5.056  1.00  0.00     0.016 C 
BRANCH   3   5
ATOM      5  C   UNL     1      53.550  19.455  -4.040  1.00  0.00     0.015 C 
BRANCH   5   6
ATOM      6  C   UNL     1      52.627  19.062  -2.871  1.00  0.00     0.028 C 
BRANCH   6   7
ATOM      7  C   UNL     1      51.285  18.543  -3.331  1.00  0.00    -0.028 C 
ATOM      8  C   UNL     1      50.797  17.302  -3.085  1.00  0.00    -0.070 CG0
ATOM      9  C   UNL     1      49.469  16.939  -3.701  1.00  0.00     0.039 C 
ATOM     10  G   UNL     1      51.497  16.280  -2.198  1.00  0.00     0.000 G0
ENDBRANCH   6   7
ENDBRANCH   5   6
ENDBRANCH   3   5
ENDBRANCH   1   3
BRANCH   1  11
ATOM     11  C   UNL     1      54.454  15.778  -4.335  1.00  0.00     0.087 C 
BRANCH  11  12
ATOM     12  C   UNL     1      53.925  15.643  -2.879  1.00  0.00     0.066 C 
BRANCH  12  13
ATOM     13  C   UNL     1      52.430  15.362  -2.915  1.00  0.00     0.140 C 
ATOM     14  O   UNL     1      52.006  14.386  -3.519  1.00  0.00    -0.299 OA
BRANCH  13  15
ATOM     15  C   UNL     1      51.470  16.267  -2.185  1.00  0.00     0.106 CG0
ATOM     16  G   UNL     1      50.791  17.293  -3.086  1.00  0.00     0.000 G0
ENDBRANCH  13  15
ENDBRANCH  12  13
BRANCH  12  17
ATOM     17  C   UNL     1      54.685  14.559  -2.044  1.00  0.00    -0.006 C 
ATOM     18  C   UNL     1      55.943  14.034  -2.761  1.00  0.00     0.008 C 
ATOM     19  C   UNL     1      55.103  15.116  -0.667  1.00  0.00     0.008 C 
ENDBRANCH  12  17
ENDBRANCH  11  12
ENDBRANCH   1  11
TORSDOF 1
ENDMDL
MODEL 5
REMARK VINA RESULT:    -2.965      2.412      3.321
REMARK INTER + INTRA:          -5.041
REMARK INTER:                  -4.803
REMARK INTRA:                  -0.238
REMARK UNBOUND:                -0.515
REMARK SMILES CC1=CCC[C@H](C)C(=O)C[C@H](C(C)C)C(=O)C1
REMARK SMILES IDX 8 1 9 2 6 3 7 4 5 5 4 6 3 7 2 8 1 9 10 11 11 12 15 13 16 14
REMARK SMILES IDX 17 15 12 17 13 18 14 19
REMARK H PARENT
REMARK Flexibility Score: 70.00
ROOT
ATOM      1  C   UNL     1      54.629  15.806  -1.762  1.00  0.00     0.136 C 
ATOM      2  O   UNL     1      55.062  15.922  -0.624  1.00  0.00    -0.299 OA
ENDROOT
BRANCH   1   3
ATOM      3  C   UNL     1      55.050  14.582  -2.560  1.00  0.00     0.053 C 
ATOM      4  C   UNL     1      56.240  13.821  -1.951  1.00  0.00     0.016 C 
BRANCH   3   5
ATOM      5  C   UNL     1      53.848  13.674  -2.904  1.00  0.00     0.015 C 
BRANCH   5   6
ATOM      6  C   UNL     1      53.499  13.635  -4.404  1.00  0.00     0.028 C 
BRANCH   6   7
ATOM      7  C   UNL     1      52.087  14.089  -4.690  1.00  0.00    -0.028 C 
ATOM      8  C   UNL     1      51.737  15.306  -5.176  1.00  0.00    -0.070 CG0
ATOM      9  C   UNL     1      50.266  15.607  -5.317  1.00  0.00     0.039 C 
ATOM     10  G   UNL     1      52.746  16.361  -5.617  1.00  0.00     0.000 G0
ENDBRANCH   6   7
ENDBRANCH   5   6
ENDBRANCH   3   5
ENDBRANCH   1   3
BRANCH   1  11
ATOM     11  C   UNL     1      53.680  16.874  -2.277  1.00  0.00     0.087 C 
BRANCH  11  12
ATOM     12  C   UNL     1      54.128  17.439  -3.655  1.00  0.00     0.066 C 
BRANCH  12  13
ATOM     13  C   UNL     1      52.931  17.470  -4.594  1.00  0.00     0.140 C 
ATOM     14  O   UNL     1      52.134  18.396  -4.537  1.00  0.00    -0.299 OA
BRANCH  13  15
ATOM     15  C   UNL     1      52.739  16.376  -5.614  1.00  0.00     0.106 CG0
ATOM     16  G   UNL     1      51.741  15.306  -5.184  1.00  0.00     0.000 G0
ENDBRANCH  13  15
ENDBRANCH  12  13
BRANCH  12  17
ATOM     17  C   UNL     1      54.805  18.847  -3.555  1.00  0.00    -0.006 C 
ATOM     18  C   UNL     1      55.260  19.184  -2.121  1.00  0.00     0.008 C 
ATOM     19  C   UNL     1      56.028  18.938  -4.490  1.00  0.00     0.008 C 
ENDBRANCH  12  17
ENDBRANCH  11  12
ENDBRANCH   1  11
TORSDOF 1
ENDMDL
MODEL 6
REMARK VINA RESULT:    -2.943      1.829      4.187
REMARK INTER + INTRA:          -5.006
REMARK INTER:                  -4.679
REMARK INTRA:                  -0.327
REMARK UNBOUND:                -0.515
REMARK SMILES CC1=CCC[C@H](C)C(=O)C[C@H](C(C)C)C(=O)C1
REMARK SMILES IDX 8 1 9 2 6 3 7 4 5 5 4 6 3 7 2 8 1 9 10 11 11 12 15 13 16 14
REMARK SMILES IDX 17 15 12 17 13 18 14 19
REMARK H PARENT
REMARK Flexibility Score: 70.00
ROOT
ATOM      1  C   UNL     1      54.508  16.536  -3.367  1.00  0.00     0.136 C 
ATOM      2  O   UNL     1      55.242  15.802  -2.720  1.00  0.00    -0.299 OA
ENDROOT
BRANCH   1   3
ATOM      3  C   UNL     1      54.562  18.028  -3.076  1.00  0.00     0.053 C 
ATOM      4  C   UNL     1      54.874  18.366  -1.609  1.00  0.00     0.016 C 
BRANCH   3   5
ATOM      5  C   UNL     1      55.457  18.781  -4.087  1.00  0.00     0.015 C 
BRANCH   5   6
ATOM      6  C   UNL     1      54.732  19.197  -5.381  1.00  0.00     0.028 C 
BRANCH   6   7
ATOM      7  C   UNL     1      53.345  19.739  -5.129  1.00  0.00    -0.028 C 
ATOM      8  C   UNL     1      52.187  19.140  -5.504  1.00  0.00    -0.070 CG0
ATOM      9  C   UNL     1      50.899  19.879  -5.238  1.00  0.00     0.039 C 
ATOM     10  G   UNL     1      52.121  17.757  -6.141  1.00  0.00     0.000 G0
ENDBRANCH   6   7
ENDBRANCH   5   6
ENDBRANCH   3   5
ENDBRANCH   1   3
BRANCH   1  11
ATOM     11  C   UNL     1      53.622  15.907  -4.427  1.00  0.00     0.087 C 
BRANCH  11  12
ATOM     12  C   UNL     1      52.111  16.090  -4.113  1.00  0.00     0.066 C 
BRANCH  12  13
ATOM     13  C   UNL     1      51.421  16.704  -5.322  1.00  0.00     0.140 C 
ATOM     14  O   UNL     1      50.278  16.373  -5.607  1.00  0.00    -0.299 OA
BRANCH  13  15
ATOM     15  C   UNL     1      52.131  17.741  -6.155  1.00  0.00     0.106 CG0
ATOM     16  G   UNL     1      52.178  19.121  -5.508  1.00  0.00     0.000 G0
ENDBRANCH  13  15
ENDBRANCH  12  13
BRANCH  12  17
ATOM     17  C   UNL     1      51.406  14.764  -3.673  1.00  0.00    -0.006 C 
ATOM     18  C   UNL     1      52.133  13.507  -4.191  1.00  0.00     0.008 C 
ATOM     19  C   UNL     1      51.310  14.674  -2.136  1.00  0.00     0.008 C 
ENDBRANCH  12  17
ENDBRANCH  11  12
ENDBRANCH   1  11
TORSDOF 1
ENDMDL
MODEL 7
REMARK VINA RESULT:    -2.894      2.192      4.446
REMARK INTER + INTRA:          -4.932
REMARK INTER:                  -4.578
REMARK INTRA:                  -0.354
REMARK UNBOUND:                -0.515
REMARK SMILES CC1=CCC[C@H](C)C(=O)C[C@H](C(C)C)C(=O)C1
REMARK SMILES IDX 8 1 9 2 6 3 7 4 5 5 4 6 3 7 2 8 1 9 10 11 11 12 15 13 16 14
REMARK SMILES IDX 17 15 12 17 13 18 14 19
REMARK H PARENT
REMARK Flexibility Score: 70.00
ROOT
ATOM      1  C   UNL     1      51.692  19.613  -5.863  1.00  0.00     0.136 C 
ATOM      2  O   UNL     1      50.715  18.976  -6.232  1.00  0.00    -0.299 OA
ENDROOT
BRANCH   1   3
ATOM      3  C   UNL     1      51.538  21.117  -5.697  1.00  0.00     0.053 C 
ATOM      4  C   UNL     1      51.731  21.910  -7.000  1.00  0.00     0.016 C 
BRANCH   3   5
ATOM      5  C   UNL     1      50.244  21.485  -4.937  1.00  0.00     0.015 C 
BRANCH   5   6
ATOM      6  C   UNL     1      50.320  21.253  -3.416  1.00  0.00     0.028 C 
BRANCH   6   7
ATOM      7  C   UNL     1      49.521  20.054  -2.964  1.00  0.00    -0.028 C 
ATOM      8  C   UNL     1      50.042  18.904  -2.468  1.00  0.00    -0.070 CG0
ATOM      9  C   UNL     1      49.086  17.782  -2.150  1.00  0.00     0.039 C 
ATOM     10  G   UNL     1      51.527  18.703  -2.186  1.00  0.00     0.000 G0
ENDBRANCH   6   7
ENDBRANCH   5   6
ENDBRANCH   3   5
ENDBRANCH   1   3
BRANCH   1  11
ATOM     11  C   UNL     1      52.972  18.850  -5.570  1.00  0.00     0.087 C 
BRANCH  11  12
ATOM     12  C   UNL     1      53.337  18.877  -4.059  1.00  0.00     0.066 C 
BRANCH  12  13
ATOM     13  C   UNL     1      52.310  18.066  -3.283  1.00  0.00     0.140 C 
ATOM     14  O   UNL     1      52.137  16.884  -3.549  1.00  0.00    -0.299 OA
BRANCH  13  15
ATOM     15  C   UNL     1      51.522  18.708  -2.168  1.00  0.00     0.106 CG0
ATOM     16  G   UNL     1      50.043  18.887  -2.489  1.00  0.00     0.000 G0
ENDBRANCH  13  15
ENDBRANCH  12  13
BRANCH  12  17
ATOM     17  C   UNL     1      54.791  18.377  -3.766  1.00  0.00    -0.006 C 
ATOM     18  C   UNL     1      55.848  19.092  -4.630  1.00  0.00     0.008 C 
ATOM     19  C   UNL     1      55.156  18.581  -2.281  1.00  0.00     0.008 C 
ENDBRANCH  12  17
ENDBRANCH  11  12
ENDBRANCH   1  11
TORSDOF 1
ENDMDL
MODEL 8
REMARK VINA RESULT:    -2.852      1.898      3.772
REMARK INTER + INTRA:          -4.868
REMARK INTER:                  -4.835
REMARK INTRA:                  -0.033
REMARK UNBOUND:                -0.515
REMARK SMILES CC1=CCC[C@H](C)C(=O)C[C@H](C(C)C)C(=O)C1
REMARK SMILES IDX 8 1 9 2 6 3 7 4 5 5 4 6 3 7 2 8 1 9 10 11 11 12 15 13 16 14
REMARK SMILES IDX 17 15 12 17 13 18 14 19
REMARK H PARENT
REMARK Flexibility Score: 70.00
ROOT
ATOM      1  C   UNL     1      53.873  17.504  -2.341  1.00  0.00     0.136 C 
ATOM      2  O   UNL     1      54.045  17.936  -1.209  1.00  0.00    -0.299 OA
ENDROOT
BRANCH   1   3
ATOM      3  C   UNL     1      55.104  17.155  -3.162  1.00  0.00     0.053 C 
ATOM      4  C   UNL     1      55.073  15.738  -3.759  1.00  0.00     0.016 C 
BRANCH   3   5
ATOM      5  C   UNL     1      55.442  18.253  -4.195  1.00  0.00     0.015 C 
BRANCH   5   6
ATOM      6  C   UNL     1      54.460  18.324  -5.381  1.00  0.00     0.028 C 
BRANCH   6   7
ATOM      7  C   UNL     1      53.838  19.690  -5.546  1.00  0.00    -0.028 C 
ATOM      8  C   UNL     1      52.523  19.980  -5.380  1.00  0.00    -0.070 CG0
ATOM      9  C   UNL     1      52.074  21.389  -5.673  1.00  0.00     0.039 C 
ATOM     10  G   UNL     1      51.494  18.971  -4.882  1.00  0.00     0.000 G0
ENDBRANCH   6   7
ENDBRANCH   5   6
ENDBRANCH   3   5
ENDBRANCH   1   3
BRANCH   1  11
ATOM     11  C   UNL     1      52.445  17.323  -2.826  1.00  0.00     0.087 C 
BRANCH  11  12
ATOM     12  C   UNL     1      51.501  18.439  -2.299  1.00  0.00     0.066 C 
BRANCH  12  13
ATOM     13  C   UNL     1      50.986  19.254  -3.475  1.00  0.00     0.140 C 
ATOM     14  O   UNL     1      50.183  20.158  -3.287  1.00  0.00    -0.299 OA
BRANCH  13  15
ATOM     15  C   UNL     1      51.484  18.972  -4.870  1.00  0.00     0.106 CG0
ATOM     16  G   UNL     1      52.518  19.976  -5.367  1.00  0.00     0.000 G0
ENDBRANCH  13  15
ENDBRANCH  12  13
BRANCH  12  17
ATOM     17  C   UNL     1      50.319  17.889  -1.431  1.00  0.00    -0.006 C 
ATOM     18  C   UNL     1      49.859  16.488  -1.879  1.00  0.00     0.008 C 
ATOM     19  C   UNL     1      50.713  17.821   0.059  1.00  0.00     0.008 C 
ENDBRANCH  12  17
ENDBRANCH  11  12
ENDBRANCH   1  11
TORSDOF 1
ENDMDL
MODEL 9
REMARK VINA RESULT:    -2.795      2.193      3.214
REMARK INTER + INTRA:          -4.781
REMARK INTER:                  -4.967
REMARK INTRA:                   0.187
REMARK UNBOUND:                -0.515
REMARK SMILES CC1=CCC[C@H](C)C(=O)C[C@H](C(C)C)C(=O)C1
REMARK SMILES IDX 8 1 9 2 6 3 7 4 5 5 4 6 3 7 2 8 1 9 10 11 11 12 15 13 16 14
REMARK SMILES IDX 17 15 12 17 13 18 14 19
REMARK H PARENT
REMARK Flexibility Score: 70.00
ROOT
ATOM      1  C   UNL     1      53.676  19.053  -4.769  1.00  0.00     0.136 C 
ATOM      2  O   UNL     1      53.601  20.085  -5.423  1.00  0.00    -0.299 OA
ENDROOT
BRANCH   1   3
ATOM      3  C   UNL     1      55.022  18.698  -4.157  1.00  0.00     0.053 C 
ATOM      4  C   UNL     1      56.225  19.275  -4.920  1.00  0.00     0.016 C 
BRANCH   3   5
ATOM      5  C   UNL     1      55.060  18.984  -2.639  1.00  0.00     0.015 C 
BRANCH   5   6
ATOM      6  C   UNL     1      54.578  17.810  -1.765  1.00  0.00     0.028 C 
BRANCH   6   7
ATOM      7  C   UNL     1      55.077  16.471  -2.255  1.00  0.00    -0.028 C 
ATOM      8  C   UNL     1      54.327  15.540  -2.895  1.00  0.00    -0.070 CG0
ATOM      9  C   UNL     1      54.983  14.224  -3.233  1.00  0.00     0.039 C 
ATOM     10  G   UNL     1      52.880  15.767  -3.319  1.00  0.00     0.000 G0
ENDBRANCH   6   7
ENDBRANCH   5   6
ENDBRANCH   3   5
ENDBRANCH   1   3
BRANCH   1  11
ATOM     11  C   UNL     1      52.415  18.225  -4.594  1.00  0.00     0.087 C 
BRANCH  11  12
ATOM     12  C   UNL     1      52.358  17.028  -5.585  1.00  0.00     0.066 C 
BRANCH  12  13
ATOM     13  C   UNL     1      52.710  15.748  -4.841  1.00  0.00     0.140 C 
ATOM     14  O   UNL     1      52.876  14.707  -5.462  1.00  0.00    -0.299 OA
BRANCH  13  15
ATOM     15  C   UNL     1      52.882  15.764  -3.343  1.00  0.00     0.106 CG0
ATOM     16  G   UNL     1      54.320  15.541  -2.889  1.00  0.00     0.000 G0
ENDBRANCH  13  15
ENDBRANCH  12  13
BRANCH  12  17
ATOM     17  C   UNL     1      50.981  16.897  -6.317  1.00  0.00    -0.006 C 
ATOM     18  C   UNL     1      50.153  18.195  -6.256  1.00  0.00     0.008 C 
ATOM     19  C   UNL     1      51.178  16.512  -7.798  1.00  0.00     0.008 C 
ENDBRANCH  12  17
ENDBRANCH  11  12
ENDBRANCH   1  11
TORSDOF 1
ENDMDL
