MODEL 1
REMARK VINA RESULT:    -3.369      0.000      0.000
REMARK INTER + INTRA:          -3.664
REMARK INTER:                  -3.566
REMARK INTRA:                  -0.097
REMARK UNBOUND:                -0.097
REMARK SMILES C=C(C)[C@H]1CC=C(C)C(=O)C1
REMARK SMILES IDX 8 1 7 2 6 3 5 4 4 5 11 6 9 7 10 8 2 9 1 10 3 11
REMARK H PARENT
REMARK Flexibility Score: inf
ROOT
ATOM      1  C   UNL     1      22.410  44.394  92.269  1.00  0.00     0.048 C 
ATOM      2  C   UNL     1      21.923  43.411  91.241  1.00  0.00    -0.012 C 
ATOM      3  C   UNL     1      22.497  43.373  90.026  1.00  0.00    -0.019 C 
ATOM      4  C   UNL     1      22.037  42.421  88.954  1.00  0.00     0.036 C 
ATOM      5  C   UNL     1      21.525  41.103  89.565  1.00  0.00     0.025 C 
ATOM      6  C   UNL     1      20.424  41.387  90.604  1.00  0.00     0.089 C 
ATOM      7  C   UNL     1      20.896  42.403  91.608  1.00  0.00     0.158 C 
ATOM      8  O   UNL     1      20.382  42.414  92.760  1.00  0.00    -0.295 OA
ENDROOT
BRANCH   5   9
ATOM      9  C   UNL     1      21.046  40.134  88.491  1.00  0.00    -0.077 C 
ATOM     10  C   UNL     1      20.381  39.010  88.811  1.00  0.00     0.008 C 
ATOM     11  C   UNL     1      21.313  40.426  87.037  1.00  0.00     0.039 C 
ENDBRANCH   5   9
TORSDOF 1
ENDMDL
MODEL 2
REMARK VINA RESULT:    -3.368      2.171      4.826
REMARK INTER + INTRA:          -3.663
REMARK INTER:                  -3.565
REMARK INTRA:                  -0.098
REMARK UNBOUND:                -0.097
REMARK SMILES C=C(C)[C@H]1CC=C(C)C(=O)C1
REMARK SMILES IDX 8 1 7 2 6 3 5 4 4 5 11 6 9 7 10 8 2 9 1 10 3 11
REMARK H PARENT
REMARK Flexibility Score: inf
ROOT
ATOM      1  C   UNL     1      21.529  43.085  89.011  1.00  0.00     0.048 C 
ATOM      2  C   UNL     1      21.545  42.984  90.512  1.00  0.00    -0.012 C 
ATOM      3  C   UNL     1      22.262  43.863  91.234  1.00  0.00    -0.019 C 
ATOM      4  C   UNL     1      22.327  43.796  92.737  1.00  0.00     0.036 C 
ATOM      5  C   UNL     1      21.006  43.266  93.326  1.00  0.00     0.025 C 
ATOM      6  C   UNL     1      20.648  41.906  92.698  1.00  0.00     0.089 C 
ATOM      7  C   UNL     1      20.674  41.995  91.197  1.00  0.00     0.158 C 
ATOM      8  O   UNL     1      19.973  41.194  90.521  1.00  0.00    -0.295 OA
ENDROOT
BRANCH   5   9
ATOM      9  C   UNL     1      21.062  43.184  94.847  1.00  0.00    -0.077 C 
ATOM     10  C   UNL     1      20.381  42.242  95.522  1.00  0.00     0.008 C 
ATOM     11  C   UNL     1      21.893  44.171  95.626  1.00  0.00     0.039 C 
ENDBRANCH   5   9
TORSDOF 1
ENDMDL
MODEL 3
REMARK VINA RESULT:    -3.365      1.395      4.228
REMARK INTER + INTRA:          -3.659
REMARK INTER:                  -3.566
REMARK INTRA:                  -0.094
REMARK UNBOUND:                -0.097
REMARK SMILES C=C(C)[C@H]1CC=C(C)C(=O)C1
REMARK SMILES IDX 8 1 7 2 6 3 5 4 4 5 11 6 9 7 10 8 2 9 1 10 3 11
REMARK H PARENT
REMARK Flexibility Score: inf
ROOT
ATOM      1  C   UNL     1      19.382  38.023  88.892  1.00  0.00     0.048 C 
ATOM      2  C   UNL     1      20.198  39.234  89.254  1.00  0.00    -0.012 C 
ATOM      3  C   UNL     1      21.204  39.627  88.454  1.00  0.00    -0.019 C 
ATOM      4  C   UNL     1      22.062  40.821  88.778  1.00  0.00     0.036 C 
ATOM      5  C   UNL     1      21.254  41.899  89.525  1.00  0.00     0.025 C 
ATOM      6  C   UNL     1      20.593  41.298  90.779  1.00  0.00     0.089 C 
ATOM      7  C   UNL     1      19.813  40.062  90.425  1.00  0.00     0.158 C 
ATOM      8  O   UNL     1      18.846  39.715  91.156  1.00  0.00    -0.295 OA
ENDROOT
BRANCH   5   9
ATOM      9  C   UNL     1      22.113  43.109  89.868  1.00  0.00    -0.077 C 
ATOM     10  C   UNL     1      22.821  43.754  88.924  1.00  0.00     0.008 C 
ATOM     11  C   UNL     1      22.182  43.608  91.288  1.00  0.00     0.039 C 
ENDBRANCH   5   9
TORSDOF 1
ENDMDL
MODEL 4
REMARK VINA RESULT:    -3.325      1.941      3.459
REMARK INTER + INTRA:          -3.616
REMARK INTER:                  -3.519
REMARK INTRA:                  -0.097
REMARK UNBOUND:                -0.097
REMARK SMILES C=C(C)[C@H]1CC=C(C)C(=O)C1
REMARK SMILES IDX 8 1 7 2 6 3 5 4 4 5 11 6 9 7 10 8 2 9 1 10 3 11
REMARK H PARENT
REMARK Flexibility Score: inf
ROOT
ATOM      1  C   UNL     1      18.621  40.570  94.572  1.00  0.00     0.048 C 
ATOM      2  C   UNL     1      19.441  40.910  93.358  1.00  0.00    -0.012 C 
ATOM      3  C   UNL     1      19.439  40.085  92.297  1.00  0.00    -0.019 C 
ATOM      4  C   UNL     1      20.255  40.368  91.063  1.00  0.00     0.036 C 
ATOM      5  C   UNL     1      20.376  41.884  90.815  1.00  0.00     0.025 C 
ATOM      6  C   UNL     1      20.943  42.587  92.062  1.00  0.00     0.089 C 
ATOM      7  C   UNL     1      20.150  42.213  93.285  1.00  0.00     0.158 C 
ATOM      8  O   UNL     1      20.123  43.005  94.266  1.00  0.00    -0.295 OA
ENDROOT
BRANCH   5   9
ATOM      9  C   UNL     1      21.208  42.185  89.574  1.00  0.00    -0.077 C 
ATOM     10  C   UNL     1      21.567  43.442  89.262  1.00  0.00     0.008 C 
ATOM     11  C   UNL     1      21.647  41.063  88.669  1.00  0.00     0.039 C 
ENDBRANCH   5   9
TORSDOF 1
ENDMDL
MODEL 5
REMARK VINA RESULT:    -3.286      2.008      4.525
REMARK INTER + INTRA:          -3.576
REMARK INTER:                  -3.478
REMARK INTRA:                  -0.098
REMARK UNBOUND:                -0.097
REMARK SMILES C=C(C)[C@H]1CC=C(C)C(=O)C1
REMARK SMILES IDX 8 1 7 2 6 3 5 4 4 5 11 6 9 7 10 8 2 9 1 10 3 11
REMARK H PARENT
REMARK Flexibility Score: inf
ROOT
ATOM      1  C   UNL     1      21.709  40.387  87.621  1.00  0.00     0.048 C 
ATOM      2  C   UNL     1      21.125  40.805  88.942  1.00  0.00    -0.012 C 
ATOM      3  C   UNL     1      20.454  39.912  89.690  1.00  0.00    -0.019 C 
ATOM      4  C   UNL     1      19.835  40.282  91.012  1.00  0.00     0.036 C 
ATOM      5  C   UNL     1      20.664  41.365  91.729  1.00  0.00     0.025 C 
ATOM      6  C   UNL     1      20.854  42.588  90.812  1.00  0.00     0.089 C 
ATOM      7  C   UNL     1      21.397  42.165  89.474  1.00  0.00     0.158 C 
ATOM      8  O   UNL     1      22.057  42.993  88.790  1.00  0.00    -0.295 OA
ENDROOT
BRANCH   5   9
ATOM      9  C   UNL     1      20.043  41.756  93.064  1.00  0.00    -0.077 C 
ATOM     10  C   UNL     1      20.341  42.925  93.658  1.00  0.00     0.008 C 
ATOM     11  C   UNL     1      19.073  40.827  93.747  1.00  0.00     0.039 C 
ENDBRANCH   5   9
TORSDOF 1
ENDMDL
MODEL 6
REMARK VINA RESULT:    -3.271      1.558      2.733
REMARK INTER + INTRA:          -3.560
REMARK INTER:                  -3.464
REMARK INTRA:                  -0.096
REMARK UNBOUND:                -0.097
REMARK SMILES C=C(C)[C@H]1CC=C(C)C(=O)C1
REMARK SMILES IDX 8 1 7 2 6 3 5 4 4 5 11 6 9 7 10 8 2 9 1 10 3 11
REMARK H PARENT
REMARK Flexibility Score: inf
ROOT
ATOM      1  C   UNL     1      22.940  43.190  88.929  1.00  0.00     0.048 C 
ATOM      2  C   UNL     1      21.933  42.084  89.084  1.00  0.00    -0.012 C 
ATOM      3  C   UNL     1      21.883  41.092  88.179  1.00  0.00    -0.019 C 
ATOM      4  C   UNL     1      20.883  39.971  88.277  1.00  0.00     0.036 C 
ATOM      5  C   UNL     1      20.563  39.640  89.748  1.00  0.00     0.025 C 
ATOM      6  C   UNL     1      20.096  40.905  90.491  1.00  0.00     0.089 C 
ATOM      7  C   UNL     1      21.081  42.024  90.300  1.00  0.00     0.158 C 
ATOM      8  O   UNL     1      21.153  42.936  91.168  1.00  0.00    -0.295 OA
ENDROOT
BRANCH   5   9
ATOM      9  C   UNL     1      19.544  38.513  89.862  1.00  0.00    -0.077 C 
ATOM     10  C   UNL     1      19.339  37.651  88.851  1.00  0.00     0.008 C 
ATOM     11  C   UNL     1      18.742  38.345  91.127  1.00  0.00     0.039 C 
ENDBRANCH   5   9
TORSDOF 1
ENDMDL
MODEL 7
REMARK VINA RESULT:    -3.248      1.759      4.279
REMARK INTER + INTRA:          -3.536
REMARK INTER:                  -3.438
REMARK INTRA:                  -0.098
REMARK UNBOUND:                -0.097
REMARK SMILES C=C(C)[C@H]1CC=C(C)C(=O)C1
REMARK SMILES IDX 8 1 7 2 6 3 5 4 4 5 11 6 9 7 10 8 2 9 1 10 3 11
REMARK H PARENT
REMARK Flexibility Score: inf
ROOT
ATOM      1  C   UNL     1      21.321  40.396  87.347  1.00  0.00     0.048 C 
ATOM      2  C   UNL     1      21.318  40.899  88.764  1.00  0.00    -0.012 C 
ATOM      3  C   UNL     1      21.976  42.029  89.075  1.00  0.00    -0.019 C 
ATOM      4  C   UNL     1      22.020  42.567  90.480  1.00  0.00     0.036 C 
ATOM      5  C   UNL     1      20.720  42.242  91.240  1.00  0.00     0.025 C 
ATOM      6  C   UNL     1      20.444  40.727  91.204  1.00  0.00     0.089 C 
ATOM      7  C   UNL     1      20.489  40.216  89.790  1.00  0.00     0.158 C 
ATOM      8  O   UNL     1      19.842  39.175  89.492  1.00  0.00    -0.295 OA
ENDROOT
BRANCH   5   9
ATOM      9  C   UNL     1      20.755  42.772  92.668  1.00  0.00    -0.077 C 
ATOM     10  C   UNL     1      19.904  42.318  93.603  1.00  0.00     0.008 C 
ATOM     11  C   UNL     1      21.759  43.826  93.057  1.00  0.00     0.039 C 
ENDBRANCH   5   9
TORSDOF 1
ENDMDL
MODEL 8
REMARK VINA RESULT:    -3.247      2.778      5.559
REMARK INTER + INTRA:          -3.534
REMARK INTER:                  -3.437
REMARK INTRA:                  -0.097
REMARK UNBOUND:                -0.097
REMARK SMILES C=C(C)[C@H]1CC=C(C)C(=O)C1
REMARK SMILES IDX 8 1 7 2 6 3 5 4 4 5 11 6 9 7 10 8 2 9 1 10 3 11
REMARK H PARENT
REMARK Flexibility Score: inf
ROOT
ATOM      1  C   UNL     1      19.396  37.733  88.885  1.00  0.00     0.048 C 
ATOM      2  C   UNL     1      19.309  38.732  90.006  1.00  0.00    -0.012 C 
ATOM      3  C   UNL     1      18.559  38.461  91.088  1.00  0.00    -0.019 C 
ATOM      4  C   UNL     1      18.422  39.433  92.229  1.00  0.00     0.036 C 
ATOM      5  C   UNL     1      19.713  40.252  92.417  1.00  0.00     0.025 C 
ATOM      6  C   UNL     1      20.101  40.950  91.100  1.00  0.00     0.089 C 
ATOM      7  C   UNL     1      20.146  39.958  89.970  1.00  0.00     0.158 C 
ATOM      8  O   UNL     1      20.878  40.197  88.972  1.00  0.00    -0.295 OA
ENDROOT
BRANCH   5   9
ATOM      9  C   UNL     1      19.585  41.248  93.564  1.00  0.00    -0.077 C 
ATOM     10  C   UNL     1      20.076  42.496  93.464  1.00  0.00     0.008 C 
ATOM     11  C   UNL     1      18.898  40.843  94.842  1.00  0.00     0.039 C 
ENDBRANCH   5   9
TORSDOF 1
ENDMDL
MODEL 9
REMARK VINA RESULT:    -3.239      2.006      3.239
REMARK INTER + INTRA:          -3.526
REMARK INTER:                  -3.429
REMARK INTRA:                  -0.096
REMARK UNBOUND:                -0.097
REMARK SMILES C=C(C)[C@H]1CC=C(C)C(=O)C1
REMARK SMILES IDX 8 1 7 2 6 3 5 4 4 5 11 6 9 7 10 8 2 9 1 10 3 11
REMARK H PARENT
REMARK Flexibility Score: inf
ROOT
ATOM      1  C   UNL     1      22.266  44.261  96.044  1.00  0.00     0.048 C 
ATOM      2  C   UNL     1      21.828  43.889  94.655  1.00  0.00    -0.012 C 
ATOM      3  C   UNL     1      22.506  44.354  93.592  1.00  0.00    -0.019 C 
ATOM      4  C   UNL     1      22.100  44.027  92.179  1.00  0.00     0.036 C 
ATOM      5  C   UNL     1      21.474  42.621  92.093  1.00  0.00     0.025 C 
ATOM      6  C   UNL     1      20.299  42.498  93.081  1.00  0.00     0.089 C 
ATOM      7  C   UNL     1      20.725  42.912  94.463  1.00  0.00     0.158 C 
ATOM      8  O   UNL     1      20.111  42.447  95.461  1.00  0.00    -0.295 OA
ENDROOT
BRANCH   5   9
ATOM      9  C   UNL     1      21.049  42.281  90.670  1.00  0.00    -0.077 C 
ATOM     10  C   UNL     1      20.471  41.104  90.376  1.00  0.00     0.008 C 
ATOM     11  C   UNL     1      21.274  43.272  89.558  1.00  0.00     0.039 C 
ENDBRANCH   5   9
TORSDOF 1
ENDMDL
