MODEL 1
REMARK VINA RESULT:    -3.195      0.000      0.000
REMARK INTER + INTRA:          -4.304
REMARK INTER:                  -4.876
REMARK INTRA:                   0.572
REMARK UNBOUND:                 0.572
REMARK SMILES CC1=CCC[C@@H](C)C(=O)C[C@H](C(C)C)C(=O)C1
REMARK SMILES IDX 8 1 9 2 6 3 7 4 5 5 4 6 3 7 2 8 1 9 10 11 11 12 15 13 16 14
REMARK SMILES IDX 17 15 12 17 13 18 14 19
REMARK H PARENT
REMARK Flexibility Score: 70.00
ROOT
ATOM      1  C   UNL     1      27.871  39.065  18.905  1.00  0.00     0.136 C 
ATOM      2  O   UNL     1      27.022  39.000  18.026  1.00  0.00    -0.299 OA
ENDROOT
BRANCH   1   3
ATOM      3  C   UNL     1      28.021  40.346  19.705  1.00  0.00     0.053 C 
ATOM      4  C   UNL     1      28.855  40.093  20.969  1.00  0.00     0.016 C 
BRANCH   3   5
ATOM      5  C   UNL     1      26.634  40.925  20.066  1.00  0.00     0.015 C 
BRANCH   5   6
ATOM      6  C   UNL     1      26.146  40.418  21.438  1.00  0.00     0.028 C 
BRANCH   6   7
ATOM      7  C   UNL     1      24.889  39.588  21.352  1.00  0.00    -0.028 C 
ATOM      8  C   UNL     1      24.835  38.234  21.415  1.00  0.00    -0.070 CG0
ATOM      9  C   UNL     1      23.492  37.578  21.210  1.00  0.00     0.039 C 
ATOM     10  G   UNL     1      26.040  37.355  21.726  1.00  0.00     0.000 G0
ENDBRANCH   6   7
ENDBRANCH   5   6
ENDBRANCH   3   5
ENDBRANCH   1   3
BRANCH   1  11
ATOM     11  C   UNL     1      28.737  37.856  19.178  1.00  0.00     0.087 C 
BRANCH  11  12
ATOM     12  C   UNL     1      28.305  37.100  20.464  1.00  0.00     0.066 C 
BRANCH  12  13
ATOM     13  C   UNL     1      26.794  36.916  20.513  1.00  0.00     0.140 C 
ATOM     14  O   UNL     1      26.207  36.373  19.588  1.00  0.00    -0.299 OA
BRANCH  13  15
ATOM     15  C   UNL     1      26.020  37.350  21.735  1.00  0.00     0.106 CG0
ATOM     16  G   UNL     1      24.819  38.234  21.423  1.00  0.00     0.000 G0
ENDBRANCH  13  15
ENDBRANCH  12  13
BRANCH  12  17
ATOM     17  C   UNL     1      29.063  35.749  20.677  1.00  0.00    -0.006 C 
ATOM     18  C   UNL     1      29.125  34.928  19.379  1.00  0.00     0.008 C 
ATOM     19  C   UNL     1      28.485  34.883  21.812  1.00  0.00     0.008 C 
ENDBRANCH  12  17
ENDBRANCH  11  12
ENDBRANCH   1  11
TORSDOF 1
ENDMDL
MODEL 2
REMARK VINA RESULT:    -3.006      1.917      4.811
REMARK INTER + INTRA:          -4.016
REMARK INTER:                  -4.337
REMARK INTRA:                   0.322
REMARK UNBOUND:                 0.572
REMARK SMILES CC1=CCC[C@@H](C)C(=O)C[C@H](C(C)C)C(=O)C1
REMARK SMILES IDX 8 1 9 2 6 3 7 4 5 5 4 6 3 7 2 8 1 9 10 11 11 12 15 13 16 14
REMARK SMILES IDX 17 15 12 17 13 18 14 19
REMARK H PARENT
REMARK Flexibility Score: 70.00
ROOT
ATOM      1  C   UNL     1      25.497  38.693  21.260  1.00  0.00     0.136 C 
ATOM      2  O   UNL     1      26.084  38.096  22.152  1.00  0.00    -0.299 OA
ENDROOT
BRANCH   1   3
ATOM      3  C   UNL     1      24.194  38.135  20.719  1.00  0.00     0.053 C 
ATOM      4  C   UNL     1      23.031  38.486  21.657  1.00  0.00     0.016 C 
BRANCH   3   5
ATOM      5  C   UNL     1      24.301  36.606  20.520  1.00  0.00     0.015 C 
BRANCH   5   6
ATOM      6  C   UNL     1      25.022  36.254  19.204  1.00  0.00     0.028 C 
BRANCH   6   7
ATOM      7  C   UNL     1      26.507  36.046  19.377  1.00  0.00    -0.028 C 
ATOM      8  C   UNL     1      27.472  36.924  19.008  1.00  0.00    -0.070 CG0
ATOM      9  C   UNL     1      28.909  36.494  19.172  1.00  0.00     0.039 C 
ATOM     10  G   UNL     1      27.182  38.326  18.486  1.00  0.00     0.000 G0
ENDBRANCH   6   7
ENDBRANCH   5   6
ENDBRANCH   3   5
ENDBRANCH   1   3
BRANCH   1  11
ATOM     11  C   UNL     1      26.084  39.983  20.732  1.00  0.00     0.087 C 
BRANCH  11  12
ATOM     12  C   UNL     1      27.622  39.894  20.538  1.00  0.00     0.066 C 
BRANCH  12  13
ATOM     13  C   UNL     1      27.974  39.431  19.131  1.00  0.00     0.140 C 
ATOM     14  O   UNL     1      28.933  39.910  18.544  1.00  0.00    -0.299 OA
BRANCH  13  15
ATOM     15  C   UNL     1      27.172  38.331  18.477  1.00  0.00     0.106 CG0
ATOM     16  G   UNL     1      27.470  36.940  19.023  1.00  0.00     0.000 G0
ENDBRANCH  13  15
ENDBRANCH  12  13
BRANCH  12  17
ATOM     17  C   UNL     1      28.376  41.208  20.924  1.00  0.00    -0.006 C 
ATOM     18  C   UNL     1      28.384  41.427  22.446  1.00  0.00     0.008 C 
ATOM     19  C   UNL     1      27.832  42.467  20.223  1.00  0.00     0.008 C 
ENDBRANCH  12  17
ENDBRANCH  11  12
ENDBRANCH   1  11
TORSDOF 1
ENDMDL
MODEL 3
REMARK VINA RESULT:    -2.981     10.054     12.879
REMARK INTER + INTRA:          -3.977
REMARK INTER:                  -3.962
REMARK INTRA:                  -0.015
REMARK UNBOUND:                 0.572
REMARK SMILES CC1=CCC[C@@H](C)C(=O)C[C@H](C(C)C)C(=O)C1
REMARK SMILES IDX 8 1 9 2 6 3 7 4 5 5 4 6 3 7 2 8 1 9 10 11 11 12 15 13 16 14
REMARK SMILES IDX 17 15 12 17 13 18 14 19
REMARK H PARENT
REMARK Flexibility Score: 70.00
ROOT
ATOM      1  C   UNL     1      26.426  29.160  25.920  1.00  0.00     0.136 C 
ATOM      2  O   UNL     1      25.444  29.354  25.215  1.00  0.00    -0.299 OA
ENDROOT
BRANCH   1   3
ATOM      3  C   UNL     1      27.806  29.501  25.390  1.00  0.00     0.053 C 
ATOM      4  C   UNL     1      27.814  30.913  24.787  1.00  0.00     0.016 C 
BRANCH   3   5
ATOM      5  C   UNL     1      28.259  28.454  24.348  1.00  0.00     0.015 C 
BRANCH   5   6
ATOM      6  C   UNL     1      28.985  27.268  25.014  1.00  0.00     0.028 C 
BRANCH   6   7
ATOM      7  C   UNL     1      28.250  25.959  24.861  1.00  0.00    -0.028 C 
ATOM      8  C   UNL     1      27.560  25.326  25.843  1.00  0.00    -0.070 CG0
ATOM      9  C   UNL     1      26.973  23.973  25.523  1.00  0.00     0.039 C 
ATOM     10  G   UNL     1      27.310  25.927  27.220  1.00  0.00     0.000 G0
ENDBRANCH   6   7
ENDBRANCH   5   6
ENDBRANCH   3   5
ENDBRANCH   1   3
BRANCH   1  11
ATOM     11  C   UNL     1      26.230  28.597  27.310  1.00  0.00     0.087 C 
BRANCH  11  12
ATOM     12  C   UNL     1      25.180  27.454  27.340  1.00  0.00     0.066 C 
BRANCH  12  13
ATOM     13  C   UNL     1      25.843  26.104  27.577  1.00  0.00     0.140 C 
ATOM     14  O   UNL     1      25.189  25.157  27.991  1.00  0.00    -0.299 OA
BRANCH  13  15
ATOM     15  C   UNL     1      27.303  25.912  27.243  1.00  0.00     0.106 CG0
ATOM     16  G   UNL     1      27.549  25.346  25.850  1.00  0.00     0.000 G0
ENDBRANCH  13  15
ENDBRANCH  12  13
BRANCH  12  17
ATOM     17  C   UNL     1      24.007  27.710  28.342  1.00  0.00    -0.006 C 
ATOM     18  C   UNL     1      22.678  27.149  27.808  1.00  0.00     0.008 C 
ATOM     19  C   UNL     1      23.828  29.191  28.725  1.00  0.00     0.008 C 
ENDBRANCH  12  17
ENDBRANCH  11  12
ENDBRANCH   1  11
TORSDOF 1
ENDMDL
MODEL 4
REMARK VINA RESULT:    -2.936      1.858      3.890
REMARK INTER + INTRA:          -3.909
REMARK INTER:                  -4.045
REMARK INTRA:                   0.136
REMARK UNBOUND:                 0.572
REMARK SMILES CC1=CCC[C@@H](C)C(=O)C[C@H](C(C)C)C(=O)C1
REMARK SMILES IDX 8 1 9 2 6 3 7 4 5 5 4 6 3 7 2 8 1 9 10 11 11 12 15 13 16 14
REMARK SMILES IDX 17 15 12 17 13 18 14 19
REMARK H PARENT
REMARK Flexibility Score: 70.00
ROOT
ATOM      1  C   UNL     1      26.844  39.868  20.742  1.00  0.00     0.136 C 
ATOM      2  O   UNL     1      26.046  40.767  20.511  1.00  0.00    -0.299 OA
ENDROOT
BRANCH   1   3
ATOM      3  C   UNL     1      28.131  39.789  19.943  1.00  0.00     0.053 C 
ATOM      4  C   UNL     1      28.453  41.150  19.310  1.00  0.00     0.016 C 
BRANCH   3   5
ATOM      5  C   UNL     1      28.032  38.688  18.862  1.00  0.00     0.015 C 
BRANCH   5   6
ATOM      6  C   UNL     1      29.123  37.614  19.043  1.00  0.00     0.028 C 
BRANCH   6   7
ATOM      7  C   UNL     1      28.587  36.205  18.984  1.00  0.00    -0.028 C 
ATOM      8  C   UNL     1      28.309  35.424  20.057  1.00  0.00    -0.070 CG0
ATOM      9  C   UNL     1      27.873  34.003  19.793  1.00  0.00     0.039 C 
ATOM     10  G   UNL     1      28.366  35.917  21.497  1.00  0.00     0.000 G0
ENDBRANCH   6   7
ENDBRANCH   5   6
ENDBRANCH   3   5
ENDBRANCH   1   3
BRANCH   1  11
ATOM     11  C   UNL     1      26.527  38.868  21.832  1.00  0.00     0.087 C 
BRANCH  11  12
ATOM     12  C   UNL     1      26.237  37.452  21.265  1.00  0.00     0.066 C 
BRANCH  12  13
ATOM     13  C   UNL     1      27.006  36.385  22.032  1.00  0.00     0.140 C 
ATOM     14  O   UNL     1      26.531  35.887  23.043  1.00  0.00    -0.299 OA
BRANCH  13  15
ATOM     15  C   UNL     1      28.334  35.891  21.511  1.00  0.00     0.106 CG0
ATOM     16  G   UNL     1      28.295  35.422  20.062  1.00  0.00     0.000 G0
ENDBRANCH  13  15
ENDBRANCH  12  13
BRANCH  12  17
ATOM     17  C   UNL     1      24.712  37.118  21.173  1.00  0.00    -0.006 C 
ATOM     18  C   UNL     1      24.341  36.563  19.788  1.00  0.00     0.008 C 
ATOM     19  C   UNL     1      23.793  38.304  21.519  1.00  0.00     0.008 C 
ENDBRANCH  12  17
ENDBRANCH  11  12
ENDBRANCH   1  11
TORSDOF 1
ENDMDL
MODEL 5
REMARK VINA RESULT:    -2.475      1.832      3.515
REMARK INTER + INTRA:          -3.206
REMARK INTER:                  -3.634
REMARK INTRA:                   0.428
REMARK UNBOUND:                 0.572
REMARK SMILES CC1=CCC[C@@H](C)C(=O)C[C@H](C(C)C)C(=O)C1
REMARK SMILES IDX 8 1 9 2 6 3 7 4 5 5 4 6 3 7 2 8 1 9 10 11 11 12 15 13 16 14
REMARK SMILES IDX 17 15 12 17 13 18 14 19
REMARK H PARENT
REMARK Flexibility Score: 70.00
ROOT
ATOM      1  C   UNL     1      26.786  37.798  18.637  1.00  0.00     0.136 C 
ATOM      2  O   UNL     1      26.216  38.297  17.676  1.00  0.00    -0.299 OA
ENDROOT
BRANCH   1   3
ATOM      3  C   UNL     1      28.303  37.752  18.663  1.00  0.00     0.053 C 
ATOM      4  C   UNL     1      28.797  37.172  19.995  1.00  0.00     0.016 C 
BRANCH   3   5
ATOM      5  C   UNL     1      28.892  39.160  18.422  1.00  0.00     0.015 C 
BRANCH   5   6
ATOM      6  C   UNL     1      29.125  39.913  19.747  1.00  0.00     0.028 C 
BRANCH   6   7
ATOM      7  C   UNL     1      28.327  41.189  19.855  1.00  0.00    -0.028 C 
ATOM      8  C   UNL     1      27.270  41.388  20.681  1.00  0.00    -0.070 CG0
ATOM      9  C   UNL     1      26.536  42.702  20.574  1.00  0.00     0.039 C 
ATOM     10  G   UNL     1      26.821  40.382  21.734  1.00  0.00     0.000 G0
ENDBRANCH   6   7
ENDBRANCH   5   6
ENDBRANCH   3   5
ENDBRANCH   1   3
BRANCH   1  11
ATOM     11  C   UNL     1      25.958  37.254  19.779  1.00  0.00     0.087 C 
BRANCH  11  12
ATOM     12  C   UNL     1      26.355  37.881  21.144  1.00  0.00     0.066 C 
BRANCH  12  13
ATOM     13  C   UNL     1      25.884  39.325  21.244  1.00  0.00     0.140 C 
ATOM     14  O   UNL     1      24.730  39.621  20.968  1.00  0.00    -0.299 OA
BRANCH  13  15
ATOM     15  C   UNL     1      26.828  40.393  21.744  1.00  0.00     0.106 CG0
ATOM     16  G   UNL     1      27.250  41.394  20.676  1.00  0.00     0.000 G0
ENDBRANCH  13  15
ENDBRANCH  12  13
BRANCH  12  17
ATOM     17  C   UNL     1      25.897  37.033  22.375  1.00  0.00    -0.006 C 
ATOM     18  C   UNL     1      26.889  35.897  22.677  1.00  0.00     0.008 C 
ATOM     19  C   UNL     1      24.475  36.457  22.241  1.00  0.00     0.008 C 
ENDBRANCH  12  17
ENDBRANCH  11  12
ENDBRANCH   1  11
TORSDOF 1
ENDMDL
MODEL 6
REMARK VINA RESULT:    -2.320      2.033      4.827
REMARK INTER + INTRA:          -2.969
REMARK INTER:                  -3.662
REMARK INTRA:                   0.693
REMARK UNBOUND:                 0.572
REMARK SMILES CC1=CCC[C@@H](C)C(=O)C[C@H](C(C)C)C(=O)C1
REMARK SMILES IDX 8 1 9 2 6 3 7 4 5 5 4 6 3 7 2 8 1 9 10 11 11 12 15 13 16 14
REMARK SMILES IDX 17 15 12 17 13 18 14 19
REMARK H PARENT
REMARK Flexibility Score: 70.00
ROOT
ATOM      1  C   UNL     1      25.125  37.195  19.389  1.00  0.00     0.136 C 
ATOM      2  O   UNL     1      24.488  37.333  20.425  1.00  0.00    -0.299 OA
ENDROOT
BRANCH   1   3
ATOM      3  C   UNL     1      24.818  36.024  18.475  1.00  0.00     0.053 C 
ATOM      4  C   UNL     1      23.315  35.714  18.486  1.00  0.00     0.016 C 
BRANCH   3   5
ATOM      5  C   UNL     1      25.641  34.783  18.890  1.00  0.00     0.015 C 
BRANCH   5   6
ATOM      6  C   UNL     1      27.154  35.078  18.892  1.00  0.00     0.028 C 
BRANCH   6   7
ATOM      7  C   UNL     1      27.865  34.531  20.105  1.00  0.00    -0.028 C 
ATOM      8  C   UNL     1      28.017  35.179  21.287  1.00  0.00    -0.070 CG0
ATOM      9  C   UNL     1      28.847  34.505  22.352  1.00  0.00     0.039 C 
ATOM     10  G   UNL     1      27.358  36.515  21.607  1.00  0.00     0.000 G0
ENDBRANCH   6   7
ENDBRANCH   5   6
ENDBRANCH   3   5
ENDBRANCH   1   3
BRANCH   1  11
ATOM     11  C   UNL     1      26.193  38.209  19.044  1.00  0.00     0.087 C 
BRANCH  11  12
ATOM     12  C   UNL     1      26.928  38.742  20.304  1.00  0.00     0.066 C 
BRANCH  12  13
ATOM     13  C   UNL     1      27.893  37.703  20.858  1.00  0.00     0.140 C 
ATOM     14  O   UNL     1      29.100  37.843  20.719  1.00  0.00    -0.299 OA
BRANCH  13  15
ATOM     15  C   UNL     1      27.365  36.523  21.638  1.00  0.00     0.106 CG0
ATOM     16  G   UNL     1      28.030  35.199  21.281  1.00  0.00     0.000 G0
ENDBRANCH  13  15
ENDBRANCH  12  13
BRANCH  12  17
ATOM     17  C   UNL     1      27.625  40.124  20.081  1.00  0.00    -0.006 C 
ATOM     18  C   UNL     1      26.740  41.285  20.565  1.00  0.00     0.008 C 
ATOM     19  C   UNL     1      28.058  40.375  18.625  1.00  0.00     0.008 C 
ENDBRANCH  12  17
ENDBRANCH  11  12
ENDBRANCH   1  11
TORSDOF 1
ENDMDL
MODEL 7
REMARK VINA RESULT:    -2.151      1.713      3.702
REMARK INTER + INTRA:          -2.712
REMARK INTER:                  -3.807
REMARK INTRA:                   1.095
REMARK UNBOUND:                 0.572
REMARK SMILES CC1=CCC[C@@H](C)C(=O)C[C@H](C(C)C)C(=O)C1
REMARK SMILES IDX 8 1 9 2 6 3 7 4 5 5 4 6 3 7 2 8 1 9 10 11 11 12 15 13 16 14
REMARK SMILES IDX 17 15 12 17 13 18 14 19
REMARK H PARENT
REMARK Flexibility Score: 70.00
ROOT
ATOM      1  C   UNL     1      26.652  40.163  20.410  1.00  0.00     0.136 C 
ATOM      2  O   UNL     1      26.003  41.199  20.374  1.00  0.00    -0.299 OA
ENDROOT
BRANCH   1   3
ATOM      3  C   UNL     1      27.699  39.975  21.492  1.00  0.00     0.053 C 
ATOM      4  C   UNL     1      27.682  41.162  22.465  1.00  0.00     0.016 C 
BRANCH   3   5
ATOM      5  C   UNL     1      29.100  39.794  20.866  1.00  0.00     0.015 C 
BRANCH   5   6
ATOM      6  C   UNL     1      29.108  38.675  19.806  1.00  0.00     0.028 C 
BRANCH   6   7
ATOM      7  C   UNL     1      29.125  37.289  20.405  1.00  0.00    -0.028 C 
ATOM      8  C   UNL     1      28.251  36.295  20.110  1.00  0.00    -0.070 CG0
ATOM      9  C   UNL     1      28.369  35.007  20.888  1.00  0.00     0.039 C 
ATOM     10  G   UNL     1      27.199  36.394  19.013  1.00  0.00     0.000 G0
ENDBRANCH   6   7
ENDBRANCH   5   6
ENDBRANCH   3   5
ENDBRANCH   1   3
BRANCH   1  11
ATOM     11  C   UNL     1      26.380  39.091  19.378  1.00  0.00     0.087 C 
BRANCH  11  12
ATOM     12  C   UNL     1      25.351  38.042  19.877  1.00  0.00     0.066 C 
BRANCH  12  13
ATOM     13  C   UNL     1      25.792  36.627  19.528  1.00  0.00     0.140 C 
ATOM     14  O   UNL     1      25.004  35.696  19.605  1.00  0.00    -0.299 OA
BRANCH  13  15
ATOM     15  C   UNL     1      27.194  36.378  19.024  1.00  0.00     0.106 CG0
ATOM     16  G   UNL     1      28.241  36.291  20.127  1.00  0.00     0.000 G0
ENDBRANCH  13  15
ENDBRANCH  12  13
BRANCH  12  17
ATOM     17  C   UNL     1      25.002  38.184  21.395  1.00  0.00    -0.006 C 
ATOM     18  C   UNL     1      25.636  37.056  22.227  1.00  0.00     0.008 C 
ATOM     19  C   UNL     1      23.491  38.254  21.684  1.00  0.00     0.008 C 
ENDBRANCH  12  17
ENDBRANCH  11  12
ENDBRANCH   1  11
TORSDOF 1
ENDMDL
MODEL 8
REMARK VINA RESULT:    -1.989      9.529     12.682
REMARK INTER + INTRA:          -2.464
REMARK INTER:                  -2.988
REMARK INTRA:                   0.524
REMARK UNBOUND:                 0.572
REMARK SMILES CC1=CCC[C@@H](C)C(=O)C[C@H](C(C)C)C(=O)C1
REMARK SMILES IDX 8 1 9 2 6 3 7 4 5 5 4 6 3 7 2 8 1 9 10 11 11 12 15 13 16 14
REMARK SMILES IDX 17 15 12 17 13 18 14 19
REMARK H PARENT
REMARK Flexibility Score: 70.00
ROOT
ATOM      1  C   UNL     1      26.519  25.624  27.151  1.00  0.00     0.136 C 
ATOM      2  O   UNL     1      26.551  25.124  28.267  1.00  0.00    -0.299 OA
ENDROOT
BRANCH   1   3
ATOM      3  C   UNL     1      27.669  25.383  26.191  1.00  0.00     0.053 C 
ATOM      4  C   UNL     1      29.008  25.422  26.939  1.00  0.00     0.016 C 
BRANCH   3   5
ATOM      5  C   UNL     1      27.646  26.422  25.046  1.00  0.00     0.015 C 
BRANCH   5   6
ATOM      6  C   UNL     1      28.974  27.199  24.959  1.00  0.00     0.028 C 
BRANCH   6   7
ATOM      7  C   UNL     1      28.791  28.651  24.588  1.00  0.00    -0.028 C 
ATOM      8  C   UNL     1      28.051  29.551  25.282  1.00  0.00    -0.070 CG0
ATOM      9  C   UNL     1      27.907  30.935  24.698  1.00  0.00     0.039 C 
ATOM     10  G   UNL     1      27.406  29.254  26.630  1.00  0.00     0.000 G0
ENDBRANCH   6   7
ENDBRANCH   5   6
ENDBRANCH   3   5
ENDBRANCH   1   3
BRANCH   1  11
ATOM     11  C   UNL     1      25.321  26.459  26.756  1.00  0.00     0.087 C 
BRANCH  11  12
ATOM     12  C   UNL     1      25.324  27.853  27.441  1.00  0.00     0.066 C 
BRANCH  12  13
ATOM     13  C   UNL     1      25.921  28.914  26.528  1.00  0.00     0.140 C 
ATOM     14  O   UNL     1      25.211  29.526  25.743  1.00  0.00    -0.299 OA
BRANCH  13  15
ATOM     15  C   UNL     1      27.387  29.259  26.630  1.00  0.00     0.106 CG0
ATOM     16  G   UNL     1      28.046  29.564  25.291  1.00  0.00     0.000 G0
ENDBRANCH  13  15
ENDBRANCH  12  13
BRANCH  12  17
ATOM     17  C   UNL     1      23.923  28.279  27.991  1.00  0.00    -0.006 C 
ATOM     18  C   UNL     1      24.052  29.098  29.286  1.00  0.00     0.008 C 
ATOM     19  C   UNL     1      22.957  27.101  28.216  1.00  0.00     0.008 C 
ENDBRANCH  12  17
ENDBRANCH  11  12
ENDBRANCH   1  11
TORSDOF 1
ENDMDL
MODEL 9
REMARK VINA RESULT:    -0.836      2.231      4.186
REMARK INTER + INTRA:          -0.704
REMARK INTER:                  -1.688
REMARK INTRA:                   0.984
REMARK UNBOUND:                 0.572
REMARK SMILES CC1=CCC[C@@H](C)C(=O)C[C@H](C(C)C)C(=O)C1
REMARK SMILES IDX 8 1 9 2 6 3 7 4 5 5 4 6 3 7 2 8 1 9 10 11 11 12 15 13 16 14
REMARK SMILES IDX 17 15 12 17 13 18 14 19
REMARK H PARENT
REMARK Flexibility Score: 70.00
ROOT
ATOM      1  C   UNL     1      26.621  41.999  19.945  1.00  0.00     0.136 C 
ATOM      2  O   UNL     1      26.065  43.076  19.779  1.00  0.00    -0.299 OA
ENDROOT
BRANCH   1   3
ATOM      3  C   UNL     1      27.970  41.747  19.297  1.00  0.00     0.053 C 
ATOM      4  C   UNL     1      28.686  43.075  19.018  1.00  0.00     0.016 C 
BRANCH   3   5
ATOM      5  C   UNL     1      27.801  40.927  17.997  1.00  0.00     0.015 C 
BRANCH   5   6
ATOM      6  C   UNL     1      29.052  40.078  17.696  1.00  0.00     0.028 C 
BRANCH   6   7
ATOM      7  C   UNL     1      28.842  38.604  17.940  1.00  0.00    -0.028 C 
ATOM      8  C   UNL     1      28.802  38.006  19.157  1.00  0.00    -0.070 CG0
ATOM      9  C   UNL     1      28.682  36.503  19.194  1.00  0.00     0.039 C 
ATOM     10  G   UNL     1      28.822  38.772  20.474  1.00  0.00     0.000 G0
ENDBRANCH   6   7
ENDBRANCH   5   6
ENDBRANCH   3   5
ENDBRANCH   1   3
BRANCH   1  11
ATOM     11  C   UNL     1      25.951  40.953  20.808  1.00  0.00     0.087 C 
BRANCH  11  12
ATOM     12  C   UNL     1      26.289  39.508  20.351  1.00  0.00     0.066 C 
BRANCH  12  13
ATOM     13  C   UNL     1      27.451  38.936  21.150  1.00  0.00     0.140 C 
ATOM     14  O   UNL     1      27.286  38.564  22.303  1.00  0.00    -0.299 OA
BRANCH  13  15
ATOM     15  C   UNL     1      28.803  38.768  20.500  1.00  0.00     0.106 CG0
ATOM     16  G   UNL     1      28.765  38.008  19.180  1.00  0.00     0.000 G0
ENDBRANCH  13  15
ENDBRANCH  12  13
BRANCH  12  17
ATOM     17  C   UNL     1      25.053  38.550  20.353  1.00  0.00    -0.006 C 
ATOM     18  C   UNL     1      24.110  38.848  21.530  1.00  0.00     0.008 C 
ATOM     19  C   UNL     1      25.424  37.055  20.352  1.00  0.00     0.008 C 
ENDBRANCH  12  17
ENDBRANCH  11  12
ENDBRANCH   1  11
TORSDOF 1
ENDMDL
