MODEL 1
REMARK VINA RESULT:    -4.294      0.000      0.000
REMARK INTER + INTRA:          -5.179
REMARK INTER:                  -5.172
REMARK INTRA:                  -0.006
REMARK UNBOUND:                -0.006
REMARK SMILES OCC(O)CO
REMARK SMILES IDX 3 1 5 2 6 3 2 5 1 6 4 8
REMARK H PARENT 6 4 1 7 4 9
REMARK Flexibility Score: inf
ROOT
ATOM      1  C   UNL     1      32.069   2.288  42.674  1.00  0.00     0.165 C 
ENDROOT
BRANCH   1   2
ATOM      2  C   UNL     1      32.940   3.437  42.138  1.00  0.00     0.190 C 
BRANCH   2   3
ATOM      3  O   UNL     1      33.647   3.050  40.990  1.00  0.00    -0.394 OA
ATOM      4  H   UNL     1      33.018   2.532  40.423  1.00  0.00     0.210 HD
ENDBRANCH   2   3
ENDBRANCH   1   2
BRANCH   1   5
ATOM      5  C   UNL     1      30.599   2.712  42.845  1.00  0.00     0.190 C 
BRANCH   5   6
ATOM      6  O   UNL     1      29.782   2.025  41.935  1.00  0.00    -0.394 OA
ATOM      7  H   UNL     1      30.382   1.662  41.233  1.00  0.00     0.210 HD
ENDBRANCH   5   6
ENDBRANCH   1   5
BRANCH   1   8
ATOM      8  O   UNL     1      32.179   1.151  41.853  1.00  0.00    -0.388 OA
ATOM      9  H   UNL     1      31.317   1.036  41.375  1.00  0.00     0.211 HD
ENDBRANCH   1   8
TORSDOF 5
ENDMDL
MODEL 2
REMARK VINA RESULT:    -4.153      1.417      2.929
REMARK INTER + INTRA:          -5.009
REMARK INTER:                  -5.006
REMARK INTRA:                  -0.002
REMARK UNBOUND:                -0.006
REMARK SMILES OCC(O)CO
REMARK SMILES IDX 3 1 5 2 6 3 2 5 1 6 4 8
REMARK H PARENT 6 4 1 7 4 9
REMARK Flexibility Score: inf
ROOT
ATOM      1  C   UNL     1      32.153   2.197  42.727  1.00  0.00     0.165 C 
ENDROOT
BRANCH   1   2
ATOM      2  C   UNL     1      32.756   1.843  44.097  1.00  0.00     0.190 C 
BRANCH   2   3
ATOM      3  O   UNL     1      31.845   1.125  44.886  1.00  0.00    -0.394 OA
ATOM      4  H   UNL     1      31.222   0.665  44.264  1.00  0.00     0.210 HD
ENDBRANCH   2   3
ENDBRANCH   1   2
BRANCH   1   5
ATOM      5  C   UNL     1      32.836   3.424  42.097  1.00  0.00     0.190 C 
BRANCH   5   6
ATOM      6  O   UNL     1      33.650   3.033  41.023  1.00  0.00    -0.394 OA
ATOM      7  H   UNL     1      33.159   2.320  40.539  1.00  0.00     0.210 HD
ENDBRANCH   5   6
ENDBRANCH   1   5
BRANCH   1   8
ATOM      8  O   UNL     1      32.193   1.089  41.861  1.00  0.00    -0.388 OA
ATOM      9  H   UNL     1      32.111   1.427  40.931  1.00  0.00     0.211 HD
ENDBRANCH   1   8
TORSDOF 5
ENDMDL
MODEL 3
REMARK VINA RESULT:    -4.120      1.423      2.666
REMARK INTER + INTRA:          -4.970
REMARK INTER:                  -4.943
REMARK INTRA:                  -0.027
REMARK UNBOUND:                -0.006
REMARK SMILES OCC(O)CO
REMARK SMILES IDX 3 1 5 2 6 3 2 5 1 6 4 8
REMARK H PARENT 6 4 1 7 4 9
REMARK Flexibility Score: inf
ROOT
ATOM      1  C   UNL     1      32.188   2.120  42.706  1.00  0.00     0.165 C 
ENDROOT
BRANCH   1   2
ATOM      2  C   UNL     1      30.749   2.654  42.804  1.00  0.00     0.190 C 
BRANCH   2   3
ATOM      3  O   UNL     1      29.904   2.019  41.882  1.00  0.00    -0.394 OA
ATOM      4  H   UNL     1      30.304   2.153  40.983  1.00  0.00     0.210 HD
ENDBRANCH   2   3
ENDBRANCH   1   2
BRANCH   1   5
ATOM      5  C   UNL     1      32.778   1.800  44.091  1.00  0.00     0.190 C 
BRANCH   5   6
ATOM      6  O   UNL     1      31.838   1.120  44.880  1.00  0.00    -0.394 OA
ATOM      7  H   UNL     1      31.336   1.813  45.384  1.00  0.00     0.210 HD
ENDBRANCH   5   6
ENDBRANCH   1   5
BRANCH   1   8
ATOM      8  O   UNL     1      32.250   1.002  41.855  1.00  0.00    -0.388 OA
ATOM      9  H   UNL     1      33.105   1.047  41.354  1.00  0.00     0.211 HD
ENDBRANCH   1   8
TORSDOF 5
ENDMDL
MODEL 4
REMARK VINA RESULT:    -4.036      9.857     10.065
REMARK INTER + INTRA:          -4.868
REMARK INTER:                  -4.645
REMARK INTRA:                  -0.223
REMARK UNBOUND:                -0.006
REMARK SMILES OCC(O)CO
REMARK SMILES IDX 3 1 5 2 6 3 2 5 1 6 4 8
REMARK H PARENT 6 4 1 7 4 9
REMARK Flexibility Score: inf
ROOT
ATOM      1  C   UNL     1      28.210  -2.674  34.380  1.00  0.00     0.165 C 
ENDROOT
BRANCH   1   2
ATOM      2  C   UNL     1      29.231  -2.245  33.312  1.00  0.00     0.190 C 
BRANCH   2   3
ATOM      3  O   UNL     1      28.992  -0.933  32.875  1.00  0.00    -0.394 OA
ATOM      4  H   UNL     1      29.878  -0.525  32.689  1.00  0.00     0.210 HD
ENDBRANCH   2   3
ENDBRANCH   1   2
BRANCH   1   5
ATOM      5  C   UNL     1      26.903  -1.867  34.284  1.00  0.00     0.190 C 
BRANCH   5   6
ATOM      6  O   UNL     1      26.990  -0.701  35.060  1.00  0.00    -0.394 OA
ATOM      7  H   UNL     1      26.172  -0.673  35.623  1.00  0.00     0.210 HD
ENDBRANCH   5   6
ENDBRANCH   1   5
BRANCH   1   8
ATOM      8  O   UNL     1      27.962  -4.057  34.308  1.00  0.00    -0.388 OA
ATOM      9  H   UNL     1      28.206  -4.457  35.183  1.00  0.00     0.211 HD
ENDBRANCH   1   8
TORSDOF 5
ENDMDL
MODEL 5
REMARK VINA RESULT:    -3.915      1.428      2.921
REMARK INTER + INTRA:          -4.723
REMARK INTER:                  -4.547
REMARK INTRA:                  -0.176
REMARK UNBOUND:                -0.006
REMARK SMILES OCC(O)CO
REMARK SMILES IDX 3 1 5 2 6 3 2 5 1 6 4 8
REMARK H PARENT 6 4 1 7 4 9
REMARK Flexibility Score: inf
ROOT
ATOM      1  C   UNL     1      32.613   2.272  43.315  1.00  0.00     0.165 C 
ENDROOT
BRANCH   1   2
ATOM      2  C   UNL     1      31.130   2.588  43.057  1.00  0.00     0.190 C 
BRANCH   2   3
ATOM      3  O   UNL     1      30.665   1.950  41.897  1.00  0.00    -0.394 OA
ATOM      4  H   UNL     1      29.681   1.857  41.992  1.00  0.00     0.210 HD
ENDBRANCH   2   3
ENDBRANCH   1   2
BRANCH   1   5
ATOM      5  C   UNL     1      33.546   3.259  42.591  1.00  0.00     0.190 C 
BRANCH   5   6
ATOM      6  O   UNL     1      33.592   2.973  41.219  1.00  0.00    -0.394 OA
ATOM      7  H   UNL     1      32.651   2.925  40.906  1.00  0.00     0.210 HD
ENDBRANCH   5   6
ENDBRANCH   1   5
BRANCH   1   8
ATOM      8  O   UNL     1      32.884   2.232  44.694  1.00  0.00    -0.388 OA
ATOM      9  H   UNL     1      33.786   1.835  44.816  1.00  0.00     0.211 HD
ENDBRANCH   1   8
TORSDOF 5
ENDMDL
MODEL 6
REMARK VINA RESULT:    -3.902      8.296      9.484
REMARK INTER + INTRA:          -4.707
REMARK INTER:                  -4.486
REMARK INTRA:                  -0.221
REMARK UNBOUND:                -0.006
REMARK SMILES OCC(O)CO
REMARK SMILES IDX 3 1 5 2 6 3 2 5 1 6 4 8
REMARK H PARENT 6 4 1 7 4 9
REMARK Flexibility Score: inf
ROOT
ATOM      1  C   UNL     1      36.578   9.421  45.003  1.00  0.00     0.165 C 
ENDROOT
BRANCH   1   2
ATOM      2  C   UNL     1      35.595   8.723  45.957  1.00  0.00     0.190 C 
BRANCH   2   3
ATOM      3  O   UNL     1      35.201   9.576  47.000  1.00  0.00    -0.394 OA
ATOM      4  H   UNL     1      35.530  10.484  46.770  1.00  0.00     0.210 HD
ENDBRANCH   2   3
ENDBRANCH   1   2
BRANCH   1   5
ATOM      5  C   UNL     1      38.043   9.191  45.416  1.00  0.00     0.190 C 
BRANCH   5   6
ATOM      6  O   UNL     1      38.166   9.208  46.814  1.00  0.00    -0.394 OA
ATOM      7  H   UNL     1      38.233   8.261  47.105  1.00  0.00     0.210 HD
ENDBRANCH   5   6
ENDBRANCH   1   5
BRANCH   1   8
ATOM      8  O   UNL     1      36.355   9.021  43.673  1.00  0.00    -0.388 OA
ATOM      9  H   UNL     1      35.444   9.318  43.414  1.00  0.00     0.211 HD
ENDBRANCH   1   8
TORSDOF 5
ENDMDL
MODEL 7
REMARK VINA RESULT:    -3.859      1.528      2.050
REMARK INTER + INTRA:          -4.655
REMARK INTER:                  -4.432
REMARK INTRA:                  -0.224
REMARK UNBOUND:                -0.006
REMARK SMILES OCC(O)CO
REMARK SMILES IDX 3 1 5 2 6 3 2 5 1 6 4 8
REMARK H PARENT 6 4 1 7 4 9
REMARK Flexibility Score: inf
ROOT
ATOM      1  C   UNL     1      33.234   2.966  43.089  1.00  0.00     0.165 C 
ENDROOT
BRANCH   1   2
ATOM      2  C   UNL     1      32.662   3.791  41.924  1.00  0.00     0.190 C 
BRANCH   2   3
ATOM      3  O   UNL     1      33.374   3.562  40.737  1.00  0.00    -0.394 OA
ATOM      4  H   UNL     1      34.325   3.428  40.991  1.00  0.00     0.210 HD
ENDBRANCH   2   3
ENDBRANCH   1   2
BRANCH   1   5
ATOM      5  C   UNL     1      32.580   1.576  43.185  1.00  0.00     0.190 C 
BRANCH   5   6
ATOM      6  O   UNL     1      32.258   1.097  41.906  1.00  0.00    -0.394 OA
ATOM      7  H   UNL     1      32.956   0.432  41.668  1.00  0.00     0.210 HD
ENDBRANCH   5   6
ENDBRANCH   1   5
BRANCH   1   8
ATOM      8  O   UNL     1      34.634   2.865  42.991  1.00  0.00    -0.388 OA
ATOM      9  H   UNL     1      34.902   3.209  42.100  1.00  0.00     0.211 HD
ENDBRANCH   1   8
TORSDOF 5
ENDMDL
MODEL 8
REMARK VINA RESULT:    -3.781      1.339      3.208
REMARK INTER + INTRA:          -4.560
REMARK INTER:                  -4.528
REMARK INTRA:                  -0.032
REMARK UNBOUND:                -0.006
REMARK SMILES OCC(O)CO
REMARK SMILES IDX 3 1 5 2 6 3 2 5 1 6 4 8
REMARK H PARENT 6 4 1 7 4 9
REMARK Flexibility Score: inf
ROOT
ATOM      1  C   UNL     1      33.025   3.267  42.341  1.00  0.00     0.165 C 
ENDROOT
BRANCH   1   2
ATOM      2  C   UNL     1      32.030   2.132  42.637  1.00  0.00     0.190 C 
BRANCH   2   3
ATOM      3  O   UNL     1      32.272   1.015  41.823  1.00  0.00    -0.394 OA
ATOM      4  H   UNL     1      31.688   1.107  41.025  1.00  0.00     0.210 HD
ENDBRANCH   2   3
ENDBRANCH   1   2
BRANCH   1   5
ATOM      5  C   UNL     1      34.066   3.428  43.464  1.00  0.00     0.190 C 
BRANCH   5   6
ATOM      6  O   UNL     1      35.158   2.575  43.245  1.00  0.00    -0.394 OA
ATOM      7  H   UNL     1      35.706   2.993  42.530  1.00  0.00     0.210 HD
ENDBRANCH   5   6
ENDBRANCH   1   5
BRANCH   1   8
ATOM      8  O   UNL     1      33.647   3.076  41.094  1.00  0.00    -0.388 OA
ATOM      9  H   UNL     1      33.746   2.099  40.950  1.00  0.00     0.211 HD
ENDBRANCH   1   8
TORSDOF 5
ENDMDL
