MODEL 1
REMARK VINA RESULT:    -6.021      0.000      0.000
REMARK INTER + INTRA:          -6.611
REMARK INTER:                  -6.549
REMARK INTRA:                  -0.062
REMARK UNBOUND:                -0.062
REMARK SMILES CC1(C)[C@H]2CC=C(CO)[C@@H]1C2
REMARK SMILES IDX 8 1 7 2 1 3 2 4 4 5 3 6 10 7 5 8 11 9 6 10 9 11
REMARK H PARENT 9 12
REMARK Flexibility Score: inf
ROOT
ATOM      1  C   UNL     1      14.236  -2.385  13.139  1.00  0.00     0.187 C 
ENDROOT
BRANCH   1   2
ATOM      2  C   UNL     1      13.254  -2.746  14.220  1.00  0.00    -0.045 C 
ATOM      3  C   UNL     1      13.733  -4.679  17.574  1.00  0.00     0.012 C 
ATOM      4  C   UNL     1      13.239  -3.584  16.594  1.00  0.00    -0.026 C 
ATOM      5  C   UNL     1      11.720  -3.715  16.287  1.00  0.00    -0.000 C 
ATOM      6  C   UNL     1      13.784  -2.212  17.080  1.00  0.00     0.012 C 
ATOM      7  C   UNL     1      13.455  -3.981  15.110  1.00  0.00     0.023 C 
ATOM      8  C   UNL     1      11.190  -2.412  15.596  1.00  0.00     0.031 C 
ATOM      9  C   UNL     1      12.082  -4.680  15.139  1.00  0.00     0.013 C 
ATOM     10  C   UNL     1      12.135  -1.999  14.450  1.00  0.00    -0.025 C 
ENDBRANCH   1   2
BRANCH   1  11
ATOM     11  O   UNL     1      15.398  -1.838  13.699  1.00  0.00    -0.392 OA
ATOM     12  H   UNL     1      15.141  -1.481  14.589  1.00  0.00     0.211 HD
ENDBRANCH   1  11
TORSDOF 2
ENDMDL
MODEL 2
REMARK VINA RESULT:    -5.642      1.740      3.484
REMARK INTER + INTRA:          -6.199
REMARK INTER:                  -6.135
REMARK INTRA:                  -0.064
REMARK UNBOUND:                -0.062
REMARK SMILES CC1(C)[C@H]2CC=C(CO)[C@@H]1C2
REMARK SMILES IDX 8 1 7 2 1 3 2 4 4 5 3 6 10 7 5 8 11 9 6 10 9 11
REMARK H PARENT 9 12
REMARK Flexibility Score: inf
ROOT
ATOM      1  C   UNL     1      13.501  -0.367  15.761  1.00  0.00     0.187 C 
ENDROOT
BRANCH   1   2
ATOM      2  C   UNL     1      13.072  -1.694  15.197  1.00  0.00    -0.045 C 
ATOM      3  C   UNL     1      10.875  -2.571  12.096  1.00  0.00     0.012 C 
ATOM      4  C   UNL     1      12.051  -2.648  13.103  1.00  0.00    -0.026 C 
ATOM      5  C   UNL     1      11.969  -3.913  14.003  1.00  0.00    -0.000 C 
ATOM      6  C   UNL     1      13.371  -2.367  12.333  1.00  0.00     0.012 C 
ATOM      7  C   UNL     1      11.769  -1.847  14.401  1.00  0.00     0.023 C 
ATOM      8  C   UNL     1      13.331  -4.143  14.745  1.00  0.00     0.031 C 
ATOM      9  C   UNL     1      11.092  -3.104  14.981  1.00  0.00     0.013 C 
ATOM     10  C   UNL     1      13.817  -2.824  15.379  1.00  0.00    -0.025 C 
ENDBRANCH   1   2
BRANCH   1  11
ATOM     11  O   UNL     1      13.493   0.612  14.759  1.00  0.00    -0.392 OA
ATOM     12  H   UNL     1      14.116   1.326  15.057  1.00  0.00     0.211 HD
ENDBRANCH   1  11
TORSDOF 2
ENDMDL
MODEL 3
REMARK VINA RESULT:    -5.392      1.464      2.028
REMARK INTER + INTRA:          -5.926
REMARK INTER:                  -5.862
REMARK INTRA:                  -0.064
REMARK UNBOUND:                -0.062
REMARK SMILES CC1(C)[C@H]2CC=C(CO)[C@@H]1C2
REMARK SMILES IDX 8 1 7 2 1 3 2 4 4 5 3 6 10 7 5 8 11 9 6 10 9 11
REMARK H PARENT 9 12
REMARK Flexibility Score: inf
ROOT
ATOM      1  C   UNL     1      14.906  -2.664  12.872  1.00  0.00     0.187 C 
ENDROOT
BRANCH   1   2
ATOM      2  C   UNL     1      13.445  -2.876  13.160  1.00  0.00    -0.045 C 
ATOM      3  C   UNL     1      11.518  -3.178  16.538  1.00  0.00     0.012 C 
ATOM      4  C   UNL     1      11.829  -2.733  15.086  1.00  0.00    -0.026 C 
ATOM      5  C   UNL     1      10.900  -3.423  14.049  1.00  0.00    -0.000 C 
ATOM      6  C   UNL     1      11.946  -1.183  15.066  1.00  0.00     0.012 C 
ATOM      7  C   UNL     1      12.971  -3.567  14.446  1.00  0.00     0.023 C 
ATOM      8  C   UNL     1      10.998  -2.698  12.662  1.00  0.00     0.031 C 
ATOM      9  C   UNL     1      11.911  -4.586  13.984  1.00  0.00     0.013 C 
ATOM     10  C   UNL     1      12.476  -2.475  12.285  1.00  0.00    -0.025 C 
ENDBRANCH   1   2
BRANCH   1  11
ATOM     11  O   UNL     1      15.469  -1.803  13.822  1.00  0.00    -0.392 OA
ATOM     12  H   UNL     1      14.715  -1.308  14.237  1.00  0.00     0.211 HD
ENDBRANCH   1  11
TORSDOF 2
ENDMDL
MODEL 4
REMARK VINA RESULT:    -5.319      1.205      1.462
REMARK INTER + INTRA:          -5.848
REMARK INTER:                  -5.787
REMARK INTRA:                  -0.060
REMARK UNBOUND:                -0.062
REMARK SMILES CC1(C)[C@H]2CC=C(CO)[C@@H]1C2
REMARK SMILES IDX 8 1 7 2 1 3 2 4 4 5 3 6 10 7 5 8 11 9 6 10 9 11
REMARK H PARENT 9 12
REMARK Flexibility Score: inf
ROOT
ATOM      1  C   UNL     1      14.771  -2.968  12.212  1.00  0.00     0.187 C 
ENDROOT
BRANCH   1   2
ATOM      2  C   UNL     1      13.602  -2.920  13.157  1.00  0.00    -0.045 C 
ATOM      3  C   UNL     1      13.460  -2.879  17.055  1.00  0.00     0.012 C 
ATOM      4  C   UNL     1      13.121  -2.495  15.592  1.00  0.00    -0.026 C 
ATOM      5  C   UNL     1      11.720  -3.012  15.160  1.00  0.00    -0.000 C 
ATOM      6  C   UNL     1      13.454  -0.990  15.393  1.00  0.00     0.012 C 
ATOM      7  C   UNL     1      13.685  -3.517  14.569  1.00  0.00     0.023 C 
ATOM      8  C   UNL     1      11.269  -2.314  13.830  1.00  0.00     0.031 C 
ATOM      9  C   UNL     1      12.388  -4.334  14.733  1.00  0.00     0.013 C 
ATOM     10  C   UNL     1      12.412  -2.355  12.797  1.00  0.00    -0.025 C 
ENDBRANCH   1   2
BRANCH   1  11
ATOM     11  O   UNL     1      15.967  -2.732  12.903  1.00  0.00    -0.392 OA
ATOM     12  H   UNL     1      16.210  -3.586  13.347  1.00  0.00     0.211 HD
ENDBRANCH   1  11
TORSDOF 2
ENDMDL
MODEL 5
REMARK VINA RESULT:    -5.083      2.129      3.559
REMARK INTER + INTRA:          -5.590
REMARK INTER:                  -5.529
REMARK INTRA:                  -0.061
REMARK UNBOUND:                -0.062
REMARK SMILES CC1(C)[C@H]2CC=C(CO)[C@@H]1C2
REMARK SMILES IDX 8 1 7 2 1 3 2 4 4 5 3 6 10 7 5 8 11 9 6 10 9 11
REMARK H PARENT 9 12
REMARK Flexibility Score: inf
ROOT
ATOM      1  C   UNL     1      13.804  -4.515  17.766  1.00  0.00     0.187 C 
ENDROOT
BRANCH   1   2
ATOM      2  C   UNL     1      13.578  -3.595  16.598  1.00  0.00    -0.045 C 
ATOM      3  C   UNL     1      11.184  -3.887  13.532  1.00  0.00     0.012 C 
ATOM      4  C   UNL     1      11.932  -3.241  14.726  1.00  0.00    -0.026 C 
ATOM      5  C   UNL     1      13.037  -2.253  14.259  1.00  0.00    -0.000 C 
ATOM      6  C   UNL     1      10.875  -2.745  15.752  1.00  0.00     0.012 C 
ATOM      7  C   UNL     1      13.100  -4.124  15.238  1.00  0.00     0.023 C 
ATOM      8  C   UNL     1      13.518  -1.367  15.459  1.00  0.00     0.031 C 
ATOM      9  C   UNL     1      14.015  -3.444  14.201  1.00  0.00     0.013 C 
ATOM     10  C   UNL     1      13.801  -2.251  16.690  1.00  0.00    -0.025 C 
ENDBRANCH   1   2
BRANCH   1  11
ATOM     11  O   UNL     1      12.583  -4.845  18.368  1.00  0.00    -0.392 OA
ATOM     12  H   UNL     1      12.653  -4.570  19.320  1.00  0.00     0.211 HD
ENDBRANCH   1  11
TORSDOF 2
ENDMDL
MODEL 6
REMARK VINA RESULT:    -5.079      1.189      2.084
REMARK INTER + INTRA:          -5.586
REMARK INTER:                  -5.561
REMARK INTRA:                  -0.025
REMARK UNBOUND:                -0.062
REMARK SMILES CC1(C)[C@H]2CC=C(CO)[C@@H]1C2
REMARK SMILES IDX 8 1 7 2 1 3 2 4 4 5 3 6 10 7 5 8 11 9 6 10 9 11
REMARK H PARENT 9 12
REMARK Flexibility Score: inf
ROOT
ATOM      1  C   UNL     1      14.854  -3.103  12.430  1.00  0.00     0.187 C 
ENDROOT
BRANCH   1   2
ATOM      2  C   UNL     1      13.812  -2.629  13.406  1.00  0.00    -0.045 C 
ATOM      3  C   UNL     1      11.109  -4.589  15.423  1.00  0.00     0.012 C 
ATOM      4  C   UNL     1      12.234  -3.563  15.131  1.00  0.00    -0.026 C 
ATOM      5  C   UNL     1      11.699  -2.104  15.086  1.00  0.00    -0.000 C 
ATOM      6  C   UNL     1      13.440  -3.885  16.057  1.00  0.00     0.012 C 
ATOM      7  C   UNL     1      12.496  -3.391  13.612  1.00  0.00     0.023 C 
ATOM      8  C   UNL     1      12.889  -1.085  15.147  1.00  0.00     0.031 C 
ATOM      9  C   UNL     1      11.400  -2.307  13.587  1.00  0.00     0.013 C 
ATOM     10  C   UNL     1      13.986  -1.493  14.144  1.00  0.00    -0.025 C 
ENDBRANCH   1   2
BRANCH   1  11
ATOM     11  O   UNL     1      16.136  -2.770  12.886  1.00  0.00    -0.392 OA
ATOM     12  H   UNL     1      16.034  -2.486  13.832  1.00  0.00     0.211 HD
ENDBRANCH   1  11
TORSDOF 2
ENDMDL
MODEL 7
REMARK VINA RESULT:    -4.871      1.851      3.504
REMARK INTER + INTRA:          -5.360
REMARK INTER:                  -5.310
REMARK INTRA:                  -0.050
REMARK UNBOUND:                -0.062
REMARK SMILES CC1(C)[C@H]2CC=C(CO)[C@@H]1C2
REMARK SMILES IDX 8 1 7 2 1 3 2 4 4 5 3 6 10 7 5 8 11 9 6 10 9 11
REMARK H PARENT 9 12
REMARK Flexibility Score: inf
ROOT
ATOM      1  C   UNL     1      13.832  -3.304  18.128  1.00  0.00     0.187 C 
ENDROOT
BRANCH   1   2
ATOM      2  C   UNL     1      13.096  -2.928  16.872  1.00  0.00    -0.045 C 
ATOM      3  C   UNL     1      14.347  -2.484  13.204  1.00  0.00     0.012 C 
ATOM      4  C   UNL     1      13.436  -2.927  14.376  1.00  0.00    -0.026 C 
ATOM      5  C   UNL     1      12.117  -2.107  14.436  1.00  0.00    -0.000 C 
ATOM      6  C   UNL     1      13.348  -4.479  14.366  1.00  0.00     0.012 C 
ATOM      7  C   UNL     1      13.801  -2.218  15.708  1.00  0.00     0.023 C 
ATOM      8  C   UNL     1      11.084  -2.804  15.387  1.00  0.00     0.031 C 
ATOM      9  C   UNL     1      12.853  -1.070  15.308  1.00  0.00     0.013 C 
ATOM     10  C   UNL     1      11.765  -3.191  16.715  1.00  0.00    -0.025 C 
ENDBRANCH   1   2
BRANCH   1  11
ATOM     11  O   UNL     1      14.116  -4.676  18.134  1.00  0.00    -0.392 OA
ATOM     12  H   UNL     1      14.266  -4.937  17.187  1.00  0.00     0.211 HD
ENDBRANCH   1  11
TORSDOF 2
ENDMDL
MODEL 8
REMARK VINA RESULT:    -4.661      2.062      2.530
REMARK INTER + INTRA:          -5.132
REMARK INTER:                  -5.109
REMARK INTRA:                  -0.023
REMARK UNBOUND:                -0.062
REMARK SMILES CC1(C)[C@H]2CC=C(CO)[C@@H]1C2
REMARK SMILES IDX 8 1 7 2 1 3 2 4 4 5 3 6 10 7 5 8 11 9 6 10 9 11
REMARK H PARENT 9 12
REMARK Flexibility Score: inf
ROOT
ATOM      1  C   UNL     1      12.232  -2.720  11.695  1.00  0.00     0.187 C 
ENDROOT
BRANCH   1   2
ATOM      2  C   UNL     1      12.117  -2.945  13.178  1.00  0.00    -0.045 C 
ATOM      3  C   UNL     1      14.250  -1.588  16.148  1.00  0.00     0.012 C 
ATOM      4  C   UNL     1      12.992  -1.988  15.337  1.00  0.00    -0.026 C 
ATOM      5  C   UNL     1      12.311  -3.266  15.903  1.00  0.00    -0.000 C 
ATOM      6  C   UNL     1      12.125  -0.716  15.121  1.00  0.00     0.012 C 
ATOM      7  C   UNL     1      13.340  -2.861  14.102  1.00  0.00     0.023 C 
ATOM      8  C   UNL     1      10.875  -3.432  15.296  1.00  0.00     0.031 C 
ATOM      9  C   UNL     1      13.243  -4.106  15.006  1.00  0.00     0.013 C 
ATOM     10  C   UNL     1      10.922  -3.246  13.766  1.00  0.00    -0.025 C 
ENDBRANCH   1   2
BRANCH   1  11
ATOM     11  O   UNL     1      11.017  -3.015  11.063  1.00  0.00    -0.392 OA
ATOM     12  H   UNL     1      10.328  -2.448  11.497  1.00  0.00     0.211 HD
ENDBRANCH   1  11
TORSDOF 2
ENDMDL
MODEL 9
REMARK VINA RESULT:    -4.660      1.370      1.600
REMARK INTER + INTRA:          -5.130
REMARK INTER:                  -5.094
REMARK INTRA:                  -0.036
REMARK UNBOUND:                -0.062
REMARK SMILES CC1(C)[C@H]2CC=C(CO)[C@@H]1C2
REMARK SMILES IDX 8 1 7 2 1 3 2 4 4 5 3 6 10 7 5 8 11 9 6 10 9 11
REMARK H PARENT 9 12
REMARK Flexibility Score: inf
ROOT
ATOM      1  C   UNL     1      13.142  -0.642  15.238  1.00  0.00     0.187 C 
ENDROOT
BRANCH   1   2
ATOM      2  C   UNL     1      12.632  -2.049  15.388  1.00  0.00    -0.045 C 
ATOM      3  C   UNL     1      13.807  -4.969  17.692  1.00  0.00     0.012 C 
ATOM      4  C   UNL     1      12.838  -4.008  16.957  1.00  0.00    -0.026 C 
ATOM      5  C   UNL     1      12.081  -4.712  15.797  1.00  0.00    -0.000 C 
ATOM      6  C   UNL     1      12.013  -3.236  18.025  1.00  0.00     0.012 C 
ATOM      7  C   UNL     1      13.549  -3.193  15.844  1.00  0.00     0.023 C 
ATOM      8  C   UNL     1      10.875  -3.831  15.319  1.00  0.00     0.031 C 
ATOM      9  C   UNL     1      13.258  -4.350  14.868  1.00  0.00     0.013 C 
ATOM     10  C   UNL     1      11.335  -2.374  15.112  1.00  0.00    -0.025 C 
ENDBRANCH   1   2
BRANCH   1  11
ATOM     11  O   UNL     1      13.892  -0.519  14.061  1.00  0.00    -0.392 OA
ATOM     12  H   UNL     1      14.844  -0.457  14.337  1.00  0.00     0.211 HD
ENDBRANCH   1  11
TORSDOF 2
ENDMDL
