MODEL 1
REMARK VINA RESULT:    56.102      0.000      0.000
REMARK INTER + INTRA:          89.493
REMARK INTER:                  82.340
REMARK INTRA:                   7.153
REMARK UNBOUND:                 7.153
REMARK SMILES O=c1c(O[C@@H]2O[C@H](CO)[C@@H](O)[C@H](O)[C@H]2O)c(-c2ccc(O)c(O)c2)oc2cc(O)cc(O)c12
REMARK SMILES IDX 4 1 3 2 16 3 25 4 2 5 26 6 1 7 33 8 27 9 31 10 28 11 30 12
REMARK SMILES IDX 17 13 18 14 19 15 20 16 24 17 22 18 21 19 23 21 32 23 29 25
REMARK SMILES IDX 5 27 14 28 6 29 12 30 7 31 10 32 15 33 13 35 8 37 9 38 11 40
REMARK H PARENT 21 20 23 22 32 24 29 26 15 34 13 36 9 39 11 41
REMARK Flexibility Score: inf
ROOT
ATOM      1  O   UNL     1      -2.917   0.335   0.887  1.00  0.00    -0.454 OA
ENDROOT
BRANCH   1   2
ATOM      2  C   UNL     1      -2.020   0.088   1.938  1.00  0.00     0.214 A 
ATOM      3  C   UNL     1      -2.383   0.237   3.293  1.00  0.00     0.180 A 
ATOM      4  O   UNL     1      -1.463   0.098   4.244  1.00  0.00    -0.452 OA
ATOM      5  C   UNL     1      -0.715  -0.313   1.633  1.00  0.00     0.239 A 
ATOM      6  C   UNL     1      -0.201  -0.231   3.993  1.00  0.00     0.146 A 
ATOM      7  O   UNL     1      -0.402  -0.508   0.427  1.00  0.00    -0.285 OA
ATOM      8  C   UNL     1       0.230  -0.471   2.666  1.00  0.00     0.111 A 
ATOM      9  C   UNL     1       0.698  -0.350   5.058  1.00  0.00     0.094 A 
ATOM     10  C   UNL     1       1.576  -0.833   2.433  1.00  0.00     0.134 A 
ATOM     11  C   UNL     1       2.028  -0.703   4.824  1.00  0.00     0.123 A 
ATOM     12  C   UNL     1       2.463  -0.947   3.514  1.00  0.00     0.093 A 
BRANCH   3  13
ATOM     13  C   UNL     1      -3.771   0.518   3.708  1.00  0.00     0.025 A 
ATOM     14  C   UNL     1      -4.014   1.365   4.798  1.00  0.00     0.016 A 
ATOM     15  C   UNL     1      -5.324   1.643   5.195  1.00  0.00     0.051 A 
ATOM     16  C   UNL     1      -6.405   1.054   4.527  1.00  0.00     0.157 A 
ATOM     17  C   UNL     1      -4.855  -0.077   3.041  1.00  0.00     0.062 A 
ATOM     18  C   UNL     1      -6.167   0.186   3.446  1.00  0.00     0.158 A 
BRANCH  16  19
ATOM     19  O   UNL     1      -7.713   1.320   4.936  1.00  0.00    -0.504 OA
ATOM     20  H   UNL     1      -8.035   1.087   5.868  1.00  0.00     0.293 HD
ENDBRANCH  16  19
BRANCH  18  21
ATOM     21  O   UNL     1      -7.219  -0.429   2.769  1.00  0.00    -0.504 OA
ATOM     22  H   UNL     1      -8.142  -0.515   3.178  1.00  0.00     0.293 HD
ENDBRANCH  18  21
ENDBRANCH   3  13
BRANCH  10  23
ATOM     23  O   UNL     1       2.040  -1.074   1.139  1.00  0.00    -0.507 OA
ATOM     24  H   UNL     1       1.413  -1.121   0.343  1.00  0.00     0.293 HD
ENDBRANCH  10  23
BRANCH  11  25
ATOM     25  O   UNL     1       2.912  -0.800   5.897  1.00  0.00    -0.508 OA
ATOM     26  H   UNL     1       3.881  -1.068   5.763  1.00  0.00     0.293 HD
ENDBRANCH  11  25
ENDBRANCH   1   2
BRANCH   1  27
ATOM     27  C   UNL     1      -4.207  -0.273   0.790  1.00  0.00     0.339 C 
ATOM     28  C   UNL     1      -4.510  -0.626  -0.701  1.00  0.00     0.214 C 
ATOM     29  O   UNL     1      -4.208  -1.411   1.633  1.00  0.00    -0.332 OA
ATOM     30  C   UNL     1      -4.566  -2.154  -0.953  1.00  0.00     0.180 C 
ATOM     31  C   UNL     1      -5.403  -2.153   1.474  1.00  0.00     0.179 C 
ATOM     32  C   UNL     1      -5.394  -2.912   0.117  1.00  0.00     0.177 C 
BRANCH  28  33
ATOM     33  O   UNL     1      -5.694   0.006  -1.125  1.00  0.00    -0.384 OA
ATOM     34  H   UNL     1      -6.451  -0.391  -0.615  1.00  0.00     0.211 HD
ENDBRANCH  28  33
BRANCH  30  35
ATOM     35  O   UNL     1      -3.261  -2.677  -1.046  1.00  0.00    -0.387 OA
ATOM     36  H   UNL     1      -3.167  -3.382  -0.355  1.00  0.00     0.211 HD
ENDBRANCH  30  35
BRANCH  31  37
ATOM     37  C   UNL     1      -5.547  -3.125   2.655  1.00  0.00     0.191 C 
BRANCH  37  38
ATOM     38  O   UNL     1      -4.517  -2.908   3.585  1.00  0.00    -0.394 OA
ATOM     39  H   UNL     1      -4.730  -2.056   4.047  1.00  0.00     0.210 HD
ENDBRANCH  37  38
ENDBRANCH  31  37
BRANCH  32  40
ATOM     40  O   UNL     1      -6.714  -3.067  -0.341  1.00  0.00    -0.387 OA
ATOM     41  H   UNL     1      -6.663  -3.416  -1.270  1.00  0.00     0.211 HD
ENDBRANCH  32  40
ENDBRANCH   1  27
TORSDOF 12
ENDMDL
