MODEL 1
REMARK VINA RESULT:    -4.611      0.000      0.000
REMARK INTER + INTRA:          -4.899
REMARK INTER:                  -4.880
REMARK INTRA:                  -0.018
REMARK UNBOUND:                -0.018
REMARK SMILES O=C([O-])c1cccnc1
REMARK SMILES IDX 4 1 5 2 9 3 6 4 8 5 7 6 2 7 1 8 3 9
REMARK H PARENT
REMARK Flexibility Score: inf
ROOT
ATOM      1  C   UNL     1      57.580  -0.410 210.588  1.00  0.00     0.016 A 
ATOM      2  C   UNL     1      58.943  -0.075 210.628  1.00  0.00     0.013 A 
ATOM      3  C   UNL     1      57.102  -1.371 211.495  1.00  0.00     0.120 A 
ATOM      4  C   UNL     1      59.790  -0.691 211.552  1.00  0.00     0.021 A 
ATOM      5  N   UNL     1      57.947  -1.956 212.386  1.00  0.00    -0.264 NA
ATOM      6  C   UNL     1      59.269  -1.638 212.432  1.00  0.00     0.111 A 
ENDROOT
BRANCH   1   7
ATOM      7  C   UNL     1      56.674   0.235 209.613  1.00  0.00     0.073 C 
ATOM      8  O   UNL     1      56.528   1.487 209.606  1.00  0.00    -0.545 OA
ATOM      9  O   UNL     1      55.971  -0.532 208.692  1.00  0.00    -0.545 OA
ENDBRANCH   1   7
TORSDOF 1
ENDMDL
MODEL 2
REMARK VINA RESULT:    -4.602      3.139      3.905
REMARK INTER + INTRA:          -4.889
REMARK INTER:                  -4.868
REMARK INTRA:                  -0.021
REMARK UNBOUND:                -0.018
REMARK SMILES O=C([O-])c1cccnc1
REMARK SMILES IDX 4 1 5 2 9 3 6 4 8 5 7 6 2 7 1 8 3 9
REMARK H PARENT
REMARK Flexibility Score: inf
ROOT
ATOM      1  C   UNL     1      59.256  -1.133 211.758  1.00  0.00     0.016 A 
ATOM      2  C   UNL     1      59.062  -0.193 210.733  1.00  0.00     0.013 A 
ATOM      3  C   UNL     1      58.135  -1.825 212.251  1.00  0.00     0.120 A 
ATOM      4  C   UNL     1      57.782   0.038 210.226  1.00  0.00     0.021 A 
ATOM      5  N   UNL     1      56.899  -1.582 211.739  1.00  0.00    -0.264 NA
ATOM      6  C   UNL     1      56.701  -0.673 210.747  1.00  0.00     0.111 A 
ENDROOT
BRANCH   1   7
ATOM      7  C   UNL     1      60.607  -1.386 212.303  1.00  0.00     0.073 C 
ATOM      8  O   UNL     1      61.613  -1.392 211.544  1.00  0.00    -0.545 OA
ATOM      9  O   UNL     1      60.786  -1.621 213.661  1.00  0.00    -0.545 OA
ENDBRANCH   1   7
TORSDOF 1
ENDMDL
MODEL 3
REMARK VINA RESULT:    -4.474      2.095      2.754
REMARK INTER + INTRA:          -4.754
REMARK INTER:                  -4.731
REMARK INTRA:                  -0.023
REMARK UNBOUND:                -0.018
REMARK SMILES O=C([O-])c1cccnc1
REMARK SMILES IDX 4 1 5 2 9 3 6 4 8 5 7 6 2 7 1 8 3 9
REMARK H PARENT
REMARK Flexibility Score: inf
ROOT
ATOM      1  C   UNL     1      57.203  -1.700 211.176  1.00  0.00     0.016 A 
ATOM      2  C   UNL     1      58.231  -2.081 212.053  1.00  0.00     0.013 A 
ATOM      3  C   UNL     1      57.416  -0.589 210.341  1.00  0.00     0.120 A 
ATOM      4  C   UNL     1      59.429  -1.366 212.083  1.00  0.00     0.021 A 
ATOM      5  N   UNL     1      58.593   0.091 210.389  1.00  0.00    -0.264 NA
ATOM      6  C   UNL     1      59.594  -0.271 211.235  1.00  0.00     0.111 A 
ENDROOT
BRANCH   1   7
ATOM      7  C   UNL     1      55.930  -2.450 211.135  1.00  0.00     0.073 C 
ATOM      8  O   UNL     1      54.905  -1.945 210.602  1.00  0.00    -0.545 OA
ATOM      9  O   UNL     1      55.845  -3.724 211.685  1.00  0.00    -0.545 OA
ENDBRANCH   1   7
TORSDOF 1
ENDMDL
MODEL 4
REMARK VINA RESULT:    -4.455      1.372      1.650
REMARK INTER + INTRA:          -4.733
REMARK INTER:                  -4.711
REMARK INTRA:                  -0.022
REMARK UNBOUND:                -0.018
REMARK SMILES O=C([O-])c1cccnc1
REMARK SMILES IDX 4 1 5 2 9 3 6 4 8 5 7 6 2 7 1 8 3 9
REMARK H PARENT
REMARK Flexibility Score: inf
ROOT
ATOM      1  C   UNL     1      57.038  -1.115 210.995  1.00  0.00     0.016 A 
ATOM      2  C   UNL     1      57.910  -0.219 210.356  1.00  0.00     0.013 A 
ATOM      3  C   UNL     1      57.535  -1.882 212.064  1.00  0.00     0.120 A 
ATOM      4  C   UNL     1      59.234  -0.104 210.782  1.00  0.00     0.021 A 
ATOM      5  N   UNL     1      58.829  -1.751 212.460  1.00  0.00    -0.264 NA
ATOM      6  C   UNL     1      59.681  -0.886 211.846  1.00  0.00     0.111 A 
ENDROOT
BRANCH   1   7
ATOM      7  C   UNL     1      55.634  -1.245 210.553  1.00  0.00     0.073 C 
ATOM      8  O   UNL     1      55.038  -0.272 210.018  1.00  0.00    -0.545 OA
ATOM      9  O   UNL     1      54.950  -2.444 210.722  1.00  0.00    -0.545 OA
ENDBRANCH   1   7
TORSDOF 1
ENDMDL
MODEL 5
REMARK VINA RESULT:    -4.406      3.235      4.175
REMARK INTER + INTRA:          -4.682
REMARK INTER:                  -4.662
REMARK INTRA:                  -0.020
REMARK UNBOUND:                -0.018
REMARK SMILES O=C([O-])c1cccnc1
REMARK SMILES IDX 4 1 5 2 9 3 6 4 8 5 7 6 2 7 1 8 3 9
REMARK H PARENT
REMARK Flexibility Score: inf
ROOT
ATOM      1  C   UNL     1      59.288  -1.080 211.778  1.00  0.00     0.016 A 
ATOM      2  C   UNL     1      58.212  -1.783 212.344  1.00  0.00     0.013 A 
ATOM      3  C   UNL     1      59.019  -0.167 210.743  1.00  0.00     0.120 A 
ATOM      4  C   UNL     1      56.913  -1.568 211.880  1.00  0.00     0.021 A 
ATOM      5  N   UNL     1      57.744   0.024 210.310  1.00  0.00    -0.264 NA
ATOM      6  C   UNL     1      56.696  -0.651 210.851  1.00  0.00     0.111 A 
ENDROOT
BRANCH   1   7
ATOM      7  C   UNL     1      60.668  -1.299 212.261  1.00  0.00     0.073 C 
ATOM      8  O   UNL     1      61.629  -1.363 211.448  1.00  0.00    -0.545 OA
ATOM      9  O   UNL     1      60.925  -1.438 213.620  1.00  0.00    -0.545 OA
ENDBRANCH   1   7
TORSDOF 1
ENDMDL
MODEL 6
REMARK VINA RESULT:    -4.288      0.923      1.636
REMARK INTER + INTRA:          -4.557
REMARK INTER:                  -4.539
REMARK INTRA:                  -0.018
REMARK UNBOUND:                -0.018
REMARK SMILES O=C([O-])c1cccnc1
REMARK SMILES IDX 4 1 5 2 9 3 6 4 8 5 7 6 2 7 1 8 3 9
REMARK H PARENT
REMARK Flexibility Score: inf
ROOT
ATOM      1  C   UNL     1      57.292  -0.308 210.512  1.00  0.00     0.016 A 
ATOM      2  C   UNL     1      56.721  -1.220 211.414  1.00  0.00     0.013 A 
ATOM      3  C   UNL     1      58.683  -0.110 210.552  1.00  0.00     0.120 A 
ATOM      4  C   UNL     1      57.529  -1.906 212.322  1.00  0.00     0.021 A 
ATOM      5  N   UNL     1      59.448  -0.792 211.447  1.00  0.00    -0.264 NA
ATOM      6  C   UNL     1      58.904  -1.677 212.324  1.00  0.00     0.111 A 
ENDROOT
BRANCH   1   7
ATOM      7  C   UNL     1      56.446   0.425 209.545  1.00  0.00     0.073 C 
ATOM      8  O   UNL     1      56.439   1.685 209.526  1.00  0.00    -0.545 OA
ATOM      9  O   UNL     1      55.646  -0.267 208.643  1.00  0.00    -0.545 OA
ENDBRANCH   1   7
TORSDOF 1
ENDMDL
MODEL 7
REMARK VINA RESULT:    -4.119      2.371      3.285
REMARK INTER + INTRA:          -4.378
REMARK INTER:                  -4.360
REMARK INTRA:                  -0.019
REMARK UNBOUND:                -0.018
REMARK SMILES O=C([O-])c1cccnc1
REMARK SMILES IDX 4 1 5 2 9 3 6 4 8 5 7 6 2 7 1 8 3 9
REMARK H PARENT
REMARK Flexibility Score: inf
ROOT
ATOM      1  C   UNL     1      56.747  -1.411 210.366  1.00  0.00     0.016 A 
ATOM      2  C   UNL     1      56.758  -2.241 211.499  1.00  0.00     0.013 A 
ATOM      3  C   UNL     1      55.994  -1.814 209.250  1.00  0.00     0.120 A 
ATOM      4  C   UNL     1      56.033  -3.434 211.500  1.00  0.00     0.021 A 
ATOM      5  N   UNL     1      55.297  -2.982 209.277  1.00  0.00    -0.264 NA
ATOM      6  C   UNL     1      55.301  -3.792 210.369  1.00  0.00     0.111 A 
ENDROOT
BRANCH   1   7
ATOM      7  C   UNL     1      57.510  -0.145 210.353  1.00  0.00     0.073 C 
ATOM      8  O   UNL     1      56.958   0.933 210.002  1.00  0.00    -0.545 OA
ATOM      9  O   UNL     1      58.849  -0.125 210.728  1.00  0.00    -0.545 OA
ENDBRANCH   1   7
TORSDOF 1
ENDMDL
MODEL 8
REMARK VINA RESULT:    -4.105      1.144      1.301
REMARK INTER + INTRA:          -4.363
REMARK INTER:                  -4.344
REMARK INTRA:                  -0.019
REMARK UNBOUND:                -0.018
REMARK SMILES O=C([O-])c1cccnc1
REMARK SMILES IDX 4 1 5 2 9 3 6 4 8 5 7 6 2 7 1 8 3 9
REMARK H PARENT
REMARK Flexibility Score: inf
ROOT
ATOM      1  C   UNL     1      56.575  -0.209 209.962  1.00  0.00     0.016 A 
ATOM      2  C   UNL     1      57.941  -0.047 210.239  1.00  0.00     0.013 A 
ATOM      3  C   UNL     1      55.849  -1.152 210.711  1.00  0.00     0.120 A 
ATOM      4  C   UNL     1      58.550  -0.810 211.237  1.00  0.00     0.021 A 
ATOM      5  N   UNL     1      56.466  -1.882 211.678  1.00  0.00    -0.264 NA
ATOM      6  C   UNL     1      57.789  -1.732 211.953  1.00  0.00     0.111 A 
ENDROOT
BRANCH   1   7
ATOM      7  C   UNL     1      55.919   0.593 208.907  1.00  0.00     0.073 C 
ATOM      8  O   UNL     1      56.066   1.844 208.869  1.00  0.00    -0.545 OA
ATOM      9  O   UNL     1      55.130  -0.022 207.941  1.00  0.00    -0.545 OA
ENDBRANCH   1   7
TORSDOF 1
ENDMDL
MODEL 9
REMARK VINA RESULT:    -4.100      2.198      3.175
REMARK INTER + INTRA:          -4.357
REMARK INTER:                  -4.338
REMARK INTRA:                  -0.019
REMARK UNBOUND:                -0.018
REMARK SMILES O=C([O-])c1cccnc1
REMARK SMILES IDX 4 1 5 2 9 3 6 4 8 5 7 6 2 7 1 8 3 9
REMARK H PARENT
REMARK Flexibility Score: inf
ROOT
ATOM      1  C   UNL     1      56.742  -1.431 210.380  1.00  0.00     0.016 A 
ATOM      2  C   UNL     1      55.967  -1.902 209.307  1.00  0.00     0.013 A 
ATOM      3  C   UNL     1      56.789  -2.198 211.557  1.00  0.00     0.120 A 
ATOM      4  C   UNL     1      55.267  -3.103 209.422  1.00  0.00     0.021 A 
ATOM      5  N   UNL     1      56.097  -3.366 211.642  1.00  0.00    -0.264 NA
ATOM      6  C   UNL     1      55.345  -3.830 210.609  1.00  0.00     0.111 A 
ENDROOT
BRANCH   1   7
ATOM      7  C   UNL     1      57.488  -0.159 210.269  1.00  0.00     0.073 C 
ATOM      8  O   UNL     1      56.915   0.886 209.858  1.00  0.00    -0.545 OA
ATOM      9  O   UNL     1      58.832  -0.098 210.619  1.00  0.00    -0.545 OA
ENDBRANCH   1   7
TORSDOF 1
ENDMDL
