MODEL 1
REMARK VINA RESULT:    -3.740      0.000      0.000
REMARK INTER + INTRA:          -8.792
REMARK INTER:                  -8.113
REMARK INTRA:                  -0.679
REMARK UNBOUND:                -0.679
REMARK SMILES CCCCCCCCCCCCCCCCCCCCCC(=O)[O-]
REMARK SMILES IDX 12 1 11 2 10 3 9 4 8 5 7 6 6 7 5 8 4 9 3 10 2 11 1 12 13 13
REMARK SMILES IDX 14 14 15 15 16 16 17 17 18 18 19 19 20 20 21 21 22 22 23 23
REMARK SMILES IDX 24 24
REMARK H PARENT
REMARK Flexibility Score: inf
ROOT
ATOM      1  C   UNL     1      -0.599   1.473  -9.780  1.00  0.00     0.000 C 
ENDROOT
BRANCH   1   2
ATOM      2  C   UNL     1      -2.099   1.585 -10.111  1.00  0.00     0.000 C 
BRANCH   2   3
ATOM      3  C   UNL     1      -2.698   2.995  -9.958  1.00  0.00     0.000 C 
BRANCH   3   4
ATOM      4  C   UNL     1      -4.230   2.981  -9.819  1.00  0.00    -0.000 C 
BRANCH   4   5
ATOM      5  C   UNL     1      -4.863   4.350 -10.122  1.00  0.00    -0.000 C 
BRANCH   5   6
ATOM      6  C   UNL     1      -6.389   4.355  -9.942  1.00  0.00    -0.000 C 
BRANCH   6   7
ATOM      7  C   UNL     1      -6.782   5.060  -8.634  1.00  0.00    -0.000 C 
BRANCH   7   8
ATOM      8  C   UNL     1      -7.553   6.369  -8.870  1.00  0.00    -0.000 C 
BRANCH   8   9
ATOM      9  C   UNL     1      -6.937   7.224  -9.991  1.00  0.00    -0.000 C 
BRANCH   9  10
ATOM     10  C   UNL     1      -6.577   8.643  -9.523  1.00  0.00    -0.000 C 
BRANCH  10  11
ATOM     11  C   UNL     1      -7.780   9.396  -8.934  1.00  0.00    -0.003 C 
ATOM     12  C   UNL     1      -8.883   9.568  -9.974  1.00  0.00     0.004 C 
ENDBRANCH  10  11
ENDBRANCH   9  10
ENDBRANCH   8   9
ENDBRANCH   7   8
ENDBRANCH   6   7
ENDBRANCH   5   6
ENDBRANCH   4   5
ENDBRANCH   3   4
ENDBRANCH   2   3
ENDBRANCH   1   2
BRANCH   1  13
ATOM     13  C   UNL     1      -0.099   0.022  -9.739  1.00  0.00     0.000 C 
BRANCH  13  14
ATOM     14  C   UNL     1       1.388  -0.057 -10.122  1.00  0.00     0.000 C 
BRANCH  14  15
ATOM     15  C   UNL     1       2.005  -1.435  -9.830  1.00  0.00     0.000 C 
BRANCH  15  16
ATOM     16  C   UNL     1       3.525  -1.461 -10.064  1.00  0.00     0.000 C 
BRANCH  16  17
ATOM     17  C   UNL     1       4.093  -2.889 -10.125  1.00  0.00     0.000 C 
BRANCH  17  18
ATOM     18  C   UNL     1       5.635  -2.945 -10.062  1.00  0.00     0.000 C 
BRANCH  18  19
ATOM     19  C   UNL     1       6.157  -4.387  -9.978  1.00  0.00     0.000 C 
BRANCH  19  20
ATOM     20  C   UNL     1       5.280  -5.237  -9.050  1.00  0.00     0.006 C 
BRANCH  20  21
ATOM     21  C   UNL     1       6.126  -6.246  -8.267  1.00  0.00     0.053 C 
BRANCH  21  22
ATOM     22  C   UNL     1       6.733  -7.250  -9.194  1.00  0.00     0.041 C 
ATOM     23  O   UNL     1       7.981  -7.418  -9.216  1.00  0.00    -0.550 OA
ATOM     24  O   UNL     1       5.917  -8.035  -9.998  1.00  0.00    -0.550 OA
ENDBRANCH  21  22
ENDBRANCH  20  21
ENDBRANCH  19  20
ENDBRANCH  18  19
ENDBRANCH  17  18
ENDBRANCH  16  17
ENDBRANCH  15  16
ENDBRANCH  14  15
ENDBRANCH  13  14
ENDBRANCH   1  13
TORSDOF 20
ENDMDL
MODEL 2
REMARK VINA RESULT:    -3.528      1.315      1.872
REMARK INTER + INTRA:          -8.331
REMARK INTER:                  -7.542
REMARK INTRA:                  -0.790
REMARK UNBOUND:                -0.679
REMARK SMILES CCCCCCCCCCCCCCCCCCCCCC(=O)[O-]
REMARK SMILES IDX 12 1 11 2 10 3 9 4 8 5 7 6 6 7 5 8 4 9 3 10 2 11 1 12 13 13
REMARK SMILES IDX 14 14 15 15 16 16 17 17 18 18 19 19 20 20 21 21 22 22 23 23
REMARK SMILES IDX 24 24
REMARK H PARENT
REMARK Flexibility Score: inf
ROOT
ATOM      1  C   UNL     1       0.239   0.946  -9.680  1.00  0.00     0.000 C 
ENDROOT
BRANCH   1   2
ATOM      2  C   UNL     1      -1.210   1.256 -10.100  1.00  0.00     0.000 C 
BRANCH   2   3
ATOM      3  C   UNL     1      -1.585   2.750 -10.092  1.00  0.00     0.000 C 
BRANCH   3   4
ATOM      4  C   UNL     1      -3.091   2.986  -9.884  1.00  0.00    -0.000 C 
BRANCH   4   5
ATOM      5  C   UNL     1      -3.406   4.422  -9.431  1.00  0.00    -0.000 C 
BRANCH   5   6
ATOM      6  C   UNL     1      -4.647   5.008 -10.125  1.00  0.00    -0.000 C 
BRANCH   6   7
ATOM      7  C   UNL     1      -5.905   4.207  -9.760  1.00  0.00    -0.000 C 
BRANCH   7   8
ATOM      8  C   UNL     1      -6.839   4.965  -8.802  1.00  0.00    -0.000 C 
BRANCH   8   9
ATOM      9  C   UNL     1      -6.339   6.387  -8.492  1.00  0.00    -0.000 C 
BRANCH   9  10
ATOM     10  C   UNL     1      -7.386   7.465  -8.818  1.00  0.00    -0.000 C 
BRANCH  10  11
ATOM     11  C   UNL     1      -6.755   8.831  -9.127  1.00  0.00    -0.003 C 
ATOM     12  C   UNL     1      -5.273   8.689  -9.460  1.00  0.00     0.004 C 
ENDBRANCH  10  11
ENDBRANCH   9  10
ENDBRANCH   8   9
ENDBRANCH   7   8
ENDBRANCH   6   7
ENDBRANCH   5   6
ENDBRANCH   4   5
ENDBRANCH   3   4
ENDBRANCH   2   3
ENDBRANCH   1   2
BRANCH   1  13
ATOM     13  C   UNL     1       0.498  -0.555  -9.479  1.00  0.00     0.000 C 
BRANCH  13  14
ATOM     14  C   UNL     1       1.842  -0.967 -10.099  1.00  0.00     0.000 C 
BRANCH  14  15
ATOM     15  C   UNL     1       2.047  -2.491 -10.116  1.00  0.00     0.000 C 
BRANCH  15  16
ATOM     16  C   UNL     1       3.522  -2.890  -9.944  1.00  0.00     0.000 C 
BRANCH  16  17
ATOM     17  C   UNL     1       3.716  -4.409  -9.803  1.00  0.00     0.000 C 
BRANCH  17  18
ATOM     18  C   UNL     1       5.132  -4.812  -9.338  1.00  0.00     0.000 C 
BRANCH  18  19
ATOM     19  C   UNL     1       5.593  -6.134  -9.970  1.00  0.00     0.000 C 
BRANCH  19  20
ATOM     20  C   UNL     1       6.294  -7.024  -8.936  1.00  0.00     0.006 C 
BRANCH  20  21
ATOM     21  C   UNL     1       7.227  -8.028  -9.618  1.00  0.00     0.053 C 
BRANCH  21  22
ATOM     22  C   UNL     1       8.528  -8.116  -8.885  1.00  0.00     0.041 C 
ATOM     23  O   UNL     1       8.625  -7.665  -7.713  1.00  0.00    -0.550 OA
ATOM     24  O   UNL     1       9.619  -8.739  -9.477  1.00  0.00    -0.550 OA
ENDBRANCH  21  22
ENDBRANCH  20  21
ENDBRANCH  19  20
ENDBRANCH  18  19
ENDBRANCH  17  18
ENDBRANCH  16  17
ENDBRANCH  15  16
ENDBRANCH  14  15
ENDBRANCH  13  14
ENDBRANCH   1  13
TORSDOF 20
ENDMDL
MODEL 3
REMARK VINA RESULT:    -3.320     20.999     22.176
REMARK INTER + INTRA:          -7.880
REMARK INTER:                  -7.383
REMARK INTRA:                  -0.497
REMARK UNBOUND:                -0.679
REMARK SMILES CCCCCCCCCCCCCCCCCCCCCC(=O)[O-]
REMARK SMILES IDX 12 1 11 2 10 3 9 4 8 5 7 6 6 7 5 8 4 9 3 10 2 11 1 12 13 13
REMARK SMILES IDX 14 14 15 15 16 16 17 17 18 18 19 19 20 20 21 21 22 22 23 23
REMARK SMILES IDX 24 24
REMARK H PARENT
REMARK Flexibility Score: inf
ROOT
ATOM      1  C   UNL     1      -2.036  -1.518   9.371  1.00  0.00     0.000 C 
ENDROOT
BRANCH   1   2
ATOM      2  C   UNL     1      -1.193  -0.472  10.124  1.00  0.00     0.000 C 
BRANCH   2   3
ATOM      3  C   UNL     1       0.184  -0.173   9.503  1.00  0.00     0.000 C 
BRANCH   3   4
ATOM      4  C   UNL     1       0.560   1.316   9.572  1.00  0.00    -0.000 C 
BRANCH   4   5
ATOM      5  C   UNL     1       1.996   1.541  10.076  1.00  0.00    -0.000 C 
BRANCH   5   6
ATOM      6  C   UNL     1       2.774   2.560   9.227  1.00  0.00    -0.000 C 
BRANCH   6   7
ATOM      7  C   UNL     1       3.390   3.652  10.115  1.00  0.00    -0.000 C 
BRANCH   7   8
ATOM      8  C   UNL     1       4.701   4.217   9.544  1.00  0.00    -0.000 C 
BRANCH   8   9
ATOM      9  C   UNL     1       4.727   5.755   9.536  1.00  0.00    -0.000 C 
BRANCH   9  10
ATOM     10  C   UNL     1       5.928   6.322   8.761  1.00  0.00    -0.000 C 
BRANCH  10  11
ATOM     11  C   UNL     1       6.506   7.590   9.407  1.00  0.00    -0.003 C 
ATOM     12  C   UNL     1       7.930   7.851   8.927  1.00  0.00     0.004 C 
ENDBRANCH  10  11
ENDBRANCH   9  10
ENDBRANCH   8   9
ENDBRANCH   7   8
ENDBRANCH   6   7
ENDBRANCH   5   6
ENDBRANCH   4   5
ENDBRANCH   3   4
ENDBRANCH   2   3
ENDBRANCH   1   2
BRANCH   1  13
ATOM     13  C   UNL     1      -3.326  -1.896  10.113  1.00  0.00     0.000 C 
BRANCH  13  14
ATOM     14  C   UNL     1      -3.546  -3.417  10.089  1.00  0.00     0.000 C 
BRANCH  14  15
ATOM     15  C   UNL     1      -5.029  -3.802   9.950  1.00  0.00     0.000 C 
BRANCH  15  16
ATOM     16  C   UNL     1      -5.222  -5.171   9.277  1.00  0.00     0.000 C 
BRANCH  16  17
ATOM     17  C   UNL     1      -4.001  -6.092   9.440  1.00  0.00     0.000 C 
BRANCH  17  18
ATOM     18  C   UNL     1      -4.286  -7.566   9.081  1.00  0.00     0.000 C 
BRANCH  18  19
ATOM     19  C   UNL     1      -5.383  -8.175   9.968  1.00  0.00     0.000 C 
BRANCH  19  20
ATOM     20  C   UNL     1      -6.733  -8.197   9.239  1.00  0.00     0.006 C 
BRANCH  20  21
ATOM     21  C   UNL     1      -7.682  -9.219   9.871  1.00  0.00     0.053 C 
BRANCH  21  22
ATOM     22  C   UNL     1      -9.087  -8.976   9.421  1.00  0.00     0.041 C 
ATOM     23  O   UNL     1      -9.374  -7.935   8.773  1.00  0.00    -0.550 OA
ATOM     24  O   UNL     1     -10.071  -9.924   9.674  1.00  0.00    -0.550 OA
ENDBRANCH  21  22
ENDBRANCH  20  21
ENDBRANCH  19  20
ENDBRANCH  18  19
ENDBRANCH  17  18
ENDBRANCH  16  17
ENDBRANCH  15  16
ENDBRANCH  14  15
ENDBRANCH  13  14
ENDBRANCH   1  13
TORSDOF 20
ENDMDL
MODEL 4
REMARK VINA RESULT:    -3.262     20.814     22.062
REMARK INTER + INTRA:          -7.755
REMARK INTER:                  -6.977
REMARK INTRA:                  -0.778
REMARK UNBOUND:                -0.679
REMARK SMILES CCCCCCCCCCCCCCCCCCCCCC(=O)[O-]
REMARK SMILES IDX 12 1 11 2 10 3 9 4 8 5 7 6 6 7 5 8 4 9 3 10 2 11 1 12 13 13
REMARK SMILES IDX 14 14 15 15 16 16 17 17 18 18 19 19 20 20 21 21 22 22 23 23
REMARK SMILES IDX 24 24
REMARK H PARENT
REMARK Flexibility Score: inf
ROOT
ATOM      1  C   UNL     1       2.523   3.075  10.124  1.00  0.00     0.000 C 
ENDROOT
BRANCH   1   2
ATOM      2  C   UNL     1       3.866   3.802   9.923  1.00  0.00     0.000 C 
BRANCH   2   3
ATOM      3  C   UNL     1       3.753   5.290   9.543  1.00  0.00     0.000 C 
BRANCH   3   4
ATOM      4  C   UNL     1       4.908   5.767   8.647  1.00  0.00    -0.000 C 
BRANCH   4   5
ATOM      5  C   UNL     1       5.780   6.838   9.327  1.00  0.00    -0.000 C 
BRANCH   5   6
ATOM      6  C   UNL     1       4.970   8.059   9.793  1.00  0.00    -0.000 C 
BRANCH   6   7
ATOM      7  C   UNL     1       5.852   9.316   9.829  1.00  0.00    -0.000 C 
BRANCH   7   8
ATOM      8  C   UNL     1       7.116   9.184   8.964  1.00  0.00    -0.000 C 
BRANCH   8   9
ATOM      9  C   UNL     1       8.374   9.719   9.670  1.00  0.00    -0.000 C 
BRANCH   9  10
ATOM     10  C   UNL     1       9.671   9.123   9.098  1.00  0.00    -0.000 C 
BRANCH  10  11
ATOM     11  C   UNL     1      10.077   7.812   9.789  1.00  0.00    -0.003 C 
ATOM     12  C   UNL     1       9.240   6.642   9.281  1.00  0.00     0.004 C 
ENDBRANCH  10  11
ENDBRANCH   9  10
ENDBRANCH   8   9
ENDBRANCH   7   8
ENDBRANCH   6   7
ENDBRANCH   5   6
ENDBRANCH   4   5
ENDBRANCH   3   4
ENDBRANCH   2   3
ENDBRANCH   1   2
BRANCH   1  13
ATOM     13  C   UNL     1       2.379   1.825   9.244  1.00  0.00     0.000 C 
BRANCH  13  14
ATOM     14  C   UNL     1       1.223   0.940   9.736  1.00  0.00     0.000 C 
BRANCH  14  15
ATOM     15  C   UNL     1      -0.024   1.752  10.124  1.00  0.00     0.000 C 
BRANCH  15  16
ATOM     16  C   UNL     1      -1.331   0.983   9.868  1.00  0.00     0.000 C 
BRANCH  16  17
ATOM     17  C   UNL     1      -1.163  -0.539  10.005  1.00  0.00     0.000 C 
BRANCH  17  18
ATOM     18  C   UNL     1      -2.501  -1.301  10.124  1.00  0.00     0.000 C 
BRANCH  18  19
ATOM     19  C   UNL     1      -2.348  -2.792   9.786  1.00  0.00     0.000 C 
BRANCH  19  20
ATOM     20  C   UNL     1      -3.712  -3.438   9.511  1.00  0.00     0.006 C 
BRANCH  20  21
ATOM     21  C   UNL     1      -3.788  -4.841  10.119  1.00  0.00     0.053 C 
BRANCH  21  22
ATOM     22  C   UNL     1      -4.391  -5.802   9.145  1.00  0.00     0.041 C 
ATOM     23  O   UNL     1      -5.147  -5.383   8.229  1.00  0.00    -0.550 OA
ATOM     24  O   UNL     1      -4.079  -7.153   9.218  1.00  0.00    -0.550 OA
ENDBRANCH  21  22
ENDBRANCH  20  21
ENDBRANCH  19  20
ENDBRANCH  18  19
ENDBRANCH  17  18
ENDBRANCH  16  17
ENDBRANCH  15  16
ENDBRANCH  14  15
ENDBRANCH  13  14
ENDBRANCH   1  13
TORSDOF 20
ENDMDL
MODEL 5
REMARK VINA RESULT:    -2.111     20.800     21.960
REMARK INTER + INTRA:          -5.258
REMARK INTER:                  -5.806
REMARK INTRA:                   0.549
REMARK UNBOUND:                -0.679
REMARK SMILES CCCCCCCCCCCCCCCCCCCCCC(=O)[O-]
REMARK SMILES IDX 12 1 11 2 10 3 9 4 8 5 7 6 6 7 5 8 4 9 3 10 2 11 1 12 13 13
REMARK SMILES IDX 14 14 15 15 16 16 17 17 18 18 19 19 20 20 21 21 22 22 23 23
REMARK SMILES IDX 24 24
REMARK H PARENT
REMARK Flexibility Score: inf
ROOT
ATOM      1  C   UNL     1      -0.496  -1.988   9.840  1.00  0.00     0.000 C 
ENDROOT
BRANCH   1   2
ATOM      2  C   UNL     1      -2.016  -2.179   9.688  1.00  0.00     0.000 C 
BRANCH   2   3
ATOM      3  C   UNL     1      -2.547  -3.558  10.122  1.00  0.00     0.000 C 
BRANCH   3   4
ATOM      4  C   UNL     1      -3.793  -3.994   9.333  1.00  0.00    -0.000 C 
BRANCH   4   5
ATOM      5  C   UNL     1      -4.438  -5.268   9.904  1.00  0.00    -0.000 C 
BRANCH   5   6
ATOM      6  C   UNL     1      -4.397  -6.450   8.922  1.00  0.00    -0.000 C 
BRANCH   6   7
ATOM      7  C   UNL     1      -5.789  -6.717   8.331  1.00  0.00    -0.000 C 
BRANCH   7   8
ATOM      8  C   UNL     1      -6.909  -6.636   9.381  1.00  0.00    -0.000 C 
BRANCH   8   9
ATOM      9  C   UNL     1      -7.767  -7.913   9.429  1.00  0.00    -0.000 C 
BRANCH   9  10
ATOM     10  C   UNL     1      -9.256  -7.635   9.162  1.00  0.00    -0.000 C 
BRANCH  10  11
ATOM     11  C   UNL     1      -9.806  -6.483  10.017  1.00  0.00    -0.003 C 
ATOM     12  C   UNL     1      -9.068  -5.180   9.725  1.00  0.00     0.004 C 
ENDBRANCH  10  11
ENDBRANCH   9  10
ENDBRANCH   8   9
ENDBRANCH   7   8
ENDBRANCH   6   7
ENDBRANCH   5   6
ENDBRANCH   4   5
ENDBRANCH   3   4
ENDBRANCH   2   3
ENDBRANCH   1   2
BRANCH   1  13
ATOM     13  C   UNL     1      -0.001  -0.644   9.284  1.00  0.00     0.000 C 
BRANCH  13  14
ATOM     14  C   UNL     1       1.195  -0.123  10.096  1.00  0.00     0.000 C 
BRANCH  14  15
ATOM     15  C   UNL     1       1.975   0.982   9.363  1.00  0.00     0.000 C 
BRANCH  15  16
ATOM     16  C   UNL     1       3.239   1.415  10.124  1.00  0.00     0.000 C 
BRANCH  16  17
ATOM     17  C   UNL     1       3.729   2.814   9.716  1.00  0.00     0.000 C 
BRANCH  17  18
ATOM     18  C   UNL     1       5.250   3.014   9.897  1.00  0.00     0.000 C 
BRANCH  18  19
ATOM     19  C   UNL     1       5.624   4.497  10.043  1.00  0.00     0.000 C 
BRANCH  19  20
ATOM     20  C   UNL     1       4.533   5.401   9.455  1.00  0.00     0.006 C 
BRANCH  20  21
ATOM     21  C   UNL     1       4.836   6.877   9.729  1.00  0.00     0.053 C 
BRANCH  21  22
ATOM     22  C   UNL     1       6.225   7.216   9.291  1.00  0.00     0.041 C 
ATOM     23  O   UNL     1       6.952   7.954  10.008  1.00  0.00    -0.550 OA
ATOM     24  O   UNL     1       6.734   6.678   8.117  1.00  0.00    -0.550 OA
ENDBRANCH  21  22
ENDBRANCH  20  21
ENDBRANCH  19  20
ENDBRANCH  18  19
ENDBRANCH  17  18
ENDBRANCH  16  17
ENDBRANCH  15  16
ENDBRANCH  14  15
ENDBRANCH  13  14
ENDBRANCH   1  13
TORSDOF 20
ENDMDL
MODEL 6
REMARK VINA RESULT:    -1.544      1.592      2.911
REMARK INTER + INTRA:          -4.028
REMARK INTER:                  -3.439
REMARK INTRA:                  -0.588
REMARK UNBOUND:                -0.679
REMARK SMILES CCCCCCCCCCCCCCCCCCCCCC(=O)[O-]
REMARK SMILES IDX 12 1 11 2 10 3 9 4 8 5 7 6 6 7 5 8 4 9 3 10 2 11 1 12 13 13
REMARK SMILES IDX 14 14 15 15 16 16 17 17 18 18 19 19 20 20 21 21 22 22 23 23
REMARK SMILES IDX 24 24
REMARK H PARENT
REMARK Flexibility Score: inf
ROOT
ATOM      1  C   UNL     1       0.657  -0.336 -10.025  1.00  0.00     0.000 C 
ENDROOT
BRANCH   1   2
ATOM      2  C   UNL     1       0.726   1.200 -10.122  1.00  0.00     0.000 C 
BRANCH   2   3
ATOM      3  C   UNL     1      -0.625   1.924  -9.976  1.00  0.00     0.000 C 
BRANCH   3   4
ATOM      4  C   UNL     1      -1.361   1.559  -8.675  1.00  0.00    -0.000 C 
BRANCH   4   5
ATOM      5  C   UNL     1      -2.862   1.303  -8.898  1.00  0.00    -0.000 C 
BRANCH   5   6
ATOM      6  C   UNL     1      -3.419   2.044 -10.124  1.00  0.00    -0.000 C 
BRANCH   6   7
ATOM      7  C   UNL     1      -3.466   3.559  -9.870  1.00  0.00    -0.000 C 
BRANCH   7   8
ATOM      8  C   UNL     1      -4.896   4.123  -9.889  1.00  0.00    -0.000 C 
BRANCH   8   9
ATOM      9  C   UNL     1      -5.028   5.426  -9.081  1.00  0.00    -0.000 C 
BRANCH   9  10
ATOM     10  C   UNL     1      -6.487   5.759  -8.731  1.00  0.00    -0.000 C 
BRANCH  10  11
ATOM     11  C   UNL     1      -7.341   6.059  -9.973  1.00  0.00    -0.003 C 
ATOM     12  C   UNL     1      -8.792   6.332  -9.590  1.00  0.00     0.004 C 
ENDBRANCH  10  11
ENDBRANCH   9  10
ENDBRANCH   8   9
ENDBRANCH   7   8
ENDBRANCH   6   7
ENDBRANCH   5   6
ENDBRANCH   4   5
ENDBRANCH   3   4
ENDBRANCH   2   3
ENDBRANCH   1   2
BRANCH   1  13
ATOM     13  C   UNL     1       2.035  -1.006 -10.125  1.00  0.00     0.000 C 
BRANCH  13  14
ATOM     14  C   UNL     1       2.011  -2.405  -9.490  1.00  0.00     0.000 C 
BRANCH  14  15
ATOM     15  C   UNL     1       3.395  -2.857  -8.994  1.00  0.00     0.000 C 
BRANCH  15  16
ATOM     16  C   UNL     1       3.977  -4.005  -9.835  1.00  0.00     0.000 C 
BRANCH  16  17
ATOM     17  C   UNL     1       5.504  -3.909  -9.998  1.00  0.00     0.000 C 
BRANCH  17  18
ATOM     18  C   UNL     1       6.205  -5.282 -10.073  1.00  0.00     0.000 C 
BRANCH  18  19
ATOM     19  C   UNL     1       7.323  -5.418  -9.028  1.00  0.00     0.000 C 
BRANCH  19  20
ATOM     20  C   UNL     1       8.545  -6.133  -9.617  1.00  0.00     0.006 C 
BRANCH  20  21
ATOM     21  C   UNL     1       8.984  -7.297  -8.724  1.00  0.00     0.053 C 
BRANCH  21  22
ATOM     22  C   UNL     1       8.415  -8.586  -9.227  1.00  0.00     0.041 C 
ATOM     23  O   UNL     1       7.245  -8.928  -8.910  1.00  0.00    -0.550 OA
ATOM     24  O   UNL     1       9.159  -9.385 -10.085  1.00  0.00    -0.550 OA
ENDBRANCH  21  22
ENDBRANCH  20  21
ENDBRANCH  19  20
ENDBRANCH  18  19
ENDBRANCH  17  18
ENDBRANCH  16  17
ENDBRANCH  15  16
ENDBRANCH  14  15
ENDBRANCH  13  14
ENDBRANCH   1  13
TORSDOF 20
ENDMDL
