MODEL 1
REMARK VINA RESULT:    -2.843      0.000      0.000
REMARK INTER + INTRA:          -3.238
REMARK INTER:                  -3.176
REMARK INTRA:                  -0.063
REMARK UNBOUND:                -0.063
REMARK SMILES CCCC(=O)[O-]
REMARK SMILES IDX 3 1 4 2 5 3 6 4 2 5 1 6
REMARK H PARENT
REMARK Flexibility Score: inf
ROOT
ATOM      1  C   UNL     1       4.258  -6.818   2.758  1.00  0.00     0.052 C 
ENDROOT
BRANCH   1   2
ATOM      2  C   UNL     1       3.515  -8.055   2.362  1.00  0.00     0.041 C 
ATOM      3  O   UNL     1       3.520  -8.440   1.164  1.00  0.00    -0.550 OA
ATOM      4  O   UNL     1       2.776  -8.753   3.307  1.00  0.00    -0.550 OA
ENDBRANCH   1   2
BRANCH   1   5
ATOM      5  C   UNL     1       5.398  -7.162   3.719  1.00  0.00     0.003 C 
ATOM      6  C   UNL     1       6.513  -7.918   3.004  1.00  0.00     0.004 C 
ENDBRANCH   1   5
TORSDOF 2
ENDMDL
MODEL 2
REMARK VINA RESULT:    -2.837     13.715     14.480
REMARK INTER + INTRA:          -3.231
REMARK INTER:                  -3.187
REMARK INTRA:                  -0.045
REMARK UNBOUND:                -0.063
REMARK SMILES CCCC(=O)[O-]
REMARK SMILES IDX 3 1 4 2 5 3 6 4 2 5 1 6
REMARK H PARENT
REMARK Flexibility Score: inf
ROOT
ATOM      1  C   UNL     1      -9.223  -3.716   7.625  1.00  0.00     0.052 C 
ENDROOT
BRANCH   1   2
ATOM      2  C   UNL     1      -8.713  -2.580   6.796  1.00  0.00     0.041 C 
ATOM      3  O   UNL     1      -8.976  -2.525   5.566  1.00  0.00    -0.550 OA
ATOM      4  O   UNL     1      -7.905  -1.608   7.372  1.00  0.00    -0.550 OA
ENDBRANCH   1   2
BRANCH   1   5
ATOM      5  C   UNL     1      -9.118  -5.033   6.852  1.00  0.00     0.003 C 
ATOM      6  C   UNL     1      -7.797  -5.739   7.144  1.00  0.00     0.004 C 
ENDBRANCH   1   5
TORSDOF 2
ENDMDL
MODEL 3
REMARK VINA RESULT:    -2.795      9.582     10.348
REMARK INTER + INTRA:          -3.184
REMARK INTER:                  -3.151
REMARK INTRA:                  -0.033
REMARK UNBOUND:                -0.063
REMARK SMILES CCCC(=O)[O-]
REMARK SMILES IDX 3 1 4 2 5 3 6 4 2 5 1 6
REMARK H PARENT
REMARK Flexibility Score: inf
ROOT
ATOM      1  C   UNL     1       4.979  -6.520  -6.333  1.00  0.00     0.052 C 
ENDROOT
BRANCH   1   2
ATOM      2  C   UNL     1       5.329  -5.069  -6.426  1.00  0.00     0.041 C 
ATOM      3  O   UNL     1       6.002  -4.520  -5.514  1.00  0.00    -0.550 OA
ATOM      4  O   UNL     1       4.870  -4.311  -7.494  1.00  0.00    -0.550 OA
ENDBRANCH   1   2
BRANCH   1   5
ATOM      5  C   UNL     1       5.616  -7.300  -7.486  1.00  0.00     0.003 C 
ATOM      6  C   UNL     1       4.580  -7.663  -8.546  1.00  0.00     0.004 C 
ENDBRANCH   1   5
TORSDOF 2
ENDMDL
MODEL 4
REMARK VINA RESULT:    -2.769      9.816     10.442
REMARK INTER + INTRA:          -3.156
REMARK INTER:                  -3.116
REMARK INTRA:                  -0.039
REMARK UNBOUND:                -0.063
REMARK SMILES CCCC(=O)[O-]
REMARK SMILES IDX 3 1 4 2 5 3 6 4 2 5 1 6
REMARK H PARENT
REMARK Flexibility Score: inf
ROOT
ATOM      1  C   UNL     1       5.365  -5.807  -7.574  1.00  0.00     0.052 C 
ENDROOT
BRANCH   1   2
ATOM      2  C   UNL     1       5.222  -5.534  -6.111  1.00  0.00     0.041 C 
ATOM      3  O   UNL     1       5.734  -4.502  -5.605  1.00  0.00    -0.550 OA
ATOM      4  O   UNL     1       4.565  -6.447  -5.296  1.00  0.00    -0.550 OA
ENDBRANCH   1   2
BRANCH   1   5
ATOM      5  C   UNL     1       5.825  -4.547  -8.312  1.00  0.00     0.003 C 
ATOM      6  C   UNL     1       4.648  -3.835  -8.974  1.00  0.00     0.004 C 
ENDBRANCH   1   5
TORSDOF 2
ENDMDL
MODEL 5
REMARK VINA RESULT:    -2.761      2.166      3.087
REMARK INTER + INTRA:          -3.147
REMARK INTER:                  -3.085
REMARK INTRA:                  -0.062
REMARK UNBOUND:                -0.063
REMARK SMILES CCCC(=O)[O-]
REMARK SMILES IDX 3 1 4 2 5 3 6 4 2 5 1 6
REMARK H PARENT
REMARK Flexibility Score: inf
ROOT
ATOM      1  C   UNL     1       4.969  -7.868   2.218  1.00  0.00     0.052 C 
ENDROOT
BRANCH   1   2
ATOM      2  C   UNL     1       4.904  -6.735   3.192  1.00  0.00     0.041 C 
ATOM      3  O   UNL     1       5.482  -6.823   4.307  1.00  0.00    -0.550 OA
ATOM      4  O   UNL     1       4.164  -5.600   2.888  1.00  0.00    -0.550 OA
ENDBRANCH   1   2
BRANCH   1   5
ATOM      5  C   UNL     1       3.562  -8.378   1.895  1.00  0.00     0.003 C 
ATOM      6  C   UNL     1       2.849  -8.865   3.153  1.00  0.00     0.004 C 
ENDBRANCH   1   5
TORSDOF 2
ENDMDL
MODEL 6
REMARK VINA RESULT:    -2.725     14.353     15.063
REMARK INTER + INTRA:          -3.106
REMARK INTER:                  -3.036
REMARK INTRA:                  -0.070
REMARK UNBOUND:                -0.063
REMARK SMILES CCCC(=O)[O-]
REMARK SMILES IDX 3 1 4 2 5 3 6 4 2 5 1 6
REMARK H PARENT
REMARK Flexibility Score: inf
ROOT
ATOM      1  C   UNL     1      -9.702  -2.790   7.895  1.00  0.00     0.052 C 
ENDROOT
BRANCH   1   2
ATOM      2  C   UNL     1      -8.887  -3.225   6.719  1.00  0.00     0.041 C 
ATOM      3  O   UNL     1      -8.130  -4.226   6.809  1.00  0.00    -0.550 OA
ATOM      4  O   UNL     1      -8.925  -2.494   5.539  1.00  0.00    -0.550 OA
ENDBRANCH   1   2
BRANCH   1   5
ATOM      5  C   UNL     1      -9.409  -1.328   8.240  1.00  0.00     0.003 C 
ATOM      6  C   UNL     1      -7.960  -1.146   8.684  1.00  0.00     0.004 C 
ENDBRANCH   1   5
TORSDOF 2
ENDMDL
MODEL 7
REMARK VINA RESULT:    -2.667     20.138     20.806
REMARK INTER + INTRA:          -3.042
REMARK INTER:                  -3.003
REMARK INTRA:                  -0.039
REMARK UNBOUND:                -0.063
REMARK SMILES CCCC(=O)[O-]
REMARK SMILES IDX 3 1 4 2 5 3 6 4 2 5 1 6
REMARK H PARENT
REMARK Flexibility Score: inf
ROOT
ATOM      1  C   UNL     1      -5.247   8.929   8.999  1.00  0.00     0.052 C 
ENDROOT
BRANCH   1   2
ATOM      2  C   UNL     1      -5.031  10.154   8.167  1.00  0.00     0.041 C 
ATOM      3  O   UNL     1      -4.376  11.125   8.627  1.00  0.00    -0.550 OA
ATOM      4  O   UNL     1      -5.597  10.242   6.902  1.00  0.00    -0.550 OA
ENDBRANCH   1   2
BRANCH   1   5
ATOM      5  C   UNL     1      -5.918   7.830   8.171  1.00  0.00     0.003 C 
ATOM      6  C   UNL     1      -7.353   7.591   8.631  1.00  0.00     0.004 C 
ENDBRANCH   1   5
TORSDOF 2
ENDMDL
MODEL 8
REMARK VINA RESULT:    -2.666      9.045      9.679
REMARK INTER + INTRA:          -3.040
REMARK INTER:                  -3.002
REMARK INTRA:                  -0.039
REMARK UNBOUND:                -0.063
REMARK SMILES CCCC(=O)[O-]
REMARK SMILES IDX 3 1 4 2 5 3 6 4 2 5 1 6
REMARK H PARENT
REMARK Flexibility Score: inf
ROOT
ATOM      1  C   UNL     1       5.318  -6.493  -6.961  1.00  0.00     0.052 C 
ENDROOT
BRANCH   1   2
ATOM      2  C   UNL     1       5.254  -5.017  -6.728  1.00  0.00     0.041 C 
ATOM      3  O   UNL     1       5.499  -4.544  -5.588  1.00  0.00    -0.550 OA
ATOM      4  O   UNL     1       4.875  -4.168  -7.759  1.00  0.00    -0.550 OA
ENDBRANCH   1   2
BRANCH   1   5
ATOM      5  C   UNL     1       5.395  -7.243  -5.628  1.00  0.00     0.003 C 
ATOM      6  C   UNL     1       6.751  -7.919  -5.453  1.00  0.00     0.004 C 
ENDBRANCH   1   5
TORSDOF 2
ENDMDL
MODEL 9
REMARK VINA RESULT:    -2.573     15.914     16.370
REMARK INTER + INTRA:          -2.936
REMARK INTER:                  -2.921
REMARK INTRA:                  -0.015
REMARK UNBOUND:                -0.063
REMARK SMILES CCCC(=O)[O-]
REMARK SMILES IDX 3 1 4 2 5 3 6 4 2 5 1 6
REMARK H PARENT
REMARK Flexibility Score: inf
ROOT
ATOM      1  C   UNL     1       6.163   8.201   7.205  1.00  0.00     0.052 C 
ENDROOT
BRANCH   1   2
ATOM      2  C   UNL     1       6.117   7.394   8.463  1.00  0.00     0.041 C 
ATOM      3  O   UNL     1       6.124   6.136   8.409  1.00  0.00    -0.550 OA
ATOM      4  O   UNL     1       6.016   8.030   9.693  1.00  0.00    -0.550 OA
ENDBRANCH   1   2
BRANCH   1   5
ATOM      5  C   UNL     1       6.244   7.285   5.981  1.00  0.00     0.003 C 
ATOM      6  C   UNL     1       6.861   8.010   4.789  1.00  0.00     0.004 C 
ENDBRANCH   1   5
TORSDOF 2
ENDMDL
