MODEL 1
REMARK VINA RESULT:    -3.535      0.000      0.000
REMARK INTER + INTRA:          -4.363
REMARK INTER:                  -4.259
REMARK INTRA:                  -0.105
REMARK UNBOUND:                -0.105
REMARK SMILES O=c1c(O)c(-c2ccc(O)c(O)c2)oc2cc(O)cc(O)c12
REMARK SMILES IDX 5 1 3 2 2 3 1 4 22 5 20 6 19 7 17 8 16 9 15 10 14 11 6 12
REMARK SMILES IDX 7 13 8 14 9 15 13 16 11 17 10 18 12 20 4 22 21 24 18 26
REMARK H PARENT 10 19 12 21 4 23 21 25 18 27
REMARK Flexibility Score: inf
ROOT
ATOM      1  C   UNL     1       9.447 -17.831   7.851  1.00  0.00     0.180 A 
ATOM      2  C   UNL     1       9.930 -18.436   6.675  1.00  0.00     0.208 A 
ATOM      3  C   UNL     1      11.302 -18.363   6.388  1.00  0.00     0.238 A 
ATOM      4  O   UNL     1      11.745 -18.892   5.333  1.00  0.00    -0.285 OA
ATOM      5  C   UNL     1      12.168 -17.705   7.286  1.00  0.00     0.111 A 
ATOM      6  C   UNL     1      13.562 -17.590   7.073  1.00  0.00     0.134 A 
ATOM      7  C   UNL     1      14.359 -16.927   8.019  1.00  0.00     0.093 A 
ATOM      8  C   UNL     1      13.789 -16.381   9.172  1.00  0.00     0.123 A 
ATOM      9  C   UNL     1      12.412 -16.491   9.387  1.00  0.00     0.094 A 
ATOM     10  C   UNL     1      11.602 -17.145   8.455  1.00  0.00     0.146 A 
ATOM     11  O   UNL     1      10.296 -17.232   8.682  1.00  0.00    -0.452 OA
ENDROOT
BRANCH   1  12
ATOM     12  C   UNL     1       8.012 -17.849   8.213  1.00  0.00     0.025 A 
ATOM     13  C   UNL     1       7.371 -19.078   8.434  1.00  0.00     0.016 A 
ATOM     14  C   UNL     1       6.023 -19.119   8.796  1.00  0.00     0.051 A 
ATOM     15  C   UNL     1       5.298 -17.931   8.960  1.00  0.00     0.157 A 
ATOM     16  C   UNL     1       7.287 -16.658   8.399  1.00  0.00     0.062 A 
ATOM     17  C   UNL     1       5.936 -16.694   8.764  1.00  0.00     0.158 A 
BRANCH  15  18
ATOM     18  O   UNL     1       3.953 -17.974   9.320  1.00  0.00    -0.504 OA
ATOM     19  H   UNL     1       3.329 -18.686   8.959  1.00  0.00     0.293 HD
ENDBRANCH  15  18
BRANCH  17  20
ATOM     20  O   UNL     1       5.248 -15.494   8.933  1.00  0.00    -0.504 OA
ATOM     21  H   UNL     1       5.690 -14.669   9.320  1.00  0.00     0.293 HD
ENDBRANCH  17  20
ENDBRANCH   1  12
BRANCH   2  22
ATOM     22  O   UNL     1       9.058 -19.125   5.827  1.00  0.00    -0.502 OA
ATOM     23  H   UNL     1       9.340 -19.954   5.317  1.00  0.00     0.293 HD
ENDBRANCH   2  22
BRANCH   6  24
ATOM     24  O   UNL     1      14.162 -18.126   5.932  1.00  0.00    -0.507 OA
ATOM     25  H   UNL     1      13.967 -17.762   5.006  1.00  0.00     0.293 HD
ENDBRANCH   6  24
BRANCH   8  26
ATOM     26  O   UNL     1      14.602 -15.729  10.096  1.00  0.00    -0.508 OA
ATOM     27  H   UNL     1      15.299 -15.054   9.806  1.00  0.00     0.293 HD
ENDBRANCH   8  26
TORSDOF 6
ENDMDL
MODEL 2
REMARK VINA RESULT:    -3.310      1.325      1.636
REMARK INTER + INTRA:          -4.092
REMARK INTER:                  -4.333
REMARK INTRA:                   0.241
REMARK UNBOUND:                -0.105
REMARK SMILES O=c1c(O)c(-c2ccc(O)c(O)c2)oc2cc(O)cc(O)c12
REMARK SMILES IDX 5 1 3 2 2 3 1 4 22 5 20 6 19 7 17 8 16 9 15 10 14 11 6 12
REMARK SMILES IDX 7 13 8 14 9 15 13 16 11 17 10 18 12 20 4 22 21 24 18 26
REMARK H PARENT 10 19 12 21 4 23 21 25 18 27
REMARK Flexibility Score: inf
ROOT
ATOM      1  C   UNL     1       8.619 -18.109   8.131  1.00  0.00     0.180 A 
ATOM      2  C   UNL     1       8.935 -18.511   6.818  1.00  0.00     0.208 A 
ATOM      3  C   UNL     1      10.242 -18.318   6.345  1.00  0.00     0.238 A 
ATOM      4  O   UNL     1      10.534 -18.664   5.168  1.00  0.00    -0.285 OA
ATOM      5  C   UNL     1      11.213 -17.747   7.193  1.00  0.00     0.111 A 
ATOM      6  C   UNL     1      12.553 -17.521   6.795  1.00  0.00     0.134 A 
ATOM      7  C   UNL     1      13.463 -16.957   7.702  1.00  0.00     0.093 A 
ATOM      8  C   UNL     1      13.060 -16.615   8.995  1.00  0.00     0.123 A 
ATOM      9  C   UNL     1      11.739 -16.835   9.394  1.00  0.00     0.094 A 
ATOM     10  C   UNL     1      10.817 -17.394   8.505  1.00  0.00     0.146 A 
ATOM     11  O   UNL     1       9.566 -17.588   8.907  1.00  0.00    -0.452 OA
ENDROOT
BRANCH   1  12
ATOM     12  C   UNL     1       7.260 -18.262   8.696  1.00  0.00     0.025 A 
ATOM     13  C   UNL     1       6.143 -18.108   7.859  1.00  0.00     0.016 A 
ATOM     14  C   UNL     1       4.852 -18.268   8.366  1.00  0.00     0.051 A 
ATOM     15  C   UNL     1       4.656 -18.601   9.713  1.00  0.00     0.157 A 
ATOM     16  C   UNL     1       7.061 -18.616  10.042  1.00  0.00     0.062 A 
ATOM     17  C   UNL     1       5.768 -18.779  10.553  1.00  0.00     0.158 A 
BRANCH  15  18
ATOM     18  O   UNL     1       3.366 -18.758  10.216  1.00  0.00    -0.504 OA
ATOM     19  H   UNL     1       2.973 -18.105  10.882  1.00  0.00     0.293 HD
ENDBRANCH  15  18
BRANCH  17  20
ATOM     20  O   UNL     1       5.608 -19.125  11.894  1.00  0.00    -0.504 OA
ATOM     21  H   UNL     1       6.068 -19.931  12.302  1.00  0.00     0.293 HD
ENDBRANCH  17  20
ENDBRANCH   1  12
BRANCH   2  22
ATOM     22  O   UNL     1       7.967 -19.120   6.015  1.00  0.00    -0.502 OA
ATOM     23  H   UNL     1       8.117 -19.304   5.031  1.00  0.00     0.293 HD
ENDBRANCH   2  22
BRANCH   6  24
ATOM     24  O   UNL     1      12.986 -17.853   5.511  1.00  0.00    -0.507 OA
ATOM     25  H   UNL     1      13.497 -18.708   5.324  1.00  0.00     0.293 HD
ENDBRANCH   6  24
BRANCH   8  26
ATOM     26  O   UNL     1      13.985 -16.057   9.876  1.00  0.00    -0.508 OA
ATOM     27  H   UNL     1      14.635 -16.633  10.396  1.00  0.00     0.293 HD
ENDBRANCH   8  26
TORSDOF 6
ENDMDL
MODEL 3
REMARK VINA RESULT:    -3.226      1.736      6.736
REMARK INTER + INTRA:          -3.991
REMARK INTER:                  -3.947
REMARK INTRA:                  -0.044
REMARK UNBOUND:                -0.105
REMARK SMILES O=c1c(O)c(-c2ccc(O)c(O)c2)oc2cc(O)cc(O)c12
REMARK SMILES IDX 5 1 3 2 2 3 1 4 22 5 20 6 19 7 17 8 16 9 15 10 14 11 6 12
REMARK SMILES IDX 7 13 8 14 9 15 13 16 11 17 10 18 12 20 4 22 21 24 18 26
REMARK H PARENT 10 19 12 21 4 23 21 25 18 27
REMARK Flexibility Score: inf
ROOT
ATOM      1  C   UNL     1       9.517 -18.436   7.697  1.00  0.00     0.180 A 
ATOM      2  C   UNL     1       8.741 -18.498   6.523  1.00  0.00     0.208 A 
ATOM      3  C   UNL     1       7.356 -18.700   6.635  1.00  0.00     0.238 A 
ATOM      4  O   UNL     1       6.653 -18.768   5.591  1.00  0.00    -0.285 OA
ATOM      5  C   UNL     1       6.770 -18.818   7.912  1.00  0.00     0.111 A 
ATOM      6  C   UNL     1       5.383 -19.021   8.112  1.00  0.00     0.134 A 
ATOM      7  C   UNL     1       4.875 -19.119   9.415  1.00  0.00     0.093 A 
ATOM      8  C   UNL     1       5.724 -19.017  10.520  1.00  0.00     0.123 A 
ATOM      9  C   UNL     1       7.094 -18.818  10.329  1.00  0.00     0.094 A 
ATOM     10  C   UNL     1       7.620 -18.720   9.038  1.00  0.00     0.146 A 
ATOM     11  O   UNL     1       8.927 -18.536   8.885  1.00  0.00    -0.452 OA
ENDROOT
BRANCH   1  12
ATOM     12  C   UNL     1      10.984 -18.243   7.661  1.00  0.00     0.025 A 
ATOM     13  C   UNL     1      11.777 -19.116   6.899  1.00  0.00     0.016 A 
ATOM     14  C   UNL     1      13.161 -18.941   6.834  1.00  0.00     0.051 A 
ATOM     15  C   UNL     1      13.773 -17.881   7.516  1.00  0.00     0.157 A 
ATOM     16  C   UNL     1      11.599 -17.169   8.328  1.00  0.00     0.062 A 
ATOM     17  C   UNL     1      12.986 -16.989   8.264  1.00  0.00     0.158 A 
BRANCH  15  18
ATOM     18  O   UNL     1      15.154 -17.710   7.451  1.00  0.00    -0.504 OA
ATOM     19  H   UNL     1      15.784 -18.500   7.379  1.00  0.00     0.293 HD
ENDBRANCH  15  18
BRANCH  17  20
ATOM     20  O   UNL     1      13.562 -15.916   8.942  1.00  0.00    -0.504 OA
ATOM     21  H   UNL     1      14.061 -16.036   9.816  1.00  0.00     0.293 HD
ENDBRANCH  17  20
ENDBRANCH   1  12
BRANCH   2  22
ATOM     22  O   UNL     1       9.340 -18.328   5.272  1.00  0.00    -0.502 OA
ATOM     23  H   UNL     1      10.272 -18.667   5.066  1.00  0.00     0.293 HD
ENDBRANCH   2  22
BRANCH   6  24
ATOM     24  O   UNL     1       4.509 -19.125   7.029  1.00  0.00    -0.507 OA
ATOM     25  H   UNL     1       3.555 -18.786   7.078  1.00  0.00     0.293 HD
ENDBRANCH   6  24
BRANCH   8  26
ATOM     26  O   UNL     1       5.193 -19.117  11.805  1.00  0.00    -0.508 OA
ATOM     27  H   UNL     1       4.194 -19.073  11.970  1.00  0.00     0.293 HD
ENDBRANCH   8  26
TORSDOF 6
ENDMDL
MODEL 4
REMARK VINA RESULT:    -2.958      1.981      2.524
REMARK INTER + INTRA:          -3.668
REMARK INTER:                  -3.709
REMARK INTRA:                   0.041
REMARK UNBOUND:                -0.105
REMARK SMILES O=c1c(O)c(-c2ccc(O)c(O)c2)oc2cc(O)cc(O)c12
REMARK SMILES IDX 5 1 3 2 2 3 1 4 22 5 20 6 19 7 17 8 16 9 15 10 14 11 6 12
REMARK SMILES IDX 7 13 8 14 9 15 13 16 11 17 10 18 12 20 4 22 21 24 18 26
REMARK H PARENT 10 19 12 21 4 23 21 25 18 27
REMARK Flexibility Score: inf
ROOT
ATOM      1  C   UNL     1       9.960 -16.860   8.274  1.00  0.00     0.180 A 
ATOM      2  C   UNL     1      10.762 -17.967   8.614  1.00  0.00     0.208 A 
ATOM      3  C   UNL     1      12.152 -17.876   8.446  1.00  0.00     0.238 A 
ATOM      4  O   UNL     1      12.879 -18.864   8.737  1.00  0.00    -0.285 OA
ATOM      5  C   UNL     1      12.718 -16.679   7.960  1.00  0.00     0.111 A 
ATOM      6  C   UNL     1      14.109 -16.504   7.765  1.00  0.00     0.134 A 
ATOM      7  C   UNL     1      14.596 -15.278   7.286  1.00  0.00     0.093 A 
ATOM      8  C   UNL     1      13.721 -14.227   7.002  1.00  0.00     0.123 A 
ATOM      9  C   UNL     1      12.346 -14.394   7.193  1.00  0.00     0.094 A 
ATOM     10  C   UNL     1      11.841 -15.608   7.666  1.00  0.00     0.146 A 
ATOM     11  O   UNL     1      10.531 -15.743   7.833  1.00  0.00    -0.452 OA
ENDROOT
BRANCH   1  12
ATOM     12  C   UNL     1       8.486 -16.886   8.405  1.00  0.00     0.025 A 
ATOM     13  C   UNL     1       7.820 -15.771   8.938  1.00  0.00     0.016 A 
ATOM     14  C   UNL     1       6.428 -15.765   9.052  1.00  0.00     0.051 A 
ATOM     15  C   UNL     1       5.678 -16.867   8.622  1.00  0.00     0.157 A 
ATOM     16  C   UNL     1       7.729 -17.982   7.955  1.00  0.00     0.062 A 
ATOM     17  C   UNL     1       6.333 -17.980   8.067  1.00  0.00     0.158 A 
BRANCH  15  18
ATOM     18  O   UNL     1       4.290 -16.859   8.739  1.00  0.00    -0.504 OA
ATOM     19  H   UNL     1       3.699 -17.357   8.084  1.00  0.00     0.293 HD
ENDBRANCH  15  18
BRANCH  17  20
ATOM     20  O   UNL     1       5.615 -19.086   7.616  1.00  0.00    -0.504 OA
ATOM     21  H   UNL     1       5.203 -19.121   6.691  1.00  0.00     0.293 HD
ENDBRANCH  17  20
ENDBRANCH   1  12
BRANCH   2  22
ATOM     22  O   UNL     1      10.180 -19.124   9.140  1.00  0.00    -0.502 OA
ATOM     23  H   UNL     1       9.786 -19.849   8.552  1.00  0.00     0.293 HD
ENDBRANCH   2  22
BRANCH   6  24
ATOM     24  O   UNL     1      15.009 -17.534   8.041  1.00  0.00    -0.507 OA
ATOM     25  H   UNL     1      14.965 -18.063   8.904  1.00  0.00     0.293 HD
ENDBRANCH   6  24
BRANCH   8  26
ATOM     26  O   UNL     1      14.231 -13.019   6.529  1.00  0.00    -0.508 OA
ATOM     27  H   UNL     1      14.583 -12.927   5.584  1.00  0.00     0.293 HD
ENDBRANCH   8  26
TORSDOF 6
ENDMDL
MODEL 5
REMARK VINA RESULT:    -2.674      1.935      2.266
REMARK INTER + INTRA:          -3.325
REMARK INTER:                  -3.619
REMARK INTRA:                   0.294
REMARK UNBOUND:                -0.105
REMARK SMILES O=c1c(O)c(-c2ccc(O)c(O)c2)oc2cc(O)cc(O)c12
REMARK SMILES IDX 5 1 3 2 2 3 1 4 22 5 20 6 19 7 17 8 16 9 15 10 14 11 6 12
REMARK SMILES IDX 7 13 8 14 9 15 13 16 11 17 10 18 12 20 4 22 21 24 18 26
REMARK H PARENT 10 19 12 21 4 23 21 25 18 27
REMARK Flexibility Score: inf
ROOT
ATOM      1  C   UNL     1      10.076 -16.960   8.300  1.00  0.00     0.180 A 
ATOM      2  C   UNL     1      10.956 -17.965   8.746  1.00  0.00     0.208 A 
ATOM      3  C   UNL     1      12.339 -17.768   8.608  1.00  0.00     0.238 A 
ATOM      4  O   UNL     1      13.136 -18.665   8.994  1.00  0.00    -0.285 OA
ATOM      5  C   UNL     1      12.818 -16.567   8.046  1.00  0.00     0.111 A 
ATOM      6  C   UNL     1      14.196 -16.287   7.874  1.00  0.00     0.134 A 
ATOM      7  C   UNL     1      14.594 -15.064   7.315  1.00  0.00     0.093 A 
ATOM      8  C   UNL     1      13.644 -14.116   6.927  1.00  0.00     0.123 A 
ATOM      9  C   UNL     1      12.282 -14.386   7.093  1.00  0.00     0.094 A 
ATOM     10  C   UNL     1      11.866 -15.600   7.646  1.00  0.00     0.146 A 
ATOM     11  O   UNL     1      10.566 -15.833   7.788  1.00  0.00    -0.452 OA
ENDROOT
BRANCH   1  12
ATOM     12  C   UNL     1       8.606 -17.102   8.394  1.00  0.00     0.025 A 
ATOM     13  C   UNL     1       8.029 -18.379   8.314  1.00  0.00     0.016 A 
ATOM     14  C   UNL     1       6.646 -18.539   8.421  1.00  0.00     0.051 A 
ATOM     15  C   UNL     1       5.819 -17.427   8.627  1.00  0.00     0.157 A 
ATOM     16  C   UNL     1       7.776 -15.990   8.621  1.00  0.00     0.062 A 
ATOM     17  C   UNL     1       6.389 -16.146   8.731  1.00  0.00     0.158 A 
BRANCH  15  18
ATOM     18  O   UNL     1       4.439 -17.589   8.731  1.00  0.00    -0.504 OA
ATOM     19  H   UNL     1       3.794 -16.927   8.317  1.00  0.00     0.293 HD
ENDBRANCH  15  18
BRANCH  17  20
ATOM     20  O   UNL     1       5.595 -15.021   8.950  1.00  0.00    -0.504 OA
ATOM     21  H   UNL     1       5.973 -14.160   9.326  1.00  0.00     0.293 HD
ENDBRANCH  17  20
ENDBRANCH   1  12
BRANCH   2  22
ATOM     22  O   UNL     1      10.456 -19.125   9.345  1.00  0.00    -0.502 OA
ATOM     23  H   UNL     1      10.811 -19.476  10.226  1.00  0.00     0.293 HD
ENDBRANCH   2  22
BRANCH   6  24
ATOM     24  O   UNL     1      15.169 -17.213   8.253  1.00  0.00    -0.507 OA
ATOM     25  H   UNL     1      16.097 -17.208   7.847  1.00  0.00     0.293 HD
ENDBRANCH   6  24
BRANCH   8  26
ATOM     26  O   UNL     1      14.066 -12.908   6.375  1.00  0.00    -0.508 OA
ATOM     27  H   UNL     1      13.404 -12.217   6.044  1.00  0.00     0.293 HD
ENDBRANCH   8  26
TORSDOF 6
ENDMDL
MODEL 6
REMARK VINA RESULT:    -1.680      1.844      2.750
REMARK INTER + INTRA:          -2.128
REMARK INTER:                  -1.891
REMARK INTRA:                  -0.237
REMARK UNBOUND:                -0.105
REMARK SMILES O=c1c(O)c(-c2ccc(O)c(O)c2)oc2cc(O)cc(O)c12
REMARK SMILES IDX 5 1 3 2 2 3 1 4 22 5 20 6 19 7 17 8 16 9 15 10 14 11 6 12
REMARK SMILES IDX 7 13 8 14 9 15 13 16 11 17 10 18 12 20 4 22 21 24 18 26
REMARK H PARENT 10 19 12 21 4 23 21 25 18 27
REMARK Flexibility Score: inf
ROOT
ATOM      1  C   UNL     1       9.901 -16.996   7.592  1.00  0.00     0.180 A 
ATOM      2  C   UNL     1      10.177 -15.615   7.632  1.00  0.00     0.208 A 
ATOM      3  C   UNL     1      11.512 -15.187   7.559  1.00  0.00     0.238 A 
ATOM      4  O   UNL     1      11.772 -13.955   7.604  1.00  0.00    -0.285 OA
ATOM      5  C   UNL     1      12.543 -16.140   7.428  1.00  0.00     0.111 A 
ATOM      6  C   UNL     1      13.913 -15.793   7.343  1.00  0.00     0.134 A 
ATOM      7  C   UNL     1      14.879 -16.800   7.205  1.00  0.00     0.093 A 
ATOM      8  C   UNL     1      14.504 -18.144   7.147  1.00  0.00     0.123 A 
ATOM      9  C   UNL     1      13.153 -18.494   7.230  1.00  0.00     0.094 A 
ATOM     10  C   UNL     1      12.175 -17.506   7.371  1.00  0.00     0.146 A 
ATOM     11  O   UNL     1      10.899 -17.865   7.453  1.00  0.00    -0.452 OA
ENDROOT
BRANCH   1  12
ATOM     12  C   UNL     1       8.522 -17.526   7.683  1.00  0.00     0.025 A 
ATOM     13  C   UNL     1       7.958 -18.177   6.575  1.00  0.00     0.016 A 
ATOM     14  C   UNL     1       6.666 -18.703   6.645  1.00  0.00     0.051 A 
ATOM     15  C   UNL     1       5.924 -18.601   7.829  1.00  0.00     0.157 A 
ATOM     16  C   UNL     1       7.783 -17.444   8.876  1.00  0.00     0.062 A 
ATOM     17  C   UNL     1       6.488 -17.971   8.951  1.00  0.00     0.158 A 
BRANCH  15  18
ATOM     18  O   UNL     1       4.634 -19.125   7.895  1.00  0.00    -0.504 OA
ATOM     19  H   UNL     1       4.467 -20.124   7.893  1.00  0.00     0.293 HD
ENDBRANCH  15  18
BRANCH  17  20
ATOM     20  O   UNL     1       5.782 -17.866  10.149  1.00  0.00    -0.504 OA
ATOM     21  H   UNL     1       5.487 -16.972  10.524  1.00  0.00     0.293 HD
ENDBRANCH  17  20
ENDBRANCH   1  12
BRANCH   2  22
ATOM     22  O   UNL     1       9.133 -14.690   7.713  1.00  0.00    -0.502 OA
ATOM     23  H   UNL     1       9.245 -13.721   7.439  1.00  0.00     0.293 HD
ENDBRANCH   2  22
BRANCH   6  24
ATOM     24  O   UNL     1      14.320 -14.459   7.397  1.00  0.00    -0.507 OA
ATOM     25  H   UNL     1      15.244 -14.171   7.097  1.00  0.00     0.293 HD
ENDBRANCH   6  24
BRANCH   8  26
ATOM     26  O   UNL     1      15.484 -19.125   7.007  1.00  0.00    -0.508 OA
ATOM     27  H   UNL     1      15.302 -20.093   7.243  1.00  0.00     0.293 HD
ENDBRANCH   8  26
TORSDOF 6
ENDMDL
MODEL 7
REMARK VINA RESULT:    -1.023      1.715      6.801
REMARK INTER + INTRA:          -1.337
REMARK INTER:                  -1.010
REMARK INTRA:                  -0.327
REMARK UNBOUND:                -0.105
REMARK SMILES O=c1c(O)c(-c2ccc(O)c(O)c2)oc2cc(O)cc(O)c12
REMARK SMILES IDX 5 1 3 2 2 3 1 4 22 5 20 6 19 7 17 8 16 9 15 10 14 11 6 12
REMARK SMILES IDX 7 13 8 14 9 15 13 16 11 17 10 18 12 20 4 22 21 24 18 26
REMARK H PARENT 10 19 12 21 4 23 21 25 18 27
REMARK Flexibility Score: inf
ROOT
ATOM      1  C   UNL     1       9.985 -16.406   7.713  1.00  0.00     0.180 A 
ATOM      2  C   UNL     1       9.782 -17.547   6.912  1.00  0.00     0.208 A 
ATOM      3  C   UNL     1       8.493 -18.098   6.829  1.00  0.00     0.238 A 
ATOM      4  O   UNL     1       8.302 -19.125   6.124  1.00  0.00    -0.285 OA
ATOM      5  C   UNL     1       7.430 -17.491   7.529  1.00  0.00     0.111 A 
ATOM      6  C   UNL     1       6.102 -17.981   7.496  1.00  0.00     0.134 A 
ATOM      7  C   UNL     1       5.097 -17.315   8.213  1.00  0.00     0.093 A 
ATOM      8  C   UNL     1       5.392 -16.172   8.959  1.00  0.00     0.123 A 
ATOM      9  C   UNL     1       6.702 -15.684   8.995  1.00  0.00     0.094 A 
ATOM     10  C   UNL     1       7.718 -16.334   8.290  1.00  0.00     0.146 A 
ATOM     11  O   UNL     1       8.954 -15.853   8.347  1.00  0.00    -0.452 OA
ENDROOT
BRANCH   1  12
ATOM     12  C   UNL     1      11.316 -15.779   7.866  1.00  0.00     0.025 A 
ATOM     13  C   UNL     1      11.641 -14.651   7.095  1.00  0.00     0.016 A 
ATOM     14  C   UNL     1      12.885 -14.031   7.238  1.00  0.00     0.051 A 
ATOM     15  C   UNL     1      13.816 -14.517   8.164  1.00  0.00     0.157 A 
ATOM     16  C   UNL     1      12.246 -16.252   8.809  1.00  0.00     0.062 A 
ATOM     17  C   UNL     1      13.492 -15.632   8.956  1.00  0.00     0.158 A 
BRANCH  15  18
ATOM     18  O   UNL     1      15.056 -13.897   8.303  1.00  0.00    -0.504 OA
ATOM     19  H   UNL     1      15.850 -14.382   8.705  1.00  0.00     0.293 HD
ENDBRANCH  15  18
BRANCH  17  20
ATOM     20  O   UNL     1      14.391 -16.132   9.898  1.00  0.00    -0.504 OA
ATOM     21  H   UNL     1      14.508 -17.126  10.056  1.00  0.00     0.293 HD
ENDBRANCH  17  20
ENDBRANCH   1  12
BRANCH   2  22
ATOM     22  O   UNL     1      10.843 -18.099   6.189  1.00  0.00    -0.502 OA
ATOM     23  H   UNL     1      11.213 -19.021   6.388  1.00  0.00     0.293 HD
ENDBRANCH   2  22
BRANCH   6  24
ATOM     24  O   UNL     1       5.775 -19.120   6.759  1.00  0.00    -0.507 OA
ATOM     25  H   UNL     1       6.322 -19.971   6.821  1.00  0.00     0.293 HD
ENDBRANCH   6  24
BRANCH   8  26
ATOM     26  O   UNL     1       4.374 -15.529   9.660  1.00  0.00    -0.508 OA
ATOM     27  H   UNL     1       4.167 -14.548   9.513  1.00  0.00     0.293 HD
ENDBRANCH   8  26
TORSDOF 6
ENDMDL
MODEL 8
REMARK VINA RESULT:    -0.625      2.048      2.242
REMARK INTER + INTRA:          -0.858
REMARK INTER:                  -0.526
REMARK INTRA:                  -0.332
REMARK UNBOUND:                -0.105
REMARK SMILES O=c1c(O)c(-c2ccc(O)c(O)c2)oc2cc(O)cc(O)c12
REMARK SMILES IDX 5 1 3 2 2 3 1 4 22 5 20 6 19 7 17 8 16 9 15 10 14 11 6 12
REMARK SMILES IDX 7 13 8 14 9 15 13 16 11 17 10 18 12 20 4 22 21 24 18 26
REMARK H PARENT 10 19 12 21 4 23 21 25 18 27
REMARK Flexibility Score: inf
ROOT
ATOM      1  C   UNL     1       9.573 -16.576   7.837  1.00  0.00     0.180 A 
ATOM      2  C   UNL     1       9.924 -15.622   6.861  1.00  0.00     0.208 A 
ATOM      3  C   UNL     1      11.203 -15.046   6.904  1.00  0.00     0.238 A 
ATOM      4  O   UNL     1      11.524 -14.184   6.042  1.00  0.00    -0.285 OA
ATOM      5  C   UNL     1      12.113 -15.444   7.904  1.00  0.00     0.111 A 
ATOM      6  C   UNL     1      13.422 -14.915   8.015  1.00  0.00     0.134 A 
ATOM      7  C   UNL     1      14.272 -15.369   9.034  1.00  0.00     0.093 A 
ATOM      8  C   UNL     1      13.842 -16.341   9.941  1.00  0.00     0.123 A 
ATOM      9  C   UNL     1      12.551 -16.867   9.836  1.00  0.00     0.094 A 
ATOM     10  C   UNL     1      11.687 -16.425   8.830  1.00  0.00     0.146 A 
ATOM     11  O   UNL     1      10.464 -16.937   8.756  1.00  0.00    -0.452 OA
ENDROOT
BRANCH   1  12
ATOM     12  C   UNL     1       8.239 -17.214   7.870  1.00  0.00     0.025 A 
ATOM     13  C   UNL     1       8.051 -18.455   7.240  1.00  0.00     0.016 A 
ATOM     14  C   UNL     1       6.805 -19.085   7.275  1.00  0.00     0.051 A 
ATOM     15  C   UNL     1       5.732 -18.494   7.955  1.00  0.00     0.157 A 
ATOM     16  C   UNL     1       7.165 -16.633   8.568  1.00  0.00     0.062 A 
ATOM     17  C   UNL     1       5.916 -17.263   8.608  1.00  0.00     0.158 A 
BRANCH  15  18
ATOM     18  O   UNL     1       4.489 -19.124   7.987  1.00  0.00    -0.504 OA
ATOM     19  H   UNL     1       3.644 -18.620   8.227  1.00  0.00     0.293 HD
ENDBRANCH  15  18
BRANCH  17  20
ATOM     20  O   UNL     1       4.872 -16.655   9.305  1.00  0.00    -0.504 OA
ATOM     21  H   UNL     1       4.521 -15.737   9.057  1.00  0.00     0.293 HD
ENDBRANCH  17  20
ENDBRANCH   1  12
BRANCH   2  22
ATOM     22  O   UNL     1       9.020 -15.282   5.851  1.00  0.00    -0.502 OA
ATOM     23  H   UNL     1       8.347 -14.533   5.955  1.00  0.00     0.293 HD
ENDBRANCH   2  22
BRANCH   6  24
ATOM     24  O   UNL     1      13.882 -13.944   7.124  1.00  0.00    -0.507 OA
ATOM     25  H   UNL     1      13.383 -13.074   6.978  1.00  0.00     0.293 HD
ENDBRANCH   6  24
BRANCH   8  26
ATOM     26  O   UNL     1      14.707 -16.776  10.942  1.00  0.00    -0.508 OA
ATOM     27  H   UNL     1      14.581 -17.671  11.399  1.00  0.00     0.293 HD
ENDBRANCH   8  26
TORSDOF 6
ENDMDL
