MODEL 1
REMARK VINA RESULT:    -7.756      0.000      0.000
REMARK INTER + INTRA:         -12.871
REMARK INTER:                 -12.063
REMARK INTRA:                  -0.808
REMARK UNBOUND:                -0.808
REMARK SMILES COc1cc(CNC(=O)CCCCC=CC(C)C)ccc1O
REMARK SMILES IDX 11 1 12 2 13 3 14 4 15 5 16 6 17 7 18 8 10 9 8 10 9 11 7 12
REMARK SMILES IDX 6 14 5 15 4 16 19 17 3 18 20 19 21 20 2 21 1 22 22 23
REMARK H PARENT 7 13 22 24
REMARK Flexibility Score: inf
ROOT
ATOM      1  C   UNL     1     -67.451 -38.639 -34.999  1.00  0.00     0.010 C 
ENDROOT
BRANCH   1   2
ATOM      2  C   UNL     1     -68.548 -37.703 -35.522  1.00  0.00     0.005 C 
BRANCH   2   3
ATOM      3  C   UNL     1     -68.583 -37.699 -37.054  1.00  0.00     0.027 C 
BRANCH   3   4
ATOM      4  C   UNL     1     -68.546 -36.295 -37.593  1.00  0.00    -0.031 C 
ATOM      5  C   UNL     1     -68.007 -35.297 -36.875  1.00  0.00    -0.028 C 
BRANCH   5   6
ATOM      6  C   UNL     1     -67.924 -33.874 -37.382  1.00  0.00     0.005 C 
ATOM      7  C   UNL     1     -68.558 -33.736 -38.771  1.00  0.00     0.012 C 
ATOM      8  C   UNL     1     -66.477 -33.365 -37.377  1.00  0.00     0.012 C 
ENDBRANCH   5   6
ENDBRANCH   3   4
ENDBRANCH   2   3
ENDBRANCH   1   2
BRANCH   1   9
ATOM      9  C   UNL     1     -66.090 -37.926 -34.976  1.00  0.00     0.100 C 
BRANCH   9  10
ATOM     10  C   UNL     1     -65.857 -37.170 -33.697  1.00  0.00     0.220 C 
ATOM     11  O   UNL     1     -65.604 -35.932 -33.725  1.00  0.00    -0.275 OA
ATOM     12  N   UNL     1     -65.853 -37.878 -32.449  1.00  0.00    -0.352 N 
ATOM     13  H   UNL     1     -65.992 -38.915 -32.451  1.00  0.00     0.163 HD
BRANCH  12  14
ATOM     14  C   UNL     1     -65.713 -37.199 -31.162  1.00  0.00     0.151 C 
BRANCH  14  15
ATOM     15  C   UNL     1     -65.243 -38.171 -30.116  1.00  0.00    -0.025 A 
ATOM     16  C   UNL     1     -65.663 -38.025 -28.784  1.00  0.00     0.056 A 
ATOM     17  C   UNL     1     -64.352 -39.202 -30.448  1.00  0.00     0.009 A 
ATOM     18  C   UNL     1     -65.205 -38.908 -27.785  1.00  0.00     0.160 A 
ATOM     19  C   UNL     1     -63.899 -40.085 -29.465  1.00  0.00     0.050 A 
ATOM     20  C   UNL     1     -64.318 -39.942 -28.137  1.00  0.00     0.157 A 
BRANCH  18  21
ATOM     21  O   UNL     1     -65.605 -38.784 -26.444  1.00  0.00    -0.493 OA
ATOM     22  C   UNL     1     -66.744 -39.427 -25.879  1.00  0.00     0.278 C 
ENDBRANCH  18  21
BRANCH  20  23
ATOM     23  O   UNL     1     -63.840 -40.838 -27.181  1.00  0.00    -0.504 OA
ATOM     24  H   UNL     1     -62.851 -40.950 -26.992  1.00  0.00     0.293 HD
ENDBRANCH  20  23
ENDBRANCH  14  15
ENDBRANCH  12  14
ENDBRANCH   9  10
ENDBRANCH   1   9
TORSDOF 10
ENDMDL
MODEL 2
REMARK VINA RESULT:    -7.706      2.941      9.010
REMARK INTER + INTRA:         -12.794
REMARK INTER:                 -12.180
REMARK INTRA:                  -0.614
REMARK UNBOUND:                -0.808
REMARK SMILES COc1cc(CNC(=O)CCCCC=CC(C)C)ccc1O
REMARK SMILES IDX 11 1 12 2 13 3 14 4 15 5 16 6 17 7 18 8 10 9 8 10 9 11 7 12
REMARK SMILES IDX 6 14 5 15 4 16 19 17 3 18 20 19 21 20 2 21 1 22 22 23
REMARK H PARENT 7 13 22 24
REMARK Flexibility Score: inf
ROOT
ATOM      1  C   UNL     1     -65.051 -38.650 -32.438  1.00  0.00     0.010 C 
ENDROOT
BRANCH   1   2
ATOM      2  C   UNL     1     -64.683 -38.989 -30.988  1.00  0.00     0.005 C 
BRANCH   2   3
ATOM      3  C   UNL     1     -64.938 -37.796 -30.061  1.00  0.00     0.027 C 
BRANCH   3   4
ATOM      4  C   UNL     1     -65.482 -38.247 -28.733  1.00  0.00    -0.031 C 
ATOM      5  C   UNL     1     -64.838 -39.173 -28.005  1.00  0.00    -0.028 C 
BRANCH   5   6
ATOM      6  C   UNL     1     -65.332 -39.642 -26.655  1.00  0.00     0.005 C 
ATOM      7  C   UNL     1     -66.841 -39.420 -26.501  1.00  0.00     0.012 C 
ATOM      8  C   UNL     1     -64.552 -38.976 -25.514  1.00  0.00     0.012 C 
ENDBRANCH   5   6
ENDBRANCH   3   4
ENDBRANCH   2   3
ENDBRANCH   1   2
BRANCH   1   9
ATOM      9  C   UNL     1     -66.263 -39.473 -32.900  1.00  0.00     0.100 C 
BRANCH   9  10
ATOM     10  C   UNL     1     -66.610 -39.229 -34.343  1.00  0.00     0.220 C 
ATOM     11  O   UNL     1     -65.793 -39.538 -35.256  1.00  0.00    -0.275 OA
ATOM     12  N   UNL     1     -67.845 -38.577 -34.672  1.00  0.00    -0.352 N 
ATOM     13  H   UNL     1     -68.476 -38.263 -33.899  1.00  0.00     0.163 HD
BRANCH  12  14
ATOM     14  C   UNL     1     -68.284 -38.379 -36.052  1.00  0.00     0.151 C 
BRANCH  14  15
ATOM     15  C   UNL     1     -68.070 -36.948 -36.459  1.00  0.00    -0.025 A 
ATOM     16  C   UNL     1     -67.257 -36.110 -35.677  1.00  0.00     0.056 A 
ATOM     17  C   UNL     1     -68.708 -36.425 -37.594  1.00  0.00     0.009 A 
ATOM     18  C   UNL     1     -67.073 -34.757 -36.027  1.00  0.00     0.160 A 
ATOM     19  C   UNL     1     -68.524 -35.087 -37.950  1.00  0.00     0.050 A 
ATOM     20  C   UNL     1     -67.714 -34.251 -37.174  1.00  0.00     0.157 A 
BRANCH  18  21
ATOM     21  O   UNL     1     -66.270 -33.895 -35.262  1.00  0.00    -0.493 OA
ATOM     22  C   UNL     1     -65.879 -34.141 -33.914  1.00  0.00     0.278 C 
ENDBRANCH  18  21
BRANCH  20  23
ATOM     23  O   UNL     1     -67.560 -32.919 -37.556  1.00  0.00    -0.504 OA
ATOM     24  H   UNL     1     -68.348 -32.292 -37.663  1.00  0.00     0.293 HD
ENDBRANCH  20  23
ENDBRANCH  14  15
ENDBRANCH  12  14
ENDBRANCH   9  10
ENDBRANCH   1   9
TORSDOF 10
ENDMDL
MODEL 3
REMARK VINA RESULT:    -7.379      2.498      4.322
REMARK INTER + INTRA:         -12.286
REMARK INTER:                 -10.506
REMARK INTRA:                  -1.780
REMARK UNBOUND:                -0.808
REMARK SMILES COc1cc(CNC(=O)CCCCC=CC(C)C)ccc1O
REMARK SMILES IDX 11 1 12 2 13 3 14 4 15 5 16 6 17 7 18 8 10 9 8 10 9 11 7 12
REMARK SMILES IDX 6 14 5 15 4 16 19 17 3 18 20 19 21 20 2 21 1 22 22 23
REMARK H PARENT 7 13 22 24
REMARK Flexibility Score: inf
ROOT
ATOM      1  C   UNL     1     -68.736 -39.771 -37.001  1.00  0.00     0.010 C 
ENDROOT
BRANCH   1   2
ATOM      2  C   UNL     1     -69.067 -38.274 -37.012  1.00  0.00     0.005 C 
BRANCH   2   3
ATOM      3  C   UNL     1     -68.613 -37.599 -35.713  1.00  0.00     0.027 C 
BRANCH   3   4
ATOM      4  C   UNL     1     -68.455 -36.115 -35.899  1.00  0.00    -0.031 C 
ATOM      5  C   UNL     1     -68.029 -35.610 -37.069  1.00  0.00    -0.028 C 
BRANCH   5   6
ATOM      6  C   UNL     1     -67.877 -34.126 -37.313  1.00  0.00     0.005 C 
ATOM      7  C   UNL     1     -68.571 -33.696 -38.611  1.00  0.00     0.012 C 
ATOM      8  C   UNL     1     -66.400 -33.709 -37.308  1.00  0.00     0.012 C 
ENDBRANCH   5   6
ENDBRANCH   3   4
ENDBRANCH   2   3
ENDBRANCH   1   2
BRANCH   1   9
ATOM      9  C   UNL     1     -67.538 -40.072 -37.915  1.00  0.00     0.100 C 
BRANCH   9  10
ATOM     10  C   UNL     1     -66.227 -39.669 -37.298  1.00  0.00     0.220 C 
ATOM     11  O   UNL     1     -65.326 -39.137 -38.006  1.00  0.00    -0.275 OA
ATOM     12  N   UNL     1     -65.978 -39.959 -35.914  1.00  0.00    -0.352 N 
ATOM     13  H   UNL     1     -66.708 -40.466 -35.362  1.00  0.00     0.163 HD
BRANCH  12  14
ATOM     14  C   UNL     1     -64.763 -39.526 -35.228  1.00  0.00     0.151 C 
BRANCH  14  15
ATOM     15  C   UNL     1     -65.020 -38.244 -34.486  1.00  0.00    -0.025 A 
ATOM     16  C   UNL     1     -65.388 -38.280 -33.131  1.00  0.00     0.056 A 
ATOM     17  C   UNL     1     -64.936 -37.009 -35.144  1.00  0.00     0.009 A 
ATOM     18  C   UNL     1     -65.665 -37.089 -32.430  1.00  0.00     0.160 A 
ATOM     19  C   UNL     1     -65.202 -35.824 -34.454  1.00  0.00     0.050 A 
ATOM     20  C   UNL     1     -65.568 -35.858 -33.103  1.00  0.00     0.157 A 
BRANCH  18  21
ATOM     21  O   UNL     1     -66.039 -37.095 -31.076  1.00  0.00    -0.493 OA
ATOM     22  C   UNL     1     -65.691 -38.117 -30.147  1.00  0.00     0.278 C 
ENDBRANCH  18  21
BRANCH  20  23
ATOM     23  O   UNL     1     -65.834 -34.655 -32.448  1.00  0.00    -0.504 OA
ATOM     24  H   UNL     1     -65.423 -34.427 -31.550  1.00  0.00     0.293 HD
ENDBRANCH  20  23
ENDBRANCH  14  15
ENDBRANCH  12  14
ENDBRANCH   9  10
ENDBRANCH   1   9
TORSDOF 10
ENDMDL
MODEL 4
REMARK VINA RESULT:    -7.163      5.059      7.934
REMARK INTER + INTRA:         -11.950
REMARK INTER:                 -11.022
REMARK INTRA:                  -0.928
REMARK UNBOUND:                -0.808
REMARK SMILES COc1cc(CNC(=O)CCCCC=CC(C)C)ccc1O
REMARK SMILES IDX 11 1 12 2 13 3 14 4 15 5 16 6 17 7 18 8 10 9 8 10 9 11 7 12
REMARK SMILES IDX 6 14 5 15 4 16 19 17 3 18 20 19 21 20 2 21 1 22 22 23
REMARK H PARENT 7 13 22 24
REMARK Flexibility Score: inf
ROOT
ATOM      1  C   UNL     1     -65.772 -40.929 -38.010  1.00  0.00     0.010 C 
ENDROOT
BRANCH   1   2
ATOM      2  C   UNL     1     -65.759 -40.011 -39.238  1.00  0.00     0.005 C 
BRANCH   2   3
ATOM      3  C   UNL     1     -67.140 -39.956 -39.899  1.00  0.00     0.027 C 
BRANCH   3   4
ATOM      4  C   UNL     1     -67.146 -40.702 -41.206  1.00  0.00    -0.031 C 
ATOM      5  C   UNL     1     -67.255 -42.040 -41.234  1.00  0.00    -0.028 C 
BRANCH   5   6
ATOM      6  C   UNL     1     -67.289 -42.832 -42.521  1.00  0.00     0.005 C 
ATOM      7  C   UNL     1     -66.277 -43.983 -42.498  1.00  0.00     0.012 C 
ATOM      8  C   UNL     1     -67.073 -41.925 -43.739  1.00  0.00     0.012 C 
ENDBRANCH   5   6
ENDBRANCH   3   4
ENDBRANCH   2   3
ENDBRANCH   1   2
BRANCH   1   9
ATOM      9  C   UNL     1     -67.175 -40.986 -37.385  1.00  0.00     0.100 C 
BRANCH   9  10
ATOM     10  C   UNL     1     -67.345 -40.001 -36.261  1.00  0.00     0.220 C 
ATOM     11  O   UNL     1     -66.502 -39.953 -35.322  1.00  0.00    -0.275 OA
ATOM     12  N   UNL     1     -68.510 -39.163 -36.227  1.00  0.00    -0.352 N 
ATOM     13  H   UNL     1     -69.234 -39.268 -36.975  1.00  0.00     0.163 HD
BRANCH  12  14
ATOM     14  C   UNL     1     -68.704 -38.129 -35.212  1.00  0.00     0.151 C 
BRANCH  14  15
ATOM     15  C   UNL     1     -68.146 -36.821 -35.699  1.00  0.00    -0.025 A 
ATOM     16  C   UNL     1     -67.214 -36.121 -34.915  1.00  0.00     0.056 A 
ATOM     17  C   UNL     1     -68.578 -36.268 -36.914  1.00  0.00     0.009 A 
ATOM     18  C   UNL     1     -66.707 -34.877 -35.342  1.00  0.00     0.160 A 
ATOM     19  C   UNL     1     -68.074 -35.039 -37.346  1.00  0.00     0.050 A 
ATOM     20  C   UNL     1     -67.145 -34.340 -36.567  1.00  0.00     0.157 A 
BRANCH  18  21
ATOM     21  O   UNL     1     -65.777 -34.152 -34.577  1.00  0.00    -0.493 OA
ATOM     22  C   UNL     1     -65.780 -34.086 -33.154  1.00  0.00     0.278 C 
ENDBRANCH  18  21
BRANCH  20  23
ATOM     23  O   UNL     1     -66.669 -33.113 -37.027  1.00  0.00    -0.504 OA
ATOM     24  H   UNL     1     -66.538 -32.318 -36.412  1.00  0.00     0.293 HD
ENDBRANCH  20  23
ENDBRANCH  14  15
ENDBRANCH  12  14
ENDBRANCH   9  10
ENDBRANCH   1   9
TORSDOF 10
ENDMDL
MODEL 5
REMARK VINA RESULT:    -7.117      3.556      7.839
REMARK INTER + INTRA:         -11.878
REMARK INTER:                 -10.575
REMARK INTRA:                  -1.304
REMARK UNBOUND:                -0.808
REMARK SMILES COc1cc(CNC(=O)CCCCC=CC(C)C)ccc1O
REMARK SMILES IDX 11 1 12 2 13 3 14 4 15 5 16 6 17 7 18 8 10 9 8 10 9 11 7 12
REMARK SMILES IDX 6 14 5 15 4 16 19 17 3 18 20 19 21 20 2 21 1 22 22 23
REMARK H PARENT 7 13 22 24
REMARK Flexibility Score: inf
ROOT
ATOM      1  C   UNL     1     -65.994 -40.979 -35.741  1.00  0.00     0.010 C 
ENDROOT
BRANCH   1   2
ATOM      2  C   UNL     1     -64.594 -40.408 -35.485  1.00  0.00     0.005 C 
BRANCH   2   3
ATOM      3  C   UNL     1     -64.673 -38.976 -34.945  1.00  0.00     0.027 C 
BRANCH   3   4
ATOM      4  C   UNL     1     -65.464 -38.922 -33.666  1.00  0.00    -0.031 C 
ATOM      5  C   UNL     1     -64.888 -38.533 -32.517  1.00  0.00    -0.028 C 
BRANCH   5   6
ATOM      6  C   UNL     1     -65.646 -38.440 -31.212  1.00  0.00     0.005 C 
ATOM      7  C   UNL     1     -64.787 -37.809 -30.109  1.00  0.00     0.012 C 
ATOM      8  C   UNL     1     -66.185 -39.811 -30.782  1.00  0.00     0.012 C 
ENDBRANCH   5   6
ENDBRANCH   3   4
ENDBRANCH   2   3
ENDBRANCH   1   2
BRANCH   1   9
ATOM      9  C   UNL     1     -66.334 -40.939 -37.239  1.00  0.00     0.100 C 
BRANCH   9  10
ATOM     10  C   UNL     1     -67.253 -39.802 -37.592  1.00  0.00     0.220 C 
ATOM     11  O   UNL     1     -67.336 -39.396 -38.785  1.00  0.00    -0.275 OA
ATOM     12  N   UNL     1     -67.981 -39.134 -36.551  1.00  0.00    -0.352 N 
ATOM     13  H   UNL     1     -67.844 -39.437 -35.559  1.00  0.00     0.163 HD
BRANCH  12  14
ATOM     14  C   UNL     1     -68.951 -38.077 -36.827  1.00  0.00     0.151 C 
BRANCH  14  15
ATOM     15  C   UNL     1     -68.273 -36.735 -36.794  1.00  0.00    -0.025 A 
ATOM     16  C   UNL     1     -67.326 -36.453 -35.796  1.00  0.00     0.056 A 
ATOM     17  C   UNL     1     -68.606 -35.743 -37.727  1.00  0.00     0.009 A 
ATOM     18  C   UNL     1     -66.705 -35.189 -35.730  1.00  0.00     0.160 A 
ATOM     19  C   UNL     1     -67.990 -34.491 -37.673  1.00  0.00     0.050 A 
ATOM     20  C   UNL     1     -67.045 -34.208 -36.680  1.00  0.00     0.157 A 
BRANCH  18  21
ATOM     21  O   UNL     1     -65.758 -34.877 -34.741  1.00  0.00    -0.493 OA
ATOM     22  C   UNL     1     -66.075 -34.329 -33.465  1.00  0.00     0.278 C 
ENDBRANCH  18  21
BRANCH  20  23
ATOM     23  O   UNL     1     -66.456 -32.944 -36.652  1.00  0.00    -0.504 OA
ATOM     24  H   UNL     1     -66.693 -32.222 -37.323  1.00  0.00     0.293 HD
ENDBRANCH  20  23
ENDBRANCH  14  15
ENDBRANCH  12  14
ENDBRANCH   9  10
ENDBRANCH   1   9
TORSDOF 10
ENDMDL
MODEL 6
REMARK VINA RESULT:    -7.113      3.381      8.588
REMARK INTER + INTRA:         -11.871
REMARK INTER:                 -11.192
REMARK INTRA:                  -0.679
REMARK UNBOUND:                -0.808
REMARK SMILES COc1cc(CNC(=O)CCCCC=CC(C)C)ccc1O
REMARK SMILES IDX 11 1 12 2 13 3 14 4 15 5 16 6 17 7 18 8 10 9 8 10 9 11 7 12
REMARK SMILES IDX 6 14 5 15 4 16 19 17 3 18 20 19 21 20 2 21 1 22 22 23
REMARK H PARENT 7 13 22 24
REMARK Flexibility Score: inf
ROOT
ATOM      1  C   UNL     1     -65.488 -37.068 -32.319  1.00  0.00     0.010 C 
ENDROOT
BRANCH   1   2
ATOM      2  C   UNL     1     -65.702 -37.553 -30.880  1.00  0.00     0.005 C 
BRANCH   2   3
ATOM      3  C   UNL     1     -64.863 -38.801 -30.589  1.00  0.00     0.027 C 
BRANCH   3   4
ATOM      4  C   UNL     1     -64.615 -38.955 -29.113  1.00  0.00    -0.031 C 
ATOM      5  C   UNL     1     -65.639 -39.058 -28.251  1.00  0.00    -0.028 C 
BRANCH   5   6
ATOM      6  C   UNL     1     -65.442 -39.238 -26.762  1.00  0.00     0.005 C 
ATOM      7  C   UNL     1     -66.779 -39.438 -26.039  1.00  0.00     0.012 C 
ATOM      8  C   UNL     1     -64.653 -38.068 -26.160  1.00  0.00     0.012 C 
ENDBRANCH   5   6
ENDBRANCH   3   4
ENDBRANCH   2   3
ENDBRANCH   1   2
BRANCH   1   9
ATOM      9  C   UNL     1     -66.160 -35.704 -32.541  1.00  0.00     0.100 C 
BRANCH   9  10
ATOM     10  C   UNL     1     -66.825 -35.600 -33.887  1.00  0.00     0.220 C 
ATOM     11  O   UNL     1     -66.623 -34.592 -34.621  1.00  0.00    -0.275 OA
ATOM     12  N   UNL     1     -67.745 -36.621 -34.301  1.00  0.00    -0.352 N 
ATOM     13  H   UNL     1     -67.955 -37.411 -33.648  1.00  0.00     0.163 HD
BRANCH  12  14
ATOM     14  C   UNL     1     -68.365 -36.628 -35.624  1.00  0.00     0.151 C 
BRANCH  14  15
ATOM     15  C   UNL     1     -68.427 -38.034 -36.154  1.00  0.00    -0.025 A 
ATOM     16  C   UNL     1     -67.425 -38.957 -35.813  1.00  0.00     0.056 A 
ATOM     17  C   UNL     1     -69.457 -38.425 -37.021  1.00  0.00     0.009 A 
ATOM     18  C   UNL     1     -67.451 -40.269 -36.328  1.00  0.00     0.160 A 
ATOM     19  C   UNL     1     -69.494 -39.725 -37.530  1.00  0.00     0.050 A 
ATOM     20  C   UNL     1     -68.497 -40.647 -37.191  1.00  0.00     0.157 A 
BRANCH  18  21
ATOM     21  O   UNL     1     -66.460 -41.212 -36.008  1.00  0.00    -0.493 OA
ATOM     22  C   UNL     1     -65.076 -40.911 -35.865  1.00  0.00     0.278 C 
ENDBRANCH  18  21
BRANCH  20  23
ATOM     23  O   UNL     1     -68.561 -41.934 -37.724  1.00  0.00    -0.504 OA
ATOM     24  H   UNL     1     -67.897 -42.269 -38.412  1.00  0.00     0.293 HD
ENDBRANCH  20  23
ENDBRANCH  14  15
ENDBRANCH  12  14
ENDBRANCH   9  10
ENDBRANCH   1   9
TORSDOF 10
ENDMDL
MODEL 7
REMARK VINA RESULT:    -7.107      2.809      9.342
REMARK INTER + INTRA:         -11.862
REMARK INTER:                 -11.260
REMARK INTRA:                  -0.602
REMARK UNBOUND:                -0.808
REMARK SMILES COc1cc(CNC(=O)CCCCC=CC(C)C)ccc1O
REMARK SMILES IDX 11 1 12 2 13 3 14 4 15 5 16 6 17 7 18 8 10 9 8 10 9 11 7 12
REMARK SMILES IDX 6 14 5 15 4 16 19 17 3 18 20 19 21 20 2 21 1 22 22 23
REMARK H PARENT 7 13 22 24
REMARK Flexibility Score: inf
ROOT
ATOM      1  C   UNL     1     -65.745 -38.205 -31.462  1.00  0.00     0.010 C 
ENDROOT
BRANCH   1   2
ATOM      2  C   UNL     1     -64.954 -39.112 -30.511  1.00  0.00     0.005 C 
BRANCH   2   3
ATOM      3  C   UNL     1     -65.841 -40.228 -29.948  1.00  0.00     0.027 C 
BRANCH   3   4
ATOM      4  C   UNL     1     -66.004 -40.091 -28.459  1.00  0.00    -0.031 C 
ATOM      5  C   UNL     1     -64.995 -39.643 -27.695  1.00  0.00    -0.028 C 
BRANCH   5   6
ATOM      6  C   UNL     1     -65.118 -39.467 -26.198  1.00  0.00     0.005 C 
ATOM      7  C   UNL     1     -66.585 -39.374 -25.762  1.00  0.00     0.012 C 
ATOM      8  C   UNL     1     -64.316 -38.253 -25.713  1.00  0.00     0.012 C 
ENDBRANCH   5   6
ENDBRANCH   3   4
ENDBRANCH   2   3
ENDBRANCH   1   2
BRANCH   1   9
ATOM      9  C   UNL     1     -65.695 -38.746 -32.899  1.00  0.00     0.100 C 
BRANCH   9  10
ATOM     10  C   UNL     1     -65.111 -37.754 -33.868  1.00  0.00     0.220 C 
ATOM     11  O   UNL     1     -64.129 -38.076 -34.596  1.00  0.00    -0.275 OA
ATOM     12  N   UNL     1     -65.631 -36.417 -33.909  1.00  0.00    -0.352 N 
ATOM     13  H   UNL     1     -66.395 -36.148 -33.248  1.00  0.00     0.163 HD
BRANCH  12  14
ATOM     14  C   UNL     1     -65.169 -35.425 -34.878  1.00  0.00     0.151 C 
BRANCH  14  15
ATOM     15  C   UNL     1     -66.262 -35.123 -35.866  1.00  0.00    -0.025 A 
ATOM     16  C   UNL     1     -67.156 -36.135 -36.253  1.00  0.00     0.056 A 
ATOM     17  C   UNL     1     -66.374 -33.849 -36.439  1.00  0.00     0.009 A 
ATOM     18  C   UNL     1     -68.165 -35.877 -37.202  1.00  0.00     0.160 A 
ATOM     19  C   UNL     1     -67.376 -33.584 -37.375  1.00  0.00     0.050 A 
ATOM     20  C   UNL     1     -68.269 -34.590 -37.761  1.00  0.00     0.157 A 
BRANCH  18  21
ATOM     21  O   UNL     1     -69.071 -36.870 -37.611  1.00  0.00    -0.493 OA
ATOM     22  C   UNL     1     -69.001 -38.237 -37.218  1.00  0.00     0.278 C 
ENDBRANCH  18  21
BRANCH  20  23
ATOM     23  O   UNL     1     -69.252 -34.291 -38.704  1.00  0.00    -0.504 OA
ATOM     24  H   UNL     1     -69.194 -33.479 -39.307  1.00  0.00     0.293 HD
ENDBRANCH  20  23
ENDBRANCH  14  15
ENDBRANCH  12  14
ENDBRANCH   9  10
ENDBRANCH   1   9
TORSDOF 10
ENDMDL
MODEL 8
REMARK VINA RESULT:    -7.094      5.101      7.720
REMARK INTER + INTRA:         -11.842
REMARK INTER:                 -10.103
REMARK INTRA:                  -1.739
REMARK UNBOUND:                -0.808
REMARK SMILES COc1cc(CNC(=O)CCCCC=CC(C)C)ccc1O
REMARK SMILES IDX 11 1 12 2 13 3 14 4 15 5 16 6 17 7 18 8 10 9 8 10 9 11 7 12
REMARK SMILES IDX 6 14 5 15 4 16 19 17 3 18 20 19 21 20 2 21 1 22 22 23
REMARK H PARENT 7 13 22 24
REMARK Flexibility Score: inf
ROOT
ATOM      1  C   UNL     1     -68.264 -41.643 -40.063  1.00  0.00     0.010 C 
ENDROOT
BRANCH   1   2
ATOM      2  C   UNL     1     -67.815 -40.578 -41.071  1.00  0.00     0.005 C 
BRANCH   2   3
ATOM      3  C   UNL     1     -66.733 -39.674 -40.472  1.00  0.00     0.027 C 
BRANCH   3   4
ATOM      4  C   UNL     1     -66.063 -40.335 -39.298  1.00  0.00    -0.031 C 
ATOM      5  C   UNL     1     -65.841 -39.657 -38.161  1.00  0.00    -0.028 C 
BRANCH   5   6
ATOM      6  C   UNL     1     -65.193 -40.284 -36.947  1.00  0.00     0.005 C 
ATOM      7  C   UNL     1     -65.845 -41.625 -36.592  1.00  0.00     0.012 C 
ATOM      8  C   UNL     1     -65.208 -39.324 -35.750  1.00  0.00     0.012 C 
ENDBRANCH   5   6
ENDBRANCH   3   4
ENDBRANCH   2   3
ENDBRANCH   1   2
BRANCH   1   9
ATOM      9  C   UNL     1     -69.581 -41.233 -39.386  1.00  0.00     0.100 C 
BRANCH   9  10
ATOM     10  C   UNL     1     -69.382 -40.782 -37.965  1.00  0.00     0.220 C 
ATOM     11  O   UNL     1     -69.379 -41.624 -37.023  1.00  0.00    -0.275 OA
ATOM     12  N   UNL     1     -69.267 -39.380 -37.679  1.00  0.00    -0.352 N 
ATOM     13  H   UNL     1     -69.345 -38.693 -38.463  1.00  0.00     0.163 HD
BRANCH  12  14
ATOM     14  C   UNL     1     -68.992 -38.874 -36.336  1.00  0.00     0.151 C 
BRANCH  14  15
ATOM     15  C   UNL     1     -68.483 -37.461 -36.414  1.00  0.00    -0.025 A 
ATOM     16  C   UNL     1     -67.897 -36.864 -35.285  1.00  0.00     0.056 A 
ATOM     17  C   UNL     1     -68.625 -36.715 -37.592  1.00  0.00     0.009 A 
ATOM     18  C   UNL     1     -67.445 -35.530 -35.331  1.00  0.00     0.160 A 
ATOM     19  C   UNL     1     -68.173 -35.394 -37.648  1.00  0.00     0.050 A 
ATOM     20  C   UNL     1     -67.588 -34.798 -36.525  1.00  0.00     0.157 A 
BRANCH  18  21
ATOM     21  O   UNL     1     -66.859 -34.905 -34.218  1.00  0.00    -0.493 OA
ATOM     22  C   UNL     1     -65.494 -35.049 -33.838  1.00  0.00     0.278 C 
ENDBRANCH  18  21
BRANCH  20  23
ATOM     23  O   UNL     1     -67.155 -33.475 -36.615  1.00  0.00    -0.504 OA
ATOM     24  H   UNL     1     -66.349 -33.206 -37.167  1.00  0.00     0.293 HD
ENDBRANCH  20  23
ENDBRANCH  14  15
ENDBRANCH  12  14
ENDBRANCH   9  10
ENDBRANCH   1   9
TORSDOF 10
ENDMDL
MODEL 9
REMARK VINA RESULT:    -7.089      3.490      9.182
REMARK INTER + INTRA:         -11.834
REMARK INTER:                 -11.172
REMARK INTRA:                  -0.663
REMARK UNBOUND:                -0.808
REMARK SMILES COc1cc(CNC(=O)CCCCC=CC(C)C)ccc1O
REMARK SMILES IDX 11 1 12 2 13 3 14 4 15 5 16 6 17 7 18 8 10 9 8 10 9 11 7 12
REMARK SMILES IDX 6 14 5 15 4 16 19 17 3 18 20 19 21 20 2 21 1 22 22 23
REMARK H PARENT 7 13 22 24
REMARK Flexibility Score: inf
ROOT
ATOM      1  C   UNL     1     -65.306 -38.449 -33.173  1.00  0.00     0.010 C 
ENDROOT
BRANCH   1   2
ATOM      2  C   UNL     1     -64.694 -38.774 -31.805  1.00  0.00     0.005 C 
BRANCH   2   3
ATOM      3  C   UNL     1     -65.323 -37.917 -30.701  1.00  0.00     0.027 C 
BRANCH   3   4
ATOM      4  C   UNL     1     -64.890 -38.384 -29.339  1.00  0.00    -0.031 C 
ATOM      5  C   UNL     1     -65.797 -38.683 -28.394  1.00  0.00    -0.028 C 
BRANCH   5   6
ATOM      6  C   UNL     1     -65.413 -39.179 -27.018  1.00  0.00     0.005 C 
ATOM      7  C   UNL     1     -66.648 -39.392 -26.134  1.00  0.00     0.012 C 
ATOM      8  C   UNL     1     -64.404 -38.238 -26.348  1.00  0.00     0.012 C 
ENDBRANCH   5   6
ENDBRANCH   3   4
ENDBRANCH   2   3
ENDBRANCH   1   2
BRANCH   1   9
ATOM      9  C   UNL     1     -66.009 -37.082 -33.145  1.00  0.00     0.100 C 
BRANCH   9  10
ATOM     10  C   UNL     1     -66.636 -36.730 -34.466  1.00  0.00     0.220 C 
ATOM     11  O   UNL     1     -66.026 -35.981 -35.281  1.00  0.00    -0.275 OA
ATOM     12  N   UNL     1     -67.961 -37.191 -34.765  1.00  0.00    -0.352 N 
ATOM     13  H   UNL     1     -68.479 -37.749 -34.047  1.00  0.00     0.163 HD
BRANCH  12  14
ATOM     14  C   UNL     1     -68.601 -36.956 -36.057  1.00  0.00     0.151 C 
BRANCH  14  15
ATOM     15  C   UNL     1     -68.637 -38.232 -36.853  1.00  0.00    -0.025 A 
ATOM     16  C   UNL     1     -67.507 -38.634 -37.583  1.00  0.00     0.056 A 
ATOM     17  C   UNL     1     -69.804 -39.007 -36.907  1.00  0.00     0.009 A 
ATOM     18  C   UNL     1     -67.535 -39.810 -38.361  1.00  0.00     0.160 A 
ATOM     19  C   UNL     1     -69.837 -40.177 -37.670  1.00  0.00     0.050 A 
ATOM     20  C   UNL     1     -68.712 -40.580 -38.398  1.00  0.00     0.157 A 
BRANCH  18  21
ATOM     21  O   UNL     1     -66.421 -40.235 -39.104  1.00  0.00    -0.493 OA
ATOM     22  C   UNL     1     -65.067 -40.073 -38.694  1.00  0.00     0.278 C 
ENDBRANCH  18  21
BRANCH  20  23
ATOM     23  O   UNL     1     -68.783 -41.750 -39.154  1.00  0.00    -0.504 OA
ATOM     24  H   UNL     1     -67.993 -42.375 -39.260  1.00  0.00     0.293 HD
ENDBRANCH  20  23
ENDBRANCH  14  15
ENDBRANCH  12  14
ENDBRANCH   9  10
ENDBRANCH   1   9
TORSDOF 10
ENDMDL
