MODEL 1
REMARK VINA RESULT:    -4.258      0.000      0.000
REMARK INTER + INTRA:          -6.199
REMARK INTER:                  -6.499
REMARK INTRA:                   0.300
REMARK UNBOUND:                 0.300
REMARK SMILES CC1=CCC[C@@H](C)C(=O)C[C@@H](C(C)C)C(=O)C1
REMARK SMILES IDX 8 1 9 2 6 3 7 4 5 5 4 6 3 7 2 8 1 9 10 11 11 12 15 13 16 14
REMARK SMILES IDX 17 15 12 17 13 18 14 19
REMARK H PARENT
REMARK Flexibility Score: 70.00
ROOT
ATOM      1  C   UNL     1     -27.783  13.400 -30.577  1.00  0.00     0.136 C 
ATOM      2  O   UNL     1     -28.099  14.142 -31.496  1.00  0.00    -0.299 OA
ENDROOT
BRANCH   1   3
ATOM      3  C   UNL     1     -28.643  12.192 -30.262  1.00  0.00     0.053 C 
ATOM      4  C   UNL     1     -30.121  12.572 -30.399  1.00  0.00     0.016 C 
BRANCH   3   5
ATOM      5  C   UNL     1     -28.367  11.631 -28.847  1.00  0.00     0.015 C 
BRANCH   5   6
ATOM      6  C   UNL     1     -27.831  10.190 -28.838  1.00  0.00     0.028 C 
BRANCH   6   7
ATOM      7  C   UNL     1     -26.522  10.090 -28.092  1.00  0.00    -0.028 C 
ATOM      8  C   UNL     1     -25.307  10.367 -28.616  1.00  0.00    -0.070 CG0
ATOM      9  C   UNL     1     -24.101  10.232 -27.720  1.00  0.00     0.039 C 
ATOM     10  G   UNL     1     -25.109  10.807 -30.056  1.00  0.00     0.000 G0
ENDBRANCH   6   7
ENDBRANCH   5   6
ENDBRANCH   3   5
ENDBRANCH   1   3
BRANCH   1  11
ATOM     11  C   UNL     1     -26.511  13.680 -29.811  1.00  0.00     0.087 C 
BRANCH  11  12
ATOM     12  C   UNL     1     -25.226  13.446 -30.645  1.00  0.00     0.066 C 
BRANCH  12  13
ATOM     13  C   UNL     1     -24.471  12.206 -30.174  1.00  0.00     0.140 C 
ATOM     14  O   UNL     1     -23.279  12.299 -29.917  1.00  0.00    -0.299 OA
BRANCH  13  15
ATOM     15  C   UNL     1     -25.116  10.840 -30.056  1.00  0.00     0.106 CG0
ATOM     16  G   UNL     1     -25.304  10.361 -28.627  1.00  0.00     0.000 G0
ENDBRANCH  13  15
ENDBRANCH  12  13
BRANCH  12  17
ATOM     17  C   UNL     1     -24.326  14.720 -30.681  1.00  0.00    -0.006 C 
ATOM     18  C   UNL     1     -23.326  14.754 -31.850  1.00  0.00     0.008 C 
ATOM     19  C   UNL     1     -25.172  16.003 -30.684  1.00  0.00     0.008 C 
ENDBRANCH  12  17
ENDBRANCH  11  12
ENDBRANCH   1  11
TORSDOF 1
ENDMDL
MODEL 2
REMARK VINA RESULT:    -4.247      8.617     11.396
REMARK INTER + INTRA:          -6.182
REMARK INTER:                  -6.145
REMARK INTRA:                  -0.037
REMARK UNBOUND:                 0.300
REMARK SMILES CC1=CCC[C@@H](C)C(=O)C[C@@H](C(C)C)C(=O)C1
REMARK SMILES IDX 8 1 9 2 6 3 7 4 5 5 4 6 3 7 2 8 1 9 10 11 11 12 15 13 16 14
REMARK SMILES IDX 17 15 12 17 13 18 14 19
REMARK H PARENT
REMARK Flexibility Score: 70.00
ROOT
ATOM      1  C   UNL     1     -13.730  12.609 -30.918  1.00  0.00     0.136 C 
ATOM      2  O   UNL     1     -13.113  11.598 -31.225  1.00  0.00    -0.299 OA
ENDROOT
BRANCH   1   3
ATOM      3  C   UNL     1     -14.138  13.592 -31.997  1.00  0.00     0.053 C 
ATOM      4  C   UNL     1     -13.598  14.983 -31.647  1.00  0.00     0.016 C 
BRANCH   3   5
ATOM      5  C   UNL     1     -15.673  13.649 -32.186  1.00  0.00     0.015 C 
BRANCH   5   6
ATOM      6  C   UNL     1     -16.331  12.274 -32.379  1.00  0.00     0.028 C 
BRANCH   6   7
ATOM      7  C   UNL     1     -17.689  12.212 -31.720  1.00  0.00    -0.028 C 
ATOM      8  C   UNL     1     -17.972  11.533 -30.586  1.00  0.00    -0.070 CG0
ATOM      9  C   UNL     1     -19.382  11.596 -30.055  1.00  0.00     0.039 C 
ATOM     10  G   UNL     1     -16.935  10.720 -29.830  1.00  0.00     0.000 G0
ENDBRANCH   6   7
ENDBRANCH   5   6
ENDBRANCH   3   5
ENDBRANCH   1   3
BRANCH   1  11
ATOM     11  C   UNL     1     -14.114  12.824 -29.473  1.00  0.00     0.087 C 
BRANCH  11  12
ATOM     12  C   UNL     1     -14.635  11.540 -28.777  1.00  0.00     0.066 C 
BRANCH  12  13
ATOM     13  C   UNL     1     -16.160  11.481 -28.779  1.00  0.00     0.140 C 
ATOM     14  O   UNL     1     -16.777  12.043 -27.886  1.00  0.00    -0.299 OA
BRANCH  13  15
ATOM     15  C   UNL     1     -16.955  10.711 -29.814  1.00  0.00     0.106 CG0
ATOM     16  G   UNL     1     -17.959  11.554 -30.583  1.00  0.00     0.000 G0
ENDBRANCH  13  15
ENDBRANCH  12  13
BRANCH  12  17
ATOM     17  C   UNL     1     -14.030  11.378 -27.348  1.00  0.00    -0.006 C 
ATOM     18  C   UNL     1     -14.461  10.093 -26.621  1.00  0.00     0.008 C 
ATOM     19  C   UNL     1     -12.496  11.469 -27.375  1.00  0.00     0.008 C 
ENDBRANCH  12  17
ENDBRANCH  11  12
ENDBRANCH   1  11
TORSDOF 1
ENDMDL
MODEL 3
REMARK VINA RESULT:    -4.127      8.751     11.262
REMARK INTER + INTRA:          -5.999
REMARK INTER:                  -5.947
REMARK INTRA:                  -0.051
REMARK UNBOUND:                 0.300
REMARK SMILES CC1=CCC[C@@H](C)C(=O)C[C@@H](C(C)C)C(=O)C1
REMARK SMILES IDX 8 1 9 2 6 3 7 4 5 5 4 6 3 7 2 8 1 9 10 11 11 12 15 13 16 14
REMARK SMILES IDX 17 15 12 17 13 18 14 19
REMARK H PARENT
REMARK Flexibility Score: 70.00
ROOT
ATOM      1  C   UNL     1     -13.533  11.108 -29.788  1.00  0.00     0.136 C 
ATOM      2  O   UNL     1     -12.489  10.471 -29.813  1.00  0.00    -0.299 OA
ENDROOT
BRANCH   1   3
ATOM      3  C   UNL     1     -14.079  11.598 -28.462  1.00  0.00     0.053 C 
ATOM      4  C   UNL     1     -12.925  11.754 -27.465  1.00  0.00     0.016 C 
BRANCH   3   5
ATOM      5  C   UNL     1     -15.156  10.648 -27.885  1.00  0.00     0.015 C 
BRANCH   5   6
ATOM      6  C   UNL     1     -16.069  10.018 -28.948  1.00  0.00     0.028 C 
BRANCH   6   7
ATOM      7  C   UNL     1     -17.417  10.698 -28.993  1.00  0.00    -0.028 C 
ATOM      8  C   UNL     1     -17.926  11.343 -30.067  1.00  0.00    -0.070 CG0
ATOM      9  C   UNL     1     -19.301  11.951 -29.943  1.00  0.00     0.039 C 
ATOM     10  G   UNL     1     -17.178  11.476 -31.382  1.00  0.00     0.000 G0
ENDBRANCH   6   7
ENDBRANCH   5   6
ENDBRANCH   3   5
ENDBRANCH   1   3
BRANCH   1  11
ATOM     11  C   UNL     1     -14.225  11.434 -31.091  1.00  0.00     0.087 C 
BRANCH  11  12
ATOM     12  C   UNL     1     -14.891  12.833 -31.102  1.00  0.00     0.066 C 
BRANCH  12  13
ATOM     13  C   UNL     1     -16.358  12.752 -31.512  1.00  0.00     0.140 C 
ATOM     14  O   UNL     1     -16.916  13.759 -31.926  1.00  0.00    -0.299 OA
BRANCH  13  15
ATOM     15  C   UNL     1     -17.184  11.487 -31.385  1.00  0.00     0.106 CG0
ATOM     16  G   UNL     1     -17.906  11.345 -30.057  1.00  0.00     0.000 G0
ENDBRANCH  13  15
ENDBRANCH  12  13
BRANCH  12  17
ATOM     17  C   UNL     1     -14.080  13.847 -31.968  1.00  0.00    -0.006 C 
ATOM     18  C   UNL     1     -13.614  15.099 -31.205  1.00  0.00     0.008 C 
ATOM     19  C   UNL     1     -12.875  13.170 -32.641  1.00  0.00     0.008 C 
ENDBRANCH  12  17
ENDBRANCH  11  12
ENDBRANCH   1  11
TORSDOF 1
ENDMDL
MODEL 4
REMARK VINA RESULT:    -4.013      9.878     12.037
REMARK INTER + INTRA:          -5.824
REMARK INTER:                  -5.995
REMARK INTRA:                   0.171
REMARK UNBOUND:                 0.300
REMARK SMILES CC1=CCC[C@@H](C)C(=O)C[C@@H](C(C)C)C(=O)C1
REMARK SMILES IDX 8 1 9 2 6 3 7 4 5 5 4 6 3 7 2 8 1 9 10 11 11 12 15 13 16 14
REMARK SMILES IDX 17 15 12 17 13 18 14 19
REMARK H PARENT
REMARK Flexibility Score: 70.00
ROOT
ATOM      1  C   UNL     1     -12.630  11.597 -31.415  1.00  0.00     0.136 C 
ATOM      2  O   UNL     1     -11.515  11.095 -31.398  1.00  0.00    -0.299 OA
ENDROOT
BRANCH   1   3
ATOM      3  C   UNL     1     -13.638  11.219 -30.348  1.00  0.00     0.053 C 
ATOM      4  C   UNL     1     -12.895  10.812 -29.071  1.00  0.00     0.016 C 
BRANCH   3   5
ATOM      5  C   UNL     1     -14.574  10.076 -30.807  1.00  0.00     0.015 C 
BRANCH   5   6
ATOM      6  C   UNL     1     -16.061  10.464 -30.852  1.00  0.00     0.028 C 
BRANCH   6   7
ATOM      7  C   UNL     1     -16.341  11.680 -30.001  1.00  0.00    -0.028 C 
ATOM      8  C   UNL     1     -16.645  12.909 -30.478  1.00  0.00    -0.070 CG0
ATOM      9  C   UNL     1     -16.915  14.008 -29.482  1.00  0.00     0.039 C 
ATOM     10  G   UNL     1     -16.727  13.221 -31.962  1.00  0.00     0.000 G0
ENDBRANCH   6   7
ENDBRANCH   5   6
ENDBRANCH   3   5
ENDBRANCH   1   3
BRANCH   1  11
ATOM     11  C   UNL     1     -12.955  12.625 -32.474  1.00  0.00     0.087 C 
BRANCH  11  12
ATOM     12  C   UNL     1     -14.099  13.588 -32.067  1.00  0.00     0.066 C 
BRANCH  12  13
ATOM     13  C   UNL     1     -15.423  13.190 -32.713  1.00  0.00     0.140 C 
ATOM     14  O   UNL     1     -15.436  12.872 -33.894  1.00  0.00    -0.299 OA
BRANCH  13  15
ATOM     15  C   UNL     1     -16.745  13.215 -31.972  1.00  0.00     0.106 CG0
ATOM     16  G   UNL     1     -16.634  12.912 -30.488  1.00  0.00     0.000 G0
ENDBRANCH  13  15
ENDBRANCH  12  13
BRANCH  12  17
ATOM     17  C   UNL     1     -13.721  15.076 -32.343  1.00  0.00    -0.006 C 
ATOM     18  C   UNL     1     -14.046  16.036 -31.185  1.00  0.00     0.008 C 
ATOM     19  C   UNL     1     -12.240  15.215 -32.731  1.00  0.00     0.008 C 
ENDBRANCH  12  17
ENDBRANCH  11  12
ENDBRANCH   1  11
TORSDOF 1
ENDMDL
MODEL 5
REMARK VINA RESULT:    -3.923      7.861      9.810
REMARK INTER + INTRA:          -5.688
REMARK INTER:                  -5.894
REMARK INTRA:                   0.207
REMARK UNBOUND:                 0.300
REMARK SMILES CC1=CCC[C@@H](C)C(=O)C[C@@H](C(C)C)C(=O)C1
REMARK SMILES IDX 8 1 9 2 6 3 7 4 5 5 4 6 3 7 2 8 1 9 10 11 11 12 15 13 16 14
REMARK SMILES IDX 17 15 12 17 13 18 14 19
REMARK H PARENT
REMARK Flexibility Score: 70.00
ROOT
ATOM      1  C   UNL     1     -18.480  12.113 -30.867  1.00  0.00     0.136 C 
ATOM      2  O   UNL     1     -19.108  13.024 -30.346  1.00  0.00    -0.299 OA
ENDROOT
BRANCH   1   3
ATOM      3  C   UNL     1     -18.858  10.677 -30.566  1.00  0.00     0.053 C 
ATOM      4  C   UNL     1     -20.055  10.657 -29.610  1.00  0.00     0.016 C 
BRANCH   3   5
ATOM      5  C   UNL     1     -17.680   9.876 -29.962  1.00  0.00     0.015 C 
BRANCH   5   6
ATOM      6  C   UNL     1     -17.386  10.209 -28.490  1.00  0.00     0.028 C 
BRANCH   6   7
ATOM      7  C   UNL     1     -15.914  10.455 -28.262  1.00  0.00    -0.028 C 
ATOM      8  C   UNL     1     -15.319  11.669 -28.271  1.00  0.00    -0.070 CG0
ATOM      9  C   UNL     1     -13.836  11.735 -28.004  1.00  0.00     0.039 C 
ATOM     10  G   UNL     1     -16.078  12.959 -28.533  1.00  0.00     0.000 G0
ENDBRANCH   6   7
ENDBRANCH   5   6
ENDBRANCH   3   5
ENDBRANCH   1   3
BRANCH   1  11
ATOM     11  C   UNL     1     -17.374  12.447 -31.841  1.00  0.00     0.087 C 
BRANCH  11  12
ATOM     12  C   UNL     1     -15.977  12.544 -31.178  1.00  0.00     0.066 C 
BRANCH  12  13
ATOM     13  C   UNL     1     -15.995  13.470 -29.966  1.00  0.00     0.140 C 
ATOM     14  O   UNL     1     -15.900  14.677 -30.140  1.00  0.00    -0.299 OA
BRANCH  13  15
ATOM     15  C   UNL     1     -16.075  12.965 -28.539  1.00  0.00     0.106 CG0
ATOM     16  G   UNL     1     -15.328  11.665 -28.296  1.00  0.00     0.000 G0
ENDBRANCH  13  15
ENDBRANCH  12  13
BRANCH  12  17
ATOM     17  C   UNL     1     -14.877  12.931 -32.214  1.00  0.00    -0.006 C 
ATOM     18  C   UNL     1     -13.488  12.343 -31.911  1.00  0.00     0.008 C 
ATOM     19  C   UNL     1     -15.297  12.558 -33.644  1.00  0.00     0.008 C 
ENDBRANCH  12  17
ENDBRANCH  11  12
ENDBRANCH   1  11
TORSDOF 1
ENDMDL
MODEL 6
REMARK VINA RESULT:    -3.823      1.834      4.502
REMARK INTER + INTRA:          -5.535
REMARK INTER:                  -5.747
REMARK INTRA:                   0.212
REMARK UNBOUND:                 0.300
REMARK SMILES CC1=CCC[C@@H](C)C(=O)C[C@@H](C(C)C)C(=O)C1
REMARK SMILES IDX 8 1 9 2 6 3 7 4 5 5 4 6 3 7 2 8 1 9 10 11 11 12 15 13 16 14
REMARK SMILES IDX 17 15 12 17 13 18 14 19
REMARK H PARENT
REMARK Flexibility Score: 70.00
ROOT
ATOM      1  C   UNL     1     -23.882  13.233 -30.128  1.00  0.00     0.136 C 
ATOM      2  O   UNL     1     -22.662  13.180 -30.208  1.00  0.00    -0.299 OA
ENDROOT
BRANCH   1   3
ATOM      3  C   UNL     1     -24.655  14.128 -31.076  1.00  0.00     0.053 C 
ATOM      4  C   UNL     1     -23.831  15.384 -31.374  1.00  0.00     0.016 C 
BRANCH   3   5
ATOM      5  C   UNL     1     -26.040  14.522 -30.508  1.00  0.00     0.015 C 
BRANCH   5   6
ATOM      6  C   UNL     1     -27.225  13.881 -31.248  1.00  0.00     0.028 C 
BRANCH   6   7
ATOM      7  C   UNL     1     -28.261  13.355 -30.284  1.00  0.00    -0.028 C 
ATOM      8  C   UNL     1     -28.371  12.067 -29.888  1.00  0.00    -0.070 CG0
ATOM      9  C   UNL     1     -29.456  11.718 -28.901  1.00  0.00     0.039 C 
ATOM     10  G   UNL     1     -27.450  10.968 -30.390  1.00  0.00     0.000 G0
ENDBRANCH   6   7
ENDBRANCH   5   6
ENDBRANCH   3   5
ENDBRANCH   1   3
BRANCH   1  11
ATOM     11  C   UNL     1     -24.589  12.361 -29.117  1.00  0.00     0.087 C 
BRANCH  11  12
ATOM     12  C   UNL     1     -24.893  10.934 -29.640  1.00  0.00     0.066 C 
BRANCH  12  13
ATOM     13  C   UNL     1     -26.357  10.560 -29.428  1.00  0.00     0.140 C 
ATOM     14  O   UNL     1     -26.660   9.875 -28.461  1.00  0.00    -0.299 OA
BRANCH  13  15
ATOM     15  C   UNL     1     -27.459  10.954 -30.390  1.00  0.00     0.106 CG0
ATOM     16  G   UNL     1     -28.369  12.058 -29.877  1.00  0.00     0.000 G0
ENDBRANCH  13  15
ENDBRANCH  12  13
BRANCH  12  17
ATOM     17  C   UNL     1     -23.911   9.882 -29.038  1.00  0.00    -0.006 C 
ATOM     18  C   UNL     1     -22.498   9.915 -29.648  1.00  0.00     0.008 C 
ATOM     19  C   UNL     1     -23.819  10.010 -27.510  1.00  0.00     0.008 C 
ENDBRANCH  12  17
ENDBRANCH  11  12
ENDBRANCH   1  11
TORSDOF 1
ENDMDL
MODEL 7
REMARK VINA RESULT:    -3.782      1.559      3.969
REMARK INTER + INTRA:          -5.472
REMARK INTER:                  -6.536
REMARK INTRA:                   1.065
REMARK UNBOUND:                 0.300
REMARK SMILES CC1=CCC[C@@H](C)C(=O)C[C@@H](C(C)C)C(=O)C1
REMARK SMILES IDX 8 1 9 2 6 3 7 4 5 5 4 6 3 7 2 8 1 9 10 11 11 12 15 13 16 14
REMARK SMILES IDX 17 15 12 17 13 18 14 19
REMARK H PARENT
REMARK Flexibility Score: 70.00
ROOT
ATOM      1  C   UNL     1     -26.891  14.555 -30.945  1.00  0.00     0.136 C 
ATOM      2  O   UNL     1     -27.571  15.327 -31.607  1.00  0.00    -0.299 OA
ENDROOT
BRANCH   1   3
ATOM      3  C   UNL     1     -25.717  15.087 -30.147  1.00  0.00     0.053 C 
ATOM      4  C   UNL     1     -25.633  16.606 -30.321  1.00  0.00     0.016 C 
BRANCH   3   5
ATOM      5  C   UNL     1     -24.380  14.428 -30.563  1.00  0.00     0.015 C 
BRANCH   5   6
ATOM      6  C   UNL     1     -24.496  12.932 -30.897  1.00  0.00     0.028 C 
BRANCH   6   7
ATOM      7  C   UNL     1     -24.040  12.070 -29.744  1.00  0.00    -0.028 C 
ATOM      8  C   UNL     1     -24.767  11.081 -29.179  1.00  0.00    -0.070 CG0
ATOM      9  C   UNL     1     -24.148  10.304 -28.045  1.00  0.00     0.039 C 
ATOM     10  G   UNL     1     -26.169  10.720 -29.639  1.00  0.00     0.000 G0
ENDBRANCH   6   7
ENDBRANCH   5   6
ENDBRANCH   3   5
ENDBRANCH   1   3
BRANCH   1  11
ATOM     11  C   UNL     1     -27.274  13.094 -30.900  1.00  0.00     0.087 C 
BRANCH  11  12
ATOM     12  C   UNL     1     -27.958  12.677 -29.574  1.00  0.00     0.066 C 
BRANCH  12  13
ATOM     13  C   UNL     1     -27.292  11.447 -28.962  1.00  0.00     0.140 C 
ATOM     14  O   UNL     1     -27.648  11.068 -27.856  1.00  0.00    -0.299 OA
BRANCH  13  15
ATOM     15  C   UNL     1     -26.165  10.694 -29.640  1.00  0.00     0.106 CG0
ATOM     16  G   UNL     1     -24.776  11.100 -29.177  1.00  0.00     0.000 G0
ENDBRANCH  13  15
ENDBRANCH  12  13
BRANCH  12  17
ATOM     17  C   UNL     1     -29.498  12.497 -29.755  1.00  0.00    -0.006 C 
ATOM     18  C   UNL     1     -30.125  13.437 -30.800  1.00  0.00     0.008 C 
ATOM     19  C   UNL     1     -29.857  11.040 -30.086  1.00  0.00     0.008 C 
ENDBRANCH  12  17
ENDBRANCH  11  12
ENDBRANCH   1  11
TORSDOF 1
ENDMDL
MODEL 8
REMARK VINA RESULT:    -3.748      8.229     10.783
REMARK INTER + INTRA:          -5.421
REMARK INTER:                  -5.738
REMARK INTRA:                   0.317
REMARK UNBOUND:                 0.300
REMARK SMILES CC1=CCC[C@@H](C)C(=O)C[C@@H](C(C)C)C(=O)C1
REMARK SMILES IDX 8 1 9 2 6 3 7 4 5 5 4 6 3 7 2 8 1 9 10 11 11 12 15 13 16 14
REMARK SMILES IDX 17 15 12 17 13 18 14 19
REMARK H PARENT
REMARK Flexibility Score: 70.00
ROOT
ATOM      1  C   UNL     1     -16.250  13.749 -30.171  1.00  0.00     0.136 C 
ATOM      2  O   UNL     1     -16.490  14.412 -29.171  1.00  0.00    -0.299 OA
ENDROOT
BRANCH   1   3
ATOM      3  C   UNL     1     -14.932  13.938 -30.894  1.00  0.00     0.053 C 
ATOM      4  C   UNL     1     -14.603  15.433 -30.967  1.00  0.00     0.016 C 
BRANCH   3   5
ATOM      5  C   UNL     1     -14.954  13.328 -32.317  1.00  0.00     0.015 C 
BRANCH   5   6
ATOM      6  C   UNL     1     -14.680  11.817 -32.354  1.00  0.00     0.028 C 
BRANCH   6   7
ATOM      7  C   UNL     1     -13.845  11.376 -31.176  1.00  0.00    -0.028 C 
ATOM      8  C   UNL     1     -14.287  10.608 -30.154  1.00  0.00    -0.070 CG0
ATOM      9  C   UNL     1     -13.309  10.245 -29.065  1.00  0.00     0.039 C 
ATOM     10  G   UNL     1     -15.714  10.097 -30.063  1.00  0.00     0.000 G0
ENDBRANCH   6   7
ENDBRANCH   5   6
ENDBRANCH   3   5
ENDBRANCH   1   3
BRANCH   1  11
ATOM     11  C   UNL     1     -17.257  12.719 -30.626  1.00  0.00     0.087 C 
BRANCH  11  12
ATOM     12  C   UNL     1     -17.716  11.764 -29.495  1.00  0.00     0.066 C 
BRANCH  12  13
ATOM     13  C   UNL     1     -16.597  10.818 -29.070  1.00  0.00     0.140 C 
ATOM     14  O   UNL     1     -16.359  10.676 -27.879  1.00  0.00    -0.299 OA
BRANCH  13  15
ATOM     15  C   UNL     1     -15.722  10.076 -30.061  1.00  0.00     0.106 CG0
ATOM     16  G   UNL     1     -14.299  10.600 -30.152  1.00  0.00     0.000 G0
ENDBRANCH  13  15
ENDBRANCH  12  13
BRANCH  12  17
ATOM     17  C   UNL     1     -19.027  11.010 -29.879  1.00  0.00    -0.006 C 
ATOM     18  C   UNL     1     -19.582  10.101 -28.768  1.00  0.00     0.008 C 
ATOM     19  C   UNL     1     -20.119  11.985 -30.345  1.00  0.00     0.008 C 
ENDBRANCH  12  17
ENDBRANCH  11  12
ENDBRANCH   1  11
TORSDOF 1
ENDMDL
MODEL 9
REMARK VINA RESULT:    -3.715     10.077     12.451
REMARK INTER + INTRA:          -5.370
REMARK INTER:                  -5.544
REMARK INTRA:                   0.174
REMARK UNBOUND:                 0.300
REMARK SMILES CC1=CCC[C@@H](C)C(=O)C[C@@H](C(C)C)C(=O)C1
REMARK SMILES IDX 8 1 9 2 6 3 7 4 5 5 4 6 3 7 2 8 1 9 10 11 11 12 15 13 16 14
REMARK SMILES IDX 17 15 12 17 13 18 14 19
REMARK H PARENT
REMARK Flexibility Score: 70.00
ROOT
ATOM      1  C   UNL     1     -13.754  11.365 -29.368  1.00  0.00     0.136 C 
ATOM      2  O   UNL     1     -12.854  11.059 -28.598  1.00  0.00    -0.299 OA
ENDROOT
BRANCH   1   3
ATOM      3  C   UNL     1     -14.981  12.079 -28.838  1.00  0.00     0.053 C 
ATOM      4  C   UNL     1     -15.232  11.649 -27.390  1.00  0.00     0.016 C 
BRANCH   3   5
ATOM      5  C   UNL     1     -16.236  11.803 -29.701  1.00  0.00     0.015 C 
BRANCH   5   6
ATOM      6  C   UNL     1     -16.924  13.072 -30.228  1.00  0.00     0.028 C 
BRANCH   6   7
ATOM      7  C   UNL     1     -15.992  14.259 -30.202  1.00  0.00    -0.028 C 
ATOM      8  C   UNL     1     -15.230  14.671 -31.241  1.00  0.00    -0.070 CG0
ATOM      9  C   UNL     1     -14.367  15.892 -31.047  1.00  0.00     0.039 C 
ATOM     10  G   UNL     1     -15.212  13.961 -32.584  1.00  0.00     0.000 G0
ENDBRANCH   6   7
ENDBRANCH   5   6
ENDBRANCH   3   5
ENDBRANCH   1   3
BRANCH   1  11
ATOM     11  C   UNL     1     -13.591  11.069 -30.841  1.00  0.00     0.087 C 
BRANCH  11  12
ATOM     12  C   UNL     1     -13.315  12.332 -31.696  1.00  0.00     0.066 C 
BRANCH  12  13
ATOM     13  C   UNL     1     -14.488  12.650 -32.620  1.00  0.00     0.140 C 
ATOM     14  O   UNL     1     -14.833  11.820 -33.449  1.00  0.00    -0.299 OA
BRANCH  13  15
ATOM     15  C   UNL     1     -15.223  13.975 -32.596  1.00  0.00     0.106 CG0
ATOM     16  G   UNL     1     -15.215  14.668 -31.244  1.00  0.00     0.000 G0
ENDBRANCH  13  15
ENDBRANCH  12  13
BRANCH  12  17
ATOM     17  C   UNL     1     -11.961  12.220 -32.463  1.00  0.00    -0.006 C 
ATOM     18  C   UNL     1     -11.344  13.573 -32.858  1.00  0.00     0.008 C 
ATOM     19  C   UNL     1     -10.935  11.394 -31.670  1.00  0.00     0.008 C 
ENDBRANCH  12  17
ENDBRANCH  11  12
ENDBRANCH   1  11
TORSDOF 1
ENDMDL
