MODEL 1
REMARK VINA RESULT:    -5.189      0.000      0.000
REMARK INTER + INTRA:          -6.245
REMARK INTER:                  -6.099
REMARK INTRA:                  -0.146
REMARK UNBOUND:                -0.146
REMARK SMILES O=C([O-])C=Cc1ccc(O)c(O)c1
REMARK SMILES IDX 6 1 13 2 7 3 11 4 8 5 9 6 5 7 4 8 2 9 1 10 3 11 12 12 10 14
REMARK H PARENT 12 13 10 15
REMARK Flexibility Score: inf
ROOT
ATOM      1  C   UNL     1      16.630 -10.884  24.334  1.00  0.00    -0.022 A 
ATOM      2  C   UNL     1      17.395  -9.740  24.030  1.00  0.00     0.058 A 
ATOM      3  C   UNL     1      15.243 -10.848  24.117  1.00  0.00     0.012 A 
ATOM      4  C   UNL     1      16.786  -8.596  23.495  1.00  0.00     0.157 A 
ATOM      5  C   UNL     1      14.636  -9.710  23.583  1.00  0.00     0.051 A 
ATOM      6  C   UNL     1      15.400  -8.583  23.268  1.00  0.00     0.157 A 
ENDROOT
BRANCH   1   7
ATOM      7  C   UNL     1      17.227 -12.114  24.912  1.00  0.00     0.010 C 
ATOM      8  C   UNL     1      16.726 -13.344  24.728  1.00  0.00     0.025 C 
BRANCH   8   9
ATOM      9  C   UNL     1      17.340 -14.540  25.327  1.00  0.00     0.064 C 
ATOM     10  O   UNL     1      17.590 -14.597  26.560  1.00  0.00    -0.545 OA
ATOM     11  O   UNL     1      17.649 -15.626  24.518  1.00  0.00    -0.545 OA
ENDBRANCH   8   9
ENDBRANCH   1   7
BRANCH   4  12
ATOM     12  O   UNL     1      17.552  -7.470  23.195  1.00  0.00    -0.504 OA
ATOM     13  H   UNL     1      17.124  -6.567  23.024  1.00  0.00     0.293 HD
ENDBRANCH   4  12
BRANCH   6  14
ATOM     14  O   UNL     1      14.766  -7.461  22.734  1.00  0.00    -0.504 OA
ATOM     15  H   UNL     1      14.000  -7.000  23.208  1.00  0.00     0.293 HD
ENDBRANCH   6  14
TORSDOF 4
ENDMDL
MODEL 2
REMARK VINA RESULT:    -5.060      0.728      2.027
REMARK INTER + INTRA:          -6.094
REMARK INTER:                  -5.951
REMARK INTRA:                  -0.144
REMARK UNBOUND:                -0.146
REMARK SMILES O=C([O-])C=Cc1ccc(O)c(O)c1
REMARK SMILES IDX 6 1 13 2 7 3 11 4 8 5 9 6 5 7 4 8 2 9 1 10 3 11 12 12 10 14
REMARK H PARENT 12 13 10 15
REMARK Flexibility Score: inf
ROOT
ATOM      1  C   UNL     1      16.349 -10.728  24.287  1.00  0.00    -0.022 A 
ATOM      2  C   UNL     1      15.145 -10.072  23.961  1.00  0.00     0.058 A 
ATOM      3  C   UNL     1      17.564 -10.057  24.082  1.00  0.00     0.012 A 
ATOM      4  C   UNL     1      15.161  -8.760  23.464  1.00  0.00     0.157 A 
ATOM      5  C   UNL     1      17.581  -8.750  23.588  1.00  0.00     0.051 A 
ATOM      6  C   UNL     1      16.385  -8.096  23.280  1.00  0.00     0.157 A 
ENDROOT
BRANCH   1   7
ATOM      7  C   UNL     1      16.385 -12.119  24.805  1.00  0.00     0.010 C 
ATOM      8  C   UNL     1      17.330 -13.012  24.480  1.00  0.00     0.025 C 
BRANCH   8   9
ATOM      9  C   UNL     1      17.326 -14.387  25.005  1.00  0.00     0.064 C 
ATOM     10  O   UNL     1      17.288 -15.381  24.232  1.00  0.00    -0.545 OA
ATOM     11  O   UNL     1      17.364 -14.593  26.378  1.00  0.00    -0.545 OA
ENDBRANCH   8   9
ENDBRANCH   1   7
BRANCH   4  12
ATOM     12  O   UNL     1      13.965  -8.117  23.146  1.00  0.00    -0.504 OA
ATOM     13  H   UNL     1      13.866  -7.568  22.300  1.00  0.00     0.293 HD
ENDBRANCH   4  12
BRANCH   6  14
ATOM     14  O   UNL     1      16.432  -6.791  22.791  1.00  0.00    -0.504 OA
ATOM     15  H   UNL     1      15.632  -6.171  22.834  1.00  0.00     0.293 HD
ENDBRANCH   6  14
TORSDOF 4
ENDMDL
MODEL 3
REMARK VINA RESULT:    -4.880      1.619      6.114
REMARK INTER + INTRA:          -5.882
REMARK INTER:                  -5.762
REMARK INTRA:                  -0.120
REMARK UNBOUND:                -0.146
REMARK SMILES O=C([O-])C=Cc1ccc(O)c(O)c1
REMARK SMILES IDX 6 1 13 2 7 3 11 4 8 5 9 6 5 7 4 8 2 9 1 10 3 11 12 12 10 14
REMARK H PARENT 12 13 10 15
REMARK Flexibility Score: inf
ROOT
ATOM      1  C   UNL     1      17.291 -11.913  25.407  1.00  0.00    -0.022 A 
ATOM      2  C   UNL     1      16.919 -12.953  24.532  1.00  0.00     0.058 A 
ATOM      3  C   UNL     1      17.723 -12.240  26.702  1.00  0.00     0.012 A 
ATOM      4  C   UNL     1      17.003 -14.293  24.939  1.00  0.00     0.157 A 
ATOM      5  C   UNL     1      17.808 -13.573  27.108  1.00  0.00     0.051 A 
ATOM      6  C   UNL     1      17.454 -14.603  26.233  1.00  0.00     0.157 A 
ENDROOT
BRANCH   1   7
ATOM      7  C   UNL     1      17.208 -10.481  25.025  1.00  0.00     0.010 C 
ATOM      8  C   UNL     1      17.852  -9.951  23.976  1.00  0.00     0.025 C 
BRANCH   8   9
ATOM      9  C   UNL     1      17.754  -8.522  23.635  1.00  0.00     0.064 C 
ATOM     10  O   UNL     1      17.342  -8.147  22.505  1.00  0.00    -0.545 OA
ATOM     11  O   UNL     1      18.125  -7.570  24.575  1.00  0.00    -0.545 OA
ENDBRANCH   8   9
ENDBRANCH   1   7
BRANCH   4  12
ATOM     12  O   UNL     1      16.635 -15.316  24.066  1.00  0.00    -0.504 OA
ATOM     13  H   UNL     1      17.192 -16.158  23.969  1.00  0.00     0.293 HD
ENDBRANCH   4  12
BRANCH   6  14
ATOM     14  O   UNL     1      17.552 -15.925  26.666  1.00  0.00    -0.504 OA
ATOM     15  H   UNL     1      17.821 -16.677  26.043  1.00  0.00     0.293 HD
ENDBRANCH   6  14
TORSDOF 4
ENDMDL
MODEL 4
REMARK VINA RESULT:    -4.844      2.161      3.296
REMARK INTER + INTRA:          -5.840
REMARK INTER:                  -5.686
REMARK INTRA:                  -0.153
REMARK UNBOUND:                -0.146
REMARK SMILES O=C([O-])C=Cc1ccc(O)c(O)c1
REMARK SMILES IDX 6 1 13 2 7 3 11 4 8 5 9 6 5 7 4 8 2 9 1 10 3 11 12 12 10 14
REMARK H PARENT 12 13 10 15
REMARK Flexibility Score: inf
ROOT
ATOM      1  C   UNL     1      14.567  -8.995  23.779  1.00  0.00    -0.022 A 
ATOM      2  C   UNL     1      13.616  -7.956  23.744  1.00  0.00     0.058 A 
ATOM      3  C   UNL     1      15.840  -8.768  23.232  1.00  0.00     0.012 A 
ATOM      4  C   UNL     1      13.944  -6.707  23.197  1.00  0.00     0.157 A 
ATOM      5  C   UNL     1      16.168  -7.524  22.687  1.00  0.00     0.051 A 
ATOM      6  C   UNL     1      15.228  -6.490  22.669  1.00  0.00     0.157 A 
ENDROOT
BRANCH   1   7
ATOM      7  C   UNL     1      14.263 -10.337  24.337  1.00  0.00     0.010 C 
ATOM      8  C   UNL     1      15.184 -11.294  24.520  1.00  0.00     0.025 C 
BRANCH   8   9
ATOM      9  C   UNL     1      14.842 -12.618  25.067  1.00  0.00     0.064 C 
ATOM     10  O   UNL     1      13.700 -12.853  25.542  1.00  0.00    -0.545 OA
ATOM     11  O   UNL     1      15.797 -13.626  25.059  1.00  0.00    -0.545 OA
ENDBRANCH   8   9
ENDBRANCH   1   7
BRANCH   4  12
ATOM     12  O   UNL     1      12.998  -5.683  23.170  1.00  0.00    -0.504 OA
ATOM     13  H   UNL     1      13.259  -4.715  23.321  1.00  0.00     0.293 HD
ENDBRANCH   4  12
BRANCH   6  14
ATOM     14  O   UNL     1      15.585  -5.258  22.121  1.00  0.00    -0.504 OA
ATOM     15  H   UNL     1      15.568  -4.403  22.663  1.00  0.00     0.293 HD
ENDBRANCH   6  14
TORSDOF 4
ENDMDL
MODEL 5
REMARK VINA RESULT:    -4.750      5.186      7.131
REMARK INTER + INTRA:          -5.730
REMARK INTER:                  -5.604
REMARK INTRA:                  -0.126
REMARK UNBOUND:                -0.146
REMARK SMILES O=C([O-])C=Cc1ccc(O)c(O)c1
REMARK SMILES IDX 6 1 13 2 7 3 11 4 8 5 9 6 5 7 4 8 2 9 1 10 3 11 12 12 10 14
REMARK H PARENT 12 13 10 15
REMARK Flexibility Score: inf
ROOT
ATOM      1  C   UNL     1      11.101  -7.926  24.975  1.00  0.00    -0.022 A 
ATOM      2  C   UNL     1      10.856  -8.256  26.323  1.00  0.00     0.058 A 
ATOM      3  C   UNL     1      10.025  -7.515  24.172  1.00  0.00     0.012 A 
ATOM      4  C   UNL     1       9.564  -8.151  26.860  1.00  0.00     0.157 A 
ATOM      5  C   UNL     1       8.739  -7.409  24.706  1.00  0.00     0.051 A 
ATOM      6  C   UNL     1       8.502  -7.722  26.047  1.00  0.00     0.157 A 
ENDROOT
BRANCH   1   7
ATOM      7  C   UNL     1      12.447  -8.033  24.359  1.00  0.00     0.010 C 
ATOM      8  C   UNL     1      13.236  -9.110  24.474  1.00  0.00     0.025 C 
BRANCH   8   9
ATOM      9  C   UNL     1      14.572  -9.175  23.858  1.00  0.00     0.064 C 
ATOM     10  O   UNL     1      15.196 -10.265  23.767  1.00  0.00    -0.545 OA
ATOM     11  O   UNL     1      15.155  -8.013  23.370  1.00  0.00    -0.545 OA
ENDBRANCH   8   9
ENDBRANCH   1   7
BRANCH   4  12
ATOM     12  O   UNL     1       9.331  -8.477  28.196  1.00  0.00    -0.504 OA
ATOM     13  H   UNL     1       8.448  -8.268  28.647  1.00  0.00     0.293 HD
ENDBRANCH   4  12
BRANCH   6  14
ATOM     14  O   UNL     1       7.208  -7.604  26.553  1.00  0.00    -0.504 OA
ATOM     15  H   UNL     1       6.573  -6.877  26.245  1.00  0.00     0.293 HD
ENDBRANCH   6  14
TORSDOF 4
ENDMDL
MODEL 6
REMARK VINA RESULT:    -4.727      8.901     11.213
REMARK INTER + INTRA:          -5.702
REMARK INTER:                  -5.551
REMARK INTRA:                  -0.152
REMARK UNBOUND:                -0.146
REMARK SMILES O=C([O-])C=Cc1ccc(O)c(O)c1
REMARK SMILES IDX 6 1 13 2 7 3 11 4 8 5 9 6 5 7 4 8 2 9 1 10 3 11 12 12 10 14
REMARK H PARENT 12 13 10 15
REMARK Flexibility Score: inf
ROOT
ATOM      1  C   UNL     1      13.684 -14.709  33.299  1.00  0.00    -0.022 A 
ATOM      2  C   UNL     1      13.435 -16.096  33.252  1.00  0.00     0.058 A 
ATOM      3  C   UNL     1      13.714 -13.986  32.096  1.00  0.00     0.012 A 
ATOM      4  C   UNL     1      13.194 -16.736  32.028  1.00  0.00     0.157 A 
ATOM      5  C   UNL     1      13.474 -14.622  30.877  1.00  0.00     0.051 A 
ATOM      6  C   UNL     1      13.211 -15.994  30.835  1.00  0.00     0.157 A 
ENDROOT
BRANCH   1   7
ATOM      7  C   UNL     1      13.955 -13.989  34.569  1.00  0.00     0.010 C 
ATOM      8  C   UNL     1      14.386 -12.721  34.629  1.00  0.00     0.025 C 
BRANCH   8   9
ATOM      9  C   UNL     1      14.655 -12.043  35.908  1.00  0.00     0.064 C 
ATOM     10  O   UNL     1      14.338 -10.837  36.087  1.00  0.00    -0.545 OA
ATOM     11  O   UNL     1      15.269 -12.746  36.936  1.00  0.00    -0.545 OA
ENDBRANCH   8   9
ENDBRANCH   1   7
BRANCH   4  12
ATOM     12  O   UNL     1      12.946 -18.108  31.992  1.00  0.00    -0.504 OA
ATOM     13  H   UNL     1      12.386 -18.527  31.258  1.00  0.00     0.293 HD
ENDBRANCH   4  12
BRANCH   6  14
ATOM     14  O   UNL     1      12.973 -16.603  29.603  1.00  0.00    -0.504 OA
ATOM     15  H   UNL     1      12.080 -16.532  29.132  1.00  0.00     0.293 HD
ENDBRANCH   6  14
TORSDOF 4
ENDMDL
MODEL 7
REMARK VINA RESULT:    -4.720      8.491     10.580
REMARK INTER + INTRA:          -5.694
REMARK INTER:                  -5.543
REMARK INTRA:                  -0.151
REMARK UNBOUND:                -0.146
REMARK SMILES O=C([O-])C=Cc1ccc(O)c(O)c1
REMARK SMILES IDX 6 1 13 2 7 3 11 4 8 5 9 6 5 7 4 8 2 9 1 10 3 11 12 12 10 14
REMARK H PARENT 12 13 10 15
REMARK Flexibility Score: inf
ROOT
ATOM      1  C   UNL     1      13.641 -14.402  32.502  1.00  0.00    -0.022 A 
ATOM      2  C   UNL     1      13.577 -14.069  31.134  1.00  0.00     0.058 A 
ATOM      3  C   UNL     1      13.285 -15.700  32.901  1.00  0.00     0.012 A 
ATOM      4  C   UNL     1      13.188 -15.026  30.185  1.00  0.00     0.157 A 
ATOM      5  C   UNL     1      12.898 -16.653  31.957  1.00  0.00     0.051 A 
ATOM      6  C   UNL     1      12.851 -16.325  30.599  1.00  0.00     0.157 A 
ENDROOT
BRANCH   1   7
ATOM      7  C   UNL     1      14.036 -13.421  33.544  1.00  0.00     0.010 C 
ATOM      8  C   UNL     1      14.233 -13.740  34.831  1.00  0.00     0.025 C 
BRANCH   8   9
ATOM      9  C   UNL     1      14.614 -12.737  35.839  1.00  0.00     0.064 C 
ATOM     10  O   UNL     1      15.491 -12.985  36.708  1.00  0.00    -0.545 OA
ATOM     11  O   UNL     1      13.993 -11.495  35.833  1.00  0.00    -0.545 OA
ENDBRANCH   8   9
ENDBRANCH   1   7
BRANCH   4  12
ATOM     12  O   UNL     1      13.129 -14.689  28.833  1.00  0.00    -0.504 OA
ATOM     13  H   UNL     1      12.939 -15.384  28.120  1.00  0.00     0.293 HD
ENDBRANCH   4  12
BRANCH   6  14
ATOM     14  O   UNL     1      12.463 -17.299  29.679  1.00  0.00    -0.504 OA
ATOM     15  H   UNL     1      12.363 -18.273  29.936  1.00  0.00     0.293 HD
ENDBRANCH   6  14
TORSDOF 4
ENDMDL
MODEL 8
REMARK VINA RESULT:    -4.656      1.573      2.323
REMARK INTER + INTRA:          -5.619
REMARK INTER:                  -5.497
REMARK INTRA:                  -0.122
REMARK UNBOUND:                -0.146
REMARK SMILES O=C([O-])C=Cc1ccc(O)c(O)c1
REMARK SMILES IDX 6 1 13 2 7 3 11 4 8 5 9 6 5 7 4 8 2 9 1 10 3 11 12 12 10 14
REMARK H PARENT 12 13 10 15
REMARK Flexibility Score: inf
ROOT
ATOM      1  C   UNL     1      14.863 -11.726  25.069  1.00  0.00    -0.022 A 
ATOM      2  C   UNL     1      15.114 -10.845  23.997  1.00  0.00     0.058 A 
ATOM      3  C   UNL     1      13.998 -11.316  26.095  1.00  0.00     0.012 A 
ATOM      4  C   UNL     1      14.490  -9.591  23.945  1.00  0.00     0.157 A 
ATOM      5  C   UNL     1      13.376 -10.067  26.043  1.00  0.00     0.051 A 
ATOM      6  C   UNL     1      13.614  -9.202  24.972  1.00  0.00     0.157 A 
ENDROOT
BRANCH   1   7
ATOM      7  C   UNL     1      15.508 -13.060  25.174  1.00  0.00     0.010 C 
ATOM      8  C   UNL     1      16.734 -13.333  24.706  1.00  0.00     0.025 C 
BRANCH   8   9
ATOM      9  C   UNL     1      17.337 -14.671  24.819  1.00  0.00     0.064 C 
ATOM     10  O   UNL     1      17.517 -15.394  23.802  1.00  0.00    -0.545 OA
ATOM     11  O   UNL     1      17.714 -15.147  26.068  1.00  0.00    -0.545 OA
ENDBRANCH   8   9
ENDBRANCH   1   7
BRANCH   4  12
ATOM     12  O   UNL     1      14.743  -8.726  22.880  1.00  0.00    -0.504 OA
ATOM     13  H   UNL     1      15.507  -8.061  22.906  1.00  0.00     0.293 HD
ENDBRANCH   4  12
BRANCH   6  14
ATOM     14  O   UNL     1      12.976  -7.962  24.946  1.00  0.00    -0.504 OA
ATOM     15  H   UNL     1      12.081  -7.807  25.394  1.00  0.00     0.293 HD
ENDBRANCH   6  14
TORSDOF 4
ENDMDL
