MODEL 1
REMARK VINA RESULT:    -3.756      0.000      0.000
REMARK INTER + INTRA:         -14.956
REMARK INTER:                  -9.905
REMARK INTRA:                  -5.051
REMARK UNBOUND:                -5.051
REMARK SMILES CCCCCCCCCCCCCCCCCCCCCCCCCCCCCC(=O)[O-]
REMARK SMILES IDX 16 1 17 2 18 3 19 4 20 5 21 6 22 7 23 8 24 9 25 10 26 11
REMARK SMILES IDX 27 12 28 13 29 14 30 15 31 16 32 17 15 18 14 19 13 20 12 21
REMARK SMILES IDX 11 22 10 23 9 24 8 25 7 26 6 27 5 28 4 29 3 30 2 31 1 32
REMARK H PARENT
REMARK Flexibility Score: inf
ROOT
ATOM      1  C   UNL     1       9.814  48.994  92.349  1.00  0.00     0.000 C 
ENDROOT
BRANCH   1   2
ATOM      2  C   UNL     1       8.498  48.286  92.722  1.00  0.00     0.000 C 
BRANCH   2   3
ATOM      3  C   UNL     1       7.944  48.612  94.122  1.00  0.00     0.000 C 
BRANCH   3   4
ATOM      4  C   UNL     1       7.766  47.364  95.003  1.00  0.00     0.000 C 
BRANCH   4   5
ATOM      5  C   UNL     1       8.360  46.094  94.367  1.00  0.00     0.000 C 
BRANCH   5   6
ATOM      6  C   UNL     1       9.549  45.473  95.128  1.00  0.00     0.000 C 
BRANCH   6   7
ATOM      7  C   UNL     1      10.728  45.015  94.245  1.00  0.00     0.000 C 
BRANCH   7   8
ATOM      8  C   UNL     1      10.626  45.429  92.767  1.00  0.00     0.000 C 
BRANCH   8   9
ATOM      9  C   UNL     1      12.003  45.590  92.099  1.00  0.00     0.000 C 
BRANCH   9  10
ATOM     10  C   UNL     1      12.269  44.523  91.025  1.00  0.00     0.000 C 
BRANCH  10  11
ATOM     11  C   UNL     1      13.560  43.728  91.292  1.00  0.00     0.000 C 
BRANCH  11  12
ATOM     12  C   UNL     1      14.006  43.804  92.761  1.00  0.00     0.000 C 
BRANCH  12  13
ATOM     13  C   UNL     1      14.032  42.428  93.449  1.00  0.00     0.006 C 
BRANCH  13  14
ATOM     14  C   UNL     1      12.845  42.232  94.401  1.00  0.00     0.053 C 
BRANCH  14  15
ATOM     15  C   UNL     1      13.271  42.243  95.839  1.00  0.00     0.041 C 
ATOM     16  O   UNL     1      14.495  42.251  96.138  1.00  0.00    -0.550 OA
ATOM     17  O   UNL     1      12.315  42.275  96.846  1.00  0.00    -0.550 OA
ENDBRANCH  14  15
ENDBRANCH  13  14
ENDBRANCH  12  13
ENDBRANCH  11  12
ENDBRANCH  10  11
ENDBRANCH   9  10
ENDBRANCH   8   9
ENDBRANCH   7   8
ENDBRANCH   6   7
ENDBRANCH   5   6
ENDBRANCH   4   5
ENDBRANCH   3   4
ENDBRANCH   2   3
ENDBRANCH   1   2
BRANCH   1  18
ATOM     18  C   UNL     1      10.396  49.833  93.500  1.00  0.00     0.000 C 
BRANCH  18  19
ATOM     19  C   UNL     1      11.814  49.393  93.909  1.00  0.00     0.000 C 
BRANCH  19  20
ATOM     20  C   UNL     1      11.875  48.320  95.012  1.00  0.00     0.000 C 
BRANCH  20  21
ATOM     21  C   UNL     1      11.019  48.674  96.239  1.00  0.00     0.000 C 
BRANCH  21  22
ATOM     22  C   UNL     1      11.836  49.336  97.363  1.00  0.00     0.000 C 
BRANCH  22  23
ATOM     23  C   UNL     1      13.365  49.306  97.152  1.00  0.00     0.000 C 
BRANCH  23  24
ATOM     24  C   UNL     1      14.021  50.680  96.903  1.00  0.00    -0.000 C 
BRANCH  24  25
ATOM     25  C   UNL     1      14.948  50.744  95.677  1.00  0.00    -0.000 C 
BRANCH  25  26
ATOM     26  C   UNL     1      15.575  49.385  95.336  1.00  0.00    -0.000 C 
BRANCH  26  27
ATOM     27  C   UNL     1      15.352  49.027  93.860  1.00  0.00    -0.000 C 
BRANCH  27  28
ATOM     28  C   UNL     1      16.396  48.034  93.320  1.00  0.00    -0.000 C 
BRANCH  28  29
ATOM     29  C   UNL     1      17.156  47.274  94.427  1.00  0.00    -0.000 C 
BRANCH  29  30
ATOM     30  C   UNL     1      18.058  46.166  93.856  1.00  0.00    -0.000 C 
BRANCH  30  31
ATOM     31  C   UNL     1      17.268  45.112  93.067  1.00  0.00    -0.003 C 
ATOM     32  C   UNL     1      17.616  45.116  91.577  1.00  0.00     0.004 C 
ENDBRANCH  30  31
ENDBRANCH  29  30
ENDBRANCH  28  29
ENDBRANCH  27  28
ENDBRANCH  26  27
ENDBRANCH  25  26
ENDBRANCH  24  25
ENDBRANCH  23  24
ENDBRANCH  22  23
ENDBRANCH  21  22
ENDBRANCH  20  21
ENDBRANCH  19  20
ENDBRANCH  18  19
ENDBRANCH   1  18
TORSDOF 28
ENDMDL
MODEL 2
REMARK VINA RESULT:    -3.614      2.321      5.653
REMARK INTER + INTRA:         -14.580
REMARK INTER:                 -11.639
REMARK INTRA:                  -2.941
REMARK UNBOUND:                -5.051
REMARK SMILES CCCCCCCCCCCCCCCCCCCCCCCCCCCCCC(=O)[O-]
REMARK SMILES IDX 16 1 17 2 18 3 19 4 20 5 21 6 22 7 23 8 24 9 25 10 26 11
REMARK SMILES IDX 27 12 28 13 29 14 30 15 31 16 32 17 15 18 14 19 13 20 12 21
REMARK SMILES IDX 11 22 10 23 9 24 8 25 7 26 6 27 5 28 4 29 3 30 2 31 1 32
REMARK H PARENT
REMARK Flexibility Score: inf
ROOT
ATOM      1  C   UNL     1      15.189  50.080  95.875  1.00  0.00     0.000 C 
ENDROOT
BRANCH   1   2
ATOM      2  C   UNL     1      13.774  49.516  96.098  1.00  0.00     0.000 C 
BRANCH   2   3
ATOM      3  C   UNL     1      13.099  49.921  97.422  1.00  0.00     0.000 C 
BRANCH   3   4
ATOM      4  C   UNL     1      11.724  49.261  97.622  1.00  0.00     0.000 C 
BRANCH   4   5
ATOM      5  C   UNL     1      11.239  48.501  96.374  1.00  0.00     0.000 C 
BRANCH   5   6
ATOM      6  C   UNL     1       9.935  47.700  96.559  1.00  0.00     0.000 C 
BRANCH   6   7
ATOM      7  C   UNL     1       9.261  47.230  95.253  1.00  0.00     0.000 C 
BRANCH   7   8
ATOM      8  C   UNL     1       9.818  45.916  94.677  1.00  0.00     0.000 C 
BRANCH   8   9
ATOM      9  C   UNL     1      10.819  46.148  93.532  1.00  0.00     0.000 C 
BRANCH   9  10
ATOM     10  C   UNL     1      10.678  45.115  92.403  1.00  0.00     0.000 C 
BRANCH  10  11
ATOM     11  C   UNL     1      12.032  44.736  91.779  1.00  0.00     0.000 C 
BRANCH  11  12
ATOM     12  C   UNL     1      12.873  43.835  92.698  1.00  0.00     0.000 C 
BRANCH  12  13
ATOM     13  C   UNL     1      12.019  42.839  93.502  1.00  0.00     0.006 C 
BRANCH  13  14
ATOM     14  C   UNL     1      12.674  42.456  94.835  1.00  0.00     0.053 C 
BRANCH  14  15
ATOM     15  C   UNL     1      11.689  42.456  95.965  1.00  0.00     0.041 C 
ATOM     16  O   UNL     1      10.474  42.716  95.748  1.00  0.00    -0.550 OA
ATOM     17  O   UNL     1      12.106  42.138  97.251  1.00  0.00    -0.550 OA
ENDBRANCH  14  15
ENDBRANCH  13  14
ENDBRANCH  12  13
ENDBRANCH  11  12
ENDBRANCH  10  11
ENDBRANCH   9  10
ENDBRANCH   8   9
ENDBRANCH   7   8
ENDBRANCH   6   7
ENDBRANCH   5   6
ENDBRANCH   4   5
ENDBRANCH   3   4
ENDBRANCH   2   3
ENDBRANCH   1   2
BRANCH   1  18
ATOM     18  C   UNL     1      15.603  50.106  94.394  1.00  0.00     0.000 C 
BRANCH  18  19
ATOM     19  C   UNL     1      15.848  48.702  93.811  1.00  0.00     0.000 C 
BRANCH  19  20
ATOM     20  C   UNL     1      16.800  47.810  94.628  1.00  0.00     0.000 C 
BRANCH  20  21
ATOM     21  C   UNL     1      17.352  46.624  93.819  1.00  0.00     0.000 C 
BRANCH  21  22
ATOM     22  C   UNL     1      16.726  46.519  92.417  1.00  0.00     0.000 C 
BRANCH  22  23
ATOM     23  C   UNL     1      15.847  45.270  92.195  1.00  0.00     0.000 C 
BRANCH  23  24
ATOM     24  C   UNL     1      15.932  44.650  90.786  1.00  0.00    -0.000 C 
BRANCH  24  25
ATOM     25  C   UNL     1      16.023  43.114  90.756  1.00  0.00    -0.000 C 
BRANCH  25  26
ATOM     26  C   UNL     1      16.493  42.523  92.093  1.00  0.00    -0.000 C 
BRANCH  26  27
ATOM     27  C   UNL     1      15.590  41.361  92.531  1.00  0.00    -0.000 C 
BRANCH  27  28
ATOM     28  C   UNL     1      15.935  40.829  93.933  1.00  0.00    -0.000 C 
BRANCH  28  29
ATOM     29  C   UNL     1      16.425  39.365  93.933  1.00  0.00    -0.000 C 
BRANCH  29  30
ATOM     30  C   UNL     1      17.642  39.161  94.853  1.00  0.00    -0.000 C 
BRANCH  30  31
ATOM     31  C   UNL     1      17.257  38.571  96.218  1.00  0.00    -0.003 C 
ATOM     32  C   UNL     1      18.467  38.376  97.133  1.00  0.00     0.004 C 
ENDBRANCH  30  31
ENDBRANCH  29  30
ENDBRANCH  28  29
ENDBRANCH  27  28
ENDBRANCH  26  27
ENDBRANCH  25  26
ENDBRANCH  24  25
ENDBRANCH  23  24
ENDBRANCH  22  23
ENDBRANCH  21  22
ENDBRANCH  20  21
ENDBRANCH  19  20
ENDBRANCH  18  19
ENDBRANCH   1  18
TORSDOF 28
ENDMDL
MODEL 3
REMARK VINA RESULT:    -3.584      5.106      8.448
REMARK INTER + INTRA:         -14.501
REMARK INTER:                 -11.016
REMARK INTRA:                  -3.485
REMARK UNBOUND:                -5.051
REMARK SMILES CCCCCCCCCCCCCCCCCCCCCCCCCCCCCC(=O)[O-]
REMARK SMILES IDX 16 1 17 2 18 3 19 4 20 5 21 6 22 7 23 8 24 9 25 10 26 11
REMARK SMILES IDX 27 12 28 13 29 14 30 15 31 16 32 17 15 18 14 19 13 20 12 21
REMARK SMILES IDX 11 22 10 23 9 24 8 25 7 26 6 27 5 28 4 29 3 30 2 31 1 32
REMARK H PARENT
REMARK Flexibility Score: inf
ROOT
ATOM      1  C   UNL     1      13.082  49.273  97.240  1.00  0.00     0.000 C 
ENDROOT
BRANCH   1   2
ATOM      2  C   UNL     1      13.890  50.539  96.898  1.00  0.00     0.000 C 
BRANCH   2   3
ATOM      3  C   UNL     1      14.145  50.778  95.398  1.00  0.00     0.000 C 
BRANCH   3   4
ATOM      4  C   UNL     1      15.608  50.534  94.990  1.00  0.00     0.000 C 
BRANCH   4   5
ATOM      5  C   UNL     1      15.891  49.061  94.639  1.00  0.00     0.000 C 
BRANCH   5   6
ATOM      6  C   UNL     1      15.639  48.677  93.167  1.00  0.00     0.000 C 
BRANCH   6   7
ATOM      7  C   UNL     1      16.633  47.658  92.574  1.00  0.00     0.000 C 
BRANCH   7   8
ATOM      8  C   UNL     1      16.611  47.552  91.039  1.00  0.00     0.000 C 
BRANCH   8   9
ATOM      9  C   UNL     1      16.867  48.903  90.348  1.00  0.00     0.000 C 
BRANCH   9  10
ATOM     10  C   UNL     1      17.976  48.825  89.287  1.00  0.00     0.000 C 
BRANCH  10  11
ATOM     11  C   UNL     1      19.270  49.528  89.735  1.00  0.00     0.000 C 
BRANCH  11  12
ATOM     12  C   UNL     1      19.503  50.858  89.001  1.00  0.00     0.000 C 
BRANCH  12  13
ATOM     13  C   UNL     1      18.444  51.136  87.918  1.00  0.00     0.006 C 
BRANCH  13  14
ATOM     14  C   UNL     1      19.043  51.134  86.506  1.00  0.00     0.053 C 
BRANCH  14  15
ATOM     15  C   UNL     1      19.606  52.473  86.133  1.00  0.00     0.041 C 
ATOM     16  O   UNL     1      20.734  52.556  85.577  1.00  0.00    -0.550 OA
ATOM     17  O   UNL     1      18.870  53.627  86.373  1.00  0.00    -0.550 OA
ENDBRANCH  14  15
ENDBRANCH  13  14
ENDBRANCH  12  13
ENDBRANCH  11  12
ENDBRANCH  10  11
ENDBRANCH   9  10
ENDBRANCH   8   9
ENDBRANCH   7   8
ENDBRANCH   6   7
ENDBRANCH   5   6
ENDBRANCH   4   5
ENDBRANCH   3   4
ENDBRANCH   2   3
ENDBRANCH   1   2
BRANCH   1  18
ATOM     18  C   UNL     1      11.646  49.580  97.700  1.00  0.00     0.000 C 
BRANCH  18  19
ATOM     19  C   UNL     1      10.763  48.322  97.798  1.00  0.00     0.000 C 
BRANCH  19  20
ATOM     20  C   UNL     1       9.264  48.551  97.530  1.00  0.00     0.000 C 
BRANCH  20  21
ATOM     21  C   UNL     1       8.843  50.020  97.698  1.00  0.00     0.000 C 
BRANCH  21  22
ATOM     22  C   UNL     1       7.788  50.458  96.666  1.00  0.00     0.000 C 
BRANCH  22  23
ATOM     23  C   UNL     1       7.393  49.369  95.646  1.00  0.00     0.000 C 
BRANCH  23  24
ATOM     24  C   UNL     1       7.548  49.769  94.165  1.00  0.00    -0.000 C 
BRANCH  24  25
ATOM     25  C   UNL     1       8.149  51.165  93.927  1.00  0.00    -0.000 C 
BRANCH  25  26
ATOM     26  C   UNL     1       9.228  51.168  92.834  1.00  0.00    -0.000 C 
BRANCH  26  27
ATOM     27  C   UNL     1       9.808  49.762  92.628  1.00  0.00    -0.000 C 
BRANCH  27  28
ATOM     28  C   UNL     1      11.163  49.564  93.330  1.00  0.00    -0.000 C 
BRANCH  28  29
ATOM     29  C   UNL     1      11.202  48.331  94.258  1.00  0.00    -0.000 C 
BRANCH  29  30
ATOM     30  C   UNL     1      10.312  47.187  93.740  1.00  0.00    -0.000 C 
BRANCH  30  31
ATOM     31  C   UNL     1      10.002  46.145  94.824  1.00  0.00    -0.003 C 
ATOM     32  C   UNL     1      10.636  44.785  94.526  1.00  0.00     0.004 C 
ENDBRANCH  30  31
ENDBRANCH  29  30
ENDBRANCH  28  29
ENDBRANCH  27  28
ENDBRANCH  26  27
ENDBRANCH  25  26
ENDBRANCH  24  25
ENDBRANCH  23  24
ENDBRANCH  22  23
ENDBRANCH  21  22
ENDBRANCH  20  21
ENDBRANCH  19  20
ENDBRANCH  18  19
ENDBRANCH   1  18
TORSDOF 28
ENDMDL
MODEL 4
REMARK VINA RESULT:    -3.548      3.104      4.834
REMARK INTER + INTRA:         -14.408
REMARK INTER:                 -10.762
REMARK INTRA:                  -3.645
REMARK UNBOUND:                -5.051
REMARK SMILES CCCCCCCCCCCCCCCCCCCCCCCCCCCCCC(=O)[O-]
REMARK SMILES IDX 16 1 17 2 18 3 19 4 20 5 21 6 22 7 23 8 24 9 25 10 26 11
REMARK SMILES IDX 27 12 28 13 29 14 30 15 31 16 32 17 15 18 14 19 13 20 12 21
REMARK SMILES IDX 11 22 10 23 9 24 8 25 7 26 6 27 5 28 4 29 3 30 2 31 1 32
REMARK H PARENT
REMARK Flexibility Score: inf
ROOT
ATOM      1  C   UNL     1      10.393  47.431  94.714  1.00  0.00     0.000 C 
ENDROOT
BRANCH   1   2
ATOM      2  C   UNL     1       9.788  46.039  94.975  1.00  0.00     0.000 C 
BRANCH   2   3
ATOM      3  C   UNL     1      10.781  44.863  94.915  1.00  0.00     0.000 C 
BRANCH   3   4
ATOM      4  C   UNL     1      10.236  43.583  95.570  1.00  0.00     0.000 C 
BRANCH   4   5
ATOM      5  C   UNL     1      11.349  42.590  95.956  1.00  0.00     0.000 C 
BRANCH   5   6
ATOM      6  C   UNL     1      12.619  42.656  95.084  1.00  0.00     0.000 C 
BRANCH   6   7
ATOM      7  C   UNL     1      13.919  42.203  95.780  1.00  0.00     0.000 C 
BRANCH   7   8
ATOM      8  C   UNL     1      14.992  41.633  94.836  1.00  0.00     0.000 C 
BRANCH   8   9
ATOM      9  C   UNL     1      14.968  42.289  93.445  1.00  0.00     0.000 C 
BRANCH   9  10
ATOM     10  C   UNL     1      15.095  41.266  92.305  1.00  0.00     0.000 C 
BRANCH  10  11
ATOM     11  C   UNL     1      15.395  41.930  90.949  1.00  0.00     0.000 C 
BRANCH  11  12
ATOM     12  C   UNL     1      14.550  41.345  89.806  1.00  0.00     0.000 C 
BRANCH  12  13
ATOM     13  C   UNL     1      14.201  39.861  90.020  1.00  0.00     0.006 C 
BRANCH  13  14
ATOM     14  C   UNL     1      12.744  39.548  89.655  1.00  0.00     0.053 C 
BRANCH  14  15
ATOM     15  C   UNL     1      12.648  38.531  88.557  1.00  0.00     0.041 C 
ATOM     16  O   UNL     1      12.820  37.308  88.809  1.00  0.00    -0.550 OA
ATOM     17  O   UNL     1      12.338  38.931  87.264  1.00  0.00    -0.550 OA
ENDBRANCH  14  15
ENDBRANCH  13  14
ENDBRANCH  12  13
ENDBRANCH  11  12
ENDBRANCH  10  11
ENDBRANCH   9  10
ENDBRANCH   8   9
ENDBRANCH   7   8
ENDBRANCH   6   7
ENDBRANCH   5   6
ENDBRANCH   4   5
ENDBRANCH   3   4
ENDBRANCH   2   3
ENDBRANCH   1   2
BRANCH   1  18
ATOM     18  C   UNL     1      10.920  48.109  95.991  1.00  0.00     0.000 C 
BRANCH  18  19
ATOM     19  C   UNL     1      12.214  48.912  95.758  1.00  0.00     0.000 C 
BRANCH  19  20
ATOM     20  C   UNL     1      12.975  49.315  97.034  1.00  0.00     0.000 C 
BRANCH  20  21
ATOM     21  C   UNL     1      13.923  50.506  96.816  1.00  0.00     0.000 C 
BRANCH  21  22
ATOM     22  C   UNL     1      14.182  50.792  95.325  1.00  0.00     0.000 C 
BRANCH  22  23
ATOM     23  C   UNL     1      15.566  50.342  94.813  1.00  0.00     0.000 C 
BRANCH  23  24
ATOM     24  C   UNL     1      15.983  48.913  95.216  1.00  0.00    -0.000 C 
BRANCH  24  25
ATOM     25  C   UNL     1      16.561  48.058  94.075  1.00  0.00    -0.000 C 
BRANCH  25  26
ATOM     26  C   UNL     1      15.710  48.121  92.799  1.00  0.00    -0.000 C 
BRANCH  26  27
ATOM     27  C   UNL     1      16.147  47.049  91.790  1.00  0.00    -0.000 C 
BRANCH  27  28
ATOM     28  C   UNL     1      15.313  45.759  91.887  1.00  0.00    -0.000 C 
BRANCH  28  29
ATOM     29  C   UNL     1      14.745  45.289  90.531  1.00  0.00    -0.000 C 
BRANCH  29  30
ATOM     30  C   UNL     1      13.209  45.209  90.542  1.00  0.00    -0.000 C 
BRANCH  30  31
ATOM     31  C   UNL     1      12.663  44.536  91.810  1.00  0.00    -0.003 C 
ATOM     32  C   UNL     1      11.907  43.242  91.506  1.00  0.00     0.004 C 
ENDBRANCH  30  31
ENDBRANCH  29  30
ENDBRANCH  28  29
ENDBRANCH  27  28
ENDBRANCH  26  27
ENDBRANCH  25  26
ENDBRANCH  24  25
ENDBRANCH  23  24
ENDBRANCH  22  23
ENDBRANCH  21  22
ENDBRANCH  20  21
ENDBRANCH  19  20
ENDBRANCH  18  19
ENDBRANCH   1  18
TORSDOF 28
ENDMDL
MODEL 5
REMARK VINA RESULT:    -3.530      2.263      5.992
REMARK INTER + INTRA:         -14.359
REMARK INTER:                 -10.676
REMARK INTRA:                  -3.683
REMARK UNBOUND:                -5.051
REMARK SMILES CCCCCCCCCCCCCCCCCCCCCCCCCCCCCC(=O)[O-]
REMARK SMILES IDX 16 1 17 2 18 3 19 4 20 5 21 6 22 7 23 8 24 9 25 10 26 11
REMARK SMILES IDX 27 12 28 13 29 14 30 15 31 16 32 17 15 18 14 19 13 20 12 21
REMARK SMILES IDX 11 22 10 23 9 24 8 25 7 26 6 27 5 28 4 29 3 30 2 31 1 32
REMARK H PARENT
REMARK Flexibility Score: inf
ROOT
ATOM      1  C   UNL     1      12.814  49.412  97.315  1.00  0.00     0.000 C 
ENDROOT
BRANCH   1   2
ATOM      2  C   UNL     1      11.400  48.804  97.348  1.00  0.00     0.000 C 
BRANCH   2   3
ATOM      3  C   UNL     1      10.354  49.599  98.151  1.00  0.00     0.000 C 
BRANCH   3   4
ATOM      4  C   UNL     1       8.907  49.209  97.807  1.00  0.00     0.000 C 
BRANCH   4   5
ATOM      5  C   UNL     1       8.556  49.461  96.329  1.00  0.00     0.000 C 
BRANCH   5   6
ATOM      6  C   UNL     1       7.779  50.763  96.051  1.00  0.00     0.000 C 
BRANCH   6   7
ATOM      7  C   UNL     1       6.808  50.707  94.854  1.00  0.00     0.000 C 
BRANCH   7   8
ATOM      8  C   UNL     1       7.486  50.710  93.473  1.00  0.00     0.000 C 
BRANCH   8   9
ATOM      9  C   UNL     1       8.585  51.780  93.353  1.00  0.00     0.000 C 
BRANCH   9  10
ATOM     10  C   UNL     1       9.799  51.294  92.546  1.00  0.00     0.000 C 
BRANCH  10  11
ATOM     11  C   UNL     1       9.935  49.762  92.551  1.00  0.00     0.000 C 
BRANCH  11  12
ATOM     12  C   UNL     1      10.832  49.253  93.691  1.00  0.00     0.000 C 
BRANCH  12  13
ATOM     13  C   UNL     1      11.362  47.829  93.444  1.00  0.00     0.006 C 
BRANCH  13  14
ATOM     14  C   UNL     1      10.650  46.785  94.313  1.00  0.00     0.053 C 
BRANCH  14  15
ATOM     15  C   UNL     1       9.338  46.364  93.723  1.00  0.00     0.041 C 
ATOM     16  O   UNL     1       9.280  45.947  92.534  1.00  0.00    -0.550 OA
ATOM     17  O   UNL     1       8.184  46.404  94.495  1.00  0.00    -0.550 OA
ENDBRANCH  14  15
ENDBRANCH  13  14
ENDBRANCH  12  13
ENDBRANCH  11  12
ENDBRANCH  10  11
ENDBRANCH   9  10
ENDBRANCH   8   9
ENDBRANCH   7   8
ENDBRANCH   6   7
ENDBRANCH   5   6
ENDBRANCH   4   5
ENDBRANCH   3   4
ENDBRANCH   2   3
ENDBRANCH   1   2
BRANCH   1  18
ATOM     18  C   UNL     1      13.395  49.512  95.894  1.00  0.00     0.000 C 
BRANCH  18  19
ATOM     19  C   UNL     1      14.244  50.779  95.678  1.00  0.00     0.000 C 
BRANCH  19  20
ATOM     20  C   UNL     1      15.620  50.543  95.027  1.00  0.00     0.000 C 
BRANCH  20  21
ATOM     21  C   UNL     1      15.875  49.066  94.684  1.00  0.00     0.000 C 
BRANCH  21  22
ATOM     22  C   UNL     1      15.716  48.769  93.182  1.00  0.00     0.000 C 
BRANCH  22  23
ATOM     23  C   UNL     1      16.544  47.572  92.670  1.00  0.00     0.000 C 
BRANCH  23  24
ATOM     24  C   UNL     1      15.770  46.563  91.797  1.00  0.00    -0.000 C 
BRANCH  24  25
ATOM     25  C   UNL     1      15.769  45.116  92.322  1.00  0.00    -0.000 C 
BRANCH  25  26
ATOM     26  C   UNL     1      15.076  44.139  91.361  1.00  0.00    -0.000 C 
BRANCH  26  27
ATOM     27  C   UNL     1      13.717  44.684  90.903  1.00  0.00    -0.000 C 
BRANCH  27  28
ATOM     28  C   UNL     1      12.657  44.669  92.019  1.00  0.00    -0.000 C 
BRANCH  28  29
ATOM     29  C   UNL     1      11.854  43.353  92.089  1.00  0.00    -0.000 C 
BRANCH  29  30
ATOM     30  C   UNL     1      12.225  42.512  93.323  1.00  0.00    -0.000 C 
BRANCH  30  31
ATOM     31  C   UNL     1      11.728  43.140  94.634  1.00  0.00    -0.003 C 
ATOM     32  C   UNL     1      11.400  42.090  95.697  1.00  0.00     0.004 C 
ENDBRANCH  30  31
ENDBRANCH  29  30
ENDBRANCH  28  29
ENDBRANCH  27  28
ENDBRANCH  26  27
ENDBRANCH  25  26
ENDBRANCH  24  25
ENDBRANCH  23  24
ENDBRANCH  22  23
ENDBRANCH  21  22
ENDBRANCH  20  21
ENDBRANCH  19  20
ENDBRANCH  18  19
ENDBRANCH   1  18
TORSDOF 28
ENDMDL
MODEL 6
REMARK VINA RESULT:    -3.482      3.166      6.576
REMARK INTER + INTRA:         -14.234
REMARK INTER:                  -9.674
REMARK INTRA:                  -4.560
REMARK UNBOUND:                -5.051
REMARK SMILES CCCCCCCCCCCCCCCCCCCCCCCCCCCCCC(=O)[O-]
REMARK SMILES IDX 16 1 17 2 18 3 19 4 20 5 21 6 22 7 23 8 24 9 25 10 26 11
REMARK SMILES IDX 27 12 28 13 29 14 30 15 31 16 32 17 15 18 14 19 13 20 12 21
REMARK SMILES IDX 11 22 10 23 9 24 8 25 7 26 6 27 5 28 4 29 3 30 2 31 1 32
REMARK H PARENT
REMARK Flexibility Score: inf
ROOT
ATOM      1  C   UNL     1      12.572  49.647  97.537  1.00  0.00     0.000 C 
ENDROOT
BRANCH   1   2
ATOM      2  C   UNL     1      11.382  48.871  96.944  1.00  0.00     0.000 C 
BRANCH   2   3
ATOM      3  C   UNL     1      11.621  48.246  95.557  1.00  0.00     0.000 C 
BRANCH   3   4
ATOM      4  C   UNL     1      11.309  49.211  94.401  1.00  0.00     0.000 C 
BRANCH   4   5
ATOM      5  C   UNL     1      10.375  48.592  93.343  1.00  0.00     0.000 C 
BRANCH   5   6
ATOM      6  C   UNL     1      10.373  47.051  93.290  1.00  0.00     0.000 C 
BRANCH   6   7
ATOM      7  C   UNL     1       9.016  46.407  92.943  1.00  0.00     0.000 C 
BRANCH   7   8
ATOM      8  C   UNL     1       8.087  46.171  94.147  1.00  0.00     0.000 C 
BRANCH   8   9
ATOM      9  C   UNL     1       8.857  45.811  95.429  1.00  0.00     0.000 C 
BRANCH   9  10
ATOM     10  C   UNL     1       8.407  46.640  96.643  1.00  0.00     0.000 C 
BRANCH  10  11
ATOM     11  C   UNL     1       7.678  47.933  96.235  1.00  0.00     0.000 C 
BRANCH  11  12
ATOM     12  C   UNL     1       7.892  49.074  97.242  1.00  0.00     0.000 C 
BRANCH  12  13
ATOM     13  C   UNL     1       7.821  50.467  96.590  1.00  0.00     0.006 C 
BRANCH  13  14
ATOM     14  C   UNL     1       7.663  50.388  95.066  1.00  0.00     0.053 C 
BRANCH  14  15
ATOM     15  C   UNL     1       7.927  51.707  94.405  1.00  0.00     0.041 C 
ATOM     16  O   UNL     1       8.569  51.758  93.322  1.00  0.00    -0.550 OA
ATOM     17  O   UNL     1       7.437  52.878  94.971  1.00  0.00    -0.550 OA
ENDBRANCH  14  15
ENDBRANCH  13  14
ENDBRANCH  12  13
ENDBRANCH  11  12
ENDBRANCH  10  11
ENDBRANCH   9  10
ENDBRANCH   8   9
ENDBRANCH   7   8
ENDBRANCH   6   7
ENDBRANCH   5   6
ENDBRANCH   4   5
ENDBRANCH   3   4
ENDBRANCH   2   3
ENDBRANCH   1   2
BRANCH   1  18
ATOM     18  C   UNL     1      13.897  49.371  96.804  1.00  0.00     0.000 C 
BRANCH  18  19
ATOM     19  C   UNL     1      14.544  50.644  96.227  1.00  0.00     0.000 C 
BRANCH  19  20
ATOM     20  C   UNL     1      15.578  50.406  95.112  1.00  0.00     0.000 C 
BRANCH  20  21
ATOM     21  C   UNL     1      15.039  49.525  93.973  1.00  0.00     0.000 C 
BRANCH  21  22
ATOM     22  C   UNL     1      16.001  48.384  93.598  1.00  0.00     0.000 C 
BRANCH  22  23
ATOM     23  C   UNL     1      16.807  47.805  94.779  1.00  0.00     0.000 C 
BRANCH  23  24
ATOM     24  C   UNL     1      17.601  46.520  94.467  1.00  0.00    -0.000 C 
BRANCH  24  25
ATOM     25  C   UNL     1      17.543  46.061  93.000  1.00  0.00    -0.000 C 
BRANCH  25  26
ATOM     26  C   UNL     1      16.817  44.718  92.827  1.00  0.00    -0.000 C 
BRANCH  26  27
ATOM     27  C   UNL     1      15.443  44.913  92.171  1.00  0.00    -0.000 C 
BRANCH  27  28
ATOM     28  C   UNL     1      15.200  43.953  90.994  1.00  0.00    -0.000 C 
BRANCH  28  29
ATOM     29  C   UNL     1      13.944  43.072  91.166  1.00  0.00    -0.000 C 
BRANCH  29  30
ATOM     30  C   UNL     1      12.897  43.727  92.084  1.00  0.00    -0.000 C 
BRANCH  30  31
ATOM     31  C   UNL     1      12.509  42.830  93.269  1.00  0.00    -0.003 C 
ATOM     32  C   UNL     1      11.619  43.553  94.282  1.00  0.00     0.004 C 
ENDBRANCH  30  31
ENDBRANCH  29  30
ENDBRANCH  28  29
ENDBRANCH  27  28
ENDBRANCH  26  27
ENDBRANCH  25  26
ENDBRANCH  24  25
ENDBRANCH  23  24
ENDBRANCH  22  23
ENDBRANCH  21  22
ENDBRANCH  20  21
ENDBRANCH  19  20
ENDBRANCH  18  19
ENDBRANCH   1  18
TORSDOF 28
ENDMDL
MODEL 7
REMARK VINA RESULT:    -3.425      2.646      7.458
REMARK INTER + INTRA:         -14.084
REMARK INTER:                 -10.271
REMARK INTRA:                  -3.812
REMARK UNBOUND:                -5.051
REMARK SMILES CCCCCCCCCCCCCCCCCCCCCCCCCCCCCC(=O)[O-]
REMARK SMILES IDX 16 1 17 2 18 3 19 4 20 5 21 6 22 7 23 8 24 9 25 10 26 11
REMARK SMILES IDX 27 12 28 13 29 14 30 15 31 16 32 17 15 18 14 19 13 20 12 21
REMARK SMILES IDX 11 22 10 23 9 24 8 25 7 26 6 27 5 28 4 29 3 30 2 31 1 32
REMARK H PARENT
REMARK Flexibility Score: inf
ROOT
ATOM      1  C   UNL     1      16.749  47.762  94.611  1.00  0.00     0.000 C 
ENDROOT
BRANCH   1   2
ATOM      2  C   UNL     1      15.707  48.825  94.216  1.00  0.00     0.000 C 
BRANCH   2   3
ATOM      3  C   UNL     1      15.864  50.195  94.904  1.00  0.00     0.000 C 
BRANCH   3   4
ATOM      4  C   UNL     1      14.652  50.574  95.772  1.00  0.00     0.000 C 
BRANCH   4   5
ATOM      5  C   UNL     1      14.079  49.376  96.552  1.00  0.00     0.000 C 
BRANCH   5   6
ATOM      6  C   UNL     1      12.543  49.355  96.688  1.00  0.00     0.000 C 
BRANCH   6   7
ATOM      7  C   UNL     1      11.788  48.698  95.515  1.00  0.00     0.000 C 
BRANCH   7   8
ATOM      8  C   UNL     1      11.987  49.386  94.153  1.00  0.00     0.000 C 
BRANCH   8   9
ATOM      9  C   UNL     1      10.808  49.152  93.192  1.00  0.00     0.000 C 
BRANCH   9  10
ATOM     10  C   UNL     1       9.966  50.417  92.967  1.00  0.00     0.000 C 
BRANCH  10  11
ATOM     11  C   UNL     1       8.582  50.330  93.635  1.00  0.00     0.000 C 
BRANCH  11  12
ATOM     12  C   UNL     1       8.276  48.925  94.177  1.00  0.00     0.000 C 
BRANCH  12  13
ATOM     13  C   UNL     1       7.910  48.929  95.672  1.00  0.00     0.006 C 
BRANCH  13  14
ATOM     14  C   UNL     1       8.160  50.294  96.329  1.00  0.00     0.053 C 
BRANCH  14  15
ATOM     15  C   UNL     1       8.327  50.179  97.814  1.00  0.00     0.041 C 
ATOM     16  O   UNL     1       7.322  50.248  98.573  1.00  0.00    -0.550 OA
ATOM     17  O   UNL     1       9.587  49.968  98.358  1.00  0.00    -0.550 OA
ENDBRANCH  14  15
ENDBRANCH  13  14
ENDBRANCH  12  13
ENDBRANCH  11  12
ENDBRANCH  10  11
ENDBRANCH   9  10
ENDBRANCH   8   9
ENDBRANCH   7   8
ENDBRANCH   6   7
ENDBRANCH   5   6
ENDBRANCH   4   5
ENDBRANCH   3   4
ENDBRANCH   2   3
ENDBRANCH   1   2
BRANCH   1  18
ATOM     18  C   UNL     1      17.350  47.027  93.400  1.00  0.00     0.000 C 
BRANCH  18  19
ATOM     19  C   UNL     1      16.858  47.584  92.051  1.00  0.00     0.000 C 
BRANCH  19  20
ATOM     20  C   UNL     1      15.745  46.765  91.371  1.00  0.00     0.000 C 
BRANCH  20  21
ATOM     21  C   UNL     1      15.708  45.300  91.839  1.00  0.00     0.000 C 
BRANCH  21  22
ATOM     22  C   UNL     1      14.368  44.611  91.527  1.00  0.00     0.000 C 
BRANCH  22  23
ATOM     23  C   UNL     1      13.117  45.437  91.892  1.00  0.00     0.000 C 
BRANCH  23  24
ATOM     24  C   UNL     1      11.778  44.678  91.794  1.00  0.00    -0.000 C 
BRANCH  24  25
ATOM     25  C   UNL     1      10.549  45.560  91.510  1.00  0.00    -0.000 C 
BRANCH  25  26
ATOM     26  C   UNL     1       9.645  45.731  92.739  1.00  0.00    -0.000 C 
BRANCH  26  27
ATOM     27  C   UNL     1      10.476  45.851  94.024  1.00  0.00    -0.000 C 
BRANCH  27  28
ATOM     28  C   UNL     1       9.754  45.287  95.260  1.00  0.00    -0.000 C 
BRANCH  28  29
ATOM     29  C   UNL     1      10.063  43.798  95.528  1.00  0.00    -0.000 C 
BRANCH  29  30
ATOM     30  C   UNL     1      11.434  43.380  94.968  1.00  0.00    -0.000 C 
BRANCH  30  31
ATOM     31  C   UNL     1      11.961  42.086  95.605  1.00  0.00    -0.003 C 
ATOM     32  C   UNL     1      11.929  42.132  97.133  1.00  0.00     0.004 C 
ENDBRANCH  30  31
ENDBRANCH  29  30
ENDBRANCH  28  29
ENDBRANCH  27  28
ENDBRANCH  26  27
ENDBRANCH  25  26
ENDBRANCH  24  25
ENDBRANCH  23  24
ENDBRANCH  22  23
ENDBRANCH  21  22
ENDBRANCH  20  21
ENDBRANCH  19  20
ENDBRANCH  18  19
ENDBRANCH   1  18
TORSDOF 28
ENDMDL
MODEL 8
REMARK VINA RESULT:    -3.291      1.544      2.063
REMARK INTER + INTRA:         -13.728
REMARK INTER:                  -9.486
REMARK INTRA:                  -4.242
REMARK UNBOUND:                -5.051
REMARK SMILES CCCCCCCCCCCCCCCCCCCCCCCCCCCCCC(=O)[O-]
REMARK SMILES IDX 16 1 17 2 18 3 19 4 20 5 21 6 22 7 23 8 24 9 25 10 26 11
REMARK SMILES IDX 27 12 28 13 29 14 30 15 31 16 32 17 15 18 14 19 13 20 12 21
REMARK SMILES IDX 11 22 10 23 9 24 8 25 7 26 6 27 5 28 4 29 3 30 2 31 1 32
REMARK H PARENT
REMARK Flexibility Score: inf
ROOT
ATOM      1  C   UNL     1       9.755  48.838  92.283  1.00  0.00     0.000 C 
ENDROOT
BRANCH   1   2
ATOM      2  C   UNL     1       8.790  47.722  92.723  1.00  0.00     0.000 C 
BRANCH   2   3
ATOM      3  C   UNL     1       7.429  48.197  93.268  1.00  0.00     0.000 C 
BRANCH   3   4
ATOM      4  C   UNL     1       7.252  47.917  94.770  1.00  0.00     0.000 C 
BRANCH   4   5
ATOM      5  C   UNL     1       7.680  46.492  95.166  1.00  0.00     0.000 C 
BRANCH   5   6
ATOM      6  C   UNL     1       8.723  46.411  96.299  1.00  0.00     0.000 C 
BRANCH   6   7
ATOM      7  C   UNL     1       9.760  45.279  96.159  1.00  0.00     0.000 C 
BRANCH   7   8
ATOM      8  C   UNL     1       9.839  44.646  94.758  1.00  0.00     0.000 C 
BRANCH   8   9
ATOM      9  C   UNL     1      11.188  44.904  94.066  1.00  0.00     0.000 C 
BRANCH   9  10
ATOM     10  C   UNL     1      11.099  44.798  92.535  1.00  0.00     0.000 C 
BRANCH  10  11
ATOM     11  C   UNL     1      12.251  43.975  91.934  1.00  0.00     0.000 C 
BRANCH  11  12
ATOM     12  C   UNL     1      13.111  43.291  93.008  1.00  0.00     0.000 C 
BRANCH  12  13
ATOM     13  C   UNL     1      14.610  43.607  92.863  1.00  0.00     0.006 C 
BRANCH  13  14
ATOM     14  C   UNL     1      15.248  42.868  91.680  1.00  0.00     0.053 C 
BRANCH  14  15
ATOM     15  C   UNL     1      15.096  41.381  91.799  1.00  0.00     0.041 C 
ATOM     16  O   UNL     1      14.445  40.737  90.932  1.00  0.00    -0.550 OA
ATOM     17  O   UNL     1      15.698  40.703  92.851  1.00  0.00    -0.550 OA
ENDBRANCH  14  15
ENDBRANCH  13  14
ENDBRANCH  12  13
ENDBRANCH  11  12
ENDBRANCH  10  11
ENDBRANCH   9  10
ENDBRANCH   8   9
ENDBRANCH   7   8
ENDBRANCH   6   7
ENDBRANCH   5   6
ENDBRANCH   4   5
ENDBRANCH   3   4
ENDBRANCH   2   3
ENDBRANCH   1   2
BRANCH   1  18
ATOM     18  C   UNL     1      10.239  49.713  93.452  1.00  0.00     0.000 C 
BRANCH  18  19
ATOM     19  C   UNL     1      11.696  49.422  93.860  1.00  0.00     0.000 C 
BRANCH  19  20
ATOM     20  C   UNL     1      11.869  48.366  94.967  1.00  0.00     0.000 C 
BRANCH  20  21
ATOM     21  C   UNL     1      11.183  48.763  96.285  1.00  0.00     0.000 C 
BRANCH  21  22
ATOM     22  C   UNL     1      12.177  49.285  97.338  1.00  0.00     0.000 C 
BRANCH  22  23
ATOM     23  C   UNL     1      13.650  49.309  96.879  1.00  0.00     0.000 C 
BRANCH  23  24
ATOM     24  C   UNL     1      14.196  50.699  96.494  1.00  0.00    -0.000 C 
BRANCH  24  25
ATOM     25  C   UNL     1      15.216  50.700  95.342  1.00  0.00    -0.000 C 
BRANCH  25  26
ATOM     26  C   UNL     1      15.699  49.289  94.977  1.00  0.00    -0.000 C 
BRANCH  26  27
ATOM     27  C   UNL     1      15.384  48.959  93.511  1.00  0.00    -0.000 C 
BRANCH  27  28
ATOM     28  C   UNL     1      16.227  47.793  92.965  1.00  0.00    -0.000 C 
BRANCH  28  29
ATOM     29  C   UNL     1      17.110  47.116  94.035  1.00  0.00    -0.000 C 
BRANCH  29  30
ATOM     30  C   UNL     1      17.732  45.803  93.528  1.00  0.00    -0.000 C 
BRANCH  30  31
ATOM     31  C   UNL     1      19.247  45.918  93.301  1.00  0.00    -0.003 C 
ATOM     32  C   UNL     1      19.589  46.545  91.949  1.00  0.00     0.004 C 
ENDBRANCH  30  31
ENDBRANCH  29  30
ENDBRANCH  28  29
ENDBRANCH  27  28
ENDBRANCH  26  27
ENDBRANCH  25  26
ENDBRANCH  24  25
ENDBRANCH  23  24
ENDBRANCH  22  23
ENDBRANCH  21  22
ENDBRANCH  20  21
ENDBRANCH  19  20
ENDBRANCH  18  19
ENDBRANCH   1  18
TORSDOF 28
ENDMDL
MODEL 9
REMARK VINA RESULT:    -3.227      9.021     13.820
REMARK INTER + INTRA:         -13.560
REMARK INTER:                  -7.348
REMARK INTRA:                  -6.212
REMARK UNBOUND:                -5.051
REMARK SMILES CCCCCCCCCCCCCCCCCCCCCCCCCCCCCC(=O)[O-]
REMARK SMILES IDX 16 1 17 2 18 3 19 4 20 5 21 6 22 7 23 8 24 9 25 10 26 11
REMARK SMILES IDX 27 12 28 13 29 14 30 15 31 16 32 17 15 18 14 19 13 20 12 21
REMARK SMILES IDX 11 22 10 23 9 24 8 25 7 26 6 27 5 28 4 29 3 30 2 31 1 32
REMARK H PARENT
REMARK Flexibility Score: inf
ROOT
ATOM      1  C   UNL     1      12.765  34.962  85.029  1.00  0.00     0.000 C 
ENDROOT
BRANCH   1   2
ATOM      2  C   UNL     1      13.389  35.274  86.402  1.00  0.00     0.000 C 
BRANCH   2   3
ATOM      3  C   UNL     1      13.733  36.754  86.654  1.00  0.00     0.000 C 
BRANCH   3   4
ATOM      4  C   UNL     1      14.736  36.951  87.803  1.00  0.00     0.000 C 
BRANCH   4   5
ATOM      5  C   UNL     1      16.090  36.267  87.537  1.00  0.00     0.000 C 
BRANCH   5   6
ATOM      6  C   UNL     1      17.286  37.224  87.358  1.00  0.00     0.000 C 
BRANCH   6   7
ATOM      7  C   UNL     1      17.843  37.318  85.924  1.00  0.00     0.000 C 
BRANCH   7   8
ATOM      8  C   UNL     1      16.968  36.654  84.846  1.00  0.00     0.000 C 
BRANCH   8   9
ATOM      9  C   UNL     1      16.125  37.671  84.057  1.00  0.00     0.000 C 
BRANCH   9  10
ATOM     10  C   UNL     1      16.393  39.122  84.485  1.00  0.00     0.000 C 
BRANCH  10  11
ATOM     11  C   UNL     1      15.169  39.776  85.150  1.00  0.00     0.000 C 
BRANCH  11  12
ATOM     12  C   UNL     1      15.557  40.731  86.290  1.00  0.00     0.000 C 
BRANCH  12  13
ATOM     13  C   UNL     1      14.708  40.524  87.557  1.00  0.00     0.006 C 
BRANCH  13  14
ATOM     14  C   UNL     1      15.567  40.211  88.789  1.00  0.00     0.053 C 
BRANCH  14  15
ATOM     15  C   UNL     1      14.738  40.064  90.029  1.00  0.00     0.041 C 
ATOM     16  O   UNL     1      13.521  39.745  89.945  1.00  0.00    -0.550 OA
ATOM     17  O   UNL     1      15.317  40.250  91.278  1.00  0.00    -0.550 OA
ENDBRANCH  14  15
ENDBRANCH  13  14
ENDBRANCH  12  13
ENDBRANCH  11  12
ENDBRANCH  10  11
ENDBRANCH   9  10
ENDBRANCH   8   9
ENDBRANCH   7   8
ENDBRANCH   6   7
ENDBRANCH   5   6
ENDBRANCH   4   5
ENDBRANCH   3   4
ENDBRANCH   2   3
ENDBRANCH   1   2
BRANCH   1  18
ATOM     18  C   UNL     1      13.813  34.781  83.917  1.00  0.00     0.000 C 
BRANCH  18  19
ATOM     19  C   UNL     1      13.233  34.979  82.504  1.00  0.00     0.000 C 
BRANCH  19  20
ATOM     20  C   UNL     1      13.420  36.388  81.911  1.00  0.00     0.000 C 
BRANCH  20  21
ATOM     21  C   UNL     1      12.213  37.308  82.162  1.00  0.00     0.000 C 
BRANCH  21  22
ATOM     22  C   UNL     1      12.497  38.383  83.226  1.00  0.00     0.000 C 
BRANCH  22  23
ATOM     23  C   UNL     1      11.506  38.400  84.408  1.00  0.00     0.000 C 
BRANCH  23  24
ATOM     24  C   UNL     1      11.508  39.693  85.249  1.00  0.00    -0.000 C 
BRANCH  24  25
ATOM     25  C   UNL     1      11.304  39.487  86.760  1.00  0.00    -0.000 C 
BRANCH  25  26
ATOM     26  C   UNL     1       9.839  39.207  87.127  1.00  0.00    -0.000 C 
BRANCH  26  27
ATOM     27  C   UNL     1       9.740  38.354  88.398  1.00  0.00    -0.000 C 
BRANCH  27  28
ATOM     28  C   UNL     1      10.448  36.994  88.263  1.00  0.00    -0.000 C 
BRANCH  28  29
ATOM     29  C   UNL     1       9.877  36.111  87.133  1.00  0.00    -0.000 C 
BRANCH  29  30
ATOM     30  C   UNL     1       9.150  34.869  87.678  1.00  0.00    -0.000 C 
BRANCH  30  31
ATOM     31  C   UNL     1       7.645  35.105  87.873  1.00  0.00    -0.003 C 
ATOM     32  C   UNL     1       7.069  36.082  86.846  1.00  0.00     0.004 C 
ENDBRANCH  30  31
ENDBRANCH  29  30
ENDBRANCH  28  29
ENDBRANCH  27  28
ENDBRANCH  26  27
ENDBRANCH  25  26
ENDBRANCH  24  25
ENDBRANCH  23  24
ENDBRANCH  22  23
ENDBRANCH  21  22
ENDBRANCH  20  21
ENDBRANCH  19  20
ENDBRANCH  18  19
ENDBRANCH   1  18
TORSDOF 28
ENDMDL
