MODEL 1
REMARK VINA RESULT:    -4.606      0.000      0.000
REMARK INTER + INTRA:          -6.918
REMARK INTER:                  -6.221
REMARK INTRA:                  -0.697
REMARK UNBOUND:                -0.697
REMARK SMILES CCCCCCC=CC(=O)[O-]
REMARK SMILES IDX 5 1 6 2 7 3 8 4 9 5 10 6 11 7 4 8 3 9 2 10 1 11
REMARK H PARENT
REMARK Flexibility Score: inf
ROOT
ATOM      1  C   UNL     1     -27.805 -33.339 -13.737  1.00  0.00     0.004 C 
ENDROOT
BRANCH   1   2
ATOM      2  C   UNL     1     -27.882 -34.699 -13.021  1.00  0.00     0.027 C 
BRANCH   2   3
ATOM      3  C   UNL     1     -27.298 -34.620 -11.634  1.00  0.00    -0.025 C 
ATOM      4  C   UNL     1     -26.004 -34.776 -11.308  1.00  0.00     0.020 C 
BRANCH   4   5
ATOM      5  C   UNL     1     -24.879 -35.002 -12.238  1.00  0.00     0.064 C 
ATOM      6  O   UNL     1     -23.981 -34.140 -12.421  1.00  0.00    -0.545 OA
ATOM      7  O   UNL     1     -24.794 -36.216 -12.906  1.00  0.00    -0.545 OA
ENDBRANCH   4   5
ENDBRANCH   2   3
ENDBRANCH   1   2
BRANCH   1   8
ATOM      8  C   UNL     1     -28.558 -32.223 -12.981  1.00  0.00     0.000 C 
BRANCH   8   9
ATOM      9  C   UNL     1     -27.675 -31.025 -12.583  1.00  0.00    -0.000 C 
BRANCH   9  10
ATOM     10  C   UNL     1     -27.491 -30.827 -11.071  1.00  0.00    -0.003 C 
ATOM     11  C   UNL     1     -26.089 -31.193 -10.585  1.00  0.00     0.004 C 
ENDBRANCH   9  10
ENDBRANCH   8   9
ENDBRANCH   1   8
TORSDOF 6
ENDMDL
MODEL 2
REMARK VINA RESULT:    -4.514      2.387      4.311
REMARK INTER + INTRA:          -6.794
REMARK INTER:                  -6.121
REMARK INTRA:                  -0.673
REMARK UNBOUND:                -0.697
REMARK SMILES CCCCCCC=CC(=O)[O-]
REMARK SMILES IDX 5 1 6 2 7 3 8 4 9 5 10 6 11 7 4 8 3 9 2 10 1 11
REMARK H PARENT
REMARK Flexibility Score: inf
ROOT
ATOM      1  C   UNL     1     -27.762 -34.318 -11.962  1.00  0.00     0.004 C 
ENDROOT
BRANCH   1   2
ATOM      2  C   UNL     1     -27.624 -33.446 -13.222  1.00  0.00     0.027 C 
BRANCH   2   3
ATOM      3  C   UNL     1     -28.500 -32.223 -13.139  1.00  0.00    -0.025 C 
ATOM      4  C   UNL     1     -28.192 -31.064 -12.533  1.00  0.00     0.020 C 
BRANCH   4   5
ATOM      5  C   UNL     1     -26.915 -30.726 -11.872  1.00  0.00     0.064 C 
ATOM      6  O   UNL     1     -25.939 -30.251 -12.509  1.00  0.00    -0.545 OA
ATOM      7  O   UNL     1     -26.800 -30.907 -10.501  1.00  0.00    -0.545 OA
ENDBRANCH   4   5
ENDBRANCH   2   3
ENDBRANCH   1   2
BRANCH   1   8
ATOM      8  C   UNL     1     -26.415 -34.541 -11.241  1.00  0.00     0.000 C 
BRANCH   8   9
ATOM      9  C   UNL     1     -25.208 -33.893 -11.946  1.00  0.00    -0.000 C 
BRANCH   9  10
ATOM     10  C   UNL     1     -24.195 -34.882 -12.542  1.00  0.00    -0.003 C 
ATOM     11  C   UNL     1     -24.839 -36.185 -13.018  1.00  0.00     0.004 C 
ENDBRANCH   9  10
ENDBRANCH   8   9
ENDBRANCH   1   8
TORSDOF 6
ENDMDL
MODEL 3
REMARK VINA RESULT:    -4.508      2.091      3.583
REMARK INTER + INTRA:          -6.786
REMARK INTER:                  -6.176
REMARK INTRA:                  -0.611
REMARK UNBOUND:                -0.697
REMARK SMILES CCCCCCC=CC(=O)[O-]
REMARK SMILES IDX 5 1 6 2 7 3 8 4 9 5 10 6 11 7 4 8 3 9 2 10 1 11
REMARK H PARENT
REMARK Flexibility Score: inf
ROOT
ATOM      1  C   UNL     1     -25.927 -32.996 -11.458  1.00  0.00     0.004 C 
ENDROOT
BRANCH   1   2
ATOM      2  C   UNL     1     -24.521 -33.416 -11.922  1.00  0.00     0.027 C 
BRANCH   2   3
ATOM      3  C   UNL     1     -24.489 -34.868 -12.322  1.00  0.00    -0.025 C 
ATOM      4  C   UNL     1     -23.405 -35.562 -12.707  1.00  0.00     0.020 C 
BRANCH   4   5
ATOM      5  C   UNL     1     -22.014 -35.067 -12.766  1.00  0.00     0.064 C 
ATOM      6  O   UNL     1     -21.124 -35.484 -11.980  1.00  0.00    -0.545 OA
ATOM      7  O   UNL     1     -21.673 -34.139 -13.739  1.00  0.00    -0.545 OA
ENDBRANCH   4   5
ENDBRANCH   2   3
ENDBRANCH   1   2
BRANCH   1   8
ATOM      8  C   UNL     1     -26.917 -34.179 -11.410  1.00  0.00     0.000 C 
BRANCH   8   9
ATOM      9  C   UNL     1     -28.195 -33.965 -12.244  1.00  0.00    -0.000 C 
BRANCH   9  10
ATOM     10  C   UNL     1     -27.966 -33.809 -13.755  1.00  0.00    -0.003 C 
ATOM     11  C   UNL     1     -27.622 -35.128 -14.448  1.00  0.00     0.004 C 
ENDBRANCH   9  10
ENDBRANCH   8   9
ENDBRANCH   1   8
TORSDOF 6
ENDMDL
MODEL 4
REMARK VINA RESULT:    -4.494      2.846      4.671
REMARK INTER + INTRA:          -6.766
REMARK INTER:                  -6.135
REMARK INTRA:                  -0.631
REMARK UNBOUND:                -0.697
REMARK SMILES CCCCCCC=CC(=O)[O-]
REMARK SMILES IDX 5 1 6 2 7 3 8 4 9 5 10 6 11 7 4 8 3 9 2 10 1 11
REMARK H PARENT
REMARK Flexibility Score: inf
ROOT
ATOM      1  C   UNL     1     -25.300 -33.830 -11.978  1.00  0.00     0.004 C 
ENDROOT
BRANCH   1   2
ATOM      2  C   UNL     1     -25.448 -32.400 -11.429  1.00  0.00     0.027 C 
BRANCH   2   3
ATOM      3  C   UNL     1     -25.452 -31.385 -12.542  1.00  0.00    -0.025 C 
ATOM      4  C   UNL     1     -26.503 -30.651 -12.944  1.00  0.00     0.020 C 
BRANCH   4   5
ATOM      5  C   UNL     1     -27.855 -30.645 -12.348  1.00  0.00     0.064 C 
ATOM      6  O   UNL     1     -28.066 -30.237 -11.177  1.00  0.00    -0.545 OA
ATOM      7  O   UNL     1     -28.929 -31.070 -13.117  1.00  0.00    -0.545 OA
ENDBRANCH   4   5
ENDBRANCH   2   3
ENDBRANCH   1   2
BRANCH   1   8
ATOM      8  C   UNL     1     -26.482 -34.744 -11.589  1.00  0.00     0.000 C 
BRANCH   8   9
ATOM      9  C   UNL     1     -27.828 -34.334 -12.218  1.00  0.00    -0.000 C 
BRANCH   9  10
ATOM     10  C   UNL     1     -27.796 -34.117 -13.738  1.00  0.00    -0.003 C 
ATOM     11  C   UNL     1     -27.532 -35.404 -14.521  1.00  0.00     0.004 C 
ENDBRANCH   9  10
ENDBRANCH   8   9
ENDBRANCH   1   8
TORSDOF 6
ENDMDL
MODEL 5
REMARK VINA RESULT:    -4.419      1.300      2.775
REMARK INTER + INTRA:          -6.666
REMARK INTER:                  -6.055
REMARK INTRA:                  -0.611
REMARK UNBOUND:                -0.697
REMARK SMILES CCCCCCC=CC(=O)[O-]
REMARK SMILES IDX 5 1 6 2 7 3 8 4 9 5 10 6 11 7 4 8 3 9 2 10 1 11
REMARK H PARENT
REMARK Flexibility Score: inf
ROOT
ATOM      1  C   UNL     1     -25.876 -31.610 -12.844  1.00  0.00     0.004 C 
ENDROOT
BRANCH   1   2
ATOM      2  C   UNL     1     -24.818 -32.525 -12.203  1.00  0.00     0.027 C 
BRANCH   2   3
ATOM      3  C   UNL     1     -25.458 -33.574 -11.331  1.00  0.00    -0.025 C 
ATOM      4  C   UNL     1     -25.381 -34.904 -11.501  1.00  0.00     0.020 C 
BRANCH   4   5
ATOM      5  C   UNL     1     -24.610 -35.618 -12.540  1.00  0.00     0.064 C 
ATOM      6  O   UNL     1     -25.168 -36.341 -13.405  1.00  0.00    -0.545 OA
ATOM      7  O   UNL     1     -23.232 -35.459 -12.583  1.00  0.00    -0.545 OA
ENDBRANCH   4   5
ENDBRANCH   2   3
ENDBRANCH   1   2
BRANCH   1   8
ATOM      8  C   UNL     1     -27.251 -31.712 -12.150  1.00  0.00     0.000 C 
BRANCH   8   9
ATOM      9  C   UNL     1     -28.367 -32.285 -13.045  1.00  0.00    -0.000 C 
BRANCH   9  10
ATOM     10  C   UNL     1     -28.443 -33.819 -13.087  1.00  0.00    -0.003 C 
ATOM     11  C   UNL     1     -27.831 -34.414 -14.356  1.00  0.00     0.004 C 
ENDBRANCH   9  10
ENDBRANCH   8   9
ENDBRANCH   1   8
TORSDOF 6
ENDMDL
MODEL 6
REMARK VINA RESULT:    -4.198      1.962      3.976
REMARK INTER + INTRA:          -6.368
REMARK INTER:                  -5.731
REMARK INTRA:                  -0.637
REMARK UNBOUND:                -0.697
REMARK SMILES CCCCCCC=CC(=O)[O-]
REMARK SMILES IDX 5 1 6 2 7 3 8 4 9 5 10 6 11 7 4 8 3 9 2 10 1 11
REMARK H PARENT
REMARK Flexibility Score: inf
ROOT
ATOM      1  C   UNL     1     -25.859 -31.703 -11.540  1.00  0.00     0.004 C 
ENDROOT
BRANCH   1   2
ATOM      2  C   UNL     1     -26.426 -31.769 -12.969  1.00  0.00     0.027 C 
BRANCH   2   3
ATOM      3  C   UNL     1     -27.925 -31.922 -12.957  1.00  0.00    -0.025 C 
ATOM      4  C   UNL     1     -28.604 -33.070 -12.796  1.00  0.00     0.020 C 
BRANCH   4   5
ATOM      5  C   UNL     1     -28.031 -34.408 -12.545  1.00  0.00     0.064 C 
ATOM      6  O   UNL     1     -27.765 -34.812 -11.384  1.00  0.00    -0.545 OA
ATOM      7  O   UNL     1     -27.812 -35.257 -13.620  1.00  0.00    -0.545 OA
ENDBRANCH   4   5
ENDBRANCH   2   3
ENDBRANCH   1   2
BRANCH   1   8
ATOM      8  C   UNL     1     -24.844 -32.829 -11.249  1.00  0.00     0.000 C 
BRANCH   8   9
ATOM      9  C   UNL     1     -23.736 -32.968 -12.310  1.00  0.00    -0.000 C 
BRANCH   9  10
ATOM     10  C   UNL     1     -23.280 -34.408 -12.591  1.00  0.00    -0.003 C 
ATOM     11  C   UNL     1     -24.426 -35.419 -12.540  1.00  0.00     0.004 C 
ENDBRANCH   9  10
ENDBRANCH   8   9
ENDBRANCH   1   8
TORSDOF 6
ENDMDL
MODEL 7
REMARK VINA RESULT:    -4.184      2.893      4.853
REMARK INTER + INTRA:          -6.348
REMARK INTER:                  -6.013
REMARK INTRA:                  -0.336
REMARK UNBOUND:                -0.697
REMARK SMILES CCCCCCC=CC(=O)[O-]
REMARK SMILES IDX 5 1 6 2 7 3 8 4 9 5 10 6 11 7 4 8 3 9 2 10 1 11
REMARK H PARENT
REMARK Flexibility Score: inf
ROOT
ATOM      1  C   UNL     1     -24.516 -35.492 -12.532  1.00  0.00     0.004 C 
ENDROOT
BRANCH   1   2
ATOM      2  C   UNL     1     -25.224 -34.247 -11.968  1.00  0.00     0.027 C 
BRANCH   2   3
ATOM      3  C   UNL     1     -26.548 -34.607 -11.345  1.00  0.00    -0.025 C 
ATOM      4  C   UNL     1     -27.763 -34.342 -11.853  1.00  0.00     0.020 C 
BRANCH   4   5
ATOM      5  C   UNL     1     -28.057 -33.695 -13.148  1.00  0.00     0.064 C 
ATOM      6  O   UNL     1     -28.434 -32.498 -13.225  1.00  0.00    -0.545 OA
ATOM      7  O   UNL     1     -27.880 -34.422 -14.317  1.00  0.00    -0.545 OA
ENDBRANCH   4   5
ENDBRANCH   2   3
ENDBRANCH   1   2
BRANCH   1   8
ATOM      8  C   UNL     1     -22.986 -35.308 -12.641  1.00  0.00     0.000 C 
BRANCH   8   9
ATOM      9  C   UNL     1     -22.530 -33.838 -12.688  1.00  0.00    -0.000 C 
BRANCH   9  10
ATOM     10  C   UNL     1     -21.053 -33.627 -13.055  1.00  0.00    -0.003 C 
ATOM     11  C   UNL     1     -20.777 -33.798 -14.549  1.00  0.00     0.004 C 
ENDBRANCH   9  10
ENDBRANCH   8   9
ENDBRANCH   1   8
TORSDOF 6
ENDMDL
MODEL 8
REMARK VINA RESULT:    -4.179      1.691      2.823
REMARK INTER + INTRA:          -6.341
REMARK INTER:                  -5.676
REMARK INTRA:                  -0.665
REMARK UNBOUND:                -0.697
REMARK SMILES CCCCCCC=CC(=O)[O-]
REMARK SMILES IDX 5 1 6 2 7 3 8 4 9 5 10 6 11 7 4 8 3 9 2 10 1 11
REMARK H PARENT
REMARK Flexibility Score: inf
ROOT
ATOM      1  C   UNL     1     -27.891 -30.924 -11.885  1.00  0.00     0.004 C 
ENDROOT
BRANCH   1   2
ATOM      2  C   UNL     1     -27.915 -32.193 -12.755  1.00  0.00     0.027 C 
BRANCH   2   3
ATOM      3  C   UNL     1     -28.196 -33.419 -11.925  1.00  0.00    -0.025 C 
ATOM      4  C   UNL     1     -27.882 -34.685 -12.247  1.00  0.00     0.020 C 
BRANCH   4   5
ATOM      5  C   UNL     1     -27.151 -35.135 -13.449  1.00  0.00     0.064 C 
ATOM      6  O   UNL     1     -25.962 -35.541 -13.393  1.00  0.00    -0.545 OA
ATOM      7  O   UNL     1     -27.808 -35.142 -14.671  1.00  0.00    -0.545 OA
ENDBRANCH   4   5
ENDBRANCH   2   3
ENDBRANCH   1   2
BRANCH   1   8
ATOM      8  C   UNL     1     -26.690 -30.888 -10.916  1.00  0.00     0.000 C 
BRANCH   8   9
ATOM      9  C   UNL     1     -25.325 -31.104 -11.597  1.00  0.00    -0.000 C 
BRANCH   9  10
ATOM     10  C   UNL     1     -24.551 -32.344 -11.124  1.00  0.00    -0.003 C 
ATOM     11  C   UNL     1     -23.793 -33.044 -12.252  1.00  0.00     0.004 C 
ENDBRANCH   9  10
ENDBRANCH   8   9
ENDBRANCH   1   8
TORSDOF 6
ENDMDL
MODEL 9
REMARK VINA RESULT:    -4.105      2.429      4.632
REMARK INTER + INTRA:          -6.242
REMARK INTER:                  -5.861
REMARK INTRA:                  -0.380
REMARK UNBOUND:                -0.697
REMARK SMILES CCCCCCC=CC(=O)[O-]
REMARK SMILES IDX 5 1 6 2 7 3 8 4 9 5 10 6 11 7 4 8 3 9 2 10 1 11
REMARK H PARENT
REMARK Flexibility Score: inf
ROOT
ATOM      1  C   UNL     1     -25.560 -35.715 -13.217  1.00  0.00     0.004 C 
ENDROOT
BRANCH   1   2
ATOM      2  C   UNL     1     -26.657 -35.014 -12.397  1.00  0.00     0.027 C 
BRANCH   2   3
ATOM      3  C   UNL     1     -27.691 -34.383 -13.294  1.00  0.00    -0.025 C 
ATOM      4  C   UNL     1     -27.998 -33.077 -13.355  1.00  0.00     0.020 C 
BRANCH   4   5
ATOM      5  C   UNL     1     -27.355 -31.982 -12.601  1.00  0.00     0.064 C 
ATOM      6  O   UNL     1     -27.894 -31.461 -11.590  1.00  0.00    -0.545 OA
ATOM      7  O   UNL     1     -26.102 -31.537 -13.000  1.00  0.00    -0.545 OA
ENDBRANCH   4   5
ENDBRANCH   2   3
ENDBRANCH   1   2
BRANCH   1   8
ATOM      8  C   UNL     1     -24.170 -35.625 -12.552  1.00  0.00     0.000 C 
BRANCH   8   9
ATOM      9  C   UNL     1     -23.560 -34.210 -12.557  1.00  0.00    -0.000 C 
BRANCH   9  10
ATOM     10  C   UNL     1     -22.070 -34.145 -12.926  1.00  0.00    -0.003 C 
ATOM     11  C   UNL     1     -21.321 -35.443 -12.624  1.00  0.00     0.004 C 
ENDBRANCH   9  10
ENDBRANCH   8   9
ENDBRANCH   1   8
TORSDOF 6
ENDMDL
