MODEL 1
REMARK VINA RESULT:    -3.045      0.000      0.000
REMARK INTER + INTRA:          -5.866
REMARK INTER:                  -4.647
REMARK INTRA:                  -1.220
REMARK UNBOUND:                -1.220
REMARK SMILES CCCCCCCCCCC(=O)[O-]
REMARK SMILES IDX 7 1 8 2 9 3 10 4 11 5 12 6 13 7 6 8 5 9 4 10 3 11 2 12 1 13
REMARK H PARENT
REMARK Flexibility Score: inf
ROOT
ATOM      1  C   UNL     1      84.993  28.742  27.201  1.00  0.00     0.000 C 
ENDROOT
BRANCH   1   2
ATOM      2  C   UNL     1      85.289  27.322  26.695  1.00  0.00     0.000 C 
BRANCH   2   3
ATOM      3  C   UNL     1      86.587  26.781  27.307  1.00  0.00     0.006 C 
BRANCH   3   4
ATOM      4  C   UNL     1      86.362  26.310  28.748  1.00  0.00     0.053 C 
BRANCH   4   5
ATOM      5  C   UNL     1      85.549  25.055  28.768  1.00  0.00     0.041 C 
ATOM      6  O   UNL     1      84.428  25.035  29.341  1.00  0.00    -0.550 OA
ATOM      7  O   UNL     1      86.007  23.920  28.109  1.00  0.00    -0.550 OA
ENDBRANCH   4   5
ENDBRANCH   3   4
ENDBRANCH   2   3
ENDBRANCH   1   2
BRANCH   1   8
ATOM      8  C   UNL     1      86.084  29.752  26.808  1.00  0.00     0.000 C 
BRANCH   8   9
ATOM      9  C   UNL     1      86.437  30.716  27.953  1.00  0.00    -0.000 C 
BRANCH   9  10
ATOM     10  C   UNL     1      87.307  30.054  29.034  1.00  0.00    -0.000 C 
BRANCH  10  11
ATOM     11  C   UNL     1      88.813  30.187  28.749  1.00  0.00    -0.000 C 
BRANCH  11  12
ATOM     12  C   UNL     1      89.454  28.854  28.333  1.00  0.00    -0.003 C 
ATOM     13  C   UNL     1      89.729  28.776  26.832  1.00  0.00     0.004 C 
ENDBRANCH  11  12
ENDBRANCH  10  11
ENDBRANCH   9  10
ENDBRANCH   8   9
ENDBRANCH   1   8
TORSDOF 9
ENDMDL
MODEL 2
REMARK VINA RESULT:    -3.025      3.179      4.990
REMARK INTER + INTRA:          -5.836
REMARK INTER:                  -4.579
REMARK INTRA:                  -1.257
REMARK UNBOUND:                -1.220
REMARK SMILES CCCCCCCCCCC(=O)[O-]
REMARK SMILES IDX 7 1 8 2 9 3 10 4 11 5 12 6 13 7 6 8 5 9 4 10 3 11 2 12 1 13
REMARK H PARENT
REMARK Flexibility Score: inf
ROOT
ATOM      1  C   UNL     1      87.680  30.625  28.210  1.00  0.00     0.000 C 
ENDROOT
BRANCH   1   2
ATOM      2  C   UNL     1      89.001  30.112  28.804  1.00  0.00     0.000 C 
BRANCH   2   3
ATOM      3  C   UNL     1      89.453  28.824  28.105  1.00  0.00     0.006 C 
BRANCH   3   4
ATOM      4  C   UNL     1      88.995  28.802  26.643  1.00  0.00     0.053 C 
BRANCH   4   5
ATOM      5  C   UNL     1      90.137  29.128  25.732  1.00  0.00     0.041 C 
ATOM      6  O   UNL     1      90.783  28.205  25.171  1.00  0.00    -0.550 OA
ATOM      7  O   UNL     1      90.454  30.454  25.462  1.00  0.00    -0.550 OA
ENDBRANCH   4   5
ENDBRANCH   3   4
ENDBRANCH   2   3
ENDBRANCH   1   2
BRANCH   1   8
ATOM      8  C   UNL     1      86.531  30.628  29.231  1.00  0.00     0.000 C 
BRANCH   8   9
ATOM      9  C   UNL     1      85.184  30.225  28.606  1.00  0.00    -0.000 C 
BRANCH   9  10
ATOM     10  C   UNL     1      84.911  28.716  28.719  1.00  0.00    -0.000 C 
BRANCH  10  11
ATOM     11  C   UNL     1      85.237  27.953  27.423  1.00  0.00    -0.000 C 
BRANCH  11  12
ATOM     12  C   UNL     1      86.145  26.738  27.667  1.00  0.00    -0.003 C 
ATOM     13  C   UNL     1      86.654  26.664  29.106  1.00  0.00     0.004 C 
ENDBRANCH  11  12
ENDBRANCH  10  11
ENDBRANCH   9  10
ENDBRANCH   8   9
ENDBRANCH   1   8
TORSDOF 9
ENDMDL
MODEL 3
REMARK VINA RESULT:    -2.998      1.106      1.851
REMARK INTER + INTRA:          -5.795
REMARK INTER:                  -4.624
REMARK INTRA:                  -1.170
REMARK UNBOUND:                -1.220
REMARK SMILES CCCCCCCCCCC(=O)[O-]
REMARK SMILES IDX 7 1 8 2 9 3 10 4 11 5 12 6 13 7 6 8 5 9 4 10 3 11 2 12 1 13
REMARK H PARENT
REMARK Flexibility Score: inf
ROOT
ATOM      1  C   UNL     1      85.809  30.371  27.245  1.00  0.00     0.000 C 
ENDROOT
BRANCH   1   2
ATOM      2  C   UNL     1      85.500  28.924  27.659  1.00  0.00     0.000 C 
BRANCH   2   3
ATOM      3  C   UNL     1      85.842  27.945  26.529  1.00  0.00     0.006 C 
BRANCH   3   4
ATOM      4  C   UNL     1      86.532  26.692  27.077  1.00  0.00     0.053 C 
BRANCH   4   5
ATOM      5  C   UNL     1      86.134  26.454  28.499  1.00  0.00     0.041 C 
ATOM      6  O   UNL     1      85.016  25.943  28.767  1.00  0.00    -0.550 OA
ATOM      7  O   UNL     1      87.020  26.751  29.528  1.00  0.00    -0.550 OA
ENDBRANCH   4   5
ENDBRANCH   3   4
ENDBRANCH   2   3
ENDBRANCH   1   2
BRANCH   1   8
ATOM      8  C   UNL     1      86.601  31.138  28.316  1.00  0.00     0.000 C 
BRANCH   8   9
ATOM      9  C   UNL     1      87.507  30.218  29.153  1.00  0.00    -0.000 C 
BRANCH   9  10
ATOM     10  C   UNL     1      88.969  30.243  28.680  1.00  0.00    -0.000 C 
BRANCH  10  11
ATOM     11  C   UNL     1      89.496  28.847  28.301  1.00  0.00    -0.000 C 
BRANCH  11  12
ATOM     12  C   UNL     1      89.607  28.652  26.781  1.00  0.00    -0.003 C 
ATOM     13  C   UNL     1      89.516  29.969  26.011  1.00  0.00     0.004 C 
ENDBRANCH  11  12
ENDBRANCH  10  11
ENDBRANCH   9  10
ENDBRANCH   8   9
ENDBRANCH   1   8
TORSDOF 9
ENDMDL
MODEL 4
REMARK VINA RESULT:    -2.916      1.138      2.775
REMARK INTER + INTRA:          -5.670
REMARK INTER:                  -4.413
REMARK INTRA:                  -1.257
REMARK UNBOUND:                -1.220
REMARK SMILES CCCCCCCCCCC(=O)[O-]
REMARK SMILES IDX 7 1 8 2 9 3 10 4 11 5 12 6 13 7 6 8 5 9 4 10 3 11 2 12 1 13
REMARK H PARENT
REMARK Flexibility Score: inf
ROOT
ATOM      1  C   UNL     1      88.160  28.447  26.943  1.00  0.00     0.000 C 
ENDROOT
BRANCH   1   2
ATOM      2  C   UNL     1      87.024  27.418  27.052  1.00  0.00     0.000 C 
BRANCH   2   3
ATOM      3  C   UNL     1      86.794  27.009  28.512  1.00  0.00     0.006 C 
BRANCH   3   4
ATOM      4  C   UNL     1      85.310  26.732  28.778  1.00  0.00     0.053 C 
BRANCH   4   5
ATOM      5  C   UNL     1      85.061  25.259  28.872  1.00  0.00     0.041 C 
ATOM      6  O   UNL     1      85.862  24.446  28.342  1.00  0.00    -0.550 OA
ATOM      7  O   UNL     1      83.970  24.784  29.589  1.00  0.00    -0.550 OA
ENDBRANCH   4   5
ENDBRANCH   3   4
ENDBRANCH   2   3
ENDBRANCH   1   2
BRANCH   1   8
ATOM      8  C   UNL     1      88.975  28.571  28.240  1.00  0.00     0.000 C 
BRANCH   8   9
ATOM      9  C   UNL     1      88.928  29.990  28.833  1.00  0.00    -0.000 C 
BRANCH   9  10
ATOM     10  C   UNL     1      87.666  30.762  28.413  1.00  0.00    -0.000 C 
BRANCH  10  11
ATOM     11  C   UNL     1      86.558  30.718  29.480  1.00  0.00    -0.000 C 
BRANCH  11  12
ATOM     12  C   UNL     1      85.149  30.743  28.867  1.00  0.00    -0.003 C 
ATOM     13  C   UNL     1      85.169  30.648  27.341  1.00  0.00     0.004 C 
ENDBRANCH  11  12
ENDBRANCH  10  11
ENDBRANCH   9  10
ENDBRANCH   8   9
ENDBRANCH   1   8
TORSDOF 9
ENDMDL
MODEL 5
REMARK VINA RESULT:    -2.913      2.723      4.865
REMARK INTER + INTRA:          -5.665
REMARK INTER:                  -4.510
REMARK INTRA:                  -1.155
REMARK UNBOUND:                -1.220
REMARK SMILES CCCCCCCCCCC(=O)[O-]
REMARK SMILES IDX 7 1 8 2 9 3 10 4 11 5 12 6 13 7 6 8 5 9 4 10 3 11 2 12 1 13
REMARK H PARENT
REMARK Flexibility Score: inf
ROOT
ATOM      1  C   UNL     1      88.547  28.561  25.784  1.00  0.00     0.000 C 
ENDROOT
BRANCH   1   2
ATOM      2  C   UNL     1      89.671  28.819  26.800  1.00  0.00     0.000 C 
BRANCH   2   3
ATOM      3  C   UNL     1      89.120  28.847  28.231  1.00  0.00     0.006 C 
BRANCH   3   4
ATOM      4  C   UNL     1      88.963  30.287  28.732  1.00  0.00     0.053 C 
BRANCH   4   5
ATOM      5  C   UNL     1      87.547  30.744  28.578  1.00  0.00     0.041 C 
ATOM      6  O   UNL     1      87.143  31.197  27.476  1.00  0.00    -0.550 OA
ATOM      7  O   UNL     1      86.659  30.622  29.640  1.00  0.00    -0.550 OA
ENDBRANCH   4   5
ENDBRANCH   3   4
ENDBRANCH   2   3
ENDBRANCH   1   2
BRANCH   1   8
ATOM      8  C   UNL     1      87.430  27.668  26.348  1.00  0.00     0.000 C 
BRANCH   8   9
ATOM      9  C   UNL     1      86.026  28.227  26.061  1.00  0.00    -0.000 C 
BRANCH   9  10
ATOM     10  C   UNL     1      85.117  28.202  27.301  1.00  0.00    -0.000 C 
BRANCH  10  11
ATOM     11  C   UNL     1      85.730  27.414  28.472  1.00  0.00    -0.000 C 
BRANCH  11  12
ATOM     12  C   UNL     1      85.021  26.073  28.714  1.00  0.00    -0.003 C 
ATOM     13  C   UNL     1      85.894  24.872  28.352  1.00  0.00     0.004 C 
ENDBRANCH  11  12
ENDBRANCH  10  11
ENDBRANCH   9  10
ENDBRANCH   8   9
ENDBRANCH   1   8
TORSDOF 9
ENDMDL
MODEL 6
REMARK VINA RESULT:    -2.896      2.579      4.802
REMARK INTER + INTRA:          -5.640
REMARK INTER:                  -4.401
REMARK INTRA:                  -1.239
REMARK UNBOUND:                -1.220
REMARK SMILES CCCCCCCCCCC(=O)[O-]
REMARK SMILES IDX 7 1 8 2 9 3 10 4 11 5 12 6 13 7 6 8 5 9 4 10 3 11 2 12 1 13
REMARK H PARENT
REMARK Flexibility Score: inf
ROOT
ATOM      1  C   UNL     1      89.544  29.590  27.039  1.00  0.00     0.000 C 
ENDROOT
BRANCH   1   2
ATOM      2  C   UNL     1      89.531  28.887  28.405  1.00  0.00     0.000 C 
BRANCH   2   3
ATOM      3  C   UNL     1      88.260  29.236  29.189  1.00  0.00     0.006 C 
BRANCH   3   4
ATOM      4  C   UNL     1      87.724  30.612  28.783  1.00  0.00     0.053 C 
BRANCH   4   5
ATOM      5  C   UNL     1      86.234  30.576  28.654  1.00  0.00     0.041 C 
ATOM      6  O   UNL     1      85.595  29.539  28.972  1.00  0.00    -0.550 OA
ATOM      7  O   UNL     1      85.546  31.706  28.229  1.00  0.00    -0.550 OA
ENDBRANCH   4   5
ENDBRANCH   3   4
ENDBRANCH   2   3
ENDBRANCH   1   2
BRANCH   1   8
ATOM      8  C   UNL     1      89.893  28.638  25.883  1.00  0.00     0.000 C 
BRANCH   8   9
ATOM      9  C   UNL     1      88.722  28.445  24.904  1.00  0.00    -0.000 C 
BRANCH   9  10
ATOM     10  C   UNL     1      87.417  29.079  25.413  1.00  0.00    -0.000 C 
BRANCH  10  11
ATOM     11  C   UNL     1      86.313  28.040  25.677  1.00  0.00    -0.000 C 
BRANCH  11  12
ATOM     12  C   UNL     1      86.697  27.041  26.780  1.00  0.00    -0.003 C 
ATOM     13  C   UNL     1      85.526  26.156  27.206  1.00  0.00     0.004 C 
ENDBRANCH  11  12
ENDBRANCH  10  11
ENDBRANCH   9  10
ENDBRANCH   8   9
ENDBRANCH   1   8
TORSDOF 9
ENDMDL
MODEL 7
REMARK VINA RESULT:    -2.885      1.004      2.138
REMARK INTER + INTRA:          -5.623
REMARK INTER:                  -4.354
REMARK INTRA:                  -1.269
REMARK UNBOUND:                -1.220
REMARK SMILES CCCCCCCCCCC(=O)[O-]
REMARK SMILES IDX 7 1 8 2 9 3 10 4 11 5 12 6 13 7 6 8 5 9 4 10 3 11 2 12 1 13
REMARK H PARENT
REMARK Flexibility Score: inf
ROOT
ATOM      1  C   UNL     1      86.323  29.070  25.824  1.00  0.00     0.000 C 
ENDROOT
BRANCH   1   2
ATOM      2  C   UNL     1      86.260  27.569  26.144  1.00  0.00     0.000 C 
BRANCH   2   3
ATOM      3  C   UNL     1      85.604  27.326  27.508  1.00  0.00     0.006 C 
BRANCH   3   4
ATOM      4  C   UNL     1      86.365  26.261  28.303  1.00  0.00     0.053 C 
BRANCH   4   5
ATOM      5  C   UNL     1      85.677  24.937  28.197  1.00  0.00     0.041 C 
ATOM      6  O   UNL     1      84.876  24.565  29.094  1.00  0.00    -0.550 OA
ATOM      7  O   UNL     1      85.882  24.135  27.081  1.00  0.00    -0.550 OA
ENDBRANCH   4   5
ENDBRANCH   3   4
ENDBRANCH   2   3
ENDBRANCH   1   2
BRANCH   1   8
ATOM      8  C   UNL     1      87.704  29.510  25.308  1.00  0.00     0.000 C 
BRANCH   8   9
ATOM      9  C   UNL     1      88.815  28.509  25.668  1.00  0.00    -0.000 C 
BRANCH   9  10
ATOM     10  C   UNL     1      89.803  29.072  26.703  1.00  0.00    -0.000 C 
BRANCH  10  11
ATOM     11  C   UNL     1      89.341  28.843  28.153  1.00  0.00    -0.000 C 
BRANCH  11  12
ATOM     12  C   UNL     1      88.874  30.138  28.834  1.00  0.00    -0.003 C 
ATOM     13  C   UNL     1      87.393  30.105  29.209  1.00  0.00     0.004 C 
ENDBRANCH  11  12
ENDBRANCH  10  11
ENDBRANCH   9  10
ENDBRANCH   8   9
ENDBRANCH   1   8
TORSDOF 9
ENDMDL
MODEL 8
REMARK VINA RESULT:    -2.835      1.539      2.760
REMARK INTER + INTRA:          -5.546
REMARK INTER:                  -4.700
REMARK INTRA:                  -0.845
REMARK UNBOUND:                -1.220
REMARK SMILES CCCCCCCCCCC(=O)[O-]
REMARK SMILES IDX 7 1 8 2 9 3 10 4 11 5 12 6 13 7 6 8 5 9 4 10 3 11 2 12 1 13
REMARK H PARENT
REMARK Flexibility Score: inf
ROOT
ATOM      1  C   UNL     1      87.481  28.569  29.106  1.00  0.00     0.000 C 
ENDROOT
BRANCH   1   2
ATOM      2  C   UNL     1      87.079  27.088  29.192  1.00  0.00     0.000 C 
BRANCH   2   3
ATOM      3  C   UNL     1      86.242  26.676  27.974  1.00  0.00     0.006 C 
BRANCH   3   4
ATOM      4  C   UNL     1      85.930  25.177  28.003  1.00  0.00     0.053 C 
BRANCH   4   5
ATOM      5  C   UNL     1      84.738  24.906  28.865  1.00  0.00     0.041 C 
ATOM      6  O   UNL     1      84.540  23.752  29.327  1.00  0.00    -0.550 OA
ATOM      7  O   UNL     1      83.872  25.940  29.198  1.00  0.00    -0.550 OA
ENDBRANCH   4   5
ENDBRANCH   3   4
ENDBRANCH   2   3
ENDBRANCH   1   2
BRANCH   1   8
ATOM      8  C   UNL     1      88.956  28.762  28.718  1.00  0.00     0.000 C 
BRANCH   8   9
ATOM      9  C   UNL     1      89.213  30.113  28.029  1.00  0.00    -0.000 C 
BRANCH   9  10
ATOM     10  C   UNL     1      89.571  29.957  26.541  1.00  0.00    -0.000 C 
BRANCH  10  11
ATOM     11  C   UNL     1      89.373  28.519  26.030  1.00  0.00    -0.000 C 
BRANCH  11  12
ATOM     12  C   UNL     1      88.189  28.397  25.059  1.00  0.00    -0.003 C 
ATOM     13  C   UNL     1      87.110  29.449  25.311  1.00  0.00     0.004 C 
ENDBRANCH  11  12
ENDBRANCH  10  11
ENDBRANCH   9  10
ENDBRANCH   8   9
ENDBRANCH   1   8
TORSDOF 9
ENDMDL
MODEL 9
REMARK VINA RESULT:    -2.818      1.520      2.523
REMARK INTER + INTRA:          -5.520
REMARK INTER:                  -4.729
REMARK INTRA:                  -0.791
REMARK UNBOUND:                -1.220
REMARK SMILES CCCCCCCCCCC(=O)[O-]
REMARK SMILES IDX 7 1 8 2 9 3 10 4 11 5 12 6 13 7 6 8 5 9 4 10 3 11 2 12 1 13
REMARK H PARENT
REMARK Flexibility Score: inf
ROOT
ATOM      1  C   UNL     1      86.111  27.324  27.872  1.00  0.00     0.000 C 
ENDROOT
BRANCH   1   2
ATOM      2  C   UNL     1      86.252  25.992  28.625  1.00  0.00     0.000 C 
BRANCH   2   3
ATOM      3  C   UNL     1      85.874  24.810  27.724  1.00  0.00     0.006 C 
BRANCH   3   4
ATOM      4  C   UNL     1      85.156  23.717  28.522  1.00  0.00     0.053 C 
BRANCH   4   5
ATOM      5  C   UNL     1      83.871  24.237  29.084  1.00  0.00     0.041 C 
ATOM      6  O   UNL     1      83.602  24.079  30.303  1.00  0.00    -0.550 OA
ATOM      7  O   UNL     1      82.991  24.941  28.270  1.00  0.00    -0.550 OA
ENDBRANCH   4   5
ENDBRANCH   3   4
ENDBRANCH   2   3
ENDBRANCH   1   2
BRANCH   1   8
ATOM      8  C   UNL     1      86.669  27.260  26.441  1.00  0.00     0.000 C 
BRANCH   8   9
ATOM      9  C   UNL     1      87.485  28.510  26.069  1.00  0.00    -0.000 C 
BRANCH   9  10
ATOM     10  C   UNL     1      88.933  28.441  26.581  1.00  0.00    -0.000 C 
BRANCH  10  11
ATOM     11  C   UNL     1      89.351  29.703  27.357  1.00  0.00    -0.000 C 
BRANCH  11  12
ATOM     12  C   UNL     1      88.890  29.672  28.822  1.00  0.00    -0.003 C 
ATOM     13  C   UNL     1      87.649  30.529  29.068  1.00  0.00     0.004 C 
ENDBRANCH  11  12
ENDBRANCH  10  11
ENDBRANCH   9  10
ENDBRANCH   8   9
ENDBRANCH   1   8
TORSDOF 9
ENDMDL
