MODEL 1
REMARK VINA RESULT:    -3.115      0.000      0.000
REMARK INTER + INTRA:          -3.784
REMARK INTER:                  -3.661
REMARK INTRA:                  -0.123
REMARK UNBOUND:                -0.123
REMARK SMILES O=C([O-])CCC(=O)[O-]
REMARK SMILES IDX 4 1 2 2 1 3 3 4 5 5 6 6 7 7 8 8
REMARK H PARENT
REMARK Flexibility Score: inf
ROOT
ATOM      1  C   UNL     1       4.394   5.391   8.941  1.00  0.00     0.059 C 
ENDROOT
BRANCH   1   2
ATOM      2  C   UNL     1       3.294   5.283   7.929  1.00  0.00     0.042 C 
ATOM      3  O   UNL     1       3.541   4.868   6.766  1.00  0.00    -0.550 OA
ATOM      4  O   UNL     1       2.004   5.680   8.259  1.00  0.00    -0.550 OA
ENDBRANCH   1   2
BRANCH   1   5
ATOM      5  C   UNL     1       5.482   4.338   8.707  1.00  0.00     0.059 C 
BRANCH   5   6
ATOM      6  C   UNL     1       6.775   4.966   8.281  1.00  0.00     0.042 C 
ATOM      7  O   UNL     1       7.861   4.598   8.800  1.00  0.00    -0.550 OA
ATOM      8  O   UNL     1       6.782   5.930   7.281  1.00  0.00    -0.550 OA
ENDBRANCH   5   6
ENDBRANCH   1   5
TORSDOF 3
ENDMDL
MODEL 2
REMARK VINA RESULT:    -3.099      0.037      3.913
REMARK INTER + INTRA:          -3.765
REMARK INTER:                  -3.644
REMARK INTRA:                  -0.121
REMARK UNBOUND:                -0.123
REMARK SMILES O=C([O-])CCC(=O)[O-]
REMARK SMILES IDX 4 1 2 2 1 3 3 4 5 5 6 6 7 7 8 8
REMARK H PARENT
REMARK Flexibility Score: inf
ROOT
ATOM      1  C   UNL     1       5.500   4.315   8.693  1.00  0.00     0.059 C 
ENDROOT
BRANCH   1   2
ATOM      2  C   UNL     1       6.783   4.951   8.252  1.00  0.00     0.042 C 
ATOM      3  O   UNL     1       7.873   4.614   8.785  1.00  0.00    -0.550 OA
ATOM      4  O   UNL     1       6.769   5.946   7.283  1.00  0.00    -0.550 OA
ENDBRANCH   1   2
BRANCH   1   5
ATOM      5  C   UNL     1       4.415   5.361   8.968  1.00  0.00     0.059 C 
BRANCH   5   6
ATOM      6  C   UNL     1       3.312   5.290   7.955  1.00  0.00     0.042 C 
ATOM      7  O   UNL     1       3.546   4.872   6.790  1.00  0.00    -0.550 OA
ATOM      8  O   UNL     1       2.018   5.649   8.311  1.00  0.00    -0.550 OA
ENDBRANCH   5   6
ENDBRANCH   1   5
TORSDOF 3
ENDMDL
MODEL 3
REMARK VINA RESULT:    -3.079     12.888     14.542
REMARK INTER + INTRA:          -3.742
REMARK INTER:                  -3.621
REMARK INTRA:                  -0.121
REMARK UNBOUND:                -0.123
REMARK SMILES O=C([O-])CCC(=O)[O-]
REMARK SMILES IDX 4 1 2 2 1 3 3 4 5 5 6 6 7 7 8 8
REMARK H PARENT
REMARK Flexibility Score: inf
ROOT
ATOM      1  C   UNL     1      -4.400  -4.875   9.358  1.00  0.00     0.059 C 
ENDROOT
BRANCH   1   2
ATOM      2  C   UNL     1      -3.272  -4.808   8.376  1.00  0.00     0.042 C 
ATOM      3  O   UNL     1      -3.500  -4.545   7.165  1.00  0.00    -0.550 OA
ATOM      4  O   UNL     1      -1.973  -5.077   8.788  1.00  0.00    -0.550 OA
ENDBRANCH   1   2
BRANCH   1   5
ATOM      5  C   UNL     1      -5.477  -3.828   9.056  1.00  0.00     0.059 C 
BRANCH   5   6
ATOM      6  C   UNL     1      -6.752  -4.466   8.592  1.00  0.00     0.042 C 
ATOM      7  O   UNL     1      -7.858  -4.083   9.057  1.00  0.00    -0.550 OA
ATOM      8  O   UNL     1      -6.719  -5.455   7.617  1.00  0.00    -0.550 OA
ENDBRANCH   5   6
ENDBRANCH   1   5
TORSDOF 3
ENDMDL
MODEL 4
REMARK VINA RESULT:    -3.074     13.699     14.947
REMARK INTER + INTRA:          -3.736
REMARK INTER:                  -3.606
REMARK INTRA:                  -0.130
REMARK UNBOUND:                -0.123
REMARK SMILES O=C([O-])CCC(=O)[O-]
REMARK SMILES IDX 4 1 2 2 1 3 3 4 5 5 6 6 7 7 8 8
REMARK H PARENT
REMARK Flexibility Score: inf
ROOT
ATOM      1  C   UNL     1      -7.104  -4.701   8.671  1.00  0.00     0.059 C 
ENDROOT
BRANCH   1   2
ATOM      2  C   UNL     1      -7.472  -5.086   7.271  1.00  0.00     0.042 C 
ATOM      3  O   UNL     1      -7.391  -6.288   6.902  1.00  0.00    -0.550 OA
ATOM      4  O   UNL     1      -7.863  -4.112   6.360  1.00  0.00    -0.550 OA
ENDBRANCH   1   2
BRANCH   1   5
ATOM      5  C   UNL     1      -5.853  -3.817   8.705  1.00  0.00     0.059 C 
BRANCH   5   6
ATOM      6  C   UNL     1      -4.598  -4.636   8.691  1.00  0.00     0.042 C 
ATOM      7  O   UNL     1      -4.188  -5.185   9.747  1.00  0.00    -0.550 OA
ATOM      8  O   UNL     1      -3.905  -4.826   7.502  1.00  0.00    -0.550 OA
ENDBRANCH   5   6
ENDBRANCH   1   5
TORSDOF 3
ENDMDL
MODEL 5
REMARK VINA RESULT:    -3.055     12.882     14.034
REMARK INTER + INTRA:          -3.714
REMARK INTER:                  -3.599
REMARK INTRA:                  -0.115
REMARK UNBOUND:                -0.123
REMARK SMILES O=C([O-])CCC(=O)[O-]
REMARK SMILES IDX 4 1 2 2 1 3 3 4 5 5 6 6 7 7 8 8
REMARK H PARENT
REMARK Flexibility Score: inf
ROOT
ATOM      1  C   UNL     1      -5.428  -3.839   9.001  1.00  0.00     0.059 C 
ENDROOT
BRANCH   1   2
ATOM      2  C   UNL     1      -6.698  -4.498   8.555  1.00  0.00     0.042 C 
ATOM      3  O   UNL     1      -6.670  -5.396   7.672  1.00  0.00    -0.550 OA
ATOM      4  O   UNL     1      -7.916  -4.091   9.084  1.00  0.00    -0.550 OA
ENDBRANCH   1   2
BRANCH   1   5
ATOM      5  C   UNL     1      -4.341  -4.868   9.329  1.00  0.00     0.059 C 
BRANCH   5   6
ATOM      6  C   UNL     1      -3.235  -4.843   8.318  1.00  0.00     0.042 C 
ATOM      7  O   UNL     1      -3.465  -4.476   7.135  1.00  0.00    -0.550 OA
ATOM      8  O   UNL     1      -1.942  -5.185   8.694  1.00  0.00    -0.550 OA
ENDBRANCH   5   6
ENDBRANCH   1   5
TORSDOF 3
ENDMDL
MODEL 6
REMARK VINA RESULT:    -3.048      1.426      2.187
REMARK INTER + INTRA:          -3.705
REMARK INTER:                  -3.604
REMARK INTRA:                  -0.101
REMARK UNBOUND:                -0.123
REMARK SMILES O=C([O-])CCC(=O)[O-]
REMARK SMILES IDX 4 1 2 2 1 3 3 4 5 5 6 6 7 7 8 8
REMARK H PARENT
REMARK Flexibility Score: inf
ROOT
ATOM      1  C   UNL     1       5.746   4.353   8.468  1.00  0.00     0.059 C 
ENDROOT
BRANCH   1   2
ATOM      2  C   UNL     1       4.494   5.174   8.422  1.00  0.00     0.042 C 
ATOM      3  O   UNL     1       4.037   5.693   9.474  1.00  0.00    -0.550 OA
ATOM      4  O   UNL     1       3.808   5.331   7.223  1.00  0.00    -0.550 OA
ENDBRANCH   1   2
BRANCH   1   5
ATOM      5  C   UNL     1       7.000   5.227   8.361  1.00  0.00     0.059 C 
BRANCH   5   6
ATOM      6  C   UNL     1       7.504   5.299   6.951  1.00  0.00     0.042 C 
ATOM      7  O   UNL     1       7.463   6.386   6.317  1.00  0.00    -0.550 OA
ATOM      8  O   UNL     1       8.055   4.173   6.352  1.00  0.00    -0.550 OA
ENDBRANCH   5   6
ENDBRANCH   1   5
TORSDOF 3
ENDMDL
MODEL 7
REMARK VINA RESULT:    -3.020     13.466     15.167
REMARK INTER + INTRA:          -3.672
REMARK INTER:                  -3.600
REMARK INTRA:                  -0.072
REMARK UNBOUND:                -0.123
REMARK SMILES O=C([O-])CCC(=O)[O-]
REMARK SMILES IDX 4 1 2 2 1 3 3 4 5 5 6 6 7 7 8 8
REMARK H PARENT
REMARK Flexibility Score: inf
ROOT
ATOM      1  C   UNL     1      -5.470  -4.028   8.743  1.00  0.00     0.059 C 
ENDROOT
BRANCH   1   2
ATOM      2  C   UNL     1      -4.099  -4.498   8.363  1.00  0.00     0.042 C 
ATOM      3  O   UNL     1      -3.287  -4.867   9.252  1.00  0.00    -0.550 OA
ATOM      4  O   UNL     1      -3.704  -4.487   7.031  1.00  0.00    -0.550 OA
ENDBRANCH   1   2
BRANCH   1   5
ATOM      5  C   UNL     1      -6.482  -5.178   8.745  1.00  0.00     0.059 C 
BRANCH   5   6
ATOM      6  C   UNL     1      -7.427  -5.083   7.585  1.00  0.00     0.042 C 
ATOM      7  O   UNL     1      -8.129  -4.050   7.421  1.00  0.00    -0.550 OA
ATOM      8  O   UNL     1      -7.500  -6.119   6.662  1.00  0.00    -0.550 OA
ENDBRANCH   5   6
ENDBRANCH   1   5
TORSDOF 3
ENDMDL
MODEL 8
REMARK VINA RESULT:    -2.990      1.239      3.808
REMARK INTER + INTRA:          -3.637
REMARK INTER:                  -3.492
REMARK INTRA:                  -0.145
REMARK UNBOUND:                -0.123
REMARK SMILES O=C([O-])CCC(=O)[O-]
REMARK SMILES IDX 4 1 2 2 1 3 3 4 5 5 6 6 7 7 8 8
REMARK H PARENT
REMARK Flexibility Score: inf
ROOT
ATOM      1  C   UNL     1       6.407   5.658   8.357  1.00  0.00     0.059 C 
ENDROOT
BRANCH   1   2
ATOM      2  C   UNL     1       7.476   5.207   7.410  1.00  0.00     0.042 C 
ATOM      3  O   UNL     1       8.359   4.393   7.791  1.00  0.00    -0.550 OA
ATOM      4  O   UNL     1       7.522   5.718   6.118  1.00  0.00    -0.550 OA
ENDBRANCH   1   2
BRANCH   1   5
ATOM      5  C   UNL     1       5.405   4.538   8.655  1.00  0.00     0.059 C 
BRANCH   5   6
ATOM      6  C   UNL     1       4.472   4.313   7.503  1.00  0.00     0.042 C 
ATOM      7  O   UNL     1       4.510   3.232   6.858  1.00  0.00    -0.550 OA
ATOM      8  O   UNL     1       3.534   5.281   7.169  1.00  0.00    -0.550 OA
ENDBRANCH   5   6
ENDBRANCH   1   5
TORSDOF 3
ENDMDL
MODEL 9
REMARK VINA RESULT:    -2.882      1.378      2.272
REMARK INTER + INTRA:          -3.510
REMARK INTER:                  -3.333
REMARK INTRA:                  -0.177
REMARK UNBOUND:                -0.123
REMARK SMILES O=C([O-])CCC(=O)[O-]
REMARK SMILES IDX 4 1 2 2 1 3 3 4 5 5 6 6 7 7 8 8
REMARK H PARENT
REMARK Flexibility Score: inf
ROOT
ATOM      1  C   UNL     1       4.782   4.108   8.513  1.00  0.00     0.059 C 
ENDROOT
BRANCH   1   2
ATOM      2  C   UNL     1       4.504   3.701   7.099  1.00  0.00     0.042 C 
ATOM      3  O   UNL     1       3.762   4.410   6.369  1.00  0.00    -0.550 OA
ATOM      4  O   UNL     1       5.030   2.516   6.600  1.00  0.00    -0.550 OA
ENDBRANCH   1   2
BRANCH   1   5
ATOM      5  C   UNL     1       5.459   5.481   8.584  1.00  0.00     0.059 C 
BRANCH   5   6
ATOM      6  C   UNL     1       6.822   5.456   7.960  1.00  0.00     0.042 C 
ATOM      7  O   UNL     1       7.089   6.211   6.989  1.00  0.00    -0.550 OA
ATOM      8  O   UNL     1       7.809   4.627   8.479  1.00  0.00    -0.550 OA
ENDBRANCH   5   6
ENDBRANCH   1   5
TORSDOF 3
ENDMDL
