MODEL 1
REMARK VINA RESULT:    -3.728      0.000      0.000
REMARK INTER + INTRA:          -4.758
REMARK INTER:                  -4.491
REMARK INTRA:                  -0.268
REMARK UNBOUND:                -0.268
REMARK SMILES C=CCc1ccc(O)c(OC)c1
REMARK SMILES IDX 9 1 7 2 6 3 5 4 4 5 12 6 10 7 11 8 8 9 3 11 2 12 1 13
REMARK H PARENT 8 10
REMARK Flexibility Score: inf
ROOT
ATOM      1  C   UNL     1      -9.994  44.708   9.264  1.00  0.00     0.160 A 
ATOM      2  C   UNL     1      -9.973  43.811   8.185  1.00  0.00     0.157 A 
ATOM      3  C   UNL     1     -11.108  43.047   7.884  1.00  0.00     0.050 A 
ATOM      4  C   UNL     1     -12.264  43.168   8.657  1.00  0.00     0.008 A 
ATOM      5  C   UNL     1     -12.297  44.052   9.745  1.00  0.00    -0.040 A 
ATOM      6  C   UNL     1     -11.164  44.825  10.040  1.00  0.00     0.054 A 
ENDROOT
BRANCH   1   7
ATOM      7  O   UNL     1      -8.840  45.460   9.531  1.00  0.00    -0.493 OA
ATOM      8  C   UNL     1      -8.632  46.798   9.093  1.00  0.00     0.278 C 
ENDBRANCH   1   7
BRANCH   2   9
ATOM      9  O   UNL     1      -8.818  43.688   7.414  1.00  0.00    -0.504 OA
ATOM     10  H   UNL     1      -7.924  44.038   7.738  1.00  0.00     0.293 HD
ENDBRANCH   2   9
BRANCH   5  11
ATOM     11  C   UNL     1     -13.554  44.206  10.561  1.00  0.00     0.062 C 
BRANCH  11  12
ATOM     12  C   UNL     1     -14.773  44.015   9.703  1.00  0.00    -0.030 C 
ATOM     13  C   UNL     1     -15.436  45.053   9.185  1.00  0.00     0.004 C 
ENDBRANCH  11  12
ENDBRANCH   5  11
TORSDOF 4
ENDMDL
MODEL 2
REMARK VINA RESULT:    -3.724      4.566      6.737
REMARK INTER + INTRA:          -4.754
REMARK INTER:                  -4.526
REMARK INTRA:                  -0.229
REMARK UNBOUND:                -0.268
REMARK SMILES C=CCc1ccc(O)c(OC)c1
REMARK SMILES IDX 9 1 7 2 6 3 5 4 4 5 12 6 10 7 11 8 8 9 3 11 2 12 1 13
REMARK H PARENT 8 10
REMARK Flexibility Score: inf
ROOT
ATOM      1  C   UNL     1     -17.013  45.654  11.108  1.00  0.00     0.160 A 
ATOM      2  C   UNL     1     -17.307  46.428   9.976  1.00  0.00     0.157 A 
ATOM      3  C   UNL     1     -16.555  46.273   8.804  1.00  0.00     0.050 A 
ATOM      4  C   UNL     1     -15.507  45.352   8.755  1.00  0.00     0.008 A 
ATOM      5  C   UNL     1     -15.194  44.579   9.883  1.00  0.00    -0.040 A 
ATOM      6  C   UNL     1     -15.954  44.727  11.053  1.00  0.00     0.054 A 
ENDROOT
BRANCH   1   7
ATOM      7  O   UNL     1     -17.792  45.834  12.261  1.00  0.00    -0.493 OA
ATOM      8  C   UNL     1     -18.789  44.922  12.710  1.00  0.00     0.278 C 
ENDBRANCH   1   7
BRANCH   2   9
ATOM      9  O   UNL     1     -18.353  47.348  10.023  1.00  0.00    -0.504 OA
ATOM     10  H   UNL     1     -18.829  47.654   9.182  1.00  0.00     0.293 HD
ENDBRANCH   2   9
BRANCH   5  11
ATOM     11  C   UNL     1     -14.083  43.565   9.823  1.00  0.00     0.062 C 
BRANCH  11  12
ATOM     12  C   UNL     1     -13.032  43.982   8.832  1.00  0.00    -0.030 C 
ATOM     13  C   UNL     1     -12.335  43.085   8.129  1.00  0.00     0.004 C 
ENDBRANCH  11  12
ENDBRANCH   5  11
TORSDOF 4
ENDMDL
MODEL 3
REMARK VINA RESULT:    -3.681      2.295      4.612
REMARK INTER + INTRA:          -4.703
REMARK INTER:                  -4.490
REMARK INTRA:                  -0.212
REMARK UNBOUND:                -0.268
REMARK SMILES C=CCc1ccc(O)c(OC)c1
REMARK SMILES IDX 9 1 7 2 6 3 5 4 4 5 12 6 10 7 11 8 8 9 3 11 2 12 1 13
REMARK H PARENT 8 10
REMARK Flexibility Score: inf
ROOT
ATOM      1  C   UNL     1     -10.058  43.411   8.194  1.00  0.00     0.160 A 
ATOM      2  C   UNL     1      -8.838  42.721   8.269  1.00  0.00     0.157 A 
ATOM      3  C   UNL     1      -7.703  43.354   8.792  1.00  0.00     0.050 A 
ATOM      4  C   UNL     1      -7.776  44.675   9.239  1.00  0.00     0.008 A 
ATOM      5  C   UNL     1      -8.984  45.382   9.160  1.00  0.00    -0.040 A 
ATOM      6  C   UNL     1     -10.124  44.744   8.646  1.00  0.00     0.054 A 
ENDROOT
BRANCH   1   7
ATOM      7  O   UNL     1     -11.173  42.742   7.669  1.00  0.00    -0.493 OA
ATOM      8  C   UNL     1     -12.516  42.965   8.086  1.00  0.00     0.278 C 
ENDBRANCH   1   7
BRANCH   2   9
ATOM      9  O   UNL     1      -8.765  41.402   7.823  1.00  0.00    -0.504 OA
ATOM     10  H   UNL     1      -9.520  40.978   7.297  1.00  0.00     0.293 HD
ENDBRANCH   2   9
BRANCH   5  11
ATOM     11  C   UNL     1      -9.071  46.797   9.669  1.00  0.00     0.062 C 
BRANCH  11  12
ATOM     12  C   UNL     1      -8.193  47.709   8.858  1.00  0.00    -0.030 C 
ATOM     13  C   UNL     1      -8.666  48.829   8.305  1.00  0.00     0.004 C 
ENDBRANCH  11  12
ENDBRANCH   5  11
TORSDOF 4
ENDMDL
MODEL 4
REMARK VINA RESULT:    -3.662      1.890      2.924
REMARK INTER + INTRA:          -4.679
REMARK INTER:                  -4.486
REMARK INTRA:                  -0.193
REMARK UNBOUND:                -0.268
REMARK SMILES C=CCc1ccc(O)c(OC)c1
REMARK SMILES IDX 9 1 7 2 6 3 5 4 4 5 12 6 10 7 11 8 8 9 3 11 2 12 1 13
REMARK H PARENT 8 10
REMARK Flexibility Score: inf
ROOT
ATOM      1  C   UNL     1     -12.180  42.897   8.454  1.00  0.00     0.160 A 
ATOM      2  C   UNL     1     -12.474  41.578   8.831  1.00  0.00     0.157 A 
ATOM      3  C   UNL     1     -13.615  41.302   9.596  1.00  0.00     0.050 A 
ATOM      4  C   UNL     1     -14.466  42.337   9.990  1.00  0.00     0.008 A 
ATOM      5  C   UNL     1     -14.180  43.662   9.630  1.00  0.00    -0.040 A 
ATOM      6  C   UNL     1     -13.042  43.937   8.856  1.00  0.00     0.054 A 
ENDROOT
BRANCH   1   7
ATOM      7  O   UNL     1     -11.031  43.132   7.685  1.00  0.00    -0.493 OA
ATOM      8  C   UNL     1      -9.930  43.932   8.104  1.00  0.00     0.278 C 
ENDBRANCH   1   7
BRANCH   2   9
ATOM      9  O   UNL     1     -11.625  40.544   8.438  1.00  0.00    -0.504 OA
ATOM     10  H   UNL     1     -10.625  40.683   8.352  1.00  0.00     0.293 HD
ENDBRANCH   2   9
BRANCH   5  11
ATOM     11  C   UNL     1     -15.112  44.775  10.030  1.00  0.00     0.062 C 
BRANCH  11  12
ATOM     12  C   UNL     1     -15.826  45.330   8.829  1.00  0.00    -0.030 C 
ATOM     13  C   UNL     1     -16.607  46.410   8.914  1.00  0.00     0.004 C 
ENDBRANCH  11  12
ENDBRANCH   5  11
TORSDOF 4
ENDMDL
MODEL 5
REMARK VINA RESULT:    -3.572      2.482      3.947
REMARK INTER + INTRA:          -4.571
REMARK INTER:                  -4.354
REMARK INTRA:                  -0.217
REMARK UNBOUND:                -0.268
REMARK SMILES C=CCc1ccc(O)c(OC)c1
REMARK SMILES IDX 9 1 7 2 6 3 5 4 4 5 12 6 10 7 11 8 8 9 3 11 2 12 1 13
REMARK H PARENT 8 10
REMARK Flexibility Score: inf
ROOT
ATOM      1  C   UNL     1     -12.940  44.065   9.532  1.00  0.00     0.160 A 
ATOM      2  C   UNL     1     -12.743  44.201  10.914  1.00  0.00     0.157 A 
ATOM      3  C   UNL     1     -13.787  44.651  11.733  1.00  0.00     0.050 A 
ATOM      4  C   UNL     1     -15.028  44.971  11.180  1.00  0.00     0.008 A 
ATOM      5  C   UNL     1     -15.238  44.851   9.799  1.00  0.00    -0.040 A 
ATOM      6  C   UNL     1     -14.195  44.390   8.980  1.00  0.00     0.054 A 
ENDROOT
BRANCH   1   7
ATOM      7  O   UNL     1     -11.873  43.607   8.746  1.00  0.00    -0.493 OA
ATOM      8  C   UNL     1     -11.993  42.634   7.713  1.00  0.00     0.278 C 
ENDBRANCH   1   7
BRANCH   2   9
ATOM      9  O   UNL     1     -11.503  43.882  11.468  1.00  0.00    -0.504 OA
ATOM     10  H   UNL     1     -11.009  44.530  12.071  1.00  0.00     0.293 HD
ENDBRANCH   2   9
BRANCH   5  11
ATOM     11  C   UNL     1     -16.585  45.168   9.205  1.00  0.00     0.062 C 
BRANCH  11  12
ATOM     12  C   UNL     1     -16.690  46.630   8.872  1.00  0.00    -0.030 C 
ATOM     13  C   UNL     1     -17.587  47.422   9.466  1.00  0.00     0.004 C 
ENDBRANCH  11  12
ENDBRANCH   5  11
TORSDOF 4
ENDMDL
MODEL 6
REMARK VINA RESULT:    -3.520      3.025      5.213
REMARK INTER + INTRA:          -4.508
REMARK INTER:                  -4.270
REMARK INTRA:                  -0.238
REMARK UNBOUND:                -0.268
REMARK SMILES C=CCc1ccc(O)c(OC)c1
REMARK SMILES IDX 9 1 7 2 6 3 5 4 4 5 12 6 10 7 11 8 8 9 3 11 2 12 1 13
REMARK H PARENT 8 10
REMARK Flexibility Score: inf
ROOT
ATOM      1  C   UNL     1     -14.313  44.382   9.787  1.00  0.00     0.160 A 
ATOM      2  C   UNL     1     -13.805  44.707  11.053  1.00  0.00     0.157 A 
ATOM      3  C   UNL     1     -12.443  44.532  11.330  1.00  0.00     0.050 A 
ATOM      4  C   UNL     1     -11.583  44.029  10.352  1.00  0.00     0.008 A 
ATOM      5  C   UNL     1     -12.078  43.689   9.084  1.00  0.00    -0.040 A 
ATOM      6  C   UNL     1     -13.441  43.875   8.803  1.00  0.00     0.054 A 
ENDROOT
BRANCH   1   7
ATOM      7  O   UNL     1     -15.681  44.577   9.546  1.00  0.00    -0.493 OA
ATOM      8  C   UNL     1     -16.220  45.651   8.782  1.00  0.00     0.278 C 
ENDBRANCH   1   7
BRANCH   2   9
ATOM      9  O   UNL     1     -14.662  45.209  12.032  1.00  0.00    -0.504 OA
ATOM     10  H   UNL     1     -14.477  46.090  12.497  1.00  0.00     0.293 HD
ENDBRANCH   2   9
BRANCH   5  11
ATOM     11  C   UNL     1     -11.147  43.175   8.018  1.00  0.00     0.062 C 
BRANCH  11  12
ATOM     12  C   UNL     1      -9.839  43.914   8.050  1.00  0.00    -0.030 C 
ATOM     13  C   UNL     1      -8.670  43.277   7.943  1.00  0.00     0.004 C 
ENDBRANCH  11  12
ENDBRANCH   5  11
TORSDOF 4
ENDMDL
MODEL 7
REMARK VINA RESULT:    -3.492      1.926      4.360
REMARK INTER + INTRA:          -4.474
REMARK INTER:                  -4.238
REMARK INTRA:                  -0.236
REMARK UNBOUND:                -0.268
REMARK SMILES C=CCc1ccc(O)c(OC)c1
REMARK SMILES IDX 9 1 7 2 6 3 5 4 4 5 12 6 10 7 11 8 8 9 3 11 2 12 1 13
REMARK H PARENT 8 10
REMARK Flexibility Score: inf
ROOT
ATOM      1  C   UNL     1     -11.977  43.806   9.333  1.00  0.00     0.160 A 
ATOM      2  C   UNL     1     -11.476  43.148   8.200  1.00  0.00     0.157 A 
ATOM      3  C   UNL     1     -10.175  43.409   7.752  1.00  0.00     0.050 A 
ATOM      4  C   UNL     1      -9.369  44.328   8.427  1.00  0.00     0.008 A 
ATOM      5  C   UNL     1      -9.859  45.002   9.556  1.00  0.00    -0.040 A 
ATOM      6  C   UNL     1     -11.159  44.732  10.010  1.00  0.00     0.054 A 
ENDROOT
BRANCH   1   7
ATOM      7  O   UNL     1     -13.283  43.513   9.754  1.00  0.00    -0.493 OA
ATOM      8  C   UNL     1     -14.418  44.331   9.486  1.00  0.00     0.278 C 
ENDBRANCH   1   7
BRANCH   2   9
ATOM      9  O   UNL     1     -12.280  42.231   7.525  1.00  0.00    -0.504 OA
ATOM     10  H   UNL     1     -12.606  42.405   6.581  1.00  0.00     0.293 HD
ENDBRANCH   2   9
BRANCH   5  11
ATOM     11  C   UNL     1      -8.980  45.971  10.302  1.00  0.00     0.062 C 
BRANCH  11  12
ATOM     12  C   UNL     1      -9.124  47.359   9.744  1.00  0.00    -0.030 C 
ATOM     13  C   UNL     1      -8.323  47.812   8.775  1.00  0.00     0.004 C 
ENDBRANCH  11  12
ENDBRANCH   5  11
TORSDOF 4
ENDMDL
MODEL 8
REMARK VINA RESULT:    -3.479      3.578      5.666
REMARK INTER + INTRA:          -4.459
REMARK INTER:                  -4.201
REMARK INTRA:                  -0.257
REMARK UNBOUND:                -0.268
REMARK SMILES C=CCc1ccc(O)c(OC)c1
REMARK SMILES IDX 9 1 7 2 6 3 5 4 4 5 12 6 10 7 11 8 8 9 3 11 2 12 1 13
REMARK H PARENT 8 10
REMARK Flexibility Score: inf
ROOT
ATOM      1  C   UNL     1      -8.656  49.517   8.613  1.00  0.00     0.160 A 
ATOM      2  C   UNL     1      -9.420  49.958   9.704  1.00  0.00     0.157 A 
ATOM      3  C   UNL     1      -9.878  49.040  10.658  1.00  0.00     0.050 A 
ATOM      4  C   UNL     1      -9.583  47.682  10.528  1.00  0.00     0.008 A 
ATOM      5  C   UNL     1      -8.830  47.225   9.437  1.00  0.00    -0.040 A 
ATOM      6  C   UNL     1      -8.361  48.145   8.487  1.00  0.00     0.054 A 
ENDROOT
BRANCH   1   7
ATOM      7  O   UNL     1      -8.210  50.467   7.682  1.00  0.00    -0.493 OA
ATOM      8  C   UNL     1      -6.878  50.964   7.613  1.00  0.00     0.278 C 
ENDBRANCH   1   7
BRANCH   2   9
ATOM      9  O   UNL     1      -9.716  51.314   9.835  1.00  0.00    -0.504 OA
ATOM     10  H   UNL     1      -9.041  52.030   9.592  1.00  0.00     0.293 HD
ENDBRANCH   2   9
BRANCH   5  11
ATOM     11  C   UNL     1      -8.485  45.764   9.311  1.00  0.00     0.062 C 
BRANCH  11  12
ATOM     12  C   UNL     1      -9.684  44.906   9.606  1.00  0.00    -0.030 C 
ATOM     13  C   UNL     1     -10.323  44.237   8.643  1.00  0.00     0.004 C 
ENDBRANCH  11  12
ENDBRANCH   5  11
TORSDOF 4
ENDMDL
MODEL 9
REMARK VINA RESULT:    -3.392     11.654     13.265
REMARK INTER + INTRA:          -4.354
REMARK INTER:                  -4.088
REMARK INTRA:                  -0.266
REMARK UNBOUND:                -0.268
REMARK SMILES C=CCc1ccc(O)c(OC)c1
REMARK SMILES IDX 9 1 7 2 6 3 5 4 4 5 12 6 10 7 11 8 8 9 3 11 2 12 1 13
REMARK H PARENT 8 10
REMARK Flexibility Score: inf
ROOT
ATOM      1  C   UNL     1     -19.619  50.261   0.543  1.00  0.00     0.160 A 
ATOM      2  C   UNL     1     -19.132  50.458   1.844  1.00  0.00     0.157 A 
ATOM      3  C   UNL     1     -17.767  50.301   2.116  1.00  0.00     0.050 A 
ATOM      4  C   UNL     1     -16.882  49.944   1.097  1.00  0.00     0.008 A 
ATOM      5  C   UNL     1     -17.354  49.734  -0.206  1.00  0.00    -0.040 A 
ATOM      6  C   UNL     1     -18.720  49.901  -0.481  1.00  0.00     0.054 A 
ENDROOT
BRANCH   1   7
ATOM      7  O   UNL     1     -20.991  50.433   0.309  1.00  0.00    -0.493 OA
ATOM      8  C   UNL     1     -21.887  49.381  -0.035  1.00  0.00     0.278 C 
ENDBRANCH   1   7
BRANCH   2   9
ATOM      9  O   UNL     1     -20.015  50.813   2.863  1.00  0.00    -0.504 OA
ATOM     10  H   UNL     1     -20.987  51.028   2.671  1.00  0.00     0.293 HD
ENDBRANCH   2   9
BRANCH   5  11
ATOM     11  C   UNL     1     -16.396  49.378  -1.313  1.00  0.00     0.062 C 
BRANCH  11  12
ATOM     12  C   UNL     1     -15.435  48.313  -0.864  1.00  0.00    -0.030 C 
ATOM     13  C   UNL     1     -15.585  47.035  -1.223  1.00  0.00     0.004 C 
ENDBRANCH  11  12
ENDBRANCH   5  11
TORSDOF 4
ENDMDL
