MODEL 1
REMARK VINA RESULT:    35.710      0.000      0.000
REMARK INTER + INTRA:          38.755
REMARK INTER:                  38.841
REMARK INTRA:                  -0.086
REMARK UNBOUND:                -0.086
REMARK SMILES C=C(C)[C@@H]1CC[C@]2(C)CC[C@]3(C)[C@@H](CC[C@H]4[C@@]5(C)CC[C@@H](O)C(C)(C)[C@@H]5CC[C@]43C)[C@H]12
REMARK SMILES IDX 4 1 5 2 6 3 7 4 31 5 13 6 14 7 15 8 16 9 17 10 19 11 20 12
REMARK SMILES IDX 21 13 23 14 26 15 27 16 28 17 29 18 11 19 10 20 9 21 12 22
REMARK SMILES IDX 30 23 24 24 25 25 18 26 8 27 2 28 3 29 1 30 22 31
REMARK H PARENT 22 32
REMARK Flexibility Score: inf
ROOT
ATOM      1  C   UNL     1       6.338 -35.248  17.091  1.00  0.00     0.018 C 
ATOM      2  C   UNL     1       6.652 -36.705  17.401  1.00  0.00     0.009 C 
ATOM      3  C   UNL     1       6.823 -37.367  16.040  1.00  0.00     0.008 C 
ATOM      4  C   UNL     1       7.090 -36.229  15.011  1.00  0.00    -0.029 C 
ATOM      5  C   UNL     1       7.212 -34.905  15.851  1.00  0.00     0.006 C 
ATOM      6  C   UNL     1       8.726 -34.520  16.124  1.00  0.00    -0.000 C 
ATOM      7  C   UNL     1       8.891 -33.295  17.052  1.00  0.00     0.005 C 
ATOM      8  C   UNL     1      10.249 -32.613  16.921  1.00  0.00     0.005 C 
ATOM      9  C   UNL     1      10.396 -31.939  15.530  1.00  0.00     0.002 C 
ATOM     10  C   UNL     1      11.723 -31.043  15.322  1.00  0.00    -0.026 C 
ATOM     11  C   UNL     1      12.622 -31.009  16.599  1.00  0.00     0.010 C 
ATOM     12  C   UNL     1      13.953 -30.273  16.394  1.00  0.00     0.033 C 
ATOM     13  C   UNL     1      14.796 -30.927  15.290  1.00  0.00     0.120 C 
ATOM     14  C   UNL     1      14.036 -31.005  13.923  1.00  0.00    -0.006 C 
ATOM     15  C   UNL     1      12.588 -31.617  14.148  1.00  0.00     0.003 C 
ATOM     16  C   UNL     1      11.730 -31.721  12.876  1.00  0.00     0.005 C 
ATOM     17  C   UNL     1      10.770 -32.885  13.024  1.00  0.00     0.008 C 
ATOM     18  C   UNL     1       9.855 -32.869  14.314  1.00  0.00    -0.024 C 
ATOM     19  C   UNL     1       9.623 -34.405  14.798  1.00  0.00    -0.024 C 
ATOM     20  C   UNL     1       8.981 -35.259  13.648  1.00  0.00     0.008 C 
ATOM     21  C   UNL     1       8.367 -36.545  14.184  1.00  0.00     0.007 C 
ATOM     22  C   UNL     1      11.017 -35.088  15.103  1.00  0.00     0.012 C 
ATOM     23  C   UNL     1       8.513 -32.207  13.841  1.00  0.00     0.012 C 
ATOM     24  C   UNL     1      14.028 -29.605  13.240  1.00  0.00     0.014 C 
ATOM     25  C   UNL     1      14.855 -31.947  12.986  1.00  0.00     0.014 C 
ATOM     26  C   UNL     1      11.248 -29.576  15.053  1.00  0.00     0.012 C 
ATOM     27  C   UNL     1       5.879 -36.123  14.044  1.00  0.00     0.011 C 
ENDROOT
BRANCH   1  28
ATOM     28  C   UNL     1       6.349 -34.299  18.282  1.00  0.00    -0.077 C 
ATOM     29  C   UNL     1       5.936 -32.851  18.143  1.00  0.00     0.039 C 
ATOM     30  C   UNL     1       6.894 -34.716  19.437  1.00  0.00     0.008 C 
ENDBRANCH   1  28
BRANCH  13  31
ATOM     31  O   UNL     1      15.164 -32.216  15.730  1.00  0.00    -0.393 OA
ATOM     32  H   UNL     1      15.939 -32.511  15.185  1.00  0.00     0.210 HD
ENDBRANCH  13  31
TORSDOF 2
ENDMDL
