MODEL 1
REMARK VINA RESULT:    80.194      0.000      0.000
REMARK INTER + INTRA:         115.051
REMARK INTER:                 115.355
REMARK INTRA:                  -0.304
REMARK UNBOUND:                -0.304
REMARK SMILES O=c1c(O[C@@H]2O[C@@H](CO)[C@H](O)[C@@H](O)[C@H]2O)c(-c2ccc(O)cc2)oc2cc(O)cc(O)c12
REMARK SMILES IDX 4 1 3 2 16 3 24 4 2 5 25 6 1 7 32 8 26 9 30 10 27 11 29 12
REMARK SMILES IDX 17 13 18 14 19 15 20 16 23 17 22 18 21 19 31 21 28 23 5 25
REMARK SMILES IDX 14 26 6 27 12 28 7 29 10 30 15 31 13 33 8 35 9 36 11 38
REMARK H PARENT 21 20 31 22 28 24 15 32 13 34 9 37 11 39
REMARK Flexibility Score: inf
ROOT
ATOM      1  O   UNL     1     -38.023  29.058 -21.896  1.00  0.00    -0.454 OA
ENDROOT
BRANCH   1   2
ATOM      2  C   UNL     1     -39.414  29.185 -21.726  1.00  0.00     0.214 A 
ATOM      3  C   UNL     1     -40.346  28.369 -22.380  1.00  0.00     0.180 A 
ATOM      4  O   UNL     1     -41.516  28.903 -22.715  1.00  0.00    -0.452 OA
ATOM      5  C   UNL     1     -39.924  30.184 -20.886  1.00  0.00     0.239 A 
ATOM      6  C   UNL     1     -41.973  30.028 -22.152  1.00  0.00     0.146 A 
ATOM      7  O   UNL     1     -39.165  30.700 -20.015  1.00  0.00    -0.285 OA
ATOM      8  C   UNL     1     -41.273  30.582 -21.044  1.00  0.00     0.111 A 
ATOM      9  C   UNL     1     -43.170  30.570 -22.586  1.00  0.00     0.094 A 
ATOM     10  C   UNL     1     -41.982  31.491 -20.185  1.00  0.00     0.134 A 
ATOM     11  C   UNL     1     -43.828  31.519 -21.798  1.00  0.00     0.123 A 
ATOM     12  C   UNL     1     -43.299  31.883 -20.546  1.00  0.00     0.093 A 
BRANCH   3  13
ATOM     13  C   UNL     1     -40.165  26.889 -22.478  1.00  0.00     0.021 A 
ATOM     14  C   UNL     1     -41.020  26.119 -23.310  1.00  0.00     0.016 A 
ATOM     15  C   UNL     1     -40.698  24.796 -23.650  1.00  0.00     0.047 A 
ATOM     16  C   UNL     1     -39.456  24.270 -23.249  1.00  0.00     0.115 A 
ATOM     17  C   UNL     1     -38.923  26.331 -22.086  1.00  0.00     0.016 A 
ATOM     18  C   UNL     1     -38.572  25.051 -22.488  1.00  0.00     0.047 A 
BRANCH  16  19
ATOM     19  O   UNL     1     -39.083  22.998 -23.675  1.00  0.00    -0.508 OA
ATOM     20  H   UNL     1     -38.508  22.406 -23.093  1.00  0.00     0.293 HD
ENDBRANCH  16  19
ENDBRANCH   3  13
BRANCH  10  21
ATOM     21  O   UNL     1     -41.474  31.981 -18.956  1.00  0.00    -0.507 OA
ATOM     22  H   UNL     1     -41.051  31.430 -18.223  1.00  0.00     0.293 HD
ENDBRANCH  10  21
BRANCH  11  23
ATOM     23  O   UNL     1     -45.045  32.085 -22.214  1.00  0.00    -0.508 OA
ATOM     24  H   UNL     1     -45.146  32.489 -23.140  1.00  0.00     0.293 HD
ENDBRANCH  11  23
ENDBRANCH   1   2
BRANCH   1  25
ATOM     25  C   UNL     1     -37.188  30.010 -22.584  1.00  0.00     0.339 C 
ATOM     26  C   UNL     1     -37.100  29.762 -24.088  1.00  0.00     0.214 C 
ATOM     27  O   UNL     1     -37.753  31.294 -22.415  1.00  0.00    -0.332 OA
ATOM     28  C   UNL     1     -36.041  30.701 -24.661  1.00  0.00     0.180 C 
ATOM     29  C   UNL     1     -36.884  32.355 -22.787  1.00  0.00     0.179 C 
ATOM     30  C   UNL     1     -36.150  32.170 -24.162  1.00  0.00     0.177 C 
BRANCH  26  31
ATOM     31  O   UNL     1     -36.749  28.420 -24.379  1.00  0.00    -0.384 OA
ATOM     32  H   UNL     1     -37.280  27.828 -23.789  1.00  0.00     0.211 HD
ENDBRANCH  26  31
BRANCH  28  33
ATOM     33  O   UNL     1     -34.738  30.197 -24.460  1.00  0.00    -0.387 OA
ATOM     34  H   UNL     1     -34.091  30.929 -24.666  1.00  0.00     0.211 HD
ENDBRANCH  28  33
BRANCH  29  35
ATOM     35  C   UNL     1     -35.961  32.750 -21.613  1.00  0.00     0.191 C 
BRANCH  35  36
ATOM     36  O   UNL     1     -36.572  32.492 -20.388  1.00  0.00    -0.394 OA
ATOM     37  H   UNL     1     -37.504  32.203 -20.555  1.00  0.00     0.210 HD
ENDBRANCH  35  36
ENDBRANCH  29  35
BRANCH  30  38
ATOM     38  O   UNL     1     -36.824  32.954 -25.125  1.00  0.00    -0.387 OA
ATOM     39  H   UNL     1     -36.217  33.706 -25.360  1.00  0.00     0.211 HD
ENDBRANCH  30  38
ENDBRANCH   1  25
TORSDOF 11
ENDMDL
MODEL 2
REMARK VINA RESULT:    82.655     12.530     14.920
REMARK INTER + INTRA:         118.591
REMARK INTER:                 119.100
REMARK INTRA:                  -0.509
REMARK UNBOUND:                -0.304
REMARK SMILES O=c1c(O[C@@H]2O[C@@H](CO)[C@H](O)[C@@H](O)[C@H]2O)c(-c2ccc(O)cc2)oc2cc(O)cc(O)c12
REMARK SMILES IDX 4 1 3 2 16 3 24 4 2 5 25 6 1 7 32 8 26 9 30 10 27 11 29 12
REMARK SMILES IDX 17 13 18 14 19 15 20 16 23 17 22 18 21 19 31 21 28 23 5 25
REMARK SMILES IDX 14 26 6 27 12 28 7 29 10 30 15 31 13 33 8 35 9 36 11 38
REMARK H PARENT 21 20 31 22 28 24 15 32 13 34 9 37 11 39
REMARK Flexibility Score: inf
ROOT
ATOM      1  O   UNL     1     -40.676  27.599  -7.818  1.00  0.00    -0.454 OA
ENDROOT
BRANCH   1   2
ATOM      2  C   UNL     1     -40.711  26.948  -9.065  1.00  0.00     0.214 A 
ATOM      3  C   UNL     1     -41.404  25.751  -9.288  1.00  0.00     0.180 A 
ATOM      4  O   UNL     1     -40.899  24.893 -10.168  1.00  0.00    -0.452 OA
ATOM      5  C   UNL     1     -40.006  27.486 -10.151  1.00  0.00     0.239 A 
ATOM      6  C   UNL     1     -39.998  25.261 -11.086  1.00  0.00     0.146 A 
ATOM      7  O   UNL     1     -39.672  28.706 -10.121  1.00  0.00    -0.285 OA
ATOM      8  C   UNL     1     -39.692  26.642 -11.242  1.00  0.00     0.111 A 
ATOM      9  C   UNL     1     -39.461  24.308 -11.936  1.00  0.00     0.094 A 
ATOM     10  C   UNL     1     -39.095  27.064 -12.480  1.00  0.00     0.134 A 
ATOM     11  C   UNL     1     -38.804  24.711 -13.101  1.00  0.00     0.123 A 
ATOM     12  C   UNL     1     -38.733  26.076 -13.434  1.00  0.00     0.093 A 
BRANCH   3  13
ATOM     13  C   UNL     1     -42.789  25.536  -8.771  1.00  0.00     0.021 A 
ATOM     14  C   UNL     1     -43.160  26.034  -7.494  1.00  0.00     0.016 A 
ATOM     15  C   UNL     1     -44.508  26.109  -7.111  1.00  0.00     0.047 A 
ATOM     16  C   UNL     1     -45.505  25.789  -8.052  1.00  0.00     0.115 A 
ATOM     17  C   UNL     1     -43.815  25.217  -9.695  1.00  0.00     0.016 A 
ATOM     18  C   UNL     1     -45.147  25.366  -9.341  1.00  0.00     0.047 A 
BRANCH  16  19
ATOM     19  O   UNL     1     -46.845  25.966  -7.714  1.00  0.00    -0.508 OA
ATOM     20  H   UNL     1     -47.110  26.243  -6.781  1.00  0.00     0.293 HD
ENDBRANCH  16  19
ENDBRANCH   3  13
BRANCH  10  21
ATOM     21  O   UNL     1     -38.898  28.420 -12.844  1.00  0.00    -0.507 OA
ATOM     22  H   UNL     1     -38.326  29.092 -12.355  1.00  0.00     0.293 HD
ENDBRANCH  10  21
BRANCH  11  23
ATOM     23  O   UNL     1     -38.251  23.765 -13.981  1.00  0.00    -0.508 OA
ATOM     24  H   UNL     1     -37.884  24.042 -14.887  1.00  0.00     0.293 HD
ENDBRANCH  11  23
ENDBRANCH   1   2
BRANCH   1  25
ATOM     25  C   UNL     1     -39.477  28.048  -7.157  1.00  0.00     0.339 C 
ATOM     26  C   UNL     1     -39.590  28.051  -5.635  1.00  0.00     0.214 C 
ATOM     27  O   UNL     1     -38.431  27.155  -7.487  1.00  0.00    -0.332 OA
ATOM     28  C   UNL     1     -38.344  28.728  -5.069  1.00  0.00     0.180 C 
ATOM     29  C   UNL     1     -37.139  27.636  -7.146  1.00  0.00     0.179 C 
ATOM     30  C   UNL     1     -37.009  28.250  -5.707  1.00  0.00     0.177 C 
BRANCH  26  31
ATOM     31  O   UNL     1     -40.745  28.744  -5.196  1.00  0.00    -0.384 OA
ATOM     32  H   UNL     1     -41.499  28.492  -5.786  1.00  0.00     0.211 HD
ENDBRANCH  26  31
BRANCH  28  33
ATOM     33  O   UNL     1     -38.450  30.135  -5.121  1.00  0.00    -0.387 OA
ATOM     34  H   UNL     1     -37.917  30.511  -4.364  1.00  0.00     0.211 HD
ENDBRANCH  28  33
BRANCH  29  35
ATOM     35  C   UNL     1     -36.564  28.520  -8.276  1.00  0.00     0.191 C 
BRANCH  35  36
ATOM     36  O   UNL     1     -35.859  29.602  -7.754  1.00  0.00    -0.394 OA
ATOM     37  H   UNL     1     -35.642  29.409  -6.808  1.00  0.00     0.210 HD
ENDBRANCH  35  36
ENDBRANCH  29  35
BRANCH  30  38
ATOM     38  O   UNL     1     -36.400  27.284  -4.875  1.00  0.00    -0.387 OA
ATOM     39  H   UNL     1     -36.457  27.629  -3.944  1.00  0.00     0.211 HD
ENDBRANCH  30  38
ENDBRANCH   1  25
TORSDOF 11
ENDMDL
