MODEL 1
REMARK VINA RESULT:    -4.948      0.000      0.000
REMARK INTER + INTRA:         -16.189
REMARK INTER:                 -12.469
REMARK INTRA:                  -3.720
REMARK UNBOUND:                -3.720
REMARK SMILES CCCCCCCCCCCCCCCCCCCCCCCCCCCC(=O)[O-]
REMARK SMILES IDX 15 1 16 2 17 3 18 4 19 5 20 6 21 7 22 8 23 9 24 10 25 11
REMARK SMILES IDX 26 12 27 13 28 14 29 15 30 16 14 17 13 18 12 19 11 20 10 21
REMARK SMILES IDX 9 22 8 23 7 24 6 25 5 26 4 27 3 28 2 29 1 30
REMARK H PARENT
REMARK Flexibility Score: inf
ROOT
ATOM      1  C   UNL     1     -10.776 -25.877  27.882  1.00  0.00     0.000 C 
ENDROOT
BRANCH   1   2
ATOM      2  C   UNL     1     -10.469 -24.391  27.605  1.00  0.00     0.000 C 
BRANCH   2   3
ATOM      3  C   UNL     1     -10.410 -24.072  26.104  1.00  0.00     0.000 C 
BRANCH   3   4
ATOM      4  C   UNL     1     -11.743 -23.500  25.605  1.00  0.00     0.000 C 
BRANCH   4   5
ATOM      5  C   UNL     1     -12.558 -24.576  24.872  1.00  0.00     0.000 C 
BRANCH   5   6
ATOM      6  C   UNL     1     -13.848 -24.024  24.244  1.00  0.00     0.000 C 
BRANCH   6   7
ATOM      7  C   UNL     1     -14.619 -25.063  23.399  1.00  0.00     0.000 C 
BRANCH   7   8
ATOM      8  C   UNL     1     -13.939 -26.444  23.424  1.00  0.00     0.000 C 
BRANCH   8   9
ATOM      9  C   UNL     1     -14.872 -27.553  23.939  1.00  0.00     0.000 C 
BRANCH   9  10
ATOM     10  C   UNL     1     -14.631 -27.924  25.422  1.00  0.00     0.000 C 
BRANCH  10  11
ATOM     11  C   UNL     1     -15.909 -27.882  26.281  1.00  0.00     0.000 C 
BRANCH  11  12
ATOM     12  C   UNL     1     -16.607 -26.507  26.322  1.00  0.00     0.006 C 
BRANCH  12  13
ATOM     13  C   UNL     1     -17.708 -26.334  25.256  1.00  0.00     0.053 C 
BRANCH  13  14
ATOM     14  C   UNL     1     -17.953 -24.901  24.903  1.00  0.00     0.041 C 
ATOM     15  O   UNL     1     -18.513 -24.600  23.815  1.00  0.00    -0.550 OA
ATOM     16  O   UNL     1     -17.540 -23.893  25.765  1.00  0.00    -0.550 OA
ENDBRANCH  13  14
ENDBRANCH  12  13
ENDBRANCH  11  12
ENDBRANCH  10  11
ENDBRANCH   9  10
ENDBRANCH   8   9
ENDBRANCH   7   8
ENDBRANCH   6   7
ENDBRANCH   5   6
ENDBRANCH   4   5
ENDBRANCH   3   4
ENDBRANCH   2   3
ENDBRANCH   1   2
BRANCH   1  17
ATOM     17  C   UNL     1     -10.013 -26.858  26.969  1.00  0.00     0.000 C 
BRANCH  17  18
ATOM     18  C   UNL     1      -8.898 -27.665  27.658  1.00  0.00     0.000 C 
BRANCH  18  19
ATOM     19  C   UNL     1      -7.752 -26.824  28.255  1.00  0.00     0.000 C 
BRANCH  19  20
ATOM     20  C   UNL     1      -7.020 -27.504  29.432  1.00  0.00     0.000 C 
BRANCH  20  21
ATOM     21  C   UNL     1      -5.553 -27.062  29.546  1.00  0.00     0.000 C 
BRANCH  21  22
ATOM     22  C   UNL     1      -5.025 -27.264  30.970  1.00  0.00    -0.000 C 
BRANCH  22  23
ATOM     23  C   UNL     1      -6.157 -27.687  31.918  1.00  0.00    -0.000 C 
BRANCH  23  24
ATOM     24  C   UNL     1      -6.302 -26.758  33.136  1.00  0.00    -0.000 C 
BRANCH  24  25
ATOM     25  C   UNL     1      -5.947 -25.282  32.881  1.00  0.00    -0.000 C 
BRANCH  25  26
ATOM     26  C   UNL     1      -7.188 -24.389  32.706  1.00  0.00    -0.000 C 
BRANCH  26  27
ATOM     27  C   UNL     1      -7.799 -24.481  31.296  1.00  0.00    -0.000 C 
BRANCH  27  28
ATOM     28  C   UNL     1      -9.313 -24.765  31.250  1.00  0.00    -0.000 C 
BRANCH  28  29
ATOM     29  C   UNL     1      -9.711 -26.228  31.518  1.00  0.00    -0.003 C 
ATOM     30  C   UNL     1     -11.190 -26.392  31.868  1.00  0.00     0.004 C 
ENDBRANCH  28  29
ENDBRANCH  27  28
ENDBRANCH  26  27
ENDBRANCH  25  26
ENDBRANCH  24  25
ENDBRANCH  23  24
ENDBRANCH  22  23
ENDBRANCH  21  22
ENDBRANCH  20  21
ENDBRANCH  19  20
ENDBRANCH  18  19
ENDBRANCH  17  18
ENDBRANCH   1  17
TORSDOF 26
ENDMDL
MODEL 2
REMARK VINA RESULT:    -4.844      5.874     12.655
REMARK INTER + INTRA:         -15.927
REMARK INTER:                 -12.748
REMARK INTRA:                  -3.180
REMARK UNBOUND:                -3.720
REMARK SMILES CCCCCCCCCCCCCCCCCCCCCCCCCCCC(=O)[O-]
REMARK SMILES IDX 15 1 16 2 17 3 18 4 19 5 20 6 21 7 22 8 23 9 24 10 25 11
REMARK SMILES IDX 26 12 27 13 28 14 29 15 30 16 14 17 13 18 12 19 11 20 10 21
REMARK SMILES IDX 9 22 8 23 7 24 6 25 5 26 4 27 3 28 2 29 1 30
REMARK H PARENT
REMARK Flexibility Score: inf
ROOT
ATOM      1  C   UNL     1     -15.481 -23.520  20.555  1.00  0.00     0.000 C 
ENDROOT
BRANCH   1   2
ATOM      2  C   UNL     1     -15.664 -24.390  21.816  1.00  0.00     0.000 C 
BRANCH   2   3
ATOM      3  C   UNL     1     -14.507 -24.231  22.813  1.00  0.00     0.000 C 
BRANCH   3   4
ATOM      4  C   UNL     1     -14.714 -25.114  24.049  1.00  0.00     0.000 C 
BRANCH   4   5
ATOM      5  C   UNL     1     -13.397 -25.782  24.471  1.00  0.00     0.000 C 
BRANCH   5   6
ATOM      6  C   UNL     1     -12.318 -24.768  24.886  1.00  0.00     0.000 C 
BRANCH   6   7
ATOM      7  C   UNL     1     -11.126 -25.404  25.634  1.00  0.00     0.000 C 
BRANCH   7   8
ATOM      8  C   UNL     1     -10.570 -24.475  26.728  1.00  0.00     0.000 C 
BRANCH   8   9
ATOM      9  C   UNL     1      -9.749 -25.231  27.785  1.00  0.00     0.000 C 
BRANCH   9  10
ATOM     10  C   UNL     1     -10.605 -26.140  28.699  1.00  0.00     0.000 C 
BRANCH  10  11
ATOM     11  C   UNL     1     -10.337 -25.927  30.201  1.00  0.00     0.000 C 
BRANCH  11  12
ATOM     12  C   UNL     1      -9.388 -24.753  30.521  1.00  0.00     0.006 C 
BRANCH  12  13
ATOM     13  C   UNL     1      -8.625 -24.913  31.851  1.00  0.00     0.053 C 
BRANCH  13  14
ATOM     14  C   UNL     1      -7.519 -25.918  31.767  1.00  0.00     0.041 C 
ATOM     15  O   UNL     1      -6.711 -25.897  30.800  1.00  0.00    -0.550 OA
ATOM     16  O   UNL     1      -7.394 -26.895  32.746  1.00  0.00    -0.550 OA
ENDBRANCH  13  14
ENDBRANCH  12  13
ENDBRANCH  11  12
ENDBRANCH  10  11
ENDBRANCH   9  10
ENDBRANCH   8   9
ENDBRANCH   7   8
ENDBRANCH   6   7
ENDBRANCH   5   6
ENDBRANCH   4   5
ENDBRANCH   3   4
ENDBRANCH   2   3
ENDBRANCH   1   2
BRANCH   1  17
ATOM     17  C   UNL     1     -14.516 -22.332  20.744  1.00  0.00     0.000 C 
BRANCH  17  18
ATOM     18  C   UNL     1     -14.236 -21.506  19.476  1.00  0.00     0.000 C 
BRANCH  18  19
ATOM     19  C   UNL     1     -14.564 -22.212  18.146  1.00  0.00     0.000 C 
BRANCH  19  20
ATOM     20  C   UNL     1     -14.990 -21.254  17.014  1.00  0.00     0.000 C 
BRANCH  20  21
ATOM     21  C   UNL     1     -16.344 -21.639  16.395  1.00  0.00     0.000 C 
BRANCH  21  22
ATOM     22  C   UNL     1     -16.758 -23.054  16.813  1.00  0.00    -0.000 C 
BRANCH  22  23
ATOM     23  C   UNL     1     -18.222 -23.080  17.279  1.00  0.00    -0.000 C 
BRANCH  23  24
ATOM     24  C   UNL     1     -18.640 -21.801  18.024  1.00  0.00    -0.000 C 
BRANCH  24  25
ATOM     25  C   UNL     1     -18.242 -21.748  19.511  1.00  0.00    -0.000 C 
BRANCH  25  26
ATOM     26  C   UNL     1     -17.798 -20.346  19.963  1.00  0.00    -0.000 C 
BRANCH  26  27
ATOM     27  C   UNL     1     -17.709 -19.341  18.799  1.00  0.00    -0.000 C 
BRANCH  27  28
ATOM     28  C   UNL     1     -16.415 -18.505  18.746  1.00  0.00    -0.000 C 
BRANCH  28  29
ATOM     29  C   UNL     1     -15.908 -18.000  20.109  1.00  0.00    -0.003 C 
ATOM     30  C   UNL     1     -14.685 -17.090  19.993  1.00  0.00     0.004 C 
ENDBRANCH  28  29
ENDBRANCH  27  28
ENDBRANCH  26  27
ENDBRANCH  25  26
ENDBRANCH  24  25
ENDBRANCH  23  24
ENDBRANCH  22  23
ENDBRANCH  21  22
ENDBRANCH  20  21
ENDBRANCH  19  20
ENDBRANCH  18  19
ENDBRANCH  17  18
ENDBRANCH   1  17
TORSDOF 26
ENDMDL
MODEL 3
REMARK VINA RESULT:    -4.829      2.176      4.785
REMARK INTER + INTRA:         -15.890
REMARK INTER:                 -12.603
REMARK INTRA:                  -3.287
REMARK UNBOUND:                -3.720
REMARK SMILES CCCCCCCCCCCCCCCCCCCCCCCCCCCC(=O)[O-]
REMARK SMILES IDX 15 1 16 2 17 3 18 4 19 5 20 6 21 7 22 8 23 9 24 10 25 11
REMARK SMILES IDX 26 12 27 13 28 14 29 15 30 16 14 17 13 18 12 19 11 20 10 21
REMARK SMILES IDX 9 22 8 23 7 24 6 25 5 26 4 27 3 28 2 29 1 30
REMARK H PARENT
REMARK Flexibility Score: inf
ROOT
ATOM      1  C   UNL     1      -9.383 -25.485  32.194  1.00  0.00     0.000 C 
ENDROOT
BRANCH   1   2
ATOM      2  C   UNL     1     -10.262 -26.539  31.490  1.00  0.00     0.000 C 
BRANCH   2   3
ATOM      3  C   UNL     1     -10.755 -26.069  30.113  1.00  0.00     0.000 C 
BRANCH   3   4
ATOM      4  C   UNL     1     -10.599 -27.175  29.062  1.00  0.00     0.000 C 
BRANCH   4   5
ATOM      5  C   UNL     1      -9.546 -26.787  28.013  1.00  0.00     0.000 C 
BRANCH   5   6
ATOM      6  C   UNL     1      -9.502 -25.275  27.740  1.00  0.00     0.000 C 
BRANCH   6   7
ATOM      7  C   UNL     1     -10.713 -24.755  26.934  1.00  0.00     0.000 C 
BRANCH   7   8
ATOM      8  C   UNL     1     -10.737 -23.217  26.856  1.00  0.00     0.000 C 
BRANCH   8   9
ATOM      9  C   UNL     1     -11.850 -22.689  25.936  1.00  0.00     0.000 C 
BRANCH   9  10
ATOM     10  C   UNL     1     -12.298 -23.707  24.861  1.00  0.00     0.000 C 
BRANCH  10  11
ATOM     11  C   UNL     1     -13.787 -23.588  24.486  1.00  0.00     0.000 C 
BRANCH  11  12
ATOM     12  C   UNL     1     -14.334 -24.769  23.658  1.00  0.00     0.006 C 
BRANCH  12  13
ATOM     13  C   UNL     1     -13.724 -26.133  24.039  1.00  0.00     0.053 C 
BRANCH  13  14
ATOM     14  C   UNL     1     -14.756 -27.130  24.467  1.00  0.00     0.041 C 
ATOM     15  O   UNL     1     -14.410 -28.198  25.039  1.00  0.00    -0.550 OA
ATOM     16  O   UNL     1     -16.100 -26.891  24.211  1.00  0.00    -0.550 OA
ENDBRANCH  13  14
ENDBRANCH  12  13
ENDBRANCH  11  12
ENDBRANCH  10  11
ENDBRANCH   9  10
ENDBRANCH   8   9
ENDBRANCH   7   8
ENDBRANCH   6   7
ENDBRANCH   5   6
ENDBRANCH   4   5
ENDBRANCH   3   4
ENDBRANCH   2   3
ENDBRANCH   1   2
BRANCH   1  17
ATOM     17  C   UNL     1      -8.611 -24.562  31.229  1.00  0.00     0.000 C 
BRANCH  17  18
ATOM     18  C   UNL     1      -7.153 -24.972  30.956  1.00  0.00     0.000 C 
BRANCH  18  19
ATOM     19  C   UNL     1      -6.906 -26.490  30.848  1.00  0.00     0.000 C 
BRANCH  19  20
ATOM     20  C   UNL     1      -6.212 -26.922  29.538  1.00  0.00     0.000 C 
BRANCH  20  21
ATOM     21  C   UNL     1      -5.153 -28.012  29.766  1.00  0.00     0.000 C 
BRANCH  21  22
ATOM     22  C   UNL     1      -5.048 -28.379  31.250  1.00  0.00    -0.000 C 
BRANCH  22  23
ATOM     23  C   UNL     1      -3.631 -28.117  31.780  1.00  0.00    -0.000 C 
BRANCH  23  24
ATOM     24  C   UNL     1      -3.244 -29.039  32.949  1.00  0.00    -0.000 C 
BRANCH  24  25
ATOM     25  C   UNL     1      -2.072 -28.542  33.817  1.00  0.00    -0.000 C 
BRANCH  25  26
ATOM     26  C   UNL     1      -2.519 -28.062  35.209  1.00  0.00    -0.000 C 
BRANCH  26  27
ATOM     27  C   UNL     1      -3.163 -26.663  35.182  1.00  0.00    -0.000 C 
BRANCH  27  28
ATOM     28  C   UNL     1      -4.691 -26.635  35.392  1.00  0.00    -0.000 C 
BRANCH  28  29
ATOM     29  C   UNL     1      -5.487 -25.906  34.294  1.00  0.00    -0.003 C 
ATOM     30  C   UNL     1      -4.624 -24.963  33.456  1.00  0.00     0.004 C 
ENDBRANCH  28  29
ENDBRANCH  27  28
ENDBRANCH  26  27
ENDBRANCH  25  26
ENDBRANCH  24  25
ENDBRANCH  23  24
ENDBRANCH  22  23
ENDBRANCH  21  22
ENDBRANCH  20  21
ENDBRANCH  19  20
ENDBRANCH  18  19
ENDBRANCH  17  18
ENDBRANCH   1  17
TORSDOF 26
ENDMDL
MODEL 4
REMARK VINA RESULT:    -4.813      4.056     10.383
REMARK INTER + INTRA:         -15.848
REMARK INTER:                 -12.200
REMARK INTRA:                  -3.648
REMARK UNBOUND:                -3.720
REMARK SMILES CCCCCCCCCCCCCCCCCCCCCCCCCCCC(=O)[O-]
REMARK SMILES IDX 15 1 16 2 17 3 18 4 19 5 20 6 21 7 22 8 23 9 24 10 25 11
REMARK SMILES IDX 26 12 27 13 28 14 29 15 30 16 14 17 13 18 12 19 11 20 10 21
REMARK SMILES IDX 9 22 8 23 7 24 6 25 5 26 4 27 3 28 2 29 1 30
REMARK H PARENT
REMARK Flexibility Score: inf
ROOT
ATOM      1  C   UNL     1      -8.837 -24.855  31.833  1.00  0.00     0.000 C 
ENDROOT
BRANCH   1   2
ATOM      2  C   UNL     1      -7.480 -25.589  31.827  1.00  0.00     0.000 C 
BRANCH   2   3
ATOM      3  C   UNL     1      -7.631 -27.106  32.020  1.00  0.00     0.000 C 
BRANCH   3   4
ATOM      4  C   UNL     1      -6.923 -27.881  30.902  1.00  0.00     0.000 C 
BRANCH   4   5
ATOM      5  C   UNL     1      -6.339 -26.919  29.857  1.00  0.00     0.000 C 
BRANCH   5   6
ATOM      6  C   UNL     1      -4.989 -27.396  29.294  1.00  0.00     0.000 C 
BRANCH   6   7
ATOM      7  C   UNL     1      -4.414 -28.629  30.025  1.00  0.00     0.000 C 
BRANCH   7   8
ATOM      8  C   UNL     1      -3.356 -28.235  31.073  1.00  0.00     0.000 C 
BRANCH   8   9
ATOM      9  C   UNL     1      -3.597 -28.904  32.436  1.00  0.00     0.000 C 
BRANCH   9  10
ATOM     10  C   UNL     1      -4.210 -27.954  33.491  1.00  0.00     0.000 C 
BRANCH  10  11
ATOM     11  C   UNL     1      -4.136 -26.467  33.096  1.00  0.00     0.000 C 
BRANCH  11  12
ATOM     12  C   UNL     1      -4.546 -25.487  34.215  1.00  0.00     0.006 C 
BRANCH  12  13
ATOM     13  C   UNL     1      -5.692 -26.003  35.107  1.00  0.00     0.053 C 
BRANCH  13  14
ATOM     14  C   UNL     1      -6.799 -25.007  35.263  1.00  0.00     0.041 C 
ATOM     15  O   UNL     1      -6.598 -23.789  35.013  1.00  0.00    -0.550 OA
ATOM     16  O   UNL     1      -8.047 -25.421  35.708  1.00  0.00    -0.550 OA
ENDBRANCH  13  14
ENDBRANCH  12  13
ENDBRANCH  11  12
ENDBRANCH  10  11
ENDBRANCH   9  10
ENDBRANCH   8   9
ENDBRANCH   7   8
ENDBRANCH   6   7
ENDBRANCH   5   6
ENDBRANCH   4   5
ENDBRANCH   3   4
ENDBRANCH   2   3
ENDBRANCH   1   2
BRANCH   1  17
ATOM     17  C   UNL     1      -9.655 -25.032  30.537  1.00  0.00     0.000 C 
BRANCH  17  18
ATOM     18  C   UNL     1     -10.757 -26.105  30.598  1.00  0.00     0.000 C 
BRANCH  18  19
ATOM     19  C   UNL     1     -11.080 -26.792  29.257  1.00  0.00     0.000 C 
BRANCH  19  20
ATOM     20  C   UNL     1      -9.846 -27.375  28.537  1.00  0.00     0.000 C 
BRANCH  20  21
ATOM     21  C   UNL     1      -9.681 -26.824  27.111  1.00  0.00     0.000 C 
BRANCH  21  22
ATOM     22  C   UNL     1     -10.016 -25.330  27.056  1.00  0.00    -0.000 C 
BRANCH  22  23
ATOM     23  C   UNL     1     -10.631 -24.957  25.699  1.00  0.00    -0.000 C 
BRANCH  23  24
ATOM     24  C   UNL     1     -11.572 -23.742  25.777  1.00  0.00    -0.000 C 
BRANCH  24  25
ATOM     25  C   UNL     1     -12.796 -23.800  24.844  1.00  0.00    -0.000 C 
BRANCH  25  26
ATOM     26  C   UNL     1     -13.182 -25.238  24.451  1.00  0.00    -0.000 C 
BRANCH  26  27
ATOM     27  C   UNL     1     -14.444 -25.300  23.571  1.00  0.00    -0.000 C 
BRANCH  27  28
ATOM     28  C   UNL     1     -15.783 -25.246  24.333  1.00  0.00    -0.000 C 
BRANCH  28  29
ATOM     29  C   UNL     1     -16.435 -26.614  24.604  1.00  0.00    -0.003 C 
ATOM     30  C   UNL     1     -16.043 -27.207  25.957  1.00  0.00     0.004 C 
ENDBRANCH  28  29
ENDBRANCH  27  28
ENDBRANCH  26  27
ENDBRANCH  25  26
ENDBRANCH  24  25
ENDBRANCH  23  24
ENDBRANCH  22  23
ENDBRANCH  21  22
ENDBRANCH  20  21
ENDBRANCH  19  20
ENDBRANCH  18  19
ENDBRANCH  17  18
ENDBRANCH   1  17
TORSDOF 26
ENDMDL
MODEL 5
REMARK VINA RESULT:    -4.805      3.658      9.698
REMARK INTER + INTRA:         -15.828
REMARK INTER:                 -12.977
REMARK INTRA:                  -2.851
REMARK UNBOUND:                -3.720
REMARK SMILES CCCCCCCCCCCCCCCCCCCCCCCCCCCC(=O)[O-]
REMARK SMILES IDX 15 1 16 2 17 3 18 4 19 5 20 6 21 7 22 8 23 9 24 10 25 11
REMARK SMILES IDX 26 12 27 13 28 14 29 15 30 16 14 17 13 18 12 19 11 20 10 21
REMARK SMILES IDX 9 22 8 23 7 24 6 25 5 26 4 27 3 28 2 29 1 30
REMARK H PARENT
REMARK Flexibility Score: inf
ROOT
ATOM      1  C   UNL     1     -10.976 -26.140  32.840  1.00  0.00     0.000 C 
ENDROOT
BRANCH   1   2
ATOM      2  C   UNL     1      -9.498 -25.980  32.428  1.00  0.00     0.000 C 
BRANCH   2   3
ATOM      3  C   UNL     1      -9.260 -24.734  31.562  1.00  0.00     0.000 C 
BRANCH   3   4
ATOM      4  C   UNL     1      -7.910 -24.083  31.886  1.00  0.00     0.000 C 
BRANCH   4   5
ATOM      5  C   UNL     1      -7.207 -24.825  33.032  1.00  0.00     0.000 C 
BRANCH   5   6
ATOM      6  C   UNL     1      -5.740 -25.163  32.715  1.00  0.00     0.000 C 
BRANCH   6   7
ATOM      7  C   UNL     1      -5.448 -25.297  31.205  1.00  0.00     0.000 C 
BRANCH   7   8
ATOM      8  C   UNL     1      -4.868 -26.679  30.851  1.00  0.00     0.000 C 
BRANCH   8   9
ATOM      9  C   UNL     1      -5.895 -27.811  31.014  1.00  0.00     0.000 C 
BRANCH   9  10
ATOM     10  C   UNL     1      -7.222 -27.555  30.260  1.00  0.00     0.000 C 
BRANCH  10  11
ATOM     11  C   UNL     1      -7.025 -27.204  28.773  1.00  0.00     0.000 C 
BRANCH  11  12
ATOM     12  C   UNL     1      -8.335 -27.078  27.968  1.00  0.00     0.006 C 
BRANCH  12  13
ATOM     13  C   UNL     1      -9.149 -25.811  28.295  1.00  0.00     0.053 C 
BRANCH  13  14
ATOM     14  C   UNL     1     -10.165 -25.487  27.245  1.00  0.00     0.041 C 
ATOM     15  O   UNL     1     -10.011 -24.484  26.498  1.00  0.00    -0.550 OA
ATOM     16  O   UNL     1     -11.297 -26.280  27.106  1.00  0.00    -0.550 OA
ENDBRANCH  13  14
ENDBRANCH  12  13
ENDBRANCH  11  12
ENDBRANCH  10  11
ENDBRANCH   9  10
ENDBRANCH   8   9
ENDBRANCH   7   8
ENDBRANCH   6   7
ENDBRANCH   5   6
ENDBRANCH   4   5
ENDBRANCH   3   4
ENDBRANCH   2   3
ENDBRANCH   1   2
BRANCH   1  17
ATOM     17  C   UNL     1     -11.257 -25.809  34.320  1.00  0.00     0.000 C 
BRANCH  17  18
ATOM     18  C   UNL     1     -12.743 -25.812  34.722  1.00  0.00     0.000 C 
BRANCH  18  19
ATOM     19  C   UNL     1     -13.741 -25.787  33.548  1.00  0.00     0.000 C 
BRANCH  19  20
ATOM     20  C   UNL     1     -15.186 -25.432  33.960  1.00  0.00     0.000 C 
BRANCH  20  21
ATOM     21  C   UNL     1     -16.228 -25.958  32.960  1.00  0.00     0.000 C 
BRANCH  21  22
ATOM     22  C   UNL     1     -15.566 -26.800  31.864  1.00  0.00    -0.000 C 
BRANCH  22  23
ATOM     23  C   UNL     1     -16.448 -28.000  31.488  1.00  0.00    -0.000 C 
BRANCH  23  24
ATOM     24  C   UNL     1     -17.551 -28.286  32.523  1.00  0.00    -0.000 C 
BRANCH  24  25
ATOM     25  C   UNL     1     -18.917 -28.680  31.934  1.00  0.00    -0.000 C 
BRANCH  25  26
ATOM     26  C   UNL     1     -19.373 -27.745  30.800  1.00  0.00    -0.000 C 
BRANCH  26  27
ATOM     27  C   UNL     1     -20.022 -28.499  29.625  1.00  0.00    -0.000 C 
BRANCH  27  28
ATOM     28  C   UNL     1     -19.231 -28.467  28.301  1.00  0.00    -0.000 C 
BRANCH  28  29
ATOM     29  C   UNL     1     -18.077 -27.448  28.257  1.00  0.00    -0.003 C 
ATOM     30  C   UNL     1     -16.913 -27.902  27.377  1.00  0.00     0.004 C 
ENDBRANCH  28  29
ENDBRANCH  27  28
ENDBRANCH  26  27
ENDBRANCH  25  26
ENDBRANCH  24  25
ENDBRANCH  23  24
ENDBRANCH  22  23
ENDBRANCH  21  22
ENDBRANCH  20  21
ENDBRANCH  19  20
ENDBRANCH  18  19
ENDBRANCH  17  18
ENDBRANCH   1  17
TORSDOF 26
ENDMDL
MODEL 6
REMARK VINA RESULT:    -4.749      1.689      2.570
REMARK INTER + INTRA:         -15.688
REMARK INTER:                 -12.757
REMARK INTRA:                  -2.931
REMARK UNBOUND:                -3.720
REMARK SMILES CCCCCCCCCCCCCCCCCCCCCCCCCCCC(=O)[O-]
REMARK SMILES IDX 15 1 16 2 17 3 18 4 19 5 20 6 21 7 22 8 23 9 24 10 25 11
REMARK SMILES IDX 26 12 27 13 28 14 29 15 30 16 14 17 13 18 12 19 11 20 10 21
REMARK SMILES IDX 9 22 8 23 7 24 6 25 5 26 4 27 3 28 2 29 1 30
REMARK H PARENT
REMARK Flexibility Score: inf
ROOT
ATOM      1  C   UNL     1     -10.432 -24.340  26.264  1.00  0.00     0.000 C 
ENDROOT
BRANCH   1   2
ATOM      2  C   UNL     1     -11.073 -22.943  26.390  1.00  0.00     0.000 C 
BRANCH   2   3
ATOM      3  C   UNL     1     -12.268 -22.756  25.443  1.00  0.00     0.000 C 
BRANCH   3   4
ATOM      4  C   UNL     1     -12.733 -24.099  24.865  1.00  0.00     0.000 C 
BRANCH   4   5
ATOM      5  C   UNL     1     -14.126 -23.967  24.232  1.00  0.00     0.000 C 
BRANCH   5   6
ATOM      6  C   UNL     1     -14.470 -25.137  23.296  1.00  0.00     0.000 C 
BRANCH   6   7
ATOM      7  C   UNL     1     -13.941 -26.502  23.789  1.00  0.00     0.000 C 
BRANCH   7   8
ATOM      8  C   UNL     1     -15.053 -27.355  24.427  1.00  0.00     0.000 C 
BRANCH   8   9
ATOM      9  C   UNL     1     -14.929 -27.437  25.957  1.00  0.00     0.000 C 
BRANCH   9  10
ATOM     10  C   UNL     1     -16.200 -27.983  26.652  1.00  0.00     0.000 C 
BRANCH  10  11
ATOM     11  C   UNL     1     -16.125 -27.941  28.189  1.00  0.00     0.000 C 
BRANCH  11  12
ATOM     12  C   UNL     1     -17.440 -27.526  28.882  1.00  0.00     0.006 C 
BRANCH  12  13
ATOM     13  C   UNL     1     -17.931 -26.116  28.495  1.00  0.00     0.053 C 
BRANCH  13  14
ATOM     14  C   UNL     1     -17.760 -25.120  29.598  1.00  0.00     0.041 C 
ATOM     15  O   UNL     1     -18.085 -23.915  29.424  1.00  0.00    -0.550 OA
ATOM     16  O   UNL     1     -17.217 -25.517  30.813  1.00  0.00    -0.550 OA
ENDBRANCH  13  14
ENDBRANCH  12  13
ENDBRANCH  11  12
ENDBRANCH  10  11
ENDBRANCH   9  10
ENDBRANCH   8   9
ENDBRANCH   7   8
ENDBRANCH   6   7
ENDBRANCH   5   6
ENDBRANCH   4   5
ENDBRANCH   3   4
ENDBRANCH   2   3
ENDBRANCH   1   2
BRANCH   1  17
ATOM     17  C   UNL     1      -9.775 -24.851  27.563  1.00  0.00     0.000 C 
BRANCH  17  18
ATOM     18  C   UNL     1     -10.343 -26.173  28.110  1.00  0.00     0.000 C 
BRANCH  18  19
ATOM     19  C   UNL     1      -9.759 -27.451  27.476  1.00  0.00     0.000 C 
BRANCH  19  20
ATOM     20  C   UNL     1      -8.234 -27.603  27.660  1.00  0.00     0.000 C 
BRANCH  20  21
ATOM     21  C   UNL     1      -7.776 -27.256  29.085  1.00  0.00     0.000 C 
BRANCH  21  22
ATOM     22  C   UNL     1      -6.258 -27.054  29.143  1.00  0.00    -0.000 C 
BRANCH  22  23
ATOM     23  C   UNL     1      -5.655 -27.780  30.355  1.00  0.00    -0.000 C 
BRANCH  23  24
ATOM     24  C   UNL     1      -6.651 -27.940  31.518  1.00  0.00    -0.000 C 
BRANCH  24  25
ATOM     25  C   UNL     1      -6.250 -27.233  32.826  1.00  0.00    -0.000 C 
BRANCH  25  26
ATOM     26  C   UNL     1      -5.789 -25.782  32.606  1.00  0.00    -0.000 C 
BRANCH  26  27
ATOM     27  C   UNL     1      -6.934 -24.761  32.744  1.00  0.00    -0.000 C 
BRANCH  27  28
ATOM     28  C   UNL     1      -7.497 -24.217  31.416  1.00  0.00    -0.000 C 
BRANCH  28  29
ATOM     29  C   UNL     1      -9.003 -24.454  31.201  1.00  0.00    -0.003 C 
ATOM     30  C   UNL     1      -9.565 -25.571  32.080  1.00  0.00     0.004 C 
ENDBRANCH  28  29
ENDBRANCH  27  28
ENDBRANCH  26  27
ENDBRANCH  25  26
ENDBRANCH  24  25
ENDBRANCH  23  24
ENDBRANCH  22  23
ENDBRANCH  21  22
ENDBRANCH  20  21
ENDBRANCH  19  20
ENDBRANCH  18  19
ENDBRANCH  17  18
ENDBRANCH   1  17
TORSDOF 26
ENDMDL
MODEL 7
REMARK VINA RESULT:    -4.705      5.439     12.608
REMARK INTER + INTRA:         -15.576
REMARK INTER:                 -12.742
REMARK INTRA:                  -2.834
REMARK UNBOUND:                -3.720
REMARK SMILES CCCCCCCCCCCCCCCCCCCCCCCCCCCC(=O)[O-]
REMARK SMILES IDX 15 1 16 2 17 3 18 4 19 5 20 6 21 7 22 8 23 9 24 10 25 11
REMARK SMILES IDX 26 12 27 13 28 14 29 15 30 16 14 17 13 18 12 19 11 20 10 21
REMARK SMILES IDX 9 22 8 23 7 24 6 25 5 26 4 27 3 28 2 29 1 30
REMARK H PARENT
REMARK Flexibility Score: inf
ROOT
ATOM      1  C   UNL     1     -14.509 -24.261  23.019  1.00  0.00     0.000 C 
ENDROOT
BRANCH   1   2
ATOM      2  C   UNL     1     -14.707 -25.563  23.823  1.00  0.00     0.000 C 
BRANCH   2   3
ATOM      3  C   UNL     1     -13.424 -26.014  24.536  1.00  0.00     0.000 C 
BRANCH   3   4
ATOM      4  C   UNL     1     -12.524 -24.817  24.869  1.00  0.00     0.000 C 
BRANCH   4   5
ATOM      5  C   UNL     1     -11.191 -25.287  25.469  1.00  0.00     0.000 C 
BRANCH   5   6
ATOM      6  C   UNL     1     -10.615 -24.298  26.496  1.00  0.00     0.000 C 
BRANCH   6   7
ATOM      7  C   UNL     1     -10.013 -24.981  27.743  1.00  0.00     0.000 C 
BRANCH   7   8
ATOM      8  C   UNL     1     -10.756 -26.280  28.105  1.00  0.00     0.000 C 
BRANCH   8   9
ATOM      9  C   UNL     1      -9.799 -27.433  28.448  1.00  0.00     0.000 C 
BRANCH   9  10
ATOM     10  C   UNL     1      -8.382 -27.259  27.853  1.00  0.00     0.000 C 
BRANCH  10  11
ATOM     11  C   UNL     1      -7.258 -27.364  28.900  1.00  0.00     0.000 C 
BRANCH  11  12
ATOM     12  C   UNL     1      -7.401 -26.392  30.090  1.00  0.00     0.006 C 
BRANCH  12  13
ATOM     13  C   UNL     1      -7.690 -27.090  31.434  1.00  0.00     0.053 C 
BRANCH  13  14
ATOM     14  C   UNL     1      -8.845 -26.482  32.167  1.00  0.00     0.041 C 
ATOM     15  O   UNL     1     -10.019 -26.881  31.948  1.00  0.00    -0.550 OA
ATOM     16  O   UNL     1      -8.626 -25.454  33.074  1.00  0.00    -0.550 OA
ENDBRANCH  13  14
ENDBRANCH  12  13
ENDBRANCH  11  12
ENDBRANCH  10  11
ENDBRANCH   9  10
ENDBRANCH   8   9
ENDBRANCH   7   8
ENDBRANCH   6   7
ENDBRANCH   5   6
ENDBRANCH   4   5
ENDBRANCH   3   4
ENDBRANCH   2   3
ENDBRANCH   1   2
BRANCH   1  17
ATOM     17  C   UNL     1     -15.246 -24.240  21.663  1.00  0.00     0.000 C 
BRANCH  17  18
ATOM     18  C   UNL     1     -14.982 -22.998  20.793  1.00  0.00     0.000 C 
BRANCH  18  19
ATOM     19  C   UNL     1     -15.820 -22.911  19.502  1.00  0.00     0.000 C 
BRANCH  19  20
ATOM     20  C   UNL     1     -15.034 -22.401  18.276  1.00  0.00     0.000 C 
BRANCH  20  21
ATOM     21  C   UNL     1     -15.705 -22.784  16.946  1.00  0.00     0.000 C 
BRANCH  21  22
ATOM     22  C   UNL     1     -16.835 -23.794  17.169  1.00  0.00    -0.000 C 
BRANCH  22  23
ATOM     23  C   UNL     1     -18.044 -23.467  16.279  1.00  0.00    -0.000 C 
BRANCH  23  24
ATOM     24  C   UNL     1     -19.329 -23.201  17.081  1.00  0.00    -0.000 C 
BRANCH  24  25
ATOM     25  C   UNL     1     -19.188 -22.184  18.229  1.00  0.00    -0.000 C 
BRANCH  25  26
ATOM     26  C   UNL     1     -19.111 -20.729  17.733  1.00  0.00    -0.000 C 
BRANCH  26  27
ATOM     27  C   UNL     1     -17.877 -19.978  18.268  1.00  0.00    -0.000 C 
BRANCH  27  28
ATOM     28  C   UNL     1     -17.803 -19.840  19.802  1.00  0.00    -0.000 C 
BRANCH  28  29
ATOM     29  C   UNL     1     -16.430 -19.410  20.352  1.00  0.00    -0.003 C 
ATOM     30  C   UNL     1     -15.988 -18.036  19.849  1.00  0.00     0.004 C 
ENDBRANCH  28  29
ENDBRANCH  27  28
ENDBRANCH  26  27
ENDBRANCH  25  26
ENDBRANCH  24  25
ENDBRANCH  23  24
ENDBRANCH  22  23
ENDBRANCH  21  22
ENDBRANCH  20  21
ENDBRANCH  19  20
ENDBRANCH  18  19
ENDBRANCH  17  18
ENDBRANCH   1  17
TORSDOF 26
ENDMDL
MODEL 8
REMARK VINA RESULT:    -4.668      2.457      3.721
REMARK INTER + INTRA:         -15.484
REMARK INTER:                 -12.110
REMARK INTRA:                  -3.374
REMARK UNBOUND:                -3.720
REMARK SMILES CCCCCCCCCCCCCCCCCCCCCCCCCCCC(=O)[O-]
REMARK SMILES IDX 15 1 16 2 17 3 18 4 19 5 20 6 21 7 22 8 23 9 24 10 25 11
REMARK SMILES IDX 26 12 27 13 28 14 29 15 30 16 14 17 13 18 12 19 11 20 10 21
REMARK SMILES IDX 9 22 8 23 7 24 6 25 5 26 4 27 3 28 2 29 1 30
REMARK H PARENT
REMARK Flexibility Score: inf
ROOT
ATOM      1  C   UNL     1     -11.493 -23.384  25.672  1.00  0.00     0.000 C 
ENDROOT
BRANCH   1   2
ATOM      2  C   UNL     1     -12.736 -23.898  24.917  1.00  0.00     0.000 C 
BRANCH   2   3
ATOM      3  C   UNL     1     -12.632 -25.389  24.559  1.00  0.00     0.000 C 
BRANCH   3   4
ATOM      4  C   UNL     1     -13.996 -26.082  24.669  1.00  0.00     0.000 C 
BRANCH   4   5
ATOM      5  C   UNL     1     -14.966 -25.549  23.605  1.00  0.00     0.000 C 
BRANCH   5   6
ATOM      6  C   UNL     1     -16.430 -25.550  24.076  1.00  0.00     0.000 C 
BRANCH   6   7
ATOM      7  C   UNL     1     -16.692 -24.625  25.285  1.00  0.00     0.000 C 
BRANCH   7   8
ATOM      8  C   UNL     1     -17.529 -25.323  26.373  1.00  0.00     0.000 C 
BRANCH   8   9
ATOM      9  C   UNL     1     -17.857 -26.784  26.021  1.00  0.00     0.000 C 
BRANCH   9  10
ATOM     10  C   UNL     1     -17.569 -27.777  27.171  1.00  0.00     0.000 C 
BRANCH  10  11
ATOM     11  C   UNL     1     -16.067 -27.992  27.436  1.00  0.00     0.000 C 
BRANCH  11  12
ATOM     12  C   UNL     1     -15.670 -27.962  28.926  1.00  0.00     0.006 C 
BRANCH  12  13
ATOM     13  C   UNL     1     -16.683 -27.227  29.827  1.00  0.00     0.053 C 
BRANCH  13  14
ATOM     14  C   UNL     1     -16.547 -27.595  31.271  1.00  0.00     0.041 C 
ATOM     15  O   UNL     1     -16.396 -28.799  31.611  1.00  0.00    -0.550 OA
ATOM     16  O   UNL     1     -16.613 -26.609  32.247  1.00  0.00    -0.550 OA
ENDBRANCH  13  14
ENDBRANCH  12  13
ENDBRANCH  11  12
ENDBRANCH  10  11
ENDBRANCH   9  10
ENDBRANCH   8   9
ENDBRANCH   7   8
ENDBRANCH   6   7
ENDBRANCH   5   6
ENDBRANCH   4   5
ENDBRANCH   3   4
ENDBRANCH   2   3
ENDBRANCH   1   2
BRANCH   1  17
ATOM     17  C   UNL     1     -10.410 -24.458  25.907  1.00  0.00     0.000 C 
BRANCH  17  18
ATOM     18  C   UNL     1     -10.016 -24.681  27.377  1.00  0.00     0.000 C 
BRANCH  18  19
ATOM     19  C   UNL     1     -10.800 -25.790  28.107  1.00  0.00     0.000 C 
BRANCH  19  20
ATOM     20  C   UNL     1     -10.060 -27.142  28.175  1.00  0.00     0.000 C 
BRANCH  20  21
ATOM     21  C   UNL     1      -8.533 -26.981  28.118  1.00  0.00     0.000 C 
BRANCH  21  22
ATOM     22  C   UNL     1      -7.895 -27.281  29.478  1.00  0.00    -0.000 C 
BRANCH  22  23
ATOM     23  C   UNL     1      -6.370 -27.105  29.418  1.00  0.00    -0.000 C 
BRANCH  23  24
ATOM     24  C   UNL     1      -5.832 -26.140  30.489  1.00  0.00    -0.000 C 
BRANCH  24  25
ATOM     25  C   UNL     1      -6.283 -26.442  31.930  1.00  0.00    -0.000 C 
BRANCH  25  26
ATOM     26  C   UNL     1      -6.947 -25.234  32.615  1.00  0.00    -0.000 C 
BRANCH  26  27
ATOM     27  C   UNL     1      -7.666 -24.302  31.621  1.00  0.00    -0.000 C 
BRANCH  27  28
ATOM     28  C   UNL     1      -9.139 -24.656  31.332  1.00  0.00    -0.000 C 
BRANCH  28  29
ATOM     29  C   UNL     1      -9.800 -25.588  32.363  1.00  0.00    -0.003 C 
ATOM     30  C   UNL     1     -11.058 -26.274  31.830  1.00  0.00     0.004 C 
ENDBRANCH  28  29
ENDBRANCH  27  28
ENDBRANCH  26  27
ENDBRANCH  25  26
ENDBRANCH  24  25
ENDBRANCH  23  24
ENDBRANCH  22  23
ENDBRANCH  21  22
ENDBRANCH  20  21
ENDBRANCH  19  20
ENDBRANCH  18  19
ENDBRANCH  17  18
ENDBRANCH   1  17
TORSDOF 26
ENDMDL
MODEL 9
REMARK VINA RESULT:    -4.627      4.104     10.385
REMARK INTER + INTRA:         -15.379
REMARK INTER:                 -11.923
REMARK INTRA:                  -3.456
REMARK UNBOUND:                -3.720
REMARK SMILES CCCCCCCCCCCCCCCCCCCCCCCCCCCC(=O)[O-]
REMARK SMILES IDX 15 1 16 2 17 3 18 4 19 5 20 6 21 7 22 8 23 9 24 10 25 11
REMARK SMILES IDX 26 12 27 13 28 14 29 15 30 16 14 17 13 18 12 19 11 20 10 21
REMARK SMILES IDX 9 22 8 23 7 24 6 25 5 26 4 27 3 28 2 29 1 30
REMARK H PARENT
REMARK Flexibility Score: inf
ROOT
ATOM      1  C   UNL     1     -10.165 -23.867  26.411  1.00  0.00     0.000 C 
ENDROOT
BRANCH   1   2
ATOM      2  C   UNL     1     -10.029 -24.691  27.708  1.00  0.00     0.000 C 
BRANCH   2   3
ATOM      3  C   UNL     1     -10.538 -26.131  27.546  1.00  0.00     0.000 C 
BRANCH   3   4
ATOM      4  C   UNL     1      -9.377 -27.133  27.547  1.00  0.00     0.000 C 
BRANCH   4   5
ATOM      5  C   UNL     1      -8.515 -26.970  28.807  1.00  0.00     0.000 C 
BRANCH   5   6
ATOM      6  C   UNL     1      -9.211 -27.482  30.079  1.00  0.00     0.000 C 
BRANCH   6   7
ATOM      7  C   UNL     1      -8.856 -26.675  31.347  1.00  0.00     0.000 C 
BRANCH   7   8
ATOM      8  C   UNL     1      -9.080 -25.165  31.151  1.00  0.00     0.000 C 
BRANCH   8   9
ATOM      9  C   UNL     1      -7.778 -24.355  31.263  1.00  0.00     0.000 C 
BRANCH   9  10
ATOM     10  C   UNL     1      -6.919 -24.732  32.492  1.00  0.00     0.000 C 
BRANCH  10  11
ATOM     11  C   UNL     1      -5.417 -24.864  32.175  1.00  0.00     0.000 C 
BRANCH  11  12
ATOM     12  C   UNL     1      -4.939 -26.312  31.941  1.00  0.00     0.006 C 
BRANCH  12  13
ATOM     13  C   UNL     1      -5.077 -26.786  30.480  1.00  0.00     0.053 C 
BRANCH  13  14
ATOM     14  C   UNL     1      -3.875 -27.538  29.999  1.00  0.00     0.041 C 
ATOM     15  O   UNL     1      -3.128 -28.136  30.819  1.00  0.00    -0.550 OA
ATOM     16  O   UNL     1      -3.565 -27.558  28.646  1.00  0.00    -0.550 OA
ENDBRANCH  13  14
ENDBRANCH  12  13
ENDBRANCH  11  12
ENDBRANCH  10  11
ENDBRANCH   9  10
ENDBRANCH   8   9
ENDBRANCH   7   8
ENDBRANCH   6   7
ENDBRANCH   5   6
ENDBRANCH   4   5
ENDBRANCH   3   4
ENDBRANCH   2   3
ENDBRANCH   1   2
BRANCH   1  17
ATOM     17  C   UNL     1     -11.225 -22.748  26.484  1.00  0.00     0.000 C 
BRANCH  17  18
ATOM     18  C   UNL     1     -12.288 -22.777  25.372  1.00  0.00     0.000 C 
BRANCH  18  19
ATOM     19  C   UNL     1     -12.594 -24.172  24.792  1.00  0.00     0.000 C 
BRANCH  19  20
ATOM     20  C   UNL     1     -14.007 -24.305  24.186  1.00  0.00     0.000 C 
BRANCH  20  21
ATOM     21  C   UNL     1     -14.534 -25.748  24.233  1.00  0.00     0.000 C 
BRANCH  21  22
ATOM     22  C   UNL     1     -13.720 -26.601  25.211  1.00  0.00    -0.000 C 
BRANCH  22  23
ATOM     23  C   UNL     1     -14.287 -28.026  25.297  1.00  0.00    -0.000 C 
BRANCH  23  24
ATOM     24  C   UNL     1     -15.782 -28.059  25.662  1.00  0.00    -0.000 C 
BRANCH  24  25
ATOM     25  C   UNL     1     -16.117 -27.616  27.098  1.00  0.00    -0.000 C 
BRANCH  25  26
ATOM     26  C   UNL     1     -17.422 -26.806  27.186  1.00  0.00    -0.000 C 
BRANCH  26  27
ATOM     27  C   UNL     1     -17.263 -25.356  26.692  1.00  0.00    -0.000 C 
BRANCH  27  28
ATOM     28  C   UNL     1     -18.074 -24.994  25.432  1.00  0.00    -0.000 C 
BRANCH  28  29
ATOM     29  C   UNL     1     -18.822 -26.171  24.778  1.00  0.00    -0.003 C 
ATOM     30  C   UNL     1     -18.277 -26.531  23.396  1.00  0.00     0.004 C 
ENDBRANCH  28  29
ENDBRANCH  27  28
ENDBRANCH  26  27
ENDBRANCH  25  26
ENDBRANCH  24  25
ENDBRANCH  23  24
ENDBRANCH  22  23
ENDBRANCH  21  22
ENDBRANCH  20  21
ENDBRANCH  19  20
ENDBRANCH  18  19
ENDBRANCH  17  18
ENDBRANCH   1  17
TORSDOF 26
ENDMDL
