MODEL 1
REMARK VINA RESULT:    -4.113      0.000      0.000
REMARK INTER + INTRA:          -7.337
REMARK INTER:                  -6.277
REMARK INTRA:                  -1.059
REMARK UNBOUND:                -1.059
REMARK SMILES CCCCCCCCCCC(=O)[O-]
REMARK SMILES IDX 7 1 8 2 9 3 10 4 11 5 12 6 13 7 6 8 5 9 4 10 3 11 2 12 1 13
REMARK H PARENT
REMARK Flexibility Score: inf
ROOT
ATOM      1  C   UNL     1      -7.393  26.000  24.007  1.00  0.00     0.000 C 
ENDROOT
BRANCH   1   2
ATOM      2  C   UNL     1      -7.078  25.784  22.520  1.00  0.00     0.000 C 
BRANCH   2   3
ATOM      3  C   UNL     1      -7.951  24.692  21.882  1.00  0.00     0.006 C 
BRANCH   3   4
ATOM      4  C   UNL     1      -8.373  25.035  20.448  1.00  0.00     0.053 C 
BRANCH   4   5
ATOM      5  C   UNL     1      -9.258  26.240  20.439  1.00  0.00     0.041 C 
ATOM      6  O   UNL     1      -8.850  27.323  19.943  1.00  0.00    -0.550 OA
ATOM      7  O   UNL     1     -10.519  26.182  21.020  1.00  0.00    -0.550 OA
ENDBRANCH   4   5
ENDBRANCH   3   4
ENDBRANCH   2   3
ENDBRANCH   1   2
BRANCH   1   8
ATOM      8  C   UNL     1      -8.785  25.460  24.357  1.00  0.00     0.000 C 
BRANCH   8   9
ATOM      9  C   UNL     1      -9.301  26.072  25.666  1.00  0.00    -0.000 C 
BRANCH   9  10
ATOM     10  C   UNL     1      -9.655  27.555  25.479  1.00  0.00    -0.000 C 
BRANCH  10  11
ATOM     11  C   UNL     1     -10.458  27.807  24.187  1.00  0.00    -0.000 C 
BRANCH  11  12
ATOM     12  C   UNL     1      -9.877  28.928  23.308  1.00  0.00    -0.003 C 
ATOM     13  C   UNL     1      -8.826  29.770  24.030  1.00  0.00     0.004 C 
ENDBRANCH  11  12
ENDBRANCH  10  11
ENDBRANCH   9  10
ENDBRANCH   8   9
ENDBRANCH   1   8
TORSDOF 9
ENDMDL
MODEL 2
REMARK VINA RESULT:    -4.108      2.146      4.647
REMARK INTER + INTRA:          -7.329
REMARK INTER:                  -6.353
REMARK INTRA:                  -0.976
REMARK UNBOUND:                -1.059
REMARK SMILES CCCCCCCCCCC(=O)[O-]
REMARK SMILES IDX 7 1 8 2 9 3 10 4 11 5 12 6 13 7 6 8 5 9 4 10 3 11 2 12 1 13
REMARK H PARENT
REMARK Flexibility Score: inf
ROOT
ATOM      1  C   UNL     1      -8.205  25.563  23.652  1.00  0.00     0.000 C 
ENDROOT
BRANCH   1   2
ATOM      2  C   UNL     1      -7.562  26.465  24.715  1.00  0.00     0.000 C 
BRANCH   2   3
ATOM      3  C   UNL     1      -8.511  27.567  25.208  1.00  0.00     0.006 C 
BRANCH   3   4
ATOM      4  C   UNL     1      -9.609  27.901  24.191  1.00  0.00     0.053 C 
BRANCH   4   5
ATOM      5  C   UNL     1      -9.263  29.147  23.440  1.00  0.00     0.041 C 
ATOM      6  O   UNL     1      -8.629  30.075  24.009  1.00  0.00    -0.550 OA
ATOM      7  O   UNL     1      -9.683  29.306  22.125  1.00  0.00    -0.550 OA
ENDBRANCH   4   5
ENDBRANCH   3   4
ENDBRANCH   2   3
ENDBRANCH   1   2
BRANCH   1   8
ATOM      8  C   UNL     1      -7.444  25.652  22.323  1.00  0.00     0.000 C 
BRANCH   8   9
ATOM      9  C   UNL     1      -8.388  26.019  21.171  1.00  0.00    -0.000 C 
BRANCH   9  10
ATOM     10  C   UNL     1      -9.749  25.324  21.329  1.00  0.00    -0.000 C 
BRANCH  10  11
ATOM     11  C   UNL     1      -9.814  23.986  20.563  1.00  0.00    -0.000 C 
BRANCH  11  12
ATOM     12  C   UNL     1     -10.153  22.781  21.455  1.00  0.00    -0.003 C 
ATOM     13  C   UNL     1      -8.965  22.299  22.286  1.00  0.00     0.004 C 
ENDBRANCH  11  12
ENDBRANCH  10  11
ENDBRANCH   9  10
ENDBRANCH   8   9
ENDBRANCH   1   8
TORSDOF 9
ENDMDL
MODEL 3
REMARK VINA RESULT:    -3.985      2.467      4.902
REMARK INTER + INTRA:          -7.141
REMARK INTER:                  -5.868
REMARK INTRA:                  -1.273
REMARK UNBOUND:                -1.059
REMARK SMILES CCCCCCCCCCC(=O)[O-]
REMARK SMILES IDX 7 1 8 2 9 3 10 4 11 5 12 6 13 7 6 8 5 9 4 10 3 11 2 12 1 13
REMARK H PARENT
REMARK Flexibility Score: inf
ROOT
ATOM      1  C   UNL     1      -7.357  25.826  22.503  1.00  0.00     0.000 C 
ENDROOT
BRANCH   1   2
ATOM      2  C   UNL     1      -7.408  26.110  24.011  1.00  0.00     0.000 C 
BRANCH   2   3
ATOM      3  C   UNL     1      -8.496  25.298  24.730  1.00  0.00     0.006 C 
BRANCH   3   4
ATOM      4  C   UNL     1      -9.860  25.998  24.718  1.00  0.00     0.053 C 
BRANCH   4   5
ATOM      5  C   UNL     1      -9.801  27.271  25.500  1.00  0.00     0.041 C 
ATOM      6  O   UNL     1     -10.018  28.374  24.932  1.00  0.00    -0.550 OA
ATOM      7  O   UNL     1      -9.457  27.246  26.846  1.00  0.00    -0.550 OA
ENDBRANCH   4   5
ENDBRANCH   3   4
ENDBRANCH   2   3
ENDBRANCH   1   2
BRANCH   1   8
ATOM      8  C   UNL     1      -8.123  26.896  21.717  1.00  0.00     0.000 C 
BRANCH   8   9
ATOM      9  C   UNL     1      -9.040  26.258  20.666  1.00  0.00    -0.000 C 
BRANCH   9  10
ATOM     10  C   UNL     1      -8.785  24.747  20.555  1.00  0.00    -0.000 C 
BRANCH  10  11
ATOM     11  C   UNL     1     -10.068  23.920  20.780  1.00  0.00    -0.000 C 
BRANCH  11  12
ATOM     12  C   UNL     1     -10.077  23.146  22.109  1.00  0.00    -0.003 C 
ATOM     13  C   UNL     1      -8.788  22.363  22.354  1.00  0.00     0.004 C 
ENDBRANCH  11  12
ENDBRANCH  10  11
ENDBRANCH   9  10
ENDBRANCH   8   9
ENDBRANCH   1   8
TORSDOF 9
ENDMDL
MODEL 4
REMARK VINA RESULT:    -3.977      1.541      2.734
REMARK INTER + INTRA:          -7.129
REMARK INTER:                  -5.883
REMARK INTRA:                  -1.246
REMARK UNBOUND:                -1.059
REMARK SMILES CCCCCCCCCCC(=O)[O-]
REMARK SMILES IDX 7 1 8 2 9 3 10 4 11 5 12 6 13 7 6 8 5 9 4 10 3 11 2 12 1 13
REMARK H PARENT
REMARK Flexibility Score: inf
ROOT
ATOM      1  C   UNL     1      -7.775  24.837  22.132  1.00  0.00     0.000 C 
ENDROOT
BRANCH   1   2
ATOM      2  C   UNL     1      -9.241  24.594  22.520  1.00  0.00     0.000 C 
BRANCH   2   3
ATOM      3  C   UNL     1     -10.228  25.245  21.539  1.00  0.00     0.006 C 
BRANCH   3   4
ATOM      4  C   UNL     1     -10.741  26.604  22.032  1.00  0.00     0.053 C 
BRANCH   4   5
ATOM      5  C   UNL     1      -9.996  27.717  21.367  1.00  0.00     0.041 C 
ATOM      6  O   UNL     1      -9.342  27.500  20.313  1.00  0.00    -0.550 OA
ATOM      7  O   UNL     1      -9.984  28.984  21.935  1.00  0.00    -0.550 OA
ENDBRANCH   4   5
ENDBRANCH   3   4
ENDBRANCH   2   3
ENDBRANCH   1   2
BRANCH   1   8
ATOM      8  C   UNL     1      -7.152  25.935  23.002  1.00  0.00     0.000 C 
BRANCH   8   9
ATOM      9  C   UNL     1      -7.819  25.991  24.382  1.00  0.00    -0.000 C 
BRANCH   9  10
ATOM     10  C   UNL     1      -8.223  27.428  24.742  1.00  0.00    -0.000 C 
BRANCH  10  11
ATOM     11  C   UNL     1      -9.401  27.472  25.738  1.00  0.00    -0.000 C 
BRANCH  11  12
ATOM     12  C   UNL     1     -10.296  26.223  25.689  1.00  0.00    -0.003 C 
ATOM     13  C   UNL     1     -10.817  25.805  27.063  1.00  0.00     0.004 C 
ENDBRANCH  11  12
ENDBRANCH  10  11
ENDBRANCH   9  10
ENDBRANCH   8   9
ENDBRANCH   1   8
TORSDOF 9
ENDMDL
MODEL 5
REMARK VINA RESULT:    -3.972      1.875      4.341
REMARK INTER + INTRA:          -7.121
REMARK INTER:                  -6.072
REMARK INTRA:                  -1.049
REMARK UNBOUND:                -1.059
REMARK SMILES CCCCCCCCCCC(=O)[O-]
REMARK SMILES IDX 7 1 8 2 9 3 10 4 11 5 12 6 13 7 6 8 5 9 4 10 3 11 2 12 1 13
REMARK H PARENT
REMARK Flexibility Score: inf
ROOT
ATOM      1  C   UNL     1      -8.345  26.839  25.069  1.00  0.00     0.000 C 
ENDROOT
BRANCH   1   2
ATOM      2  C   UNL     1      -9.791  26.513  24.667  1.00  0.00     0.000 C 
BRANCH   2   3
ATOM      3  C   UNL     1     -10.610  27.769  24.333  1.00  0.00     0.006 C 
BRANCH   3   4
ATOM      4  C   UNL     1     -10.983  27.854  22.848  1.00  0.00     0.053 C 
BRANCH   4   5
ATOM      5  C   UNL     1     -10.229  28.962  22.184  1.00  0.00     0.041 C 
ATOM      6  O   UNL     1     -10.606  29.403  21.066  1.00  0.00    -0.550 OA
ATOM      7  O   UNL     1      -9.082  29.476  22.775  1.00  0.00    -0.550 OA
ENDBRANCH   4   5
ENDBRANCH   3   4
ENDBRANCH   2   3
ENDBRANCH   1   2
BRANCH   1   8
ATOM      8  C   UNL     1      -7.347  26.025  24.237  1.00  0.00     0.000 C 
BRANCH   8   9
ATOM      9  C   UNL     1      -7.558  26.260  22.736  1.00  0.00    -0.000 C 
BRANCH   9  10
ATOM     10  C   UNL     1      -7.667  24.928  21.978  1.00  0.00    -0.000 C 
BRANCH  10  11
ATOM     11  C   UNL     1      -9.107  24.640  21.505  1.00  0.00    -0.000 C 
BRANCH  11  12
ATOM     12  C   UNL     1      -9.810  23.534  22.310  1.00  0.00    -0.003 C 
ATOM     13  C   UNL     1     -10.013  22.248  21.510  1.00  0.00     0.004 C 
ENDBRANCH  11  12
ENDBRANCH  10  11
ENDBRANCH   9  10
ENDBRANCH   8   9
ENDBRANCH   1   8
TORSDOF 9
ENDMDL
MODEL 6
REMARK VINA RESULT:    -3.929      2.688      5.017
REMARK INTER + INTRA:          -7.056
REMARK INTER:                  -6.297
REMARK INTRA:                  -0.760
REMARK UNBOUND:                -1.059
REMARK SMILES CCCCCCCCCCC(=O)[O-]
REMARK SMILES IDX 7 1 8 2 9 3 10 4 11 5 12 6 13 7 6 8 5 9 4 10 3 11 2 12 1 13
REMARK H PARENT
REMARK Flexibility Score: inf
ROOT
ATOM      1  C   UNL     1      -9.153  23.758  22.522  1.00  0.00     0.000 C 
ENDROOT
BRANCH   1   2
ATOM      2  C   UNL     1      -7.948  24.315  21.750  1.00  0.00     0.000 C 
BRANCH   2   3
ATOM      3  C   UNL     1      -7.357  25.574  22.402  1.00  0.00     0.006 C 
BRANCH   3   4
ATOM      4  C   UNL     1      -8.435  26.503  22.975  1.00  0.00     0.053 C 
BRANCH   4   5
ATOM      5  C   UNL     1      -8.766  27.584  21.996  1.00  0.00     0.041 C 
ATOM      6  O   UNL     1      -8.659  27.374  20.759  1.00  0.00    -0.550 OA
ATOM      7  O   UNL     1      -9.148  28.841  22.449  1.00  0.00    -0.550 OA
ENDBRANCH   4   5
ENDBRANCH   3   4
ENDBRANCH   2   3
ENDBRANCH   1   2
BRANCH   1   8
ATOM      8  C   UNL     1      -9.430  22.302  22.130  1.00  0.00     0.000 C 
BRANCH   8   9
ATOM      9  C   UNL     1     -10.781  22.170  21.416  1.00  0.00    -0.000 C 
BRANCH   9  10
ATOM     10  C   UNL     1     -10.663  21.278  20.171  1.00  0.00    -0.000 C 
BRANCH  10  11
ATOM     11  C   UNL     1     -10.741  22.090  18.861  1.00  0.00    -0.000 C 
BRANCH  11  12
ATOM     12  C   UNL     1     -10.879  23.605  19.082  1.00  0.00    -0.003 C 
ATOM     13  C   UNL     1      -9.684  24.398  18.556  1.00  0.00     0.004 C 
ENDBRANCH  11  12
ENDBRANCH  10  11
ENDBRANCH   9  10
ENDBRANCH   8   9
ENDBRANCH   1   8
TORSDOF 9
ENDMDL
MODEL 7
REMARK VINA RESULT:    -3.902      1.593      1.869
REMARK INTER + INTRA:          -7.014
REMARK INTER:                  -5.901
REMARK INTRA:                  -1.113
REMARK UNBOUND:                -1.059
REMARK SMILES CCCCCCCCCCC(=O)[O-]
REMARK SMILES IDX 7 1 8 2 9 3 10 4 11 5 12 6 13 7 6 8 5 9 4 10 3 11 2 12 1 13
REMARK H PARENT
REMARK Flexibility Score: inf
ROOT
ATOM      1  C   UNL     1      -7.346  26.041  24.355  1.00  0.00     0.000 C 
ENDROOT
BRANCH   1   2
ATOM      2  C   UNL     1      -7.046  25.933  22.853  1.00  0.00     0.000 C 
BRANCH   2   3
ATOM      3  C   UNL     1      -8.320  25.901  21.996  1.00  0.00     0.006 C 
BRANCH   3   4
ATOM      4  C   UNL     1      -8.356  24.706  21.036  1.00  0.00     0.053 C 
BRANCH   4   5
ATOM      5  C   UNL     1      -9.261  23.639  21.565  1.00  0.00     0.041 C 
ATOM      6  O   UNL     1      -8.892  22.915  22.527  1.00  0.00    -0.550 OA
ATOM      7  O   UNL     1     -10.493  23.411  20.965  1.00  0.00    -0.550 OA
ENDBRANCH   4   5
ENDBRANCH   3   4
ENDBRANCH   2   3
ENDBRANCH   1   2
BRANCH   1   8
ATOM      8  C   UNL     1      -8.852  25.937  24.623  1.00  0.00     0.000 C 
BRANCH   8   9
ATOM      9  C   UNL     1      -9.245  26.721  25.881  1.00  0.00    -0.000 C 
BRANCH   9  10
ATOM     10  C   UNL     1     -10.088  27.955  25.521  1.00  0.00    -0.000 C 
BRANCH  10  11
ATOM     11  C   UNL     1     -10.490  27.974  24.032  1.00  0.00    -0.000 C 
BRANCH  11  12
ATOM     12  C   UNL     1      -9.905  29.162  23.250  1.00  0.00    -0.003 C 
ATOM     13  C   UNL     1      -8.756  29.852  23.983  1.00  0.00     0.004 C 
ENDBRANCH  11  12
ENDBRANCH  10  11
ENDBRANCH   9  10
ENDBRANCH   8   9
ENDBRANCH   1   8
TORSDOF 9
ENDMDL
MODEL 8
REMARK VINA RESULT:    -3.858      2.052      4.262
REMARK INTER + INTRA:          -6.948
REMARK INTER:                  -5.994
REMARK INTRA:                  -0.954
REMARK UNBOUND:                -1.059
REMARK SMILES CCCCCCCCCCC(=O)[O-]
REMARK SMILES IDX 7 1 8 2 9 3 10 4 11 5 12 6 13 7 6 8 5 9 4 10 3 11 2 12 1 13
REMARK H PARENT
REMARK Flexibility Score: inf
ROOT
ATOM      1  C   UNL     1      -7.319  26.055  22.694  1.00  0.00     0.000 C 
ENDROOT
BRANCH   1   2
ATOM      2  C   UNL     1      -7.606  25.964  24.200  1.00  0.00     0.000 C 
BRANCH   2   3
ATOM      3  C   UNL     1      -8.236  27.248  24.761  1.00  0.00     0.006 C 
BRANCH   3   4
ATOM      4  C   UNL     1      -9.486  27.681  23.986  1.00  0.00     0.053 C 
BRANCH   4   5
ATOM      5  C   UNL     1      -9.290  29.044  23.400  1.00  0.00     0.041 C 
ATOM      6  O   UNL     1      -9.595  29.267  22.199  1.00  0.00    -0.550 OA
ATOM      7  O   UNL     1      -8.726  30.056  24.166  1.00  0.00    -0.550 OA
ENDBRANCH   4   5
ENDBRANCH   3   4
ENDBRANCH   2   3
ENDBRANCH   1   2
BRANCH   1   8
ATOM      8  C   UNL     1      -7.731  24.763  21.977  1.00  0.00     0.000 C 
BRANCH   8   9
ATOM      9  C   UNL     1      -9.063  24.231  22.520  1.00  0.00    -0.000 C 
BRANCH   9  10
ATOM     10  C   UNL     1     -10.150  24.256  21.435  1.00  0.00    -0.000 C 
BRANCH  10  11
ATOM     11  C   UNL     1     -10.449  25.686  20.939  1.00  0.00    -0.000 C 
BRANCH  11  12
ATOM     12  C   UNL     1     -10.479  25.813  19.406  1.00  0.00    -0.003 C 
ATOM     13  C   UNL     1      -9.519  24.852  18.707  1.00  0.00     0.004 C 
ENDBRANCH  11  12
ENDBRANCH  10  11
ENDBRANCH   9  10
ENDBRANCH   8   9
ENDBRANCH   1   8
TORSDOF 9
ENDMDL
MODEL 9
REMARK VINA RESULT:    -3.832      1.555      2.056
REMARK INTER + INTRA:          -6.908
REMARK INTER:                  -6.037
REMARK INTRA:                  -0.871
REMARK UNBOUND:                -1.059
REMARK SMILES CCCCCCCCCCC(=O)[O-]
REMARK SMILES IDX 7 1 8 2 9 3 10 4 11 5 12 6 13 7 6 8 5 9 4 10 3 11 2 12 1 13
REMARK H PARENT
REMARK Flexibility Score: inf
ROOT
ATOM      1  C   UNL     1      -7.324  25.716  22.543  1.00  0.00     0.000 C 
ENDROOT
BRANCH   1   2
ATOM      2  C   UNL     1      -8.141  26.702  21.695  1.00  0.00     0.000 C 
BRANCH   2   3
ATOM      3  C   UNL     1      -9.204  26.003  20.835  1.00  0.00     0.006 C 
BRANCH   3   4
ATOM      4  C   UNL     1      -8.600  24.986  19.859  1.00  0.00     0.053 C 
BRANCH   4   5
ATOM      5  C   UNL     1      -9.608  24.592  18.826  1.00  0.00     0.041 C 
ATOM      6  O   UNL     1     -10.212  23.491  18.918  1.00  0.00    -0.550 OA
ATOM      7  O   UNL     1      -9.845  25.418  17.735  1.00  0.00    -0.550 OA
ENDBRANCH   4   5
ENDBRANCH   3   4
ENDBRANCH   2   3
ENDBRANCH   1   2
BRANCH   1   8
ATOM      8  C   UNL     1      -7.349  26.114  24.024  1.00  0.00     0.000 C 
BRANCH   8   9
ATOM      9  C   UNL     1      -8.470  25.383  24.773  1.00  0.00    -0.000 C 
BRANCH   9  10
ATOM     10  C   UNL     1      -9.739  26.246  24.847  1.00  0.00    -0.000 C 
BRANCH  10  11
ATOM     11  C   UNL     1      -9.446  27.673  25.355  1.00  0.00    -0.000 C 
BRANCH  11  12
ATOM     12  C   UNL     1      -9.991  28.779  24.436  1.00  0.00    -0.003 C 
ATOM     13  C   UNL     1      -8.927  29.798  24.030  1.00  0.00     0.004 C 
ENDBRANCH  11  12
ENDBRANCH  10  11
ENDBRANCH   9  10
ENDBRANCH   8   9
ENDBRANCH   1   8
TORSDOF 9
ENDMDL
