MODEL 1
REMARK VINA RESULT:    -3.279      0.000      0.000
REMARK INTER + INTRA:         -12.728
REMARK INTER:                  -8.264
REMARK INTRA:                  -4.464
REMARK UNBOUND:                -4.464
REMARK SMILES CCCCCCCCCCCCCCCCCCCCCCCCCCCC(=O)[O-]
REMARK SMILES IDX 15 1 16 2 17 3 18 4 19 5 20 6 21 7 22 8 23 9 24 10 25 11
REMARK SMILES IDX 26 12 27 13 28 14 29 15 30 16 14 17 13 18 12 19 11 20 10 21
REMARK SMILES IDX 9 22 8 23 7 24 6 25 5 26 4 27 3 28 2 29 1 30
REMARK H PARENT
REMARK Flexibility Score: inf
ROOT
ATOM      1  C   UNL     1       4.586   3.741  -6.894  1.00  0.00     0.000 C 
ENDROOT
BRANCH   1   2
ATOM      2  C   UNL     1       5.646   4.599  -6.165  1.00  0.00     0.000 C 
BRANCH   2   3
ATOM      3  C   UNL     1       6.025   5.891  -6.911  1.00  0.00     0.000 C 
BRANCH   3   4
ATOM      4  C   UNL     1       7.529   6.069  -7.186  1.00  0.00     0.000 C 
BRANCH   4   5
ATOM      5  C   UNL     1       8.456   5.170  -6.346  1.00  0.00     0.000 C 
BRANCH   5   6
ATOM      6  C   UNL     1       9.617   5.941  -5.689  1.00  0.00     0.000 C 
BRANCH   6   7
ATOM      7  C   UNL     1       9.133   7.111  -4.817  1.00  0.00     0.000 C 
BRANCH   7   8
ATOM      8  C   UNL     1       9.057   6.752  -3.325  1.00  0.00     0.000 C 
BRANCH   8   9
ATOM      9  C   UNL     1       7.857   7.432  -2.655  1.00  0.00     0.000 C 
BRANCH   9  10
ATOM     10  C   UNL     1       6.540   7.010  -3.317  1.00  0.00     0.000 C 
BRANCH  10  11
ATOM     11  C   UNL     1       5.641   8.226  -3.588  1.00  0.00     0.000 C 
BRANCH  11  12
ATOM     12  C   UNL     1       5.983   9.431  -2.697  1.00  0.00     0.006 C 
BRANCH  12  13
ATOM     13  C   UNL     1       4.883   9.747  -1.674  1.00  0.00     0.053 C 
BRANCH  13  14
ATOM     14  C   UNL     1       5.424   9.688  -0.279  1.00  0.00     0.041 C 
ATOM     15  O   UNL     1       6.659   9.529  -0.082  1.00  0.00    -0.550 OA
ATOM     16  O   UNL     1       4.565   9.811   0.805  1.00  0.00    -0.550 OA
ENDBRANCH  13  14
ENDBRANCH  12  13
ENDBRANCH  11  12
ENDBRANCH  10  11
ENDBRANCH   9  10
ENDBRANCH   8   9
ENDBRANCH   7   8
ENDBRANCH   6   7
ENDBRANCH   5   6
ENDBRANCH   4   5
ENDBRANCH   3   4
ENDBRANCH   2   3
ENDBRANCH   1   2
BRANCH   1  17
ATOM     17  C   UNL     1       4.809   3.699  -8.413  1.00  0.00     0.000 C 
BRANCH  17  18
ATOM     18  C   UNL     1       5.822   2.624  -8.838  1.00  0.00     0.000 C 
BRANCH  18  19
ATOM     19  C   UNL     1       6.855   3.121  -9.874  1.00  0.00     0.000 C 
BRANCH  19  20
ATOM     20  C   UNL     1       8.288   3.124  -9.313  1.00  0.00     0.000 C 
BRANCH  20  21
ATOM     21  C   UNL     1       8.523   1.989  -8.302  1.00  0.00     0.000 C 
BRANCH  21  22
ATOM     22  C   UNL     1       9.512   0.932  -8.827  1.00  0.00    -0.000 C 
BRANCH  22  23
ATOM     23  C   UNL     1       9.231  -0.474  -8.264  1.00  0.00    -0.000 C 
BRANCH  23  24
ATOM     24  C   UNL     1       8.775  -1.498  -9.322  1.00  0.00    -0.000 C 
BRANCH  24  25
ATOM     25  C   UNL     1       7.358  -2.032  -9.052  1.00  0.00    -0.000 C 
BRANCH  25  26
ATOM     26  C   UNL     1       6.332  -0.909  -8.821  1.00  0.00    -0.000 C 
BRANCH  26  27
ATOM     27  C   UNL     1       5.546  -1.003  -7.496  1.00  0.00    -0.000 C 
BRANCH  27  28
ATOM     28  C   UNL     1       5.961   0.017  -6.420  1.00  0.00    -0.000 C 
BRANCH  28  29
ATOM     29  C   UNL     1       6.979  -0.551  -5.420  1.00  0.00    -0.003 C 
ATOM     30  C   UNL     1       6.720  -2.030  -5.150  1.00  0.00     0.004 C 
ENDBRANCH  28  29
ENDBRANCH  27  28
ENDBRANCH  26  27
ENDBRANCH  25  26
ENDBRANCH  24  25
ENDBRANCH  23  24
ENDBRANCH  22  23
ENDBRANCH  21  22
ENDBRANCH  20  21
ENDBRANCH  19  20
ENDBRANCH  18  19
ENDBRANCH  17  18
ENDBRANCH   1  17
TORSDOF 26
ENDMDL
MODEL 2
REMARK VINA RESULT:    -3.151      3.476      9.022
REMARK INTER + INTRA:         -12.404
REMARK INTER:                  -8.099
REMARK INTRA:                  -4.305
REMARK UNBOUND:                -4.464
REMARK SMILES CCCCCCCCCCCCCCCCCCCCCCCCCCCC(=O)[O-]
REMARK SMILES IDX 15 1 16 2 17 3 18 4 19 5 20 6 21 7 22 8 23 9 24 10 25 11
REMARK SMILES IDX 26 12 27 13 28 14 29 15 30 16 14 17 13 18 12 19 11 20 10 21
REMARK SMILES IDX 9 22 8 23 7 24 6 25 5 26 4 27 3 28 2 29 1 30
REMARK H PARENT
REMARK Flexibility Score: inf
ROOT
ATOM      1  C   UNL     1       9.154   3.196  -7.873  1.00  0.00     0.000 C 
ENDROOT
BRANCH   1   2
ATOM      2  C   UNL     1       9.107   4.427  -8.807  1.00  0.00     0.000 C 
BRANCH   2   3
ATOM      3  C   UNL     1       7.745   4.640  -9.492  1.00  0.00     0.000 C 
BRANCH   3   4
ATOM      4  C   UNL     1       7.086   6.006  -9.225  1.00  0.00     0.000 C 
BRANCH   4   5
ATOM      5  C   UNL     1       7.373   6.607  -7.836  1.00  0.00     0.000 C 
BRANCH   5   6
ATOM      6  C   UNL     1       6.200   6.444  -6.850  1.00  0.00     0.000 C 
BRANCH   6   7
ATOM      7  C   UNL     1       6.124   5.031  -6.249  1.00  0.00     0.000 C 
BRANCH   7   8
ATOM      8  C   UNL     1       4.990   4.186  -6.850  1.00  0.00     0.000 C 
BRANCH   8   9
ATOM      9  C   UNL     1       5.067   2.734  -6.364  1.00  0.00     0.000 C 
BRANCH   9  10
ATOM     10  C   UNL     1       6.180   1.966  -7.086  1.00  0.00     0.000 C 
BRANCH  10  11
ATOM     11  C   UNL     1       5.636   0.685  -7.739  1.00  0.00     0.000 C 
BRANCH  11  12
ATOM     12  C   UNL     1       6.618  -0.493  -7.651  1.00  0.00     0.006 C 
BRANCH  12  13
ATOM     13  C   UNL     1       6.058  -1.678  -6.851  1.00  0.00     0.053 C 
BRANCH  13  14
ATOM     14  C   UNL     1       6.681  -1.742  -5.492  1.00  0.00     0.041 C 
ATOM     15  O   UNL     1       7.458  -0.828  -5.104  1.00  0.00    -0.550 OA
ATOM     16  O   UNL     1       6.402  -2.811  -4.650  1.00  0.00    -0.550 OA
ENDBRANCH  13  14
ENDBRANCH  12  13
ENDBRANCH  11  12
ENDBRANCH  10  11
ENDBRANCH   9  10
ENDBRANCH   8   9
ENDBRANCH   7   8
ENDBRANCH   6   7
ENDBRANCH   5   6
ENDBRANCH   4   5
ENDBRANCH   3   4
ENDBRANCH   2   3
ENDBRANCH   1   2
BRANCH   1  17
ATOM     17  C   UNL     1       9.741   3.530  -6.492  1.00  0.00     0.000 C 
BRANCH  17  18
ATOM     18  C   UNL     1      10.125   5.011  -6.350  1.00  0.00     0.000 C 
BRANCH  18  19
ATOM     19  C   UNL     1       9.686   5.639  -5.010  1.00  0.00     0.000 C 
BRANCH  19  20
ATOM     20  C   UNL     1       9.695   7.177  -5.056  1.00  0.00     0.000 C 
BRANCH  20  21
ATOM     21  C   UNL     1       8.571   7.794  -4.205  1.00  0.00     0.000 C 
BRANCH  21  22
ATOM     22  C   UNL     1       7.839   6.743  -3.351  1.00  0.00    -0.000 C 
BRANCH  22  23
ATOM     23  C   UNL     1       6.426   7.197  -2.935  1.00  0.00    -0.000 C 
BRANCH  23  24
ATOM     24  C   UNL     1       5.978   8.528  -3.569  1.00  0.00    -0.000 C 
BRANCH  24  25
ATOM     25  C   UNL     1       6.021   9.699  -2.572  1.00  0.00    -0.000 C 
BRANCH  25  26
ATOM     26  C   UNL     1       5.313   9.378  -1.244  1.00  0.00    -0.000 C 
BRANCH  26  27
ATOM     27  C   UNL     1       5.988   9.961   0.015  1.00  0.00    -0.000 C 
BRANCH  27  28
ATOM     28  C   UNL     1       6.921   8.990   0.762  1.00  0.00    -0.000 C 
BRANCH  28  29
ATOM     29  C   UNL     1       8.347   8.973   0.192  1.00  0.00    -0.003 C 
ATOM     30  C   UNL     1       8.907   7.555   0.148  1.00  0.00     0.004 C 
ENDBRANCH  28  29
ENDBRANCH  27  28
ENDBRANCH  26  27
ENDBRANCH  25  26
ENDBRANCH  24  25
ENDBRANCH  23  24
ENDBRANCH  22  23
ENDBRANCH  21  22
ENDBRANCH  20  21
ENDBRANCH  19  20
ENDBRANCH  18  19
ENDBRANCH  17  18
ENDBRANCH   1  17
TORSDOF 26
ENDMDL
MODEL 3
REMARK VINA RESULT:    -3.120      3.373      9.323
REMARK INTER + INTRA:         -12.327
REMARK INTER:                  -8.249
REMARK INTRA:                  -4.078
REMARK UNBOUND:                -4.464
REMARK SMILES CCCCCCCCCCCCCCCCCCCCCCCCCCCC(=O)[O-]
REMARK SMILES IDX 15 1 16 2 17 3 18 4 19 5 20 6 21 7 22 8 23 9 24 10 25 11
REMARK SMILES IDX 26 12 27 13 28 14 29 15 30 16 14 17 13 18 12 19 11 20 10 21
REMARK SMILES IDX 9 22 8 23 7 24 6 25 5 26 4 27 3 28 2 29 1 30
REMARK H PARENT
REMARK Flexibility Score: inf
ROOT
ATOM      1  C   UNL     1       5.088   3.915  -6.395  1.00  0.00     0.000 C 
ENDROOT
BRANCH   1   2
ATOM      2  C   UNL     1       5.334   2.656  -7.259  1.00  0.00     0.000 C 
BRANCH   2   3
ATOM      3  C   UNL     1       5.797   2.964  -8.694  1.00  0.00     0.000 C 
BRANCH   3   4
ATOM      4  C   UNL     1       7.222   2.491  -9.036  1.00  0.00     0.000 C 
BRANCH   4   5
ATOM      5  C   UNL     1       8.120   2.196  -7.819  1.00  0.00     0.000 C 
BRANCH   5   6
ATOM      6  C   UNL     1       8.917   0.885  -7.956  1.00  0.00     0.000 C 
BRANCH   6   7
ATOM      7  C   UNL     1       8.615   0.144  -9.269  1.00  0.00     0.000 C 
BRANCH   7   8
ATOM      8  C   UNL     1       8.605  -1.384  -9.104  1.00  0.00     0.000 C 
BRANCH   8   9
ATOM      9  C   UNL     1       7.300  -1.986  -9.640  1.00  0.00     0.000 C 
BRANCH   9  10
ATOM     10  C   UNL     1       6.136  -0.997  -9.505  1.00  0.00     0.000 C 
BRANCH  10  11
ATOM     11  C   UNL     1       4.917  -1.663  -8.849  1.00  0.00     0.000 C 
BRANCH  11  12
ATOM     12  C   UNL     1       5.130  -1.964  -7.358  1.00  0.00     0.006 C 
BRANCH  12  13
ATOM     13  C   UNL     1       5.859  -0.831  -6.619  1.00  0.00     0.053 C 
BRANCH  13  14
ATOM     14  C   UNL     1       6.774  -1.385  -5.572  1.00  0.00     0.041 C 
ATOM     15  O   UNL     1       6.505  -2.477  -5.004  1.00  0.00    -0.550 OA
ATOM     16  O   UNL     1       7.928  -0.694  -5.224  1.00  0.00    -0.550 OA
ENDBRANCH  13  14
ENDBRANCH  12  13
ENDBRANCH  11  12
ENDBRANCH  10  11
ENDBRANCH   9  10
ENDBRANCH   8   9
ENDBRANCH   7   8
ENDBRANCH   6   7
ENDBRANCH   5   6
ENDBRANCH   4   5
ENDBRANCH   3   4
ENDBRANCH   2   3
ENDBRANCH   1   2
BRANCH   1  17
ATOM     17  C   UNL     1       5.756   5.169  -6.981  1.00  0.00     0.000 C 
BRANCH  17  18
ATOM     18  C   UNL     1       6.691   5.868  -5.981  1.00  0.00     0.000 C 
BRANCH  18  19
ATOM     19  C   UNL     1       8.186   5.564  -6.215  1.00  0.00     0.000 C 
BRANCH  19  20
ATOM     20  C   UNL     1       9.098   6.362  -5.266  1.00  0.00     0.000 C 
BRANCH  20  21
ATOM     21  C   UNL     1       8.511   6.474  -3.848  1.00  0.00     0.000 C 
BRANCH  21  22
ATOM     22  C   UNL     1       8.808   7.838  -3.197  1.00  0.00    -0.000 C 
BRANCH  22  23
ATOM     23  C   UNL     1       9.106   8.937  -4.235  1.00  0.00    -0.000 C 
BRANCH  23  24
ATOM     24  C   UNL     1       7.960   9.947  -4.432  1.00  0.00    -0.000 C 
BRANCH  24  25
ATOM     25  C   UNL     1       6.883   9.434  -5.405  1.00  0.00    -0.000 C 
BRANCH  25  26
ATOM     26  C   UNL     1       5.474   9.434  -4.788  1.00  0.00    -0.000 C 
BRANCH  26  27
ATOM     27  C   UNL     1       5.358   8.729  -3.421  1.00  0.00    -0.000 C 
BRANCH  27  28
ATOM     28  C   UNL     1       5.012   9.653  -2.238  1.00  0.00    -0.000 C 
BRANCH  28  29
ATOM     29  C   UNL     1       6.173   9.812  -1.245  1.00  0.00    -0.003 C 
ATOM     30  C   UNL     1       5.776   9.329   0.147  1.00  0.00     0.004 C 
ENDBRANCH  28  29
ENDBRANCH  27  28
ENDBRANCH  26  27
ENDBRANCH  25  26
ENDBRANCH  24  25
ENDBRANCH  23  24
ENDBRANCH  22  23
ENDBRANCH  21  22
ENDBRANCH  20  21
ENDBRANCH  19  20
ENDBRANCH  18  19
ENDBRANCH  17  18
ENDBRANCH   1  17
TORSDOF 26
ENDMDL
MODEL 4
REMARK VINA RESULT:    -3.023      4.131      8.870
REMARK INTER + INTRA:         -12.083
REMARK INTER:                  -7.842
REMARK INTRA:                  -4.241
REMARK UNBOUND:                -4.464
REMARK SMILES CCCCCCCCCCCCCCCCCCCCCCCCCCCC(=O)[O-]
REMARK SMILES IDX 15 1 16 2 17 3 18 4 19 5 20 6 21 7 22 8 23 9 24 10 25 11
REMARK SMILES IDX 26 12 27 13 28 14 29 15 30 16 14 17 13 18 12 19 11 20 10 21
REMARK SMILES IDX 9 22 8 23 7 24 6 25 5 26 4 27 3 28 2 29 1 30
REMARK H PARENT
REMARK Flexibility Score: inf
ROOT
ATOM      1  C   UNL     1       9.017   1.510  -8.997  1.00  0.00     0.000 C 
ENDROOT
BRANCH   1   2
ATOM      2  C   UNL     1       8.387   2.800  -9.571  1.00  0.00     0.000 C 
BRANCH   2   3
ATOM      3  C   UNL     1       6.922   2.638 -10.013  1.00  0.00     0.000 C 
BRANCH   3   4
ATOM      4  C   UNL     1       6.034   3.878  -9.800  1.00  0.00     0.000 C 
BRANCH   4   5
ATOM      5  C   UNL     1       6.717   5.049  -9.068  1.00  0.00     0.000 C 
BRANCH   5   6
ATOM      6  C   UNL     1       5.997   5.454  -7.767  1.00  0.00     0.000 C 
BRANCH   6   7
ATOM      7  C   UNL     1       6.199   4.432  -6.637  1.00  0.00     0.000 C 
BRANCH   7   8
ATOM      8  C   UNL     1       4.899   4.108  -5.884  1.00  0.00     0.000 C 
BRANCH   8   9
ATOM      9  C   UNL     1       4.567   2.614  -5.977  1.00  0.00     0.000 C 
BRANCH   9  10
ATOM     10  C   UNL     1       5.687   1.840  -6.682  1.00  0.00     0.000 C 
BRANCH  10  11
ATOM     11  C   UNL     1       6.105   0.606  -5.867  1.00  0.00     0.000 C 
BRANCH  11  12
ATOM     12  C   UNL     1       6.096  -0.688  -6.696  1.00  0.00     0.006 C 
BRANCH  12  13
ATOM     13  C   UNL     1       5.656  -0.463  -8.149  1.00  0.00     0.053 C 
BRANCH  13  14
ATOM     14  C   UNL     1       5.374  -1.768  -8.826  1.00  0.00     0.041 C 
ATOM     15  O   UNL     1       6.247  -2.309  -9.556  1.00  0.00    -0.550 OA
ATOM     16  O   UNL     1       4.145  -2.391  -8.648  1.00  0.00    -0.550 OA
ENDBRANCH  13  14
ENDBRANCH  12  13
ENDBRANCH  11  12
ENDBRANCH  10  11
ENDBRANCH   9  10
ENDBRANCH   8   9
ENDBRANCH   7   8
ENDBRANCH   6   7
ENDBRANCH   5   6
ENDBRANCH   4   5
ENDBRANCH   3   4
ENDBRANCH   2   3
ENDBRANCH   1   2
BRANCH   1  17
ATOM     17  C   UNL     1       9.614   1.722  -7.597  1.00  0.00     0.000 C 
BRANCH  17  18
ATOM     18  C   UNL     1       9.021   2.941  -6.874  1.00  0.00     0.000 C 
BRANCH  18  19
ATOM     19  C   UNL     1      10.080   3.822  -6.175  1.00  0.00     0.000 C 
BRANCH  19  20
ATOM     20  C   UNL     1      10.108   5.255  -6.735  1.00  0.00     0.000 C 
BRANCH  20  21
ATOM     21  C   UNL     1       9.240   6.222  -5.911  1.00  0.00     0.000 C 
BRANCH  21  22
ATOM     22  C   UNL     1       9.402   6.008  -4.395  1.00  0.00    -0.000 C 
BRANCH  22  23
ATOM     23  C   UNL     1       8.455   6.896  -3.566  1.00  0.00    -0.000 C 
BRANCH  23  24
ATOM     24  C   UNL     1       6.965   6.739  -3.926  1.00  0.00    -0.000 C 
BRANCH  24  25
ATOM     25  C   UNL     1       6.051   7.613  -3.049  1.00  0.00    -0.000 C 
BRANCH  25  26
ATOM     26  C   UNL     1       6.530   9.073  -2.960  1.00  0.00    -0.000 C 
BRANCH  26  27
ATOM     27  C   UNL     1       6.989   9.526  -1.558  1.00  0.00    -0.000 C 
BRANCH  27  28
ATOM     28  C   UNL     1       5.947   9.339  -0.440  1.00  0.00    -0.000 C 
BRANCH  28  29
ATOM     29  C   UNL     1       6.515   8.615   0.790  1.00  0.00    -0.003 C 
ATOM     30  C   UNL     1       7.605   7.624   0.391  1.00  0.00     0.004 C 
ENDBRANCH  28  29
ENDBRANCH  27  28
ENDBRANCH  26  27
ENDBRANCH  25  26
ENDBRANCH  24  25
ENDBRANCH  23  24
ENDBRANCH  22  23
ENDBRANCH  21  22
ENDBRANCH  20  21
ENDBRANCH  19  20
ENDBRANCH  18  19
ENDBRANCH  17  18
ENDBRANCH   1  17
TORSDOF 26
ENDMDL
MODEL 5
REMARK VINA RESULT:    -2.970      1.792      4.032
REMARK INTER + INTRA:         -11.948
REMARK INTER:                  -8.659
REMARK INTRA:                  -3.289
REMARK UNBOUND:                -4.464
REMARK SMILES CCCCCCCCCCCCCCCCCCCCCCCCCCCC(=O)[O-]
REMARK SMILES IDX 15 1 16 2 17 3 18 4 19 5 20 6 21 7 22 8 23 9 24 10 25 11
REMARK SMILES IDX 26 12 27 13 28 14 29 15 30 16 14 17 13 18 12 19 11 20 10 21
REMARK SMILES IDX 9 22 8 23 7 24 6 25 5 26 4 27 3 28 2 29 1 30
REMARK H PARENT
REMARK Flexibility Score: inf
ROOT
ATOM      1  C   UNL     1      10.077   3.158  -6.312  1.00  0.00     0.000 C 
ENDROOT
BRANCH   1   2
ATOM      2  C   UNL     1       9.976   4.697  -6.207  1.00  0.00     0.000 C 
BRANCH   2   3
ATOM      3  C   UNL     1       8.534   5.234  -6.256  1.00  0.00     0.000 C 
BRANCH   3   4
ATOM      4  C   UNL     1       8.295   6.536  -5.471  1.00  0.00     0.000 C 
BRANCH   4   5
ATOM      5  C   UNL     1       6.843   6.759  -5.007  1.00  0.00     0.000 C 
BRANCH   5   6
ATOM      6  C   UNL     1       6.162   7.956  -5.698  1.00  0.00     0.000 C 
BRANCH   6   7
ATOM      7  C   UNL     1       5.960   9.151  -4.752  1.00  0.00     0.000 C 
BRANCH   7   8
ATOM      8  C   UNL     1       5.420   8.738  -3.374  1.00  0.00     0.000 C 
BRANCH   8   9
ATOM      9  C   UNL     1       5.518   9.896  -2.374  1.00  0.00     0.000 C 
BRANCH   9  10
ATOM     10  C   UNL     1       5.270   9.412  -0.940  1.00  0.00     0.000 C 
BRANCH  10  11
ATOM     11  C   UNL     1       6.398   9.866  -0.000  1.00  0.00     0.000 C 
BRANCH  11  12
ATOM     12  C   UNL     1       6.802   8.785   1.014  1.00  0.00     0.006 C 
BRANCH  12  13
ATOM     13  C   UNL     1       7.251   7.478   0.346  1.00  0.00     0.053 C 
BRANCH  13  14
ATOM     14  C   UNL     1       8.642   7.608  -0.191  1.00  0.00     0.041 C 
ATOM     15  O   UNL     1       8.839   7.724  -1.430  1.00  0.00    -0.550 OA
ATOM     16  O   UNL     1       9.725   7.605   0.680  1.00  0.00    -0.550 OA
ENDBRANCH  13  14
ENDBRANCH  12  13
ENDBRANCH  11  12
ENDBRANCH  10  11
ENDBRANCH   9  10
ENDBRANCH   8   9
ENDBRANCH   7   8
ENDBRANCH   6   7
ENDBRANCH   5   6
ENDBRANCH   4   5
ENDBRANCH   3   4
ENDBRANCH   2   3
ENDBRANCH   1   2
BRANCH   1  17
ATOM     17  C   UNL     1       9.440   2.615  -7.601  1.00  0.00     0.000 C 
BRANCH  17  18
ATOM     18  C   UNL     1       9.434   1.080  -7.662  1.00  0.00     0.000 C 
BRANCH  18  19
ATOM     19  C   UNL     1       9.115   0.407  -6.309  1.00  0.00     0.000 C 
BRANCH  19  20
ATOM     20  C   UNL     1       7.610   0.426  -5.989  1.00  0.00     0.000 C 
BRANCH  20  21
ATOM     21  C   UNL     1       7.121  -0.907  -5.396  1.00  0.00     0.000 C 
BRANCH  21  22
ATOM     22  C   UNL     1       6.129  -1.633  -6.323  1.00  0.00    -0.000 C 
BRANCH  22  23
ATOM     23  C   UNL     1       5.612  -0.731  -7.460  1.00  0.00    -0.000 C 
BRANCH  23  24
ATOM     24  C   UNL     1       6.081  -1.154  -8.865  1.00  0.00    -0.000 C 
BRANCH  24  25
ATOM     25  C   UNL     1       6.152   0.030  -9.844  1.00  0.00    -0.000 C 
BRANCH  25  26
ATOM     26  C   UNL     1       5.386   1.266  -9.341  1.00  0.00    -0.000 C 
BRANCH  26  27
ATOM     27  C   UNL     1       6.236   2.545  -9.191  1.00  0.00    -0.000 C 
BRANCH  27  28
ATOM     28  C   UNL     1       5.876   3.427  -7.981  1.00  0.00    -0.000 C 
BRANCH  28  29
ATOM     29  C   UNL     1       4.535   3.042  -7.339  1.00  0.00    -0.003 C 
ATOM     30  C   UNL     1       4.563   3.261  -5.829  1.00  0.00     0.004 C 
ENDBRANCH  28  29
ENDBRANCH  27  28
ENDBRANCH  26  27
ENDBRANCH  25  26
ENDBRANCH  24  25
ENDBRANCH  23  24
ENDBRANCH  22  23
ENDBRANCH  21  22
ENDBRANCH  20  21
ENDBRANCH  19  20
ENDBRANCH  18  19
ENDBRANCH  17  18
ENDBRANCH   1  17
TORSDOF 26
ENDMDL
MODEL 6
REMARK VINA RESULT:    -2.963      1.832      3.119
REMARK INTER + INTRA:         -11.930
REMARK INTER:                  -7.351
REMARK INTRA:                  -4.580
REMARK UNBOUND:                -4.464
REMARK SMILES CCCCCCCCCCCCCCCCCCCCCCCCCCCC(=O)[O-]
REMARK SMILES IDX 15 1 16 2 17 3 18 4 19 5 20 6 21 7 22 8 23 9 24 10 25 11
REMARK SMILES IDX 26 12 27 13 28 14 29 15 30 16 14 17 13 18 12 19 11 20 10 21
REMARK SMILES IDX 9 22 8 23 7 24 6 25 5 26 4 27 3 28 2 29 1 30
REMARK H PARENT
REMARK Flexibility Score: inf
ROOT
ATOM      1  C   UNL     1       4.496   3.875  -7.239  1.00  0.00     0.000 C 
ENDROOT
BRANCH   1   2
ATOM      2  C   UNL     1       4.544   3.867  -8.785  1.00  0.00     0.000 C 
BRANCH   2   3
ATOM      3  C   UNL     1       4.918   5.225  -9.405  1.00  0.00     0.000 C 
BRANCH   3   4
ATOM      4  C   UNL     1       6.281   5.262 -10.122  1.00  0.00     0.000 C 
BRANCH   4   5
ATOM      5  C   UNL     1       7.098   6.549  -9.901  1.00  0.00     0.000 C 
BRANCH   5   6
ATOM      6  C   UNL     1       6.378   7.580  -9.011  1.00  0.00     0.000 C 
BRANCH   6   7
ATOM      7  C   UNL     1       7.327   8.665  -8.476  1.00  0.00     0.000 C 
BRANCH   7   8
ATOM      8  C   UNL     1       6.611   9.708  -7.605  1.00  0.00     0.000 C 
BRANCH   8   9
ATOM      9  C   UNL     1       5.832   9.036  -6.468  1.00  0.00     0.000 C 
BRANCH   9  10
ATOM     10  C   UNL     1       5.320  10.070  -5.459  1.00  0.00     0.000 C 
BRANCH  10  11
ATOM     11  C   UNL     1       5.955   9.858  -4.076  1.00  0.00     0.000 C 
BRANCH  11  12
ATOM     12  C   UNL     1       5.629   8.482  -3.475  1.00  0.00     0.006 C 
BRANCH  12  13
ATOM     13  C   UNL     1       6.767   7.924  -2.609  1.00  0.00     0.053 C 
BRANCH  13  14
ATOM     14  C   UNL     1       6.410   7.992  -1.157  1.00  0.00     0.041 C 
ATOM     15  O   UNL     1       6.784   7.085  -0.366  1.00  0.00    -0.550 OA
ATOM     16  O   UNL     1       5.664   9.060  -0.675  1.00  0.00    -0.550 OA
ENDBRANCH  13  14
ENDBRANCH  12  13
ENDBRANCH  11  12
ENDBRANCH  10  11
ENDBRANCH   9  10
ENDBRANCH   8   9
ENDBRANCH   7   8
ENDBRANCH   6   7
ENDBRANCH   5   6
ENDBRANCH   4   5
ENDBRANCH   3   4
ENDBRANCH   2   3
ENDBRANCH   1   2
BRANCH   1  17
ATOM     17  C   UNL     1       5.890   4.026  -6.610  1.00  0.00     0.000 C 
BRANCH  17  18
ATOM     18  C   UNL     1       6.131   5.426  -6.025  1.00  0.00     0.000 C 
BRANCH  18  19
ATOM     19  C   UNL     1       7.619   5.835  -5.989  1.00  0.00     0.000 C 
BRANCH  19  20
ATOM     20  C   UNL     1       8.495   4.926  -6.870  1.00  0.00     0.000 C 
BRANCH  20  21
ATOM     21  C   UNL     1       9.776   4.471  -6.149  1.00  0.00     0.000 C 
BRANCH  21  22
ATOM     22  C   UNL     1      10.094   2.986  -6.402  1.00  0.00    -0.000 C 
BRANCH  22  23
ATOM     23  C   UNL     1       8.970   2.261  -7.167  1.00  0.00    -0.000 C 
BRANCH  23  24
ATOM     24  C   UNL     1       9.464   1.141  -8.102  1.00  0.00    -0.000 C 
BRANCH  24  25
ATOM     25  C   UNL     1       8.317   0.484  -8.891  1.00  0.00    -0.000 C 
BRANCH  25  26
ATOM     26  C   UNL     1       6.940   1.073  -8.541  1.00  0.00    -0.000 C 
BRANCH  26  27
ATOM     27  C   UNL     1       5.999   0.123  -7.770  1.00  0.00    -0.000 C 
BRANCH  27  28
ATOM     28  C   UNL     1       5.743   0.511  -6.302  1.00  0.00    -0.000 C 
BRANCH  28  29
ATOM     29  C   UNL     1       6.684  -0.204  -5.322  1.00  0.00    -0.003 C 
ATOM     30  C   UNL     1       7.183  -1.524  -5.901  1.00  0.00     0.004 C 
ENDBRANCH  28  29
ENDBRANCH  27  28
ENDBRANCH  26  27
ENDBRANCH  25  26
ENDBRANCH  24  25
ENDBRANCH  23  24
ENDBRANCH  22  23
ENDBRANCH  21  22
ENDBRANCH  20  21
ENDBRANCH  19  20
ENDBRANCH  18  19
ENDBRANCH  17  18
ENDBRANCH   1  17
TORSDOF 26
ENDMDL
MODEL 7
REMARK VINA RESULT:    -2.950      1.787      3.791
REMARK INTER + INTRA:         -11.898
REMARK INTER:                  -7.207
REMARK INTRA:                  -4.692
REMARK UNBOUND:                -4.464
REMARK SMILES CCCCCCCCCCCCCCCCCCCCCCCCCCCC(=O)[O-]
REMARK SMILES IDX 15 1 16 2 17 3 18 4 19 5 20 6 21 7 22 8 23 9 24 10 25 11
REMARK SMILES IDX 26 12 27 13 28 14 29 15 30 16 14 17 13 18 12 19 11 20 10 21
REMARK SMILES IDX 9 22 8 23 7 24 6 25 5 26 4 27 3 28 2 29 1 30
REMARK H PARENT
REMARK Flexibility Score: inf
ROOT
ATOM      1  C   UNL     1       6.456   1.911  -9.982  1.00  0.00     0.000 C 
ENDROOT
BRANCH   1   2
ATOM      2  C   UNL     1       7.731   2.725  -9.659  1.00  0.00     0.000 C 
BRANCH   2   3
ATOM      3  C   UNL     1       8.468   2.256  -8.392  1.00  0.00     0.000 C 
BRANCH   3   4
ATOM      4  C   UNL     1       9.017   3.384  -7.500  1.00  0.00     0.000 C 
BRANCH   4   5
ATOM      5  C   UNL     1       7.947   4.209  -6.760  1.00  0.00     0.000 C 
BRANCH   5   6
ATOM      6  C   UNL     1       8.248   5.720  -6.746  1.00  0.00     0.000 C 
BRANCH   6   7
ATOM      7  C   UNL     1       8.009   6.385  -8.112  1.00  0.00     0.000 C 
BRANCH   7   8
ATOM      8  C   UNL     1       6.933   7.480  -8.063  1.00  0.00     0.000 C 
BRANCH   8   9
ATOM      9  C   UNL     1       6.402   7.668  -6.637  1.00  0.00     0.000 C 
BRANCH   9  10
ATOM     10  C   UNL     1       6.253   9.155  -6.293  1.00  0.00     0.000 C 
BRANCH  10  11
ATOM     11  C   UNL     1       7.473   9.667  -5.511  1.00  0.00     0.000 C 
BRANCH  11  12
ATOM     12  C   UNL     1       7.985   8.654  -4.474  1.00  0.00     0.006 C 
BRANCH  12  13
ATOM     13  C   UNL     1       7.547   8.993  -3.042  1.00  0.00     0.053 C 
BRANCH  13  14
ATOM     14  C   UNL     1       6.355   8.179  -2.646  1.00  0.00     0.041 C 
ATOM     15  O   UNL     1       5.284   8.745  -2.299  1.00  0.00    -0.550 OA
ATOM     16  O   UNL     1       6.425   6.792  -2.662  1.00  0.00    -0.550 OA
ENDBRANCH  13  14
ENDBRANCH  12  13
ENDBRANCH  11  12
ENDBRANCH  10  11
ENDBRANCH   9  10
ENDBRANCH   8   9
ENDBRANCH   7   8
ENDBRANCH   6   7
ENDBRANCH   5   6
ENDBRANCH   4   5
ENDBRANCH   3   4
ENDBRANCH   2   3
ENDBRANCH   1   2
BRANCH   1  17
ATOM     17  C   UNL     1       5.209   2.800 -10.109  1.00  0.00     0.000 C 
BRANCH  17  18
ATOM     18  C   UNL     1       5.459   4.246  -9.653  1.00  0.00     0.000 C 
BRANCH  18  19
ATOM     19  C   UNL     1       4.757   4.607  -8.326  1.00  0.00     0.000 C 
BRANCH  19  20
ATOM     20  C   UNL     1       4.200   3.367  -7.605  1.00  0.00     0.000 C 
BRANCH  20  21
ATOM     21  C   UNL     1       4.217   3.523  -6.074  1.00  0.00     0.000 C 
BRANCH  21  22
ATOM     22  C   UNL     1       4.833   2.302  -5.367  1.00  0.00    -0.000 C 
BRANCH  22  23
ATOM     23  C   UNL     1       5.567   1.361  -6.341  1.00  0.00    -0.000 C 
BRANCH  23  24
ATOM     24  C   UNL     1       6.507   0.351  -5.655  1.00  0.00    -0.000 C 
BRANCH  24  25
ATOM     25  C   UNL     1       6.411  -1.056  -6.273  1.00  0.00    -0.000 C 
BRANCH  25  26
ATOM     26  C   UNL     1       7.595  -1.381  -7.199  1.00  0.00    -0.000 C 
BRANCH  26  27
ATOM     27  C   UNL     1       7.239  -1.510  -8.695  1.00  0.00    -0.000 C 
BRANCH  27  28
ATOM     28  C   UNL     1       5.791  -1.127  -9.055  1.00  0.00    -0.000 C 
BRANCH  28  29
ATOM     29  C   UNL     1       5.117  -2.148  -9.983  1.00  0.00    -0.003 C 
ATOM     30  C   UNL     1       3.815  -2.666  -9.380  1.00  0.00     0.004 C 
ENDBRANCH  28  29
ENDBRANCH  27  28
ENDBRANCH  26  27
ENDBRANCH  25  26
ENDBRANCH  24  25
ENDBRANCH  23  24
ENDBRANCH  22  23
ENDBRANCH  21  22
ENDBRANCH  20  21
ENDBRANCH  19  20
ENDBRANCH  18  19
ENDBRANCH  17  18
ENDBRANCH   1  17
TORSDOF 26
ENDMDL
MODEL 8
REMARK VINA RESULT:    -2.905      1.648      3.947
REMARK INTER + INTRA:         -11.784
REMARK INTER:                  -7.763
REMARK INTRA:                  -4.021
REMARK UNBOUND:                -4.464
REMARK SMILES CCCCCCCCCCCCCCCCCCCCCCCCCCCC(=O)[O-]
REMARK SMILES IDX 15 1 16 2 17 3 18 4 19 5 20 6 21 7 22 8 23 9 24 10 25 11
REMARK SMILES IDX 26 12 27 13 28 14 29 15 30 16 14 17 13 18 12 19 11 20 10 21
REMARK SMILES IDX 9 22 8 23 7 24 6 25 5 26 4 27 3 28 2 29 1 30
REMARK H PARENT
REMARK Flexibility Score: inf
ROOT
ATOM      1  C   UNL     1       9.815   5.189  -4.641  1.00  0.00     0.000 C 
ENDROOT
BRANCH   1   2
ATOM      2  C   UNL     1      10.088   6.406  -3.727  1.00  0.00     0.000 C 
BRANCH   2   3
ATOM      3  C   UNL     1       8.885   7.353  -3.571  1.00  0.00     0.000 C 
BRANCH   3   4
ATOM      4  C   UNL     1       9.238   8.850  -3.494  1.00  0.00     0.000 C 
BRANCH   4   5
ATOM      5  C   UNL     1       9.099   9.621  -4.820  1.00  0.00     0.000 C 
BRANCH   5   6
ATOM      6  C   UNL     1       8.133   8.949  -5.815  1.00  0.00     0.000 C 
BRANCH   6   7
ATOM      7  C   UNL     1       7.194   9.955  -6.501  1.00  0.00     0.000 C 
BRANCH   7   8
ATOM      8  C   UNL     1       5.740   9.842  -6.018  1.00  0.00     0.000 C 
BRANCH   8   9
ATOM      9  C   UNL     1       5.612   8.803  -4.897  1.00  0.00     0.000 C 
BRANCH   9  10
ATOM     10  C   UNL     1       4.868   9.382  -3.688  1.00  0.00     0.000 C 
BRANCH  10  11
ATOM     11  C   UNL     1       5.853   9.906  -2.631  1.00  0.00     0.000 C 
BRANCH  11  12
ATOM     12  C   UNL     1       5.608   9.307  -1.237  1.00  0.00     0.006 C 
BRANCH  12  13
ATOM     13  C   UNL     1       6.398   8.014  -0.996  1.00  0.00     0.053 C 
BRANCH  13  14
ATOM     14  C   UNL     1       6.758   7.875   0.450  1.00  0.00     0.041 C 
ATOM     15  O   UNL     1       6.741   8.880   1.210  1.00  0.00    -0.550 OA
ATOM     16  O   UNL     1       7.110   6.632   0.962  1.00  0.00    -0.550 OA
ENDBRANCH  13  14
ENDBRANCH  12  13
ENDBRANCH  11  12
ENDBRANCH  10  11
ENDBRANCH   9  10
ENDBRANCH   8   9
ENDBRANCH   7   8
ENDBRANCH   6   7
ENDBRANCH   5   6
ENDBRANCH   4   5
ENDBRANCH   3   4
ENDBRANCH   2   3
ENDBRANCH   1   2
BRANCH   1  17
ATOM     17  C   UNL     1       9.549   5.598  -6.098  1.00  0.00     0.000 C 
BRANCH  17  18
ATOM     18  C   UNL     1       8.431   4.773  -6.754  1.00  0.00     0.000 C 
BRANCH  18  19
ATOM     19  C   UNL     1       7.155   5.588  -7.056  1.00  0.00     0.000 C 
BRANCH  19  20
ATOM     20  C   UNL     1       6.006   5.253  -6.088  1.00  0.00     0.000 C 
BRANCH  20  21
ATOM     21  C   UNL     1       5.517   3.801  -6.242  1.00  0.00     0.000 C 
BRANCH  21  22
ATOM     22  C   UNL     1       4.380   3.672  -7.272  1.00  0.00    -0.000 C 
BRANCH  22  23
ATOM     23  C   UNL     1       4.833   2.979  -8.571  1.00  0.00    -0.000 C 
BRANCH  23  24
ATOM     24  C   UNL     1       5.845   1.837  -8.358  1.00  0.00    -0.000 C 
BRANCH  24  25
ATOM     25  C   UNL     1       7.222   2.149  -8.970  1.00  0.00    -0.000 C 
BRANCH  25  26
ATOM     26  C   UNL     1       8.342   1.264  -8.396  1.00  0.00    -0.000 C 
BRANCH  26  27
ATOM     27  C   UNL     1       7.861   0.039  -7.591  1.00  0.00    -0.000 C 
BRANCH  27  28
ATOM     28  C   UNL     1       7.966   0.183  -6.061  1.00  0.00    -0.000 C 
BRANCH  28  29
ATOM     29  C   UNL     1       7.127  -0.857  -5.304  1.00  0.00    -0.003 C 
ATOM     30  C   UNL     1       6.163  -1.576  -6.243  1.00  0.00     0.004 C 
ENDBRANCH  28  29
ENDBRANCH  27  28
ENDBRANCH  26  27
ENDBRANCH  25  26
ENDBRANCH  24  25
ENDBRANCH  23  24
ENDBRANCH  22  23
ENDBRANCH  21  22
ENDBRANCH  20  21
ENDBRANCH  19  20
ENDBRANCH  18  19
ENDBRANCH  17  18
ENDBRANCH   1  17
TORSDOF 26
ENDMDL
MODEL 9
REMARK VINA RESULT:    -2.864      4.024      9.410
REMARK INTER + INTRA:         -11.683
REMARK INTER:                  -7.892
REMARK INTRA:                  -3.790
REMARK UNBOUND:                -4.464
REMARK SMILES CCCCCCCCCCCCCCCCCCCCCCCCCCCC(=O)[O-]
REMARK SMILES IDX 15 1 16 2 17 3 18 4 19 5 20 6 21 7 22 8 23 9 24 10 25 11
REMARK SMILES IDX 26 12 27 13 28 14 29 15 30 16 14 17 13 18 12 19 11 20 10 21
REMARK SMILES IDX 9 22 8 23 7 24 6 25 5 26 4 27 3 28 2 29 1 30
REMARK H PARENT
REMARK Flexibility Score: inf
ROOT
ATOM      1  C   UNL     1       4.504   3.398  -6.917  1.00  0.00     0.000 C 
ENDROOT
BRANCH   1   2
ATOM      2  C   UNL     1       4.707   4.218  -8.213  1.00  0.00     0.000 C 
BRANCH   2   3
ATOM      3  C   UNL     1       5.079   3.367  -9.440  1.00  0.00     0.000 C 
BRANCH   3   4
ATOM      4  C   UNL     1       6.472   3.647 -10.031  1.00  0.00     0.000 C 
BRANCH   4   5
ATOM      5  C   UNL     1       7.098   4.991  -9.614  1.00  0.00     0.000 C 
BRANCH   5   6
ATOM      6  C   UNL     1       8.323   4.831  -8.692  1.00  0.00     0.000 C 
BRANCH   6   7
ATOM      7  C   UNL     1       8.801   3.373  -8.593  1.00  0.00     0.000 C 
BRANCH   7   8
ATOM      8  C   UNL     1       8.505   2.738  -7.225  1.00  0.00     0.000 C 
BRANCH   8   9
ATOM      9  C   UNL     1       8.172   1.249  -7.369  1.00  0.00     0.000 C 
BRANCH   9  10
ATOM     10  C   UNL     1       8.403   0.499  -6.052  1.00  0.00     0.000 C 
BRANCH  10  11
ATOM     11  C   UNL     1       7.236  -0.451  -5.742  1.00  0.00     0.000 C 
BRANCH  11  12
ATOM     12  C   UNL     1       6.055  -0.280  -6.711  1.00  0.00     0.006 C 
BRANCH  12  13
ATOM     13  C   UNL     1       5.476  -1.620  -7.189  1.00  0.00     0.053 C 
BRANCH  13  14
ATOM     14  C   UNL     1       4.902  -1.488  -8.565  1.00  0.00     0.041 C 
ATOM     15  O   UNL     1       4.364  -2.479  -9.127  1.00  0.00    -0.550 OA
ATOM     16  O   UNL     1       4.959  -0.268  -9.226  1.00  0.00    -0.550 OA
ENDBRANCH  13  14
ENDBRANCH  12  13
ENDBRANCH  11  12
ENDBRANCH  10  11
ENDBRANCH   9  10
ENDBRANCH   8   9
ENDBRANCH   7   8
ENDBRANCH   6   7
ENDBRANCH   5   6
ENDBRANCH   4   5
ENDBRANCH   3   4
ENDBRANCH   2   3
ENDBRANCH   1   2
BRANCH   1  17
ATOM     17  C   UNL     1       5.246   4.004  -5.717  1.00  0.00     0.000 C 
BRANCH  17  18
ATOM     18  C   UNL     1       5.986   5.304  -6.068  1.00  0.00     0.000 C 
BRANCH  18  19
ATOM     19  C   UNL     1       6.225   6.230  -4.855  1.00  0.00     0.000 C 
BRANCH  19  20
ATOM     20  C   UNL     1       7.590   6.937  -4.920  1.00  0.00     0.000 C 
BRANCH  20  21
ATOM     21  C   UNL     1       8.557   6.444  -3.830  1.00  0.00     0.000 C 
BRANCH  21  22
ATOM     22  C   UNL     1       9.333   7.598  -3.169  1.00  0.00    -0.000 C 
BRANCH  22  23
ATOM     23  C   UNL     1       8.808   8.983  -3.592  1.00  0.00    -0.000 C 
BRANCH  23  24
ATOM     24  C   UNL     1       9.057  10.096  -2.556  1.00  0.00    -0.000 C 
BRANCH  24  25
ATOM     25  C   UNL     1       9.655   9.557  -1.245  1.00  0.00    -0.000 C 
BRANCH  25  26
ATOM     26  C   UNL     1       8.728   9.768  -0.036  1.00  0.00    -0.000 C 
BRANCH  26  27
ATOM     27  C   UNL     1       7.834   8.561   0.320  1.00  0.00    -0.000 C 
BRANCH  27  28
ATOM     28  C   UNL     1       6.355   8.901   0.581  1.00  0.00    -0.000 C 
BRANCH  28  29
ATOM     29  C   UNL     1       5.710   9.684  -0.572  1.00  0.00    -0.003 C 
ATOM     30  C   UNL     1       5.618   8.832  -1.834  1.00  0.00     0.004 C 
ENDBRANCH  28  29
ENDBRANCH  27  28
ENDBRANCH  26  27
ENDBRANCH  25  26
ENDBRANCH  24  25
ENDBRANCH  23  24
ENDBRANCH  22  23
ENDBRANCH  21  22
ENDBRANCH  20  21
ENDBRANCH  19  20
ENDBRANCH  18  19
ENDBRANCH  17  18
ENDBRANCH   1  17
TORSDOF 26
ENDMDL
