MODEL 1
REMARK VINA RESULT:    -6.028      0.000      0.000
REMARK INTER + INTRA:          -7.575
REMARK INTER:                  -7.261
REMARK INTRA:                  -0.314
REMARK UNBOUND:                -0.314
REMARK SMILES O=c1c(O)c(-c2ccc(O)c(O)c2)oc2cc(O)cc(O)c12
REMARK SMILES IDX 5 1 3 2 2 3 1 4 22 5 20 6 19 7 17 8 16 9 15 10 14 11 6 12
REMARK SMILES IDX 7 13 8 14 9 15 13 16 11 17 10 18 12 20 4 22 21 24 18 26
REMARK H PARENT 10 19 12 21 4 23 21 25 18 27
REMARK Flexibility Score: inf
ROOT
ATOM      1  C   UNL     1       5.953  -5.953 -18.927  1.00  0.00     0.180 A 
ATOM      2  C   UNL     1       7.325  -5.798 -18.661  1.00  0.00     0.208 A 
ATOM      3  C   UNL     1       8.131  -5.143 -19.607  1.00  0.00     0.238 A 
ATOM      4  O   UNL     1       9.368  -5.055 -19.388  1.00  0.00    -0.285 OA
ATOM      5  C   UNL     1       7.554  -4.637 -20.795  1.00  0.00     0.111 A 
ATOM      6  C   UNL     1       8.268  -3.921 -21.803  1.00  0.00     0.134 A 
ATOM      7  C   UNL     1       7.623  -3.583 -22.998  1.00  0.00     0.093 A 
ATOM      8  C   UNL     1       6.271  -3.875 -23.195  1.00  0.00     0.123 A 
ATOM      9  C   UNL     1       5.550  -4.520 -22.193  1.00  0.00     0.094 A 
ATOM     10  C   UNL     1       6.175  -4.904 -21.004  1.00  0.00     0.146 A 
ATOM     11  O   UNL     1       5.454  -5.526 -20.080  1.00  0.00    -0.452 OA
ENDROOT
BRANCH   1  12
ATOM     12  C   UNL     1       5.035  -6.610 -17.968  1.00  0.00     0.025 A 
ATOM     13  C   UNL     1       4.893  -8.006 -17.995  1.00  0.00     0.016 A 
ATOM     14  C   UNL     1       4.017  -8.646 -17.113  1.00  0.00     0.051 A 
ATOM     15  C   UNL     1       3.259  -7.900 -16.206  1.00  0.00     0.157 A 
ATOM     16  C   UNL     1       4.256  -5.860 -17.068  1.00  0.00     0.062 A 
ATOM     17  C   UNL     1       3.375  -6.500 -16.184  1.00  0.00     0.158 A 
BRANCH  15  18
ATOM     18  O   UNL     1       2.395  -8.566 -15.336  1.00  0.00    -0.504 OA
ATOM     19  H   UNL     1       2.539  -9.534 -15.072  1.00  0.00     0.293 HD
ENDBRANCH  15  18
BRANCH  17  20
ATOM     20  O   UNL     1       2.612  -5.750 -15.291  1.00  0.00    -0.504 OA
ATOM     21  H   UNL     1       3.027  -5.027 -14.714  1.00  0.00     0.293 HD
ENDBRANCH  17  20
ENDBRANCH   1  12
BRANCH   2  22
ATOM     22  O   UNL     1       7.877  -6.324 -17.491  1.00  0.00    -0.502 OA
ATOM     23  H   UNL     1       8.877  -6.349 -17.325  1.00  0.00     0.293 HD
ENDBRANCH   2  22
BRANCH   6  24
ATOM     24  O   UNL     1       9.594  -3.500 -21.668  1.00  0.00    -0.507 OA
ATOM     25  H   UNL     1      10.201  -3.256 -22.435  1.00  0.00     0.293 HD
ENDBRANCH   6  24
BRANCH   8  26
ATOM     26  O   UNL     1       5.632  -3.520 -24.382  1.00  0.00    -0.508 OA
ATOM     27  H   UNL     1       5.161  -2.629 -24.483  1.00  0.00     0.293 HD
ENDBRANCH   8  26
TORSDOF 6
ENDMDL
MODEL 2
REMARK VINA RESULT:    -5.930      1.633      7.138
REMARK INTER + INTRA:          -7.457
REMARK INTER:                  -7.174
REMARK INTRA:                  -0.283
REMARK UNBOUND:                -0.314
REMARK SMILES O=c1c(O)c(-c2ccc(O)c(O)c2)oc2cc(O)cc(O)c12
REMARK SMILES IDX 5 1 3 2 2 3 1 4 22 5 20 6 19 7 17 8 16 9 15 10 14 11 6 12
REMARK SMILES IDX 7 13 8 14 9 15 13 16 11 17 10 18 12 20 4 22 21 24 18 26
REMARK H PARENT 10 19 12 21 4 23 21 25 18 27
REMARK Flexibility Score: inf
ROOT
ATOM      1  C   UNL     1       5.333  -6.405 -18.401  1.00  0.00     0.180 A 
ATOM      2  C   UNL     1       4.508  -5.766 -17.458  1.00  0.00     0.208 A 
ATOM      3  C   UNL     1       3.670  -6.549 -16.647  1.00  0.00     0.238 A 
ATOM      4  O   UNL     1       2.894  -5.968 -15.842  1.00  0.00    -0.285 OA
ATOM      5  C   UNL     1       3.680  -7.958 -16.776  1.00  0.00     0.111 A 
ATOM      6  C   UNL     1       2.903  -8.851 -15.978  1.00  0.00     0.134 A 
ATOM      7  C   UNL     1       2.893 -10.217 -16.281  1.00  0.00     0.093 A 
ATOM      8  C   UNL     1       3.684 -10.732 -17.312  1.00  0.00     0.123 A 
ATOM      9  C   UNL     1       4.492  -9.877 -18.057  1.00  0.00     0.094 A 
ATOM     10  C   UNL     1       4.495  -8.504 -17.802  1.00  0.00     0.146 A 
ATOM     11  O   UNL     1       5.271  -7.723 -18.544  1.00  0.00    -0.452 OA
ENDROOT
BRANCH   1  12
ATOM     12  C   UNL     1       6.260  -5.650 -19.274  1.00  0.00     0.025 A 
ATOM     13  C   UNL     1       7.619  -5.568 -18.931  1.00  0.00     0.016 A 
ATOM     14  C   UNL     1       8.509  -4.844 -19.729  1.00  0.00     0.051 A 
ATOM     15  C   UNL     1       8.053  -4.178 -20.870  1.00  0.00     0.157 A 
ATOM     16  C   UNL     1       5.800  -4.961 -20.411  1.00  0.00     0.062 A 
ATOM     17  C   UNL     1       6.691  -4.232 -21.212  1.00  0.00     0.158 A 
BRANCH  15  18
ATOM     18  O   UNL     1       8.965  -3.465 -21.648  1.00  0.00    -0.504 OA
ATOM     19  H   UNL     1       9.930  -3.755 -21.747  1.00  0.00     0.293 HD
ENDBRANCH  15  18
BRANCH  17  20
ATOM     20  O   UNL     1       6.227  -3.559 -22.341  1.00  0.00    -0.504 OA
ATOM     21  H   UNL     1       6.018  -2.568 -22.320  1.00  0.00     0.293 HD
ENDBRANCH  17  20
ENDBRANCH   1  12
BRANCH   2  22
ATOM     22  O   UNL     1       4.498  -4.372 -17.362  1.00  0.00    -0.502 OA
ATOM     23  H   UNL     1       4.749  -3.884 -16.510  1.00  0.00     0.293 HD
ENDBRANCH   2  22
BRANCH   6  24
ATOM     24  O   UNL     1       2.151  -8.452 -14.869  1.00  0.00    -0.507 OA
ATOM     25  H   UNL     1       2.460  -7.793 -14.171  1.00  0.00     0.293 HD
ENDBRANCH   6  24
BRANCH   8  26
ATOM     26  O   UNL     1       3.681 -12.097 -17.596  1.00  0.00    -0.508 OA
ATOM     27  H   UNL     1       4.423 -12.528 -18.134  1.00  0.00     0.293 HD
ENDBRANCH   8  26
TORSDOF 6
ENDMDL
MODEL 3
REMARK VINA RESULT:    -5.572      1.964      2.941
REMARK INTER + INTRA:          -7.026
REMARK INTER:                  -6.705
REMARK INTRA:                  -0.321
REMARK UNBOUND:                -0.314
REMARK SMILES O=c1c(O)c(-c2ccc(O)c(O)c2)oc2cc(O)cc(O)c12
REMARK SMILES IDX 5 1 3 2 2 3 1 4 22 5 20 6 19 7 17 8 16 9 15 10 14 11 6 12
REMARK SMILES IDX 7 13 8 14 9 15 13 16 11 17 10 18 12 20 4 22 21 24 18 26
REMARK H PARENT 10 19 12 21 4 23 21 25 18 27
REMARK Flexibility Score: inf
ROOT
ATOM      1  C   UNL     1       5.647  -6.162 -19.985  1.00  0.00     0.180 A 
ATOM      2  C   UNL     1       5.194  -7.114 -20.916  1.00  0.00     0.208 A 
ATOM      3  C   UNL     1       5.398  -6.876 -22.285  1.00  0.00     0.238 A 
ATOM      4  O   UNL     1       4.942  -7.705 -23.116  1.00  0.00    -0.285 OA
ATOM      5  C   UNL     1       6.067  -5.702 -22.704  1.00  0.00     0.111 A 
ATOM      6  C   UNL     1       6.363  -5.379 -24.063  1.00  0.00     0.134 A 
ATOM      7  C   UNL     1       6.911  -4.129 -24.372  1.00  0.00     0.093 A 
ATOM      8  C   UNL     1       7.234  -3.215 -23.365  1.00  0.00     0.123 A 
ATOM      9  C   UNL     1       7.004  -3.545 -22.032  1.00  0.00     0.094 A 
ATOM     10  C   UNL     1       6.424  -4.770 -21.694  1.00  0.00     0.146 A 
ATOM     11  O   UNL     1       6.212  -5.040 -20.413  1.00  0.00    -0.452 OA
ENDROOT
BRANCH   1  12
ATOM     12  C   UNL     1       5.491  -6.354 -18.525  1.00  0.00     0.025 A 
ATOM     13  C   UNL     1       6.505  -7.001 -17.801  1.00  0.00     0.016 A 
ATOM     14  C   UNL     1       6.369  -7.211 -16.426  1.00  0.00     0.051 A 
ATOM     15  C   UNL     1       5.215  -6.794 -15.757  1.00  0.00     0.157 A 
ATOM     16  C   UNL     1       4.321  -5.954 -17.854  1.00  0.00     0.062 A 
ATOM     17  C   UNL     1       4.183  -6.165 -16.474  1.00  0.00     0.158 A 
BRANCH  15  18
ATOM     18  O   UNL     1       5.109  -7.015 -14.384  1.00  0.00    -0.504 OA
ATOM     19  H   UNL     1       5.884  -7.369 -13.835  1.00  0.00     0.293 HD
ENDBRANCH  15  18
BRANCH  17  20
ATOM     20  O   UNL     1       3.023  -5.759 -15.817  1.00  0.00    -0.504 OA
ATOM     21  H   UNL     1       2.733  -4.788 -15.801  1.00  0.00     0.293 HD
ENDBRANCH  17  20
ENDBRANCH   1  12
BRANCH   2  22
ATOM     22  O   UNL     1       4.518  -8.256 -20.480  1.00  0.00    -0.502 OA
ATOM     23  H   UNL     1       4.993  -9.032 -20.034  1.00  0.00     0.293 HD
ENDBRANCH   2  22
BRANCH   6  24
ATOM     24  O   UNL     1       6.165  -6.255 -25.133  1.00  0.00    -0.507 OA
ATOM     25  H   UNL     1       5.325  -6.790 -25.291  1.00  0.00     0.293 HD
ENDBRANCH   6  24
BRANCH   8  26
ATOM     26  O   UNL     1       7.795  -1.978 -23.680  1.00  0.00    -0.508 OA
ATOM     27  H   UNL     1       8.079  -1.326 -22.959  1.00  0.00     0.293 HD
ENDBRANCH   8  26
TORSDOF 6
ENDMDL
MODEL 4
REMARK VINA RESULT:    -5.504      1.593      7.040
REMARK INTER + INTRA:          -6.943
REMARK INTER:                  -6.620
REMARK INTRA:                  -0.323
REMARK UNBOUND:                -0.314
REMARK SMILES O=c1c(O)c(-c2ccc(O)c(O)c2)oc2cc(O)cc(O)c12
REMARK SMILES IDX 5 1 3 2 2 3 1 4 22 5 20 6 19 7 17 8 16 9 15 10 14 11 6 12
REMARK SMILES IDX 7 13 8 14 9 15 13 16 11 17 10 18 12 20 4 22 21 24 18 26
REMARK H PARENT 10 19 12 21 4 23 21 25 18 27
REMARK Flexibility Score: inf
ROOT
ATOM      1  C   UNL     1       5.662  -6.410 -19.500  1.00  0.00     0.180 A 
ATOM      2  C   UNL     1       5.642  -7.800 -19.710  1.00  0.00     0.208 A 
ATOM      3  C   UNL     1       4.959  -8.616 -18.794  1.00  0.00     0.238 A 
ATOM      4  O   UNL     1       4.991  -9.865 -18.957  1.00  0.00    -0.285 OA
ATOM      5  C   UNL     1       4.291  -8.033 -17.691  1.00  0.00     0.111 A 
ATOM      6  C   UNL     1       3.534  -8.760 -16.724  1.00  0.00     0.134 A 
ATOM      7  C   UNL     1       3.026  -8.095 -15.603  1.00  0.00     0.093 A 
ATOM      8  C   UNL     1       3.190  -6.716 -15.447  1.00  0.00     0.123 A 
ATOM      9  C   UNL     1       3.876  -5.987 -16.416  1.00  0.00     0.094 A 
ATOM     10  C   UNL     1       4.427  -6.629 -17.528  1.00  0.00     0.146 A 
ATOM     11  O   UNL     1       5.082  -5.899 -18.421  1.00  0.00    -0.452 OA
ENDROOT
BRANCH   1  12
ATOM     12  C   UNL     1       6.340  -5.483 -20.435  1.00  0.00     0.025 A 
ATOM     13  C   UNL     1       7.699  -5.184 -20.246  1.00  0.00     0.016 A 
ATOM     14  C   UNL     1       8.354  -4.295 -21.104  1.00  0.00     0.051 A 
ATOM     15  C   UNL     1       7.659  -3.682 -22.150  1.00  0.00     0.157 A 
ATOM     16  C   UNL     1       5.638  -4.848 -21.475  1.00  0.00     0.062 A 
ATOM     17  C   UNL     1       6.294  -3.955 -22.336  1.00  0.00     0.158 A 
BRANCH  15  18
ATOM     18  O   UNL     1       8.340  -2.801 -22.991  1.00  0.00    -0.504 OA
ATOM     19  H   UNL     1       9.009  -2.128 -22.637  1.00  0.00     0.293 HD
ENDBRANCH  15  18
BRANCH  17  20
ATOM     20  O   UNL     1       5.592  -3.336 -23.369  1.00  0.00    -0.504 OA
ATOM     21  H   UNL     1       5.389  -2.343 -23.354  1.00  0.00     0.293 HD
ENDBRANCH  17  20
ENDBRANCH   1  12
BRANCH   2  22
ATOM     22  O   UNL     1       6.327  -8.357 -20.793  1.00  0.00    -0.502 OA
ATOM     23  H   UNL     1       6.419  -9.358 -20.921  1.00  0.00     0.293 HD
ENDBRANCH   2  22
BRANCH   6  24
ATOM     24  O   UNL     1       3.233 -10.121 -16.832  1.00  0.00    -0.507 OA
ATOM     25  H   UNL     1       2.314 -10.494 -17.015  1.00  0.00     0.293 HD
ENDBRANCH   6  24
BRANCH   8  26
ATOM     26  O   UNL     1       2.667  -6.058 -14.335  1.00  0.00    -0.508 OA
ATOM     27  H   UNL     1       2.192  -5.168 -14.421  1.00  0.00     0.293 HD
ENDBRANCH   8  26
TORSDOF 6
ENDMDL
MODEL 5
REMARK VINA RESULT:    -5.411      1.085      1.360
REMARK INTER + INTRA:          -6.831
REMARK INTER:                  -6.506
REMARK INTRA:                  -0.325
REMARK UNBOUND:                -0.314
REMARK SMILES O=c1c(O)c(-c2ccc(O)c(O)c2)oc2cc(O)cc(O)c12
REMARK SMILES IDX 5 1 3 2 2 3 1 4 22 5 20 6 19 7 17 8 16 9 15 10 14 11 6 12
REMARK SMILES IDX 7 13 8 14 9 15 13 16 11 17 10 18 12 20 4 22 21 24 18 26
REMARK H PARENT 10 19 12 21 4 23 21 25 18 27
REMARK Flexibility Score: inf
ROOT
ATOM      1  C   UNL     1       6.483  -5.557 -20.095  1.00  0.00     0.180 A 
ATOM      2  C   UNL     1       7.852  -5.305 -19.898  1.00  0.00     0.208 A 
ATOM      3  C   UNL     1       8.575  -4.646 -20.905  1.00  0.00     0.238 A 
ATOM      4  O   UNL     1       9.812  -4.472 -20.746  1.00  0.00    -0.285 OA
ATOM      5  C   UNL     1       7.917  -4.230 -22.087  1.00  0.00     0.111 A 
ATOM      6  C   UNL     1       8.542  -3.519 -23.156  1.00  0.00     0.134 A 
ATOM      7  C   UNL     1       7.827  -3.275 -24.334  1.00  0.00     0.093 A 
ATOM      8  C   UNL     1       6.489  -3.659 -24.458  1.00  0.00     0.123 A 
ATOM      9  C   UNL     1       5.853  -4.302 -23.398  1.00  0.00     0.094 A 
ATOM     10  C   UNL     1       6.551  -4.591 -22.223  1.00  0.00     0.146 A 
ATOM     11  O   UNL     1       5.910  -5.215 -21.243  1.00  0.00    -0.452 OA
ENDROOT
BRANCH   1  12
ATOM     12  C   UNL     1       5.650  -6.225 -19.070  1.00  0.00     0.025 A 
ATOM     13  C   UNL     1       5.535  -7.625 -19.078  1.00  0.00     0.016 A 
ATOM     14  C   UNL     1       4.738  -8.275 -18.132  1.00  0.00     0.051 A 
ATOM     15  C   UNL     1       4.032  -7.539 -17.177  1.00  0.00     0.157 A 
ATOM     16  C   UNL     1       4.921  -5.485 -18.121  1.00  0.00     0.062 A 
ATOM     17  C   UNL     1       4.119  -6.137 -17.172  1.00  0.00     0.158 A 
BRANCH  15  18
ATOM     18  O   UNL     1       3.246  -8.216 -16.244  1.00  0.00    -0.504 OA
ATOM     19  H   UNL     1       2.320  -8.560 -16.470  1.00  0.00     0.293 HD
ENDBRANCH  15  18
BRANCH  17  20
ATOM     20  O   UNL     1       3.407  -5.396 -16.231  1.00  0.00    -0.504 OA
ATOM     21  H   UNL     1       3.854  -5.013 -15.406  1.00  0.00     0.293 HD
ENDBRANCH  17  20
ENDBRANCH   1  12
BRANCH   2  22
ATOM     22  O   UNL     1       8.486  -5.743 -18.732  1.00  0.00    -0.502 OA
ATOM     23  H   UNL     1       8.827  -5.102 -18.025  1.00  0.00     0.293 HD
ENDBRANCH   2  22
BRANCH   6  24
ATOM     24  O   UNL     1       9.842  -3.010 -23.098  1.00  0.00    -0.507 OA
ATOM     25  H   UNL     1      10.654  -3.538 -22.815  1.00  0.00     0.293 HD
ENDBRANCH   6  24
BRANCH   8  26
ATOM     26  O   UNL     1       5.780  -3.398 -25.629  1.00  0.00    -0.508 OA
ATOM     27  H   UNL     1       4.768  -3.436 -25.655  1.00  0.00     0.293 HD
ENDBRANCH   8  26
TORSDOF 6
ENDMDL
MODEL 6
REMARK VINA RESULT:    -5.380      1.511      6.608
REMARK INTER + INTRA:          -6.794
REMARK INTER:                  -6.532
REMARK INTRA:                  -0.262
REMARK UNBOUND:                -0.314
REMARK SMILES O=c1c(O)c(-c2ccc(O)c(O)c2)oc2cc(O)cc(O)c12
REMARK SMILES IDX 5 1 3 2 2 3 1 4 22 5 20 6 19 7 17 8 16 9 15 10 14 11 6 12
REMARK SMILES IDX 7 13 8 14 9 15 13 16 11 17 10 18 12 20 4 22 21 24 18 26
REMARK H PARENT 10 19 12 21 4 23 21 25 18 27
REMARK Flexibility Score: inf
ROOT
ATOM      1  C   UNL     1       6.603  -5.569 -20.177  1.00  0.00     0.180 A 
ATOM      2  C   UNL     1       7.762  -6.220 -19.720  1.00  0.00     0.208 A 
ATOM      3  C   UNL     1       7.768  -6.774 -18.430  1.00  0.00     0.238 A 
ATOM      4  O   UNL     1       8.827  -7.308 -18.006  1.00  0.00    -0.285 OA
ATOM      5  C   UNL     1       6.611  -6.687 -17.620  1.00  0.00     0.111 A 
ATOM      6  C   UNL     1       6.491  -7.248 -16.313  1.00  0.00     0.134 A 
ATOM      7  C   UNL     1       5.346  -6.987 -15.551  1.00  0.00     0.093 A 
ATOM      8  C   UNL     1       4.288  -6.240 -16.075  1.00  0.00     0.123 A 
ATOM      9  C   UNL     1       4.370  -5.738 -17.371  1.00  0.00     0.094 A 
ATOM     10  C   UNL     1       5.515  -5.950 -18.142  1.00  0.00     0.146 A 
ATOM     11  O   UNL     1       5.556  -5.446 -19.369  1.00  0.00    -0.452 OA
ENDROOT
BRANCH   1  12
ATOM     12  C   UNL     1       6.512  -4.982 -21.533  1.00  0.00     0.025 A 
ATOM     13  C   UNL     1       5.815  -5.671 -22.538  1.00  0.00     0.016 A 
ATOM     14  C   UNL     1       5.735  -5.146 -23.831  1.00  0.00     0.051 A 
ATOM     15  C   UNL     1       6.361  -3.935 -24.142  1.00  0.00     0.157 A 
ATOM     16  C   UNL     1       7.159  -3.775 -21.854  1.00  0.00     0.062 A 
ATOM     17  C   UNL     1       7.081  -3.247 -23.151  1.00  0.00     0.158 A 
BRANCH  15  18
ATOM     18  O   UNL     1       6.261  -3.435 -25.440  1.00  0.00    -0.504 OA
ATOM     19  H   UNL     1       7.071  -3.330 -26.040  1.00  0.00     0.293 HD
ENDBRANCH  15  18
BRANCH  17  20
ATOM     20  O   UNL     1       7.719  -2.047 -23.458  1.00  0.00    -0.504 OA
ATOM     21  H   UNL     1       7.275  -1.151 -23.295  1.00  0.00     0.293 HD
ENDBRANCH  17  20
ENDBRANCH   1  12
BRANCH   2  22
ATOM     22  O   UNL     1       8.901  -6.276 -20.528  1.00  0.00    -0.502 OA
ATOM     23  H   UNL     1       9.728  -6.800 -20.267  1.00  0.00     0.293 HD
ENDBRANCH   2  22
BRANCH   6  24
ATOM     24  O   UNL     1       7.449  -8.084 -15.733  1.00  0.00    -0.507 OA
ATOM     25  H   UNL     1       7.761  -8.024 -14.776  1.00  0.00     0.293 HD
ENDBRANCH   6  24
BRANCH   8  26
ATOM     26  O   UNL     1       3.144  -5.998 -15.315  1.00  0.00    -0.508 OA
ATOM     27  H   UNL     1       2.282  -6.503 -15.480  1.00  0.00     0.293 HD
ENDBRANCH   8  26
TORSDOF 6
ENDMDL
MODEL 7
REMARK VINA RESULT:    -5.251     13.209     14.193
REMARK INTER + INTRA:          -6.639
REMARK INTER:                  -6.411
REMARK INTRA:                  -0.228
REMARK UNBOUND:                -0.314
REMARK SMILES O=c1c(O)c(-c2ccc(O)c(O)c2)oc2cc(O)cc(O)c12
REMARK SMILES IDX 5 1 3 2 2 3 1 4 22 5 20 6 19 7 17 8 16 9 15 10 14 11 6 12
REMARK SMILES IDX 7 13 8 14 9 15 13 16 11 17 10 18 12 20 4 22 21 24 18 26
REMARK H PARENT 10 19 12 21 4 23 21 25 18 27
REMARK Flexibility Score: inf
ROOT
ATOM      1  C   UNL     1      -1.408   0.078  -9.170  1.00  0.00     0.180 A 
ATOM      2  C   UNL     1      -0.179  -0.554  -8.915  1.00  0.00     0.208 A 
ATOM      3  C   UNL     1       0.996   0.215  -8.926  1.00  0.00     0.238 A 
ATOM      4  O   UNL     1       2.100  -0.365  -8.750  1.00  0.00    -0.285 OA
ATOM      5  C   UNL     1       0.926   1.607  -9.172  1.00  0.00     0.111 A 
ATOM      6  C   UNL     1       2.047   2.490  -9.165  1.00  0.00     0.134 A 
ATOM      7  C   UNL     1       1.878   3.824  -9.552  1.00  0.00     0.093 A 
ATOM      8  C   UNL     1       0.616   4.325  -9.881  1.00  0.00     0.123 A 
ATOM      9  C   UNL     1      -0.495   3.485  -9.833  1.00  0.00     0.094 A 
ATOM     10  C   UNL     1      -0.352   2.140  -9.486  1.00  0.00     0.146 A 
ATOM     11  O   UNL     1      -1.435   1.372  -9.463  1.00  0.00    -0.452 OA
ENDROOT
BRANCH   1  12
ATOM     12  C   UNL     1      -2.691  -0.661  -9.153  1.00  0.00     0.025 A 
ATOM     13  C   UNL     1      -3.001  -1.533 -10.210  1.00  0.00     0.016 A 
ATOM     14  C   UNL     1      -4.215  -2.225 -10.224  1.00  0.00     0.051 A 
ATOM     15  C   UNL     1      -5.143  -2.045  -9.195  1.00  0.00     0.157 A 
ATOM     16  C   UNL     1      -3.636  -0.466  -8.129  1.00  0.00     0.062 A 
ATOM     17  C   UNL     1      -4.855  -1.159  -8.143  1.00  0.00     0.158 A 
BRANCH  15  18
ATOM     18  O   UNL     1      -6.345  -2.751  -9.235  1.00  0.00    -0.504 OA
ATOM     19  H   UNL     1      -6.451  -3.658  -8.794  1.00  0.00     0.293 HD
ENDBRANCH  15  18
BRANCH  17  20
ATOM     20  O   UNL     1      -5.782  -0.965  -7.120  1.00  0.00    -0.504 OA
ATOM     21  H   UNL     1      -5.611  -1.295  -6.178  1.00  0.00     0.293 HD
ENDBRANCH  17  20
ENDBRANCH   1  12
BRANCH   2  22
ATOM     22  O   UNL     1      -0.129  -1.933  -8.696  1.00  0.00    -0.502 OA
ATOM     23  H   UNL     1       0.048  -2.331  -7.781  1.00  0.00     0.293 HD
ENDBRANCH   2  22
BRANCH   6  24
ATOM     24  O   UNL     1       3.332   2.114  -8.764  1.00  0.00    -0.507 OA
ATOM     25  H   UNL     1       4.181   2.587  -9.036  1.00  0.00     0.293 HD
ENDBRANCH   6  24
BRANCH   8  26
ATOM     26  O   UNL     1       0.453   5.659 -10.250  1.00  0.00    -0.508 OA
ATOM     27  H   UNL     1      -0.153   5.927 -11.015  1.00  0.00     0.293 HD
ENDBRANCH   8  26
TORSDOF 6
ENDMDL
MODEL 8
REMARK VINA RESULT:    -5.227      1.765      2.133
REMARK INTER + INTRA:          -6.610
REMARK INTER:                  -6.373
REMARK INTRA:                  -0.237
REMARK UNBOUND:                -0.314
REMARK SMILES O=c1c(O)c(-c2ccc(O)c(O)c2)oc2cc(O)cc(O)c12
REMARK SMILES IDX 5 1 3 2 2 3 1 4 22 5 20 6 19 7 17 8 16 9 15 10 14 11 6 12
REMARK SMILES IDX 7 13 8 14 9 15 13 16 11 17 10 18 12 20 4 22 21 24 18 26
REMARK H PARENT 10 19 12 21 4 23 21 25 18 27
REMARK Flexibility Score: inf
ROOT
ATOM      1  C   UNL     1       5.796  -5.748 -19.307  1.00  0.00     0.180 A 
ATOM      2  C   UNL     1       6.795  -4.792 -19.560  1.00  0.00     0.208 A 
ATOM      3  C   UNL     1       7.065  -4.424 -20.888  1.00  0.00     0.238 A 
ATOM      4  O   UNL     1       7.998  -3.608 -21.112  1.00  0.00    -0.285 OA
ATOM      5  C   UNL     1       6.321  -5.002 -21.944  1.00  0.00     0.111 A 
ATOM      6  C   UNL     1       6.482  -4.673 -23.324  1.00  0.00     0.134 A 
ATOM      7  C   UNL     1       5.784  -5.403 -24.294  1.00  0.00     0.093 A 
ATOM      8  C   UNL     1       4.882  -6.406 -23.930  1.00  0.00     0.123 A 
ATOM      9  C   UNL     1       4.673  -6.693 -22.583  1.00  0.00     0.094 A 
ATOM     10  C   UNL     1       5.382  -6.008 -21.594  1.00  0.00     0.146 A 
ATOM     11  O   UNL     1       5.161  -6.321 -20.323  1.00  0.00    -0.452 OA
ENDROOT
BRANCH   1  12
ATOM     12  C   UNL     1       5.438  -6.169 -17.933  1.00  0.00     0.025 A 
ATOM     13  C   UNL     1       6.305  -7.013 -17.222  1.00  0.00     0.016 A 
ATOM     14  C   UNL     1       5.978  -7.440 -15.932  1.00  0.00     0.051 A 
ATOM     15  C   UNL     1       4.775  -7.042 -15.340  1.00  0.00     0.157 A 
ATOM     16  C   UNL     1       4.219  -5.787 -17.344  1.00  0.00     0.062 A 
ATOM     17  C   UNL     1       3.888  -6.216 -16.050  1.00  0.00     0.158 A 
BRANCH  15  18
ATOM     18  O   UNL     1       4.477  -7.482 -14.050  1.00  0.00    -0.504 OA
ATOM     19  H   UNL     1       5.049  -7.232 -13.252  1.00  0.00     0.293 HD
ENDBRANCH  15  18
BRANCH  17  20
ATOM     20  O   UNL     1       2.681  -5.827 -15.471  1.00  0.00    -0.504 OA
ATOM     21  H   UNL     1       1.806  -5.880 -15.980  1.00  0.00     0.293 HD
ENDBRANCH  17  20
ENDBRANCH   1  12
BRANCH   2  22
ATOM     22  O   UNL     1       7.532  -4.250 -18.503  1.00  0.00    -0.502 OA
ATOM     23  H   UNL     1       7.432  -4.574 -17.549  1.00  0.00     0.293 HD
ENDBRANCH   2  22
BRANCH   6  24
ATOM     24  O   UNL     1       7.287  -3.629 -23.788  1.00  0.00    -0.507 OA
ATOM     25  H   UNL     1       7.050  -3.016 -24.553  1.00  0.00     0.293 HD
ENDBRANCH   6  24
BRANCH   8  26
ATOM     26  O   UNL     1       4.179  -7.117 -24.901  1.00  0.00    -0.508 OA
ATOM     27  H   UNL     1       4.206  -8.128 -24.940  1.00  0.00     0.293 HD
ENDBRANCH   8  26
TORSDOF 6
ENDMDL
MODEL 9
REMARK VINA RESULT:    -5.067     14.438     16.558
REMARK INTER + INTRA:          -6.417
REMARK INTER:                  -6.096
REMARK INTRA:                  -0.321
REMARK UNBOUND:                -0.314
REMARK SMILES O=c1c(O)c(-c2ccc(O)c(O)c2)oc2cc(O)cc(O)c12
REMARK SMILES IDX 5 1 3 2 2 3 1 4 22 5 20 6 19 7 17 8 16 9 15 10 14 11 6 12
REMARK SMILES IDX 7 13 8 14 9 15 13 16 11 17 10 18 12 20 4 22 21 24 18 26
REMARK H PARENT 10 19 12 21 4 23 21 25 18 27
REMARK Flexibility Score: inf
ROOT
ATOM      1  C   UNL     1      -2.801   2.083  -9.332  1.00  0.00     0.180 A 
ATOM      2  C   UNL     1      -3.915   2.468 -10.099  1.00  0.00     0.208 A 
ATOM      3  C   UNL     1      -4.926   1.527 -10.349  1.00  0.00     0.238 A 
ATOM      4  O   UNL     1      -5.895   1.861 -11.082  1.00  0.00    -0.285 OA
ATOM      5  C   UNL     1      -4.821   0.220  -9.815  1.00  0.00     0.111 A 
ATOM      6  C   UNL     1      -5.806  -0.801  -9.971  1.00  0.00     0.134 A 
ATOM      7  C   UNL     1      -5.537  -2.096  -9.512  1.00  0.00     0.093 A 
ATOM      8  C   UNL     1      -4.345  -2.390  -8.844  1.00  0.00     0.123 A 
ATOM      9  C   UNL     1      -3.403  -1.386  -8.635  1.00  0.00     0.094 A 
ATOM     10  C   UNL     1      -3.627  -0.093  -9.113  1.00  0.00     0.146 A 
ATOM     11  O   UNL     1      -2.699   0.832  -8.902  1.00  0.00    -0.452 OA
ENDROOT
BRANCH   1  12
ATOM     12  C   UNL     1      -1.706   3.026  -9.006  1.00  0.00     0.025 A 
ATOM     13  C   UNL     1      -1.824   3.858  -7.881  1.00  0.00     0.016 A 
ATOM     14  C   UNL     1      -0.813   4.770  -7.567  1.00  0.00     0.051 A 
ATOM     15  C   UNL     1       0.321   4.876  -8.377  1.00  0.00     0.157 A 
ATOM     16  C   UNL     1      -0.574   3.149  -9.832  1.00  0.00     0.062 A 
ATOM     17  C   UNL     1       0.441   4.065  -9.518  1.00  0.00     0.158 A 
BRANCH  15  18
ATOM     18  O   UNL     1       1.315   5.793  -8.036  1.00  0.00    -0.504 OA
ATOM     19  H   UNL     1       1.928   5.651  -7.242  1.00  0.00     0.293 HD
ENDBRANCH  15  18
BRANCH  17  20
ATOM     20  O   UNL     1       1.562   4.175 -10.339  1.00  0.00    -0.504 OA
ATOM     21  H   UNL     1       2.491   3.950 -10.002  1.00  0.00     0.293 HD
ENDBRANCH  17  20
ENDBRANCH   1  12
BRANCH   2  22
ATOM     22  O   UNL     1      -3.988   3.757 -10.634  1.00  0.00    -0.502 OA
ATOM     23  H   UNL     1      -4.829   4.117 -11.070  1.00  0.00     0.293 HD
ENDBRANCH   2  22
BRANCH   6  24
ATOM     24  O   UNL     1      -7.065  -0.590 -10.540  1.00  0.00    -0.507 OA
ATOM     25  H   UNL     1      -7.498   0.313 -10.659  1.00  0.00     0.293 HD
ENDBRANCH   6  24
BRANCH   8  26
ATOM     26  O   UNL     1      -4.092  -3.679  -8.377  1.00  0.00    -0.508 OA
ATOM     27  H   UNL     1      -4.276  -3.939  -7.415  1.00  0.00     0.293 HD
ENDBRANCH   8  26
TORSDOF 6
ENDMDL
