MODEL 1
REMARK VINA RESULT:    54.085      0.000      0.000
REMARK INTER + INTRA:          75.486
REMARK INTER:                  68.313
REMARK INTRA:                   7.173
REMARK UNBOUND:                 7.173
REMARK SMILES CC(C)[C@@H](C)C=C[C@H](C)[C@H]1CC[C@@H]2C3=CC=C4C[C@@H](O)CC[C@]4(C)[C@H]3CC[C@@]21C
REMARK SMILES IDX 8 1 9 2 7 3 6 4 4 5 5 6 2 7 1 8 3 9 10 10 11 11 28 12 12 13
REMARK SMILES IDX 13 14 27 15 29 16 14 17 26 18 25 19 15 20 23 21 16 22 17 23
REMARK SMILES IDX 22 24 24 25 18 26 21 27 19 28 20 29
REMARK H PARENT 20 30
REMARK Flexibility Score: inf
ROOT
ATOM      1  C   UNL     1     -40.087  24.612   5.992  1.00  0.00     0.012 C 
ATOM      2  C   UNL     1     -40.783  23.617   5.045  1.00  0.00     0.012 C 
ENDROOT
BRANCH   1   3
ATOM      3  C   UNL     1     -41.087  25.077   7.038  1.00  0.00    -0.028 C 
ATOM      4  C   UNL     1     -41.332  24.465   8.217  1.00  0.00    -0.028 C 
BRANCH   4   5
ATOM      5  C   UNL     1     -40.724  23.148   8.668  1.00  0.00     0.011 C 
ATOM      6  C   UNL     1     -39.191  23.277   8.744  1.00  0.00     0.012 C 
BRANCH   5   7
ATOM      7  C   UNL     1     -41.199  21.980   7.745  1.00  0.00    -0.011 C 
ATOM      8  C   UNL     1     -42.124  22.483   6.627  1.00  0.00     0.008 C 
ATOM      9  C   UNL     1     -41.875  20.824   8.506  1.00  0.00     0.008 C 
ENDBRANCH   5   7
ENDBRANCH   4   5
ENDBRANCH   1   3
BRANCH   1  10
ATOM     10  C   UNL     1     -38.793  24.069   6.701  1.00  0.00     0.002 C 
ATOM     11  C   UNL     1     -38.062  22.975   5.894  1.00  0.00     0.005 C 
ATOM     12  C   UNL     1     -37.671  25.096   7.080  1.00  0.00    -0.023 C 
ATOM     13  C   UNL     1     -36.767  23.584   5.350  1.00  0.00     0.009 C 
ATOM     14  C   UNL     1     -36.692  25.019   5.882  1.00  0.00     0.021 C 
ATOM     15  C   UNL     1     -36.987  24.608   8.408  1.00  0.00     0.008 C 
ATOM     16  C   UNL     1     -38.176  26.543   7.295  1.00  0.00     0.012 C 
ATOM     17  C   UNL     1     -35.292  25.472   6.257  1.00  0.00    -0.063 C 
ATOM     18  C   UNL     1     -35.574  25.176   8.657  1.00  0.00     0.009 C 
ATOM     19  C   UNL     1     -34.643  24.840   7.470  1.00  0.00     0.025 C 
ATOM     20  C   UNL     1     -34.843  26.645   5.794  1.00  0.00    -0.000 C 
ATOM     21  C   UNL     1     -33.116  25.231   7.646  1.00  0.00    -0.005 C 
ATOM     22  C   UNL     1     -33.625  27.273   6.313  1.00  0.00    -0.000 C 
ATOM     23  C   UNL     1     -32.829  26.661   7.201  1.00  0.00    -0.061 C 
ATOM     24  C   UNL     1     -32.242  24.320   6.727  1.00  0.00     0.014 C 
ATOM     25  C   UNL     1     -32.683  25.021   9.125  1.00  0.00     0.017 C 
ATOM     26  C   UNL     1     -31.401  27.134   7.308  1.00  0.00     0.063 C 
ATOM     27  C   UNL     1     -30.745  24.720   6.698  1.00  0.00     0.033 C 
ATOM     28  C   UNL     1     -30.528  26.229   6.415  1.00  0.00     0.118 C 
BRANCH  28  29
ATOM     29  O   UNL     1     -29.171  26.565   6.550  1.00  0.00    -0.393 OA
ATOM     30  H   UNL     1     -29.114  27.334   7.177  1.00  0.00     0.210 HD
ENDBRANCH  28  29
ENDBRANCH   1  10
TORSDOF 5
ENDMDL
MODEL 2
REMARK VINA RESULT:    55.528     11.620     15.588
REMARK INTER + INTRA:          77.308
REMARK INTER:                  77.456
REMARK INTRA:                  -0.147
REMARK UNBOUND:                 7.173
REMARK SMILES CC(C)[C@@H](C)C=C[C@H](C)[C@H]1CC[C@@H]2C3=CC=C4C[C@@H](O)CC[C@]4(C)[C@H]3CC[C@@]21C
REMARK SMILES IDX 8 1 9 2 7 3 6 4 4 5 5 6 2 7 1 8 3 9 10 10 11 11 28 12 12 13
REMARK SMILES IDX 13 14 27 15 29 16 14 17 26 18 25 19 15 20 23 21 16 22 17 23
REMARK SMILES IDX 22 24 24 25 18 26 21 27 19 28 20 29
REMARK H PARENT 20 30
REMARK Flexibility Score: inf
ROOT
ATOM      1  C   UNL     1     -30.077  32.671  -3.524  1.00  0.00     0.012 C 
ATOM      2  C   UNL     1     -29.167  31.480  -3.171  1.00  0.00     0.012 C 
ENDROOT
BRANCH   1   3
ATOM      3  C   UNL     1     -30.485  32.562  -4.985  1.00  0.00    -0.028 C 
ATOM      4  C   UNL     1     -30.437  33.562  -5.891  1.00  0.00    -0.028 C 
BRANCH   4   5
ATOM      5  C   UNL     1     -30.061  35.002  -5.591  1.00  0.00     0.011 C 
ATOM      6  C   UNL     1     -30.709  35.940  -6.628  1.00  0.00     0.012 C 
BRANCH   5   7
ATOM      7  C   UNL     1     -28.508  35.158  -5.505  1.00  0.00    -0.011 C 
ATOM      8  C   UNL     1     -28.064  35.635  -4.114  1.00  0.00     0.008 C 
ATOM      9  C   UNL     1     -27.916  36.078  -6.589  1.00  0.00     0.008 C 
ENDBRANCH   5   7
ENDBRANCH   4   5
ENDBRANCH   1   3
BRANCH   1  10
ATOM     10  C   UNL     1     -31.358  32.826  -2.627  1.00  0.00     0.002 C 
ATOM     11  C   UNL     1     -32.236  34.036  -3.013  1.00  0.00     0.005 C 
ATOM     12  C   UNL     1     -32.358  31.622  -2.550  1.00  0.00    -0.023 C 
ATOM     13  C   UNL     1     -33.510  33.497  -3.670  1.00  0.00     0.009 C 
ATOM     14  C   UNL     1     -33.423  31.967  -3.620  1.00  0.00     0.021 C 
ATOM     15  C   UNL     1     -32.984  31.595  -1.108  1.00  0.00     0.008 C 
ATOM     16  C   UNL     1     -31.715  30.241  -2.829  1.00  0.00     0.012 C 
ATOM     17  C   UNL     1     -34.748  31.277  -3.352  1.00  0.00    -0.063 C 
ATOM     18  C   UNL     1     -34.321  30.834  -0.996  1.00  0.00     0.009 C 
ATOM     19  C   UNL     1     -35.360  31.425  -1.975  1.00  0.00     0.025 C 
ATOM     20  C   UNL     1     -35.127  30.267  -4.146  1.00  0.00    -0.000 C 
ATOM     21  C   UNL     1     -36.831  30.842  -1.871  1.00  0.00    -0.005 C 
ATOM     22  C   UNL     1     -36.246  29.385  -3.805  1.00  0.00    -0.000 C 
ATOM     23  C   UNL     1     -37.026  29.602  -2.736  1.00  0.00    -0.061 C 
ATOM     24  C   UNL     1     -37.844  31.899  -2.415  1.00  0.00     0.014 C 
ATOM     25  C   UNL     1     -37.173  30.531  -0.386  1.00  0.00     0.017 C 
ATOM     26  C   UNL     1     -38.396  28.973  -2.727  1.00  0.00     0.063 C 
ATOM     27  C   UNL     1     -39.300  31.374  -2.509  1.00  0.00     0.033 C 
ATOM     28  C   UNL     1     -39.406  30.015  -3.249  1.00  0.00     0.118 C 
BRANCH  28  29
ATOM     29  O   UNL     1     -40.716  29.514  -3.173  1.00  0.00    -0.393 OA
ATOM     30  H   UNL     1     -41.244  29.947  -3.895  1.00  0.00     0.210 HD
ENDBRANCH  28  29
ENDBRANCH   1  10
TORSDOF 5
ENDMDL
MODEL 3
REMARK VINA RESULT:    56.061      0.789      1.290
REMARK INTER + INTRA:          77.983
REMARK INTER:                  67.897
REMARK INTRA:                  10.086
REMARK UNBOUND:                 7.173
REMARK SMILES CC(C)[C@@H](C)C=C[C@H](C)[C@H]1CC[C@@H]2C3=CC=C4C[C@@H](O)CC[C@]4(C)[C@H]3CC[C@@]21C
REMARK SMILES IDX 8 1 9 2 7 3 6 4 4 5 5 6 2 7 1 8 3 9 10 10 11 11 28 12 12 13
REMARK SMILES IDX 13 14 27 15 29 16 14 17 26 18 25 19 15 20 23 21 16 22 17 23
REMARK SMILES IDX 22 24 24 25 18 26 21 27 19 28 20 29
REMARK H PARENT 20 30
REMARK Flexibility Score: inf
ROOT
ATOM      1  C   UNL     1     -39.883  25.196   6.774  1.00  0.00     0.012 C 
ATOM      2  C   UNL     1     -40.476  24.440   5.570  1.00  0.00     0.012 C 
ENDROOT
BRANCH   1   3
ATOM      3  C   UNL     1     -40.937  25.287   7.865  1.00  0.00    -0.028 C 
ATOM      4  C   UNL     1     -41.882  24.357   8.124  1.00  0.00    -0.028 C 
BRANCH   4   5
ATOM      5  C   UNL     1     -42.125  23.099   7.308  1.00  0.00     0.011 C 
ATOM      6  C   UNL     1     -41.452  21.893   7.992  1.00  0.00     0.012 C 
BRANCH   5   7
ATOM      7  C   UNL     1     -41.663  23.305   5.830  1.00  0.00    -0.011 C 
ATOM      8  C   UNL     1     -42.125  24.662   5.277  1.00  0.00     0.008 C 
ATOM      9  C   UNL     1     -42.103  22.175   4.879  1.00  0.00     0.008 C 
ENDBRANCH   5   7
ENDBRANCH   4   5
ENDBRANCH   1   3
BRANCH   1  10
ATOM     10  C   UNL     1     -38.561  24.585   7.365  1.00  0.00     0.002 C 
ATOM     11  C   UNL     1     -37.990  23.425   6.522  1.00  0.00     0.005 C 
ATOM     12  C   UNL     1     -37.342  25.543   7.595  1.00  0.00    -0.023 C 
ATOM     13  C   UNL     1     -36.721  23.931   5.830  1.00  0.00     0.009 C 
ATOM     14  C   UNL     1     -36.499  25.371   6.307  1.00  0.00     0.021 C 
ATOM     15  C   UNL     1     -36.557  25.043   8.862  1.00  0.00     0.008 C 
ATOM     16  C   UNL     1     -37.728  27.026   7.814  1.00  0.00     0.012 C 
ATOM     17  C   UNL     1     -35.041  25.737   6.524  1.00  0.00    -0.063 C 
ATOM     18  C   UNL     1     -35.092  25.520   8.948  1.00  0.00     0.009 C 
ATOM     19  C   UNL     1     -34.313  25.093   7.684  1.00  0.00     0.025 C 
ATOM     20  C   UNL     1     -34.568  26.866   5.981  1.00  0.00    -0.000 C 
ATOM     21  C   UNL     1     -32.754  25.385   7.691  1.00  0.00    -0.005 C 
ATOM     22  C   UNL     1     -33.265  27.423   6.353  1.00  0.00    -0.000 C 
ATOM     23  C   UNL     1     -32.422  26.781   7.175  1.00  0.00    -0.061 C 
ATOM     24  C   UNL     1     -32.040  24.394   6.718  1.00  0.00     0.014 C 
ATOM     25  C   UNL     1     -32.185  25.183   9.125  1.00  0.00     0.017 C 
ATOM     26  C   UNL     1     -30.964  27.159   7.122  1.00  0.00     0.063 C 
ATOM     27  C   UNL     1     -30.531  24.692   6.524  1.00  0.00     0.033 C 
ATOM     28  C   UNL     1     -30.247  26.176   6.174  1.00  0.00     0.118 C 
BRANCH  28  29
ATOM     29  O   UNL     1     -28.865  26.423   6.160  1.00  0.00    -0.393 OA
ATOM     30  H   UNL     1     -28.575  26.555   7.101  1.00  0.00     0.210 HD
ENDBRANCH  28  29
ENDBRANCH   1  10
TORSDOF 5
ENDMDL
MODEL 4
REMARK VINA RESULT:    56.258      1.601      3.139
REMARK INTER + INTRA:          78.231
REMARK INTER:                  77.433
REMARK INTRA:                   0.797
REMARK UNBOUND:                 7.173
REMARK SMILES CC(C)[C@@H](C)C=C[C@H](C)[C@H]1CC[C@@H]2C3=CC=C4C[C@@H](O)CC[C@]4(C)[C@H]3CC[C@@]21C
REMARK SMILES IDX 8 1 9 2 7 3 6 4 4 5 5 6 2 7 1 8 3 9 10 10 11 11 28 12 12 13
REMARK SMILES IDX 13 14 27 15 29 16 14 17 26 18 25 19 15 20 23 21 16 22 17 23
REMARK SMILES IDX 22 24 24 25 18 26 21 27 19 28 20 29
REMARK H PARENT 20 30
REMARK Flexibility Score: inf
ROOT
ATOM      1  C   UNL     1     -41.111  23.950   6.899  1.00  0.00     0.012 C 
ATOM      2  C   UNL     1     -42.121  22.958   7.506  1.00  0.00     0.012 C 
ENDROOT
BRANCH   1   3
ATOM      3  C   UNL     1     -41.874  25.107   6.274  1.00  0.00    -0.028 C 
ATOM      4  C   UNL     1     -42.125  25.261   4.956  1.00  0.00    -0.028 C 
BRANCH   4   5
ATOM      5  C   UNL     1     -41.607  24.358   3.851  1.00  0.00     0.011 C 
ATOM      6  C   UNL     1     -41.211  22.988   4.435  1.00  0.00     0.012 C 
BRANCH   5   7
ATOM      7  C   UNL     1     -40.445  25.054   3.071  1.00  0.00    -0.011 C 
ATOM      8  C   UNL     1     -40.962  26.208   2.199  1.00  0.00     0.008 C 
ATOM      9  C   UNL     1     -39.604  24.087   2.217  1.00  0.00     0.008 C 
ENDBRANCH   5   7
ENDBRANCH   4   5
ENDBRANCH   1   3
BRANCH   1  10
ATOM     10  C   UNL     1     -40.033  24.506   7.900  1.00  0.00     0.002 C 
ATOM     11  C   UNL     1     -39.441  23.424   8.828  1.00  0.00     0.005 C 
ATOM     12  C   UNL     1     -38.785  25.245   7.307  1.00  0.00    -0.023 C 
ATOM     13  C   UNL     1     -38.000  23.163   8.379  1.00  0.00     0.009 C 
ATOM     14  C   UNL     1     -37.711  24.131   7.226  1.00  0.00     0.021 C 
ATOM     15  C   UNL     1     -38.360  26.376   8.312  1.00  0.00     0.008 C 
ATOM     16  C   UNL     1     -39.024  25.889   5.920  1.00  0.00     0.012 C 
ATOM     17  C   UNL     1     -36.301  24.695   7.225  1.00  0.00    -0.063 C 
ATOM     18  C   UNL     1     -36.902  26.858   8.169  1.00  0.00     0.009 C 
ATOM     19  C   UNL     1     -35.926  25.670   8.321  1.00  0.00     0.025 C 
ATOM     20  C   UNL     1     -35.587  24.654   6.094  1.00  0.00    -0.000 C 
ATOM     21  C   UNL     1     -34.382  26.030   8.344  1.00  0.00    -0.005 C 
ATOM     22  C   UNL     1     -34.336  25.402   5.934  1.00  0.00    -0.000 C 
ATOM     23  C   UNL     1     -33.777  26.082   6.945  1.00  0.00    -0.061 C 
ATOM     24  C   UNL     1     -33.601  24.909   9.100  1.00  0.00     0.014 C 
ATOM     25  C   UNL     1     -34.166  27.382   9.083  1.00  0.00     0.017 C 
ATOM     26  C   UNL     1     -32.307  26.400   6.850  1.00  0.00     0.063 C 
ATOM     27  C   UNL     1     -32.061  25.078   9.045  1.00  0.00     0.033 C 
ATOM     28  C   UNL     1     -31.528  25.305   7.607  1.00  0.00     0.118 C 
BRANCH  28  29
ATOM     29  O   UNL     1     -30.156  25.602   7.631  1.00  0.00    -0.393 OA
ATOM     30  H   UNL     1     -29.897  25.895   6.718  1.00  0.00     0.210 HD
ENDBRANCH  28  29
ENDBRANCH   1  10
TORSDOF 5
ENDMDL
MODEL 5
REMARK VINA RESULT:    56.398      1.152      3.003
REMARK INTER + INTRA:          78.407
REMARK INTER:                  73.810
REMARK INTRA:                   4.597
REMARK UNBOUND:                 7.173
REMARK SMILES CC(C)[C@@H](C)C=C[C@H](C)[C@H]1CC[C@@H]2C3=CC=C4C[C@@H](O)CC[C@]4(C)[C@H]3CC[C@@]21C
REMARK SMILES IDX 8 1 9 2 7 3 6 4 4 5 5 6 2 7 1 8 3 9 10 10 11 11 28 12 12 13
REMARK SMILES IDX 13 14 27 15 29 16 14 17 26 18 25 19 15 20 23 21 16 22 17 23
REMARK SMILES IDX 22 24 24 25 18 26 21 27 19 28 20 29
REMARK H PARENT 20 30
REMARK Flexibility Score: inf
ROOT
ATOM      1  C   UNL     1     -40.871  24.834   7.867  1.00  0.00     0.012 C 
ATOM      2  C   UNL     1     -42.123  25.650   7.495  1.00  0.00     0.012 C 
ENDROOT
BRANCH   1   3
ATOM      3  C   UNL     1     -41.255  23.366   7.973  1.00  0.00    -0.028 C 
ATOM      4  C   UNL     1     -41.720  22.602   6.961  1.00  0.00    -0.028 C 
BRANCH   4   5
ATOM      5  C   UNL     1     -42.036  23.094   5.560  1.00  0.00     0.011 C 
ATOM      6  C   UNL     1     -42.124  21.899   4.591  1.00  0.00     0.012 C 
BRANCH   5   7
ATOM      7  C   UNL     1     -41.003  24.177   5.111  1.00  0.00    -0.011 C 
ATOM      8  C   UNL     1     -41.653  25.243   4.217  1.00  0.00     0.008 C 
ATOM      9  C   UNL     1     -39.759  23.595   4.413  1.00  0.00     0.008 C 
ENDBRANCH   5   7
ENDBRANCH   4   5
ENDBRANCH   1   3
BRANCH   1  10
ATOM     10  C   UNL     1     -39.651  24.993   6.889  1.00  0.00     0.002 C 
ATOM     11  C   UNL     1     -39.331  26.462   6.539  1.00  0.00     0.005 C 
ATOM     12  C   UNL     1     -38.274  24.380   7.318  1.00  0.00    -0.023 C 
ATOM     13  C   UNL     1     -38.026  26.836   7.247  1.00  0.00     0.009 C 
ATOM     14  C   UNL     1     -37.534  25.576   7.968  1.00  0.00     0.021 C 
ATOM     15  C   UNL     1     -37.532  23.884   6.024  1.00  0.00     0.008 C 
ATOM     16  C   UNL     1     -38.384  23.191   8.304  1.00  0.00     0.012 C 
ATOM     17  C   UNL     1     -36.026  25.395   7.946  1.00  0.00    -0.063 C 
ATOM     18  C   UNL     1     -36.004  23.729   6.170  1.00  0.00     0.009 C 
ATOM     19  C   UNL     1     -35.370  25.063   6.622  1.00  0.00     0.025 C 
ATOM     20  C   UNL     1     -35.387  25.133   9.093  1.00  0.00    -0.000 C 
ATOM     21  C   UNL     1     -33.785  25.102   6.676  1.00  0.00    -0.005 C 
ATOM     22  C   UNL     1     -33.991  24.689   9.123  1.00  0.00    -0.000 C 
ATOM     23  C   UNL     1     -33.238  24.625   8.016  1.00  0.00    -0.061 C 
ATOM     24  C   UNL     1     -33.301  26.579   6.524  1.00  0.00     0.014 C 
ATOM     25  C   UNL     1     -33.196  24.255   5.511  1.00  0.00     0.017 C 
ATOM     26  C   UNL     1     -31.740  24.637   8.183  1.00  0.00     0.063 C 
ATOM     27  C   UNL     1     -31.773  26.755   6.721  1.00  0.00     0.033 C 
ATOM     28  C   UNL     1     -31.250  26.090   8.020  1.00  0.00     0.118 C 
BRANCH  28  29
ATOM     29  O   UNL     1     -29.848  26.147   8.073  1.00  0.00    -0.393 OA
ATOM     30  H   UNL     1     -29.497  25.372   7.560  1.00  0.00     0.210 HD
ENDBRANCH  28  29
ENDBRANCH   1  10
TORSDOF 5
ENDMDL
MODEL 6
REMARK VINA RESULT:    56.809      2.922      8.016
REMARK INTER + INTRA:          78.928
REMARK INTER:                  78.235
REMARK INTRA:                   0.692
REMARK UNBOUND:                 7.173
REMARK SMILES CC(C)[C@@H](C)C=C[C@H](C)[C@H]1CC[C@@H]2C3=CC=C4C[C@@H](O)CC[C@]4(C)[C@H]3CC[C@@]21C
REMARK SMILES IDX 8 1 9 2 7 3 6 4 4 5 5 6 2 7 1 8 3 9 10 10 11 11 28 12 12 13
REMARK SMILES IDX 13 14 27 15 29 16 14 17 26 18 25 19 15 20 23 21 16 22 17 23
REMARK SMILES IDX 22 24 24 25 18 26 21 27 19 28 20 29
REMARK H PARENT 20 30
REMARK Flexibility Score: inf
ROOT
ATOM      1  C   UNL     1     -33.927  27.476   6.015  1.00  0.00     0.012 C 
ATOM      2  C   UNL     1     -33.355  28.826   5.546  1.00  0.00     0.012 C 
ENDROOT
BRANCH   1   3
ATOM      3  C   UNL     1     -33.600  27.288   7.488  1.00  0.00    -0.028 C 
ATOM      4  C   UNL     1     -32.808  26.321   8.000  1.00  0.00    -0.028 C 
BRANCH   4   5
ATOM      5  C   UNL     1     -32.182  25.187   7.209  1.00  0.00     0.011 C 
ATOM      6  C   UNL     1     -32.632  23.832   7.788  1.00  0.00     0.012 C 
BRANCH   5   7
ATOM      7  C   UNL     1     -30.628  25.348   7.154  1.00  0.00    -0.011 C 
ATOM      8  C   UNL     1     -30.081  25.991   8.436  1.00  0.00     0.008 C 
ATOM      9  C   UNL     1     -30.129  26.127   5.922  1.00  0.00     0.008 C 
ENDBRANCH   5   7
ENDBRANCH   4   5
ENDBRANCH   1   3
BRANCH   1  10
ATOM     10  C   UNL     1     -35.471  27.286   5.788  1.00  0.00     0.002 C 
ATOM     11  C   UNL     1     -35.811  26.488   4.511  1.00  0.00     0.005 C 
ATOM     12  C   UNL     1     -36.306  26.594   6.919  1.00  0.00    -0.023 C 
ATOM     13  C   UNL     1     -36.327  25.113   4.943  1.00  0.00     0.009 C 
ATOM     14  C   UNL     1     -36.355  25.110   6.476  1.00  0.00     0.021 C 
ATOM     15  C   UNL     1     -37.741  27.234   6.932  1.00  0.00     0.008 C 
ATOM     16  C   UNL     1     -35.698  26.732   8.336  1.00  0.00     0.012 C 
ATOM     17  C   UNL     1     -37.539  24.373   7.075  1.00  0.00    -0.063 C 
ATOM     18  C   UNL     1     -38.832  26.369   7.598  1.00  0.00     0.009 C 
ATOM     19  C   UNL     1     -38.914  24.986   6.913  1.00  0.00     0.025 C 
ATOM     20  C   UNL     1     -37.321  23.468   8.038  1.00  0.00    -0.000 C 
ATOM     21  C   UNL     1     -40.090  24.036   7.391  1.00  0.00    -0.005 C 
ATOM     22  C   UNL     1     -38.410  22.910   8.845  1.00  0.00    -0.000 C 
ATOM     23  C   UNL     1     -39.697  23.188   8.596  1.00  0.00    -0.061 C 
ATOM     24  C   UNL     1     -40.429  23.022   6.253  1.00  0.00     0.014 C 
ATOM     25  C   UNL     1     -41.357  24.882   7.708  1.00  0.00     0.017 C 
ATOM     26  C   UNL     1     -40.737  22.233   9.125  1.00  0.00     0.063 C 
ATOM     27  C   UNL     1     -41.458  21.940   6.671  1.00  0.00     0.033 C 
ATOM     28  C   UNL     1     -41.089  21.236   8.002  1.00  0.00     0.118 C 
BRANCH  28  29
ATOM     29  O   UNL     1     -42.125  20.380   8.410  1.00  0.00    -0.393 OA
ATOM     30  H   UNL     1     -41.931  20.100   9.343  1.00  0.00     0.210 HD
ENDBRANCH  28  29
ENDBRANCH   1  10
TORSDOF 5
ENDMDL
