MODEL 1
REMARK VINA RESULT:    -3.624      0.000      0.000
REMARK INTER + INTRA:          -5.745
REMARK INTER:                  -5.107
REMARK INTRA:                  -0.638
REMARK UNBOUND:                -0.638
REMARK SMILES CCCCCCCCC(=O)[O-]
REMARK SMILES IDX 6 1 7 2 8 3 9 4 10 5 11 6 5 7 4 8 3 9 2 10 1 11
REMARK H PARENT
REMARK Flexibility Score: inf
ROOT
ATOM      1  C   UNL     1       4.537  13.551   6.377  1.00  0.00     0.000 C 
ENDROOT
BRANCH   1   2
ATOM      2  C   UNL     1       5.141  14.350   7.543  1.00  0.00     0.006 C 
BRANCH   2   3
ATOM      3  C   UNL     1       6.664  14.194   7.638  1.00  0.00     0.053 C 
BRANCH   3   4
ATOM      4  C   UNL     1       7.020  13.166   8.665  1.00  0.00     0.041 C 
ATOM      5  O   UNL     1       8.146  12.602   8.634  1.00  0.00    -0.550 OA
ATOM      6  O   UNL     1       6.128  12.866   9.686  1.00  0.00    -0.550 OA
ENDBRANCH   3   4
ENDBRANCH   2   3
ENDBRANCH   1   2
BRANCH   1   7
ATOM      7  C   UNL     1       4.026  12.166   6.812  1.00  0.00     0.000 C 
BRANCH   7   8
ATOM      8  C   UNL     1       4.932  11.024   6.328  1.00  0.00    -0.000 C 
BRANCH   8   9
ATOM      9  C   UNL     1       5.369  10.093   7.469  1.00  0.00    -0.000 C 
BRANCH   9  10
ATOM     10  C   UNL     1       4.247   9.929   8.501  1.00  0.00    -0.003 C 
ATOM     11  C   UNL     1       4.094   8.471   8.924  1.00  0.00     0.004 C 
ENDBRANCH   9  10
ENDBRANCH   8   9
ENDBRANCH   7   8
ENDBRANCH   1   7
TORSDOF 7
ENDMDL
MODEL 2
REMARK VINA RESULT:    -3.623      2.519      4.801
REMARK INTER + INTRA:          -5.744
REMARK INTER:                  -5.234
REMARK INTRA:                  -0.510
REMARK UNBOUND:                -0.638
REMARK SMILES CCCCCCCCC(=O)[O-]
REMARK SMILES IDX 6 1 7 2 8 3 9 4 10 5 11 6 5 7 4 8 3 9 2 10 1 11
REMARK H PARENT
REMARK Flexibility Score: inf
ROOT
ATOM      1  C   UNL     1       5.691  10.474   7.457  1.00  0.00     0.000 C 
ENDROOT
BRANCH   1   2
ATOM      2  C   UNL     1       4.945  10.452   8.801  1.00  0.00     0.006 C 
BRANCH   2   3
ATOM      3  C   UNL     1       3.846   9.383   8.847  1.00  0.00     0.053 C 
BRANCH   3   4
ATOM      4  C   UNL     1       4.446   8.025   9.025  1.00  0.00     0.041 C 
ATOM      5  O   UNL     1       5.419   7.860   9.808  1.00  0.00    -0.550 OA
ATOM      6  O   UNL     1       3.900   6.931   8.366  1.00  0.00    -0.550 OA
ENDBRANCH   3   4
ENDBRANCH   2   3
ENDBRANCH   1   2
BRANCH   1   7
ATOM      7  C   UNL     1       4.845  11.080   6.322  1.00  0.00     0.000 C 
BRANCH   7   8
ATOM      8  C   UNL     1       4.013  12.286   6.786  1.00  0.00    -0.000 C 
BRANCH   8   9
ATOM      9  C   UNL     1       4.668  13.628   6.425  1.00  0.00    -0.000 C 
BRANCH   9  10
ATOM     10  C   UNL     1       5.294  14.282   7.662  1.00  0.00    -0.003 C 
ATOM     11  C   UNL     1       6.784  14.540   7.456  1.00  0.00     0.004 C 
ENDBRANCH   9  10
ENDBRANCH   8   9
ENDBRANCH   7   8
ENDBRANCH   1   7
TORSDOF 7
ENDMDL
MODEL 3
REMARK VINA RESULT:    -3.497      2.251      3.459
REMARK INTER + INTRA:          -5.566
REMARK INTER:                  -4.980
REMARK INTRA:                  -0.586
REMARK UNBOUND:                -0.638
REMARK SMILES CCCCCCCCC(=O)[O-]
REMARK SMILES IDX 6 1 7 2 8 3 9 4 10 5 11 6 5 7 4 8 3 9 2 10 1 11
REMARK H PARENT
REMARK Flexibility Score: inf
ROOT
ATOM      1  C   UNL     1       5.150  11.409   6.271  1.00  0.00     0.000 C 
ENDROOT
BRANCH   1   2
ATOM      2  C   UNL     1       4.091  12.420   6.740  1.00  0.00     0.006 C 
BRANCH   2   3
ATOM      3  C   UNL     1       4.529  13.874   6.523  1.00  0.00     0.053 C 
BRANCH   3   4
ATOM      4  C   UNL     1       5.615  14.241   7.485  1.00  0.00     0.041 C 
ATOM      5  O   UNL     1       5.519  13.922   8.700  1.00  0.00    -0.550 OA
ATOM      6  O   UNL     1       6.756  14.889   7.032  1.00  0.00    -0.550 OA
ENDBRANCH   3   4
ENDBRANCH   2   3
ENDBRANCH   1   2
BRANCH   1   7
ATOM      7  C   UNL     1       5.346  10.253   7.268  1.00  0.00     0.000 C 
BRANCH   7   8
ATOM      8  C   UNL     1       6.717  10.296   7.960  1.00  0.00    -0.000 C 
BRANCH   8   9
ATOM      9  C   UNL     1       7.695  11.260   7.271  1.00  0.00    -0.000 C 
BRANCH   9  10
ATOM     10  C   UNL     1       9.000  10.545   6.901  1.00  0.00    -0.003 C 
ATOM     11  C   UNL     1       9.437  10.892   5.481  1.00  0.00     0.004 C 
ENDBRANCH   9  10
ENDBRANCH   8   9
ENDBRANCH   7   8
ENDBRANCH   1   7
TORSDOF 7
ENDMDL
MODEL 4
REMARK VINA RESULT:    -3.492      1.622      3.808
REMARK INTER + INTRA:          -5.559
REMARK INTER:                  -4.687
REMARK INTRA:                  -0.872
REMARK UNBOUND:                -0.638
REMARK SMILES CCCCCCCCC(=O)[O-]
REMARK SMILES IDX 6 1 7 2 8 3 9 4 10 5 11 6 5 7 4 8 3 9 2 10 1 11
REMARK H PARENT
REMARK Flexibility Score: inf
ROOT
ATOM      1  C   UNL     1       4.670  12.458   6.079  1.00  0.00     0.000 C 
ENDROOT
BRANCH   1   2
ATOM      2  C   UNL     1       4.100  11.472   7.112  1.00  0.00     0.006 C 
BRANCH   2   3
ATOM      3  C   UNL     1       4.995  10.242   7.309  1.00  0.00     0.053 C 
BRANCH   3   4
ATOM      4  C   UNL     1       5.404  10.118   8.742  1.00  0.00     0.041 C 
ATOM      5  O   UNL     1       5.039  10.983   9.582  1.00  0.00    -0.550 OA
ATOM      6  O   UNL     1       6.144   9.021   9.162  1.00  0.00    -0.550 OA
ENDBRANCH   3   4
ENDBRANCH   2   3
ENDBRANCH   1   2
BRANCH   1   7
ATOM      7  C   UNL     1       4.570  13.922   6.541  1.00  0.00     0.000 C 
BRANCH   7   8
ATOM      8  C   UNL     1       5.437  14.212   7.776  1.00  0.00    -0.000 C 
BRANCH   8   9
ATOM      9  C   UNL     1       6.940  14.197   7.457  1.00  0.00    -0.000 C 
BRANCH   9  10
ATOM     10  C   UNL     1       7.646  13.060   8.203  1.00  0.00    -0.003 C 
ATOM     11  C   UNL     1       8.271  12.065   7.229  1.00  0.00     0.004 C 
ENDBRANCH   9  10
ENDBRANCH   8   9
ENDBRANCH   7   8
ENDBRANCH   1   7
TORSDOF 7
ENDMDL
MODEL 5
REMARK VINA RESULT:    -3.445      2.399      4.259
REMARK INTER + INTRA:          -5.493
REMARK INTER:                  -4.840
REMARK INTRA:                  -0.653
REMARK UNBOUND:                -0.638
REMARK SMILES CCCCCCCCC(=O)[O-]
REMARK SMILES IDX 6 1 7 2 8 3 9 4 10 5 11 6 5 7 4 8 3 9 2 10 1 11
REMARK H PARENT
REMARK Flexibility Score: inf
ROOT
ATOM      1  C   UNL     1       5.749  10.346   7.337  1.00  0.00     0.000 C 
ENDROOT
BRANCH   1   2
ATOM      2  C   UNL     1       7.229  10.516   7.715  1.00  0.00     0.006 C 
BRANCH   2   3
ATOM      3  C   UNL     1       7.986  11.423   6.736  1.00  0.00     0.053 C 
BRANCH   3   4
ATOM      4  C   UNL     1       9.198  10.724   6.208  1.00  0.00     0.041 C 
ATOM      5  O   UNL     1       9.952  10.085   6.989  1.00  0.00    -0.550 OA
ATOM      6  O   UNL     1       9.469  10.735   4.846  1.00  0.00    -0.550 OA
ENDBRANCH   3   4
ENDBRANCH   2   3
ENDBRANCH   1   2
BRANCH   1   7
ATOM      7  C   UNL     1       4.856  11.450   7.930  1.00  0.00     0.000 C 
BRANCH   7   8
ATOM      8  C   UNL     1       4.012  12.164   6.863  1.00  0.00    -0.000 C 
BRANCH   8   9
ATOM      9  C   UNL     1       4.638  13.489   6.405  1.00  0.00    -0.000 C 
BRANCH   9  10
ATOM     10  C   UNL     1       5.273  14.232   7.586  1.00  0.00    -0.003 C 
ATOM     11  C   UNL     1       6.569  14.922   7.172  1.00  0.00     0.004 C 
ENDBRANCH   9  10
ENDBRANCH   8   9
ENDBRANCH   7   8
ENDBRANCH   1   7
TORSDOF 7
ENDMDL
MODEL 6
REMARK VINA RESULT:    -3.336     11.544     13.833
REMARK INTER + INTRA:          -5.339
REMARK INTER:                  -4.952
REMARK INTRA:                  -0.387
REMARK UNBOUND:                -0.638
REMARK SMILES CCCCCCCCC(=O)[O-]
REMARK SMILES IDX 6 1 7 2 8 3 9 4 10 5 11 6 5 7 4 8 3 9 2 10 1 11
REMARK H PARENT
REMARK Flexibility Score: inf
ROOT
ATOM      1  C   UNL     1       7.549  -0.411   4.850  1.00  0.00     0.000 C 
ENDROOT
BRANCH   1   2
ATOM      2  C   UNL     1       6.833  -1.770   4.804  1.00  0.00     0.006 C 
BRANCH   2   3
ATOM      3  C   UNL     1       6.669  -2.396   6.195  1.00  0.00     0.053 C 
BRANCH   3   4
ATOM      4  C   UNL     1       6.827  -3.882   6.121  1.00  0.00     0.041 C 
ATOM      5  O   UNL     1       7.943  -4.386   5.825  1.00  0.00    -0.550 OA
ATOM      6  O   UNL     1       5.756  -4.712   6.426  1.00  0.00    -0.550 OA
ENDBRANCH   3   4
ENDBRANCH   2   3
ENDBRANCH   1   2
BRANCH   1   7
ATOM      7  C   UNL     1       7.810   0.073   6.287  1.00  0.00     0.000 C 
BRANCH   7   8
ATOM      8  C   UNL     1       8.366   1.504   6.337  1.00  0.00    -0.000 C 
BRANCH   8   9
ATOM      9  C   UNL     1       8.218   2.241   4.998  1.00  0.00    -0.000 C 
BRANCH   9  10
ATOM     10  C   UNL     1       7.467   3.565   5.181  1.00  0.00    -0.003 C 
ATOM     11  C   UNL     1       6.656   3.566   6.473  1.00  0.00     0.004 C 
ENDBRANCH   9  10
ENDBRANCH   8   9
ENDBRANCH   7   8
ENDBRANCH   1   7
TORSDOF 7
ENDMDL
MODEL 7
REMARK VINA RESULT:    -3.328      2.749      4.650
REMARK INTER + INTRA:          -5.328
REMARK INTER:                  -5.088
REMARK INTRA:                  -0.240
REMARK UNBOUND:                -0.638
REMARK SMILES CCCCCCCCC(=O)[O-]
REMARK SMILES IDX 6 1 7 2 8 3 9 4 10 5 11 6 5 7 4 8 3 9 2 10 1 11
REMARK H PARENT
REMARK Flexibility Score: inf
ROOT
ATOM      1  C   UNL     1       4.492   8.814   8.685  1.00  0.00     0.000 C 
ENDROOT
BRANCH   1   2
ATOM      2  C   UNL     1       3.978  10.222   8.340  1.00  0.00     0.006 C 
BRANCH   2   3
ATOM      3  C   UNL     1       5.094  11.152   7.848  1.00  0.00     0.053 C 
BRANCH   3   4
ATOM      4  C   UNL     1       4.609  11.989   6.707  1.00  0.00     0.041 C 
ATOM      5  O   UNL     1       4.229  13.173   6.906  1.00  0.00    -0.550 OA
ATOM      6  O   UNL     1       4.623  11.480   5.415  1.00  0.00    -0.550 OA
ENDBRANCH   3   4
ENDBRANCH   2   3
ENDBRANCH   1   2
BRANCH   1   7
ATOM      7  C   UNL     1       4.024   8.337  10.071  1.00  0.00     0.000 C 
BRANCH   7   8
ATOM      8  C   UNL     1       3.790   6.819  10.124  1.00  0.00    -0.000 C 
BRANCH   8   9
ATOM      9  C   UNL     1       3.726   6.182   8.728  1.00  0.00    -0.000 C 
BRANCH   9  10
ATOM     10  C   UNL     1       2.857   4.920   8.741  1.00  0.00    -0.003 C 
ATOM     11  C   UNL     1       2.842   4.245   7.372  1.00  0.00     0.004 C 
ENDBRANCH   9  10
ENDBRANCH   8   9
ENDBRANCH   7   8
ENDBRANCH   1   7
TORSDOF 7
ENDMDL
MODEL 8
REMARK VINA RESULT:    -3.296     17.074     18.618
REMARK INTER + INTRA:          -5.282
REMARK INTER:                  -5.024
REMARK INTRA:                  -0.258
REMARK UNBOUND:                -0.638
REMARK SMILES CCCCCCCCC(=O)[O-]
REMARK SMILES IDX 6 1 7 2 8 3 9 4 10 5 11 6 5 7 4 8 3 9 2 10 1 11
REMARK H PARENT
REMARK Flexibility Score: inf
ROOT
ATOM      1  C   UNL     1       4.127   3.088  -9.278  1.00  0.00     0.000 C 
ENDROOT
BRANCH   1   2
ATOM      2  C   UNL     1       4.988   2.680  -8.072  1.00  0.00     0.006 C 
BRANCH   2   3
ATOM      3  C   UNL     1       4.917   1.175  -7.780  1.00  0.00     0.053 C 
BRANCH   3   4
ATOM      4  C   UNL     1       4.625   0.938  -6.333  1.00  0.00     0.041 C 
ATOM      5  O   UNL     1       5.334   1.483  -5.445  1.00  0.00    -0.550 OA
ATOM      6  O   UNL     1       3.540   0.155  -5.961  1.00  0.00    -0.550 OA
ENDBRANCH   3   4
ENDBRANCH   2   3
ENDBRANCH   1   2
BRANCH   1   7
ATOM      7  C   UNL     1       3.810   4.594  -9.296  1.00  0.00     0.000 C 
BRANCH   7   8
ATOM      8  C   UNL     1       2.306   4.879  -9.432  1.00  0.00    -0.000 C 
BRANCH   8   9
ATOM      9  C   UNL     1       1.976   6.374  -9.309  1.00  0.00    -0.000 C 
BRANCH   9  10
ATOM     10  C   UNL     1       3.242   7.228  -9.448  1.00  0.00    -0.003 C 
ATOM     11  C   UNL     1       3.347   8.247  -8.317  1.00  0.00     0.004 C 
ENDBRANCH   9  10
ENDBRANCH   8   9
ENDBRANCH   7   8
ENDBRANCH   1   7
TORSDOF 7
ENDMDL
MODEL 9
REMARK VINA RESULT:    -3.288      1.309      2.099
REMARK INTER + INTRA:          -5.271
REMARK INTER:                  -4.899
REMARK INTRA:                  -0.373
REMARK UNBOUND:                -0.638
REMARK SMILES CCCCCCCCC(=O)[O-]
REMARK SMILES IDX 6 1 7 2 8 3 9 4 10 5 11 6 5 7 4 8 3 9 2 10 1 11
REMARK H PARENT
REMARK Flexibility Score: inf
ROOT
ATOM      1  C   UNL     1       4.027  11.515   7.118  1.00  0.00     0.000 C 
ENDROOT
BRANCH   1   2
ATOM      2  C   UNL     1       4.623  12.622   6.233  1.00  0.00     0.006 C 
BRANCH   2   3
ATOM      3  C   UNL     1       4.572  14.002   6.902  1.00  0.00     0.053 C 
BRANCH   3   4
ATOM      4  C   UNL     1       5.810  14.237   7.707  1.00  0.00     0.041 C 
ATOM      5  O   UNL     1       6.784  14.859   7.204  1.00  0.00    -0.550 OA
ATOM      6  O   UNL     1       5.872  13.815   9.028  1.00  0.00    -0.550 OA
ENDBRANCH   3   4
ENDBRANCH   2   3
ENDBRANCH   1   2
BRANCH   1   7
ATOM      7  C   UNL     1       4.887  10.239   7.128  1.00  0.00     0.000 C 
BRANCH   7   8
ATOM      8  C   UNL     1       5.819  10.166   8.348  1.00  0.00    -0.000 C 
BRANCH   8   9
ATOM      9  C   UNL     1       5.395   9.082   9.350  1.00  0.00    -0.000 C 
BRANCH   9  10
ATOM     10  C   UNL     1       4.079   8.424   8.920  1.00  0.00    -0.003 C 
ATOM     11  C   UNL     1       4.159   6.904   9.031  1.00  0.00     0.004 C 
ENDBRANCH   9  10
ENDBRANCH   8   9
ENDBRANCH   7   8
ENDBRANCH   1   7
TORSDOF 7
ENDMDL
