MODEL 1
REMARK VINA RESULT:    -2.251      0.000      0.000
REMARK INTER + INTRA:          -0.153
REMARK INTER:                  -3.173
REMARK INTRA:                   3.019
REMARK UNBOUND:                 3.019
REMARK SMILES CC1=CCC(=C(C)C)C(=O)CC(C)=CCC1
REMARK SMILES IDX 12 1 14 2 13 3 15 4 16 5 2 6 1 7 3 8 11 10 9 11 10 12 5 13
REMARK SMILES IDX 6 14 7 15 8 16 4 17
REMARK H PARENT
REMARK Flexibility Score: 60.00
ROOT
ATOM      1  C   UNL     1     -29.340  -9.625  25.468  1.00  0.00    -0.070 C 
ATOM      2  C   UNL     1     -28.045  -9.555  25.858  1.00  0.00    -0.027 C 
ATOM      3  C   UNL     1     -30.116  -8.332  25.398  1.00  0.00     0.039 C 
ENDROOT
BRANCH   2   4
ATOM      4  C   UNL     1     -27.120 -10.723  26.097  1.00  0.00     0.032 C 
BRANCH   4   5
ATOM      5  C   UNL     1     -26.978 -11.631  24.861  1.00  0.00     0.034 C 
BRANCH   5   6
ATOM      6  C   UNL     1     -26.705 -13.073  25.239  1.00  0.00    -0.077 C 
ATOM      7  C   UNL     1     -25.286 -13.471  25.560  1.00  0.00     0.039 C 
ATOM      8  C   UNL     1     -27.665 -14.021  25.329  1.00  0.00    -0.023 CG0
ATOM      9  G   UNL     1     -29.139 -13.809  25.082  1.00  0.00     0.000 G0
ENDBRANCH   5   6
ENDBRANCH   4   5
ENDBRANCH   2   4
BRANCH   1  10
ATOM     10  C   UNL     1     -30.062 -10.928  25.164  1.00  0.00     0.111 C 
BRANCH  10  11
ATOM     11  C   UNL     1     -29.541 -11.570  23.902  1.00  0.00     0.163 C 
ATOM     12  O   UNL     1     -29.226 -10.818  22.940  1.00  0.00    -0.294 OA
BRANCH  11  13
ATOM     13  C   UNL     1     -29.342 -13.048  23.790  1.00  0.00    -0.002 C 
ATOM     14  C   UNL     1     -29.410 -13.694  22.586  1.00  0.00    -0.069 C 
ATOM     15  C   UNL     1     -29.764 -12.958  21.312  1.00  0.00     0.039 C 
ATOM     16  C   UNL     1     -29.171 -15.183  22.475  1.00  0.00     0.039 C 
BRANCH  13  17
ATOM     17  C   UNL     1     -29.134 -13.817  25.082  1.00  0.00     0.066 CG0
ATOM     18  G   UNL     1     -27.657 -14.010  25.330  1.00  0.00     0.000 G0
ENDBRANCH  13  17
ENDBRANCH  11  13
ENDBRANCH  10  11
ENDBRANCH   1  10
TORSDOF 0
ENDMDL
MODEL 2
REMARK VINA RESULT:    -1.450      1.860      3.685
REMARK INTER + INTRA:           0.976
REMARK INTER:                  -1.041
REMARK INTRA:                   2.017
REMARK UNBOUND:                 3.019
REMARK SMILES CC1=CCC(=C(C)C)C(=O)CC(C)=CCC1
REMARK SMILES IDX 12 1 14 2 13 3 15 4 16 5 2 6 1 7 3 8 11 10 9 11 10 12 5 13
REMARK SMILES IDX 6 14 7 15 8 16 4 17
REMARK H PARENT
REMARK Flexibility Score: 60.00
ROOT
ATOM      1  C   UNL     1     -29.348 -11.989  21.783  1.00  0.00    -0.070 C 
ATOM      2  C   UNL     1     -28.092 -11.498  21.655  1.00  0.00    -0.027 C 
ATOM      3  C   UNL     1     -30.026 -12.500  20.536  1.00  0.00     0.039 C 
ENDROOT
BRANCH   2   4
ATOM      4  C   UNL     1     -27.273 -10.844  22.740  1.00  0.00     0.032 C 
BRANCH   4   5
ATOM      5  C   UNL     1     -28.123  -9.967  23.679  1.00  0.00     0.034 C 
BRANCH   5   6
ATOM      6  C   UNL     1     -27.503  -9.834  25.056  1.00  0.00    -0.077 C 
ATOM      7  C   UNL     1     -26.484  -8.745  25.279  1.00  0.00     0.039 C 
ATOM      8  C   UNL     1     -27.829 -10.621  26.106  1.00  0.00    -0.023 CG0
ATOM      9  G   UNL     1     -28.847 -11.737  26.089  1.00  0.00     0.000 G0
ENDBRANCH   5   6
ENDBRANCH   4   5
ENDBRANCH   2   4
BRANCH   1  10
ATOM     10  C   UNL     1     -30.125 -11.991  23.090  1.00  0.00     0.111 C 
BRANCH  10  11
ATOM     11  C   UNL     1     -29.617 -13.052  24.036  1.00  0.00     0.163 C 
ATOM     12  O   UNL     1     -30.091 -14.215  23.933  1.00  0.00    -0.294 OA
BRANCH  11  13
ATOM     13  C   UNL     1     -28.543 -12.769  25.039  1.00  0.00    -0.002 C 
ATOM     14  C   UNL     1     -27.356 -13.448  25.032  1.00  0.00    -0.069 C 
ATOM     15  C   UNL     1     -27.092 -14.574  24.056  1.00  0.00     0.039 C 
ATOM     16  C   UNL     1     -26.261 -13.131  26.026  1.00  0.00     0.039 C 
BRANCH  13  17
ATOM     17  C   UNL     1     -28.856 -11.746  26.115  1.00  0.00     0.066 CG0
ATOM     18  G   UNL     1     -27.835 -10.634  26.076  1.00  0.00     0.000 G0
ENDBRANCH  13  17
ENDBRANCH  11  13
ENDBRANCH  10  11
ENDBRANCH   1  10
TORSDOF 0
ENDMDL
MODEL 3
REMARK VINA RESULT:    -0.887      1.615      3.971
REMARK INTER + INTRA:           1.770
REMARK INTER:                  -0.145
REMARK INTRA:                   1.914
REMARK UNBOUND:                 3.019
REMARK SMILES CC1=CCC(=C(C)C)C(=O)CC(C)=CCC1
REMARK SMILES IDX 12 1 14 2 13 3 15 4 16 5 2 6 1 7 3 8 11 10 9 11 10 12 5 13
REMARK SMILES IDX 6 14 7 15 8 16 4 17
REMARK H PARENT
REMARK Flexibility Score: 60.00
ROOT
ATOM      1  C   UNL     1     -28.292 -13.204  21.547  1.00  0.00    -0.070 C 
ATOM      2  C   UNL     1     -28.106 -14.362  22.224  1.00  0.00    -0.027 C 
ATOM      3  C   UNL     1     -28.870 -13.297  20.156  1.00  0.00     0.039 C 
ENDROOT
BRANCH   2   4
ATOM      4  C   UNL     1     -27.450 -14.513  23.575  1.00  0.00     0.032 C 
BRANCH   4   5
ATOM      5  C   UNL     1     -26.359 -13.454  23.826  1.00  0.00     0.034 C 
BRANCH   5   6
ATOM      6  C   UNL     1     -26.159 -13.177  25.303  1.00  0.00    -0.077 C 
ATOM      7  C   UNL     1     -24.849 -13.576  25.934  1.00  0.00     0.039 C 
ATOM      8  C   UNL     1     -27.080 -12.570  26.085  1.00  0.00    -0.023 CG0
ATOM      9  G   UNL     1     -28.430 -12.068  25.630  1.00  0.00     0.000 G0
ENDBRANCH   5   6
ENDBRANCH   4   5
ENDBRANCH   2   4
BRANCH   1  10
ATOM     10  C   UNL     1     -27.891 -11.839  22.082  1.00  0.00     0.111 C 
BRANCH  10  11
ATOM     11  C   UNL     1     -28.805 -11.390  23.196  1.00  0.00     0.163 C 
ATOM     12  O   UNL     1     -30.047 -11.387  22.979  1.00  0.00    -0.294 OA
BRANCH  11  13
ATOM     13  C   UNL     1     -28.282 -11.005  24.543  1.00  0.00    -0.002 C 
ATOM     14  C   UNL     1     -27.638  -9.816  24.752  1.00  0.00    -0.069 C 
ATOM     15  C   UNL     1     -27.354  -8.859  23.615  1.00  0.00     0.039 C 
ATOM     16  C   UNL     1     -27.144  -9.417  26.125  1.00  0.00     0.039 C 
BRANCH  13  17
ATOM     17  C   UNL     1     -28.430 -12.024  25.658  1.00  0.00     0.066 CG0
ATOM     18  G   UNL     1     -27.071 -12.551  26.053  1.00  0.00     0.000 G0
ENDBRANCH  13  17
ENDBRANCH  11  13
ENDBRANCH  10  11
ENDBRANCH   1  10
TORSDOF 0
ENDMDL
