MODEL 1
REMARK VINA RESULT:    -7.221      0.000      0.000
REMARK INTER + INTRA:          -9.286
REMARK INTER:                  -8.910
REMARK INTRA:                  -0.376
REMARK UNBOUND:                -0.376
REMARK SMILES Oc1cc(O)c2cc(O)c(-c3cc(O)c(O)c(O)c3)[o+]c2c1
REMARK SMILES IDX 10 1 20 2 21 3 22 4 2 5 3 6 4 7 6 8 7 9 8 10 11 11 12 12
REMARK SMILES IDX 13 13 19 14 15 15 17 16 14 17 16 19 18 21 9 23 1 25 5 27
REMARK H PARENT 14 18 16 20 18 22 9 24 1 26 5 28
REMARK Flexibility Score: inf
ROOT
ATOM      1  C   UNL     1     -41.907  10.801   8.801  1.00  0.00     0.402 A 
ATOM      2  O   UNL     1     -42.728  10.987   7.771  1.00  0.00    -0.202 OA
ATOM      3  C   UNL     1     -42.503  10.489   6.560  1.00  0.00     0.368 A 
ATOM      4  C   UNL     1     -43.424  10.741   5.539  1.00  0.00     0.162 A 
ATOM      5  C   UNL     1     -43.211  10.233   4.255  1.00  0.00     0.128 A 
ATOM      6  C   UNL     1     -42.071   9.470   3.989  1.00  0.00     0.093 A 
ATOM      7  C   UNL     1     -41.133   9.203   4.995  1.00  0.00     0.136 A 
ATOM      8  C   UNL     1     -41.346   9.715   6.300  1.00  0.00     0.125 A 
ATOM      9  C   UNL     1     -40.468   9.488   7.372  1.00  0.00     0.078 A 
ATOM     10  C   UNL     1     -40.747  10.021   8.634  1.00  0.00     0.223 A 
ENDROOT
BRANCH   1  11
ATOM     11  C   UNL     1     -42.262  11.416  10.100  1.00  0.00     0.091 A 
ATOM     12  C   UNL     1     -43.014  10.680  11.029  1.00  0.00     0.068 A 
ATOM     13  C   UNL     1     -43.380  11.245  12.258  1.00  0.00     0.162 A 
ATOM     14  C   UNL     1     -41.911  12.743  10.402  1.00  0.00     0.068 A 
ATOM     15  C   UNL     1     -43.009  12.560  12.562  1.00  0.00     0.200 A 
ATOM     16  C   UNL     1     -42.276  13.314  11.630  1.00  0.00     0.162 A 
BRANCH  13  17
ATOM     17  O   UNL     1     -44.114  10.505  13.182  1.00  0.00    -0.504 OA
ATOM     18  H   UNL     1     -43.691   9.755  13.718  1.00  0.00     0.293 HD
ENDBRANCH  13  17
BRANCH  15  19
ATOM     19  O   UNL     1     -43.380  13.106  13.791  1.00  0.00    -0.502 OA
ATOM     20  H   UNL     1     -42.751  13.125  14.586  1.00  0.00     0.293 HD
ENDBRANCH  15  19
BRANCH  16  21
ATOM     21  O   UNL     1     -41.917  14.629  11.923  1.00  0.00    -0.504 OA
ATOM     22  H   UNL     1     -41.348  15.178  11.290  1.00  0.00     0.293 HD
ENDBRANCH  16  21
ENDBRANCH   1  11
BRANCH  10  23
ATOM     23  O   UNL     1     -39.901   9.754   9.710  1.00  0.00    -0.500 OA
ATOM     24  H   UNL     1     -39.546  10.493  10.304  1.00  0.00     0.294 HD
ENDBRANCH  10  23
BRANCH   5  25
ATOM     25  O   UNL     1     -44.125  10.480   3.232  1.00  0.00    -0.507 OA
ATOM     26  H   UNL     1     -44.121   9.939   2.376  1.00  0.00     0.293 HD
ENDBRANCH   5  25
BRANCH   7  27
ATOM     27  O   UNL     1     -40.019   8.434   4.646  1.00  0.00    -0.507 OA
ATOM     28  H   UNL     1     -39.641   8.370   3.712  1.00  0.00     0.293 HD
ENDBRANCH   7  27
TORSDOF 7
ENDMDL
MODEL 2
REMARK VINA RESULT:    -7.003     11.302     14.230
REMARK INTER + INTRA:          -9.016
REMARK INTER:                  -8.957
REMARK INTRA:                  -0.059
REMARK UNBOUND:                -0.376
REMARK SMILES Oc1cc(O)c2cc(O)c(-c3cc(O)c(O)c(O)c3)[o+]c2c1
REMARK SMILES IDX 10 1 20 2 21 3 22 4 2 5 3 6 4 7 6 8 7 9 8 10 11 11 12 12
REMARK SMILES IDX 13 13 19 14 15 15 17 16 14 17 16 19 18 21 9 23 1 25 5 27
REMARK H PARENT 14 18 16 20 18 22 9 24 1 26 5 28
REMARK Flexibility Score: inf
ROOT
ATOM      1  C   UNL     1     -32.298  13.086   0.253  1.00  0.00     0.402 A 
ATOM      2  O   UNL     1     -31.165  12.422   0.041  1.00  0.00    -0.202 OA
ATOM      3  C   UNL     1     -30.032  13.012  -0.326  1.00  0.00     0.368 A 
ATOM      4  C   UNL     1     -28.892  12.228  -0.527  1.00  0.00     0.162 A 
ATOM      5  C   UNL     1     -27.688  12.822  -0.917  1.00  0.00     0.128 A 
ATOM      6  C   UNL     1     -27.624  14.204  -1.107  1.00  0.00     0.093 A 
ATOM      7  C   UNL     1     -28.752  15.011  -0.911  1.00  0.00     0.136 A 
ATOM      8  C   UNL     1     -29.975  14.414  -0.514  1.00  0.00     0.125 A 
ATOM      9  C   UNL     1     -31.152  15.144  -0.282  1.00  0.00     0.078 A 
ATOM     10  C   UNL     1     -32.321  14.486   0.114  1.00  0.00     0.223 A 
ENDROOT
BRANCH   1  11
ATOM     11  C   UNL     1     -33.499  12.314   0.650  1.00  0.00     0.091 A 
ATOM     12  C   UNL     1     -34.196  12.673   1.814  1.00  0.00     0.068 A 
ATOM     13  C   UNL     1     -35.323  11.948   2.222  1.00  0.00     0.162 A 
ATOM     14  C   UNL     1     -33.924  11.194  -0.084  1.00  0.00     0.068 A 
ATOM     15  C   UNL     1     -35.755  10.845   1.475  1.00  0.00     0.200 A 
ATOM     16  C   UNL     1     -35.051  10.463   0.320  1.00  0.00     0.162 A 
BRANCH  13  17
ATOM     17  O   UNL     1     -36.020  12.317   3.371  1.00  0.00    -0.504 OA
ATOM     18  H   UNL     1     -35.589  12.884   4.094  1.00  0.00     0.293 HD
ENDBRANCH  13  17
BRANCH  15  19
ATOM     19  O   UNL     1     -36.881  10.136   1.895  1.00  0.00    -0.502 OA
ATOM     20  H   UNL     1     -37.823  10.440   1.676  1.00  0.00     0.293 HD
ENDBRANCH  15  19
BRANCH  16  21
ATOM     21  O   UNL     1     -35.468   9.357  -0.418  1.00  0.00    -0.504 OA
ATOM     22  H   UNL     1     -36.450   9.139  -0.538  1.00  0.00     0.293 HD
ENDBRANCH  16  21
ENDBRANCH   1  11
BRANCH  10  23
ATOM     23  O   UNL     1     -33.476  15.216   0.392  1.00  0.00    -0.500 OA
ATOM     24  H   UNL     1     -33.886  15.231   1.319  1.00  0.00     0.294 HD
ENDBRANCH  10  23
BRANCH   5  25
ATOM     25  O   UNL     1     -26.548  12.047  -1.120  1.00  0.00    -0.507 OA
ATOM     26  H   UNL     1     -26.557  11.244  -1.737  1.00  0.00     0.293 HD
ENDBRANCH   5  25
BRANCH   7  27
ATOM     27  O   UNL     1     -28.604  16.384  -1.125  1.00  0.00    -0.507 OA
ATOM     28  H   UNL     1     -27.871  16.799  -1.681  1.00  0.00     0.293 HD
ENDBRANCH   7  27
TORSDOF 7
ENDMDL
MODEL 3
REMARK VINA RESULT:    -7.000     11.263     14.210
REMARK INTER + INTRA:          -9.013
REMARK INTER:                  -8.916
REMARK INTRA:                  -0.097
REMARK UNBOUND:                -0.376
REMARK SMILES Oc1cc(O)c2cc(O)c(-c3cc(O)c(O)c(O)c3)[o+]c2c1
REMARK SMILES IDX 10 1 20 2 21 3 22 4 2 5 3 6 4 7 6 8 7 9 8 10 11 11 12 12
REMARK SMILES IDX 13 13 19 14 15 15 17 16 14 17 16 19 18 21 9 23 1 25 5 27
REMARK H PARENT 14 18 16 20 18 22 9 24 1 26 5 28
REMARK Flexibility Score: inf
ROOT
ATOM      1  C   UNL     1     -32.294  12.950   0.276  1.00  0.00     0.402 A 
ATOM      2  O   UNL     1     -31.148  12.311   0.060  1.00  0.00    -0.202 OA
ATOM      3  C   UNL     1     -30.030  12.925  -0.313  1.00  0.00     0.368 A 
ATOM      4  C   UNL     1     -28.874  12.166  -0.518  1.00  0.00     0.162 A 
ATOM      5  C   UNL     1     -27.685  12.784  -0.914  1.00  0.00     0.128 A 
ATOM      6  C   UNL     1     -27.652  14.168  -1.106  1.00  0.00     0.093 A 
ATOM      7  C   UNL     1     -28.796  14.950  -0.907  1.00  0.00     0.136 A 
ATOM      8  C   UNL     1     -30.004  14.327  -0.504  1.00  0.00     0.125 A 
ATOM      9  C   UNL     1     -31.196  15.032  -0.268  1.00  0.00     0.078 A 
ATOM     10  C   UNL     1     -32.348  14.349   0.133  1.00  0.00     0.223 A 
ENDROOT
BRANCH   1  11
ATOM     11  C   UNL     1     -33.476  12.153   0.678  1.00  0.00     0.091 A 
ATOM     12  C   UNL     1     -33.915  11.106  -0.146  1.00  0.00     0.068 A 
ATOM     13  C   UNL     1     -35.042  10.350   0.201  1.00  0.00     0.162 A 
ATOM     14  C   UNL     1     -34.203  12.459   1.841  1.00  0.00     0.068 A 
ATOM     15  C   UNL     1     -35.750  10.645   1.372  1.00  0.00     0.200 A 
ATOM     16  C   UNL     1     -35.333  11.706   2.194  1.00  0.00     0.162 A 
BRANCH  13  17
ATOM     17  O   UNL     1     -35.465   9.302  -0.614  1.00  0.00    -0.504 OA
ATOM     18  H   UNL     1     -35.617   8.370  -0.244  1.00  0.00     0.293 HD
ENDBRANCH  13  17
BRANCH  15  19
ATOM     19  O   UNL     1     -36.869   9.880   1.704  1.00  0.00    -0.502 OA
ATOM     20  H   UNL     1     -37.508   9.526   1.003  1.00  0.00     0.293 HD
ENDBRANCH  15  19
BRANCH  16  21
ATOM     21  O   UNL     1     -36.044  12.013   3.353  1.00  0.00    -0.504 OA
ATOM     22  H   UNL     1     -37.047  11.883   3.411  1.00  0.00     0.293 HD
ENDBRANCH  16  21
ENDBRANCH   1  11
BRANCH  10  23
ATOM     23  O   UNL     1     -33.517  15.055   0.415  1.00  0.00    -0.500 OA
ATOM     24  H   UNL     1     -34.178  14.733   1.113  1.00  0.00     0.294 HD
ENDBRANCH  10  23
BRANCH   5  25
ATOM     25  O   UNL     1     -26.529  12.034  -1.120  1.00  0.00    -0.507 OA
ATOM     26  H   UNL     1     -26.550  11.157  -1.625  1.00  0.00     0.293 HD
ENDBRANCH   5  25
BRANCH   7  27
ATOM     27  O   UNL     1     -28.679  16.326  -1.124  1.00  0.00    -0.507 OA
ATOM     28  H   UNL     1     -28.561  16.752  -2.032  1.00  0.00     0.293 HD
ENDBRANCH   7  27
TORSDOF 7
ENDMDL
MODEL 4
REMARK VINA RESULT:    -6.937      1.735      2.563
REMARK INTER + INTRA:          -8.935
REMARK INTER:                  -8.863
REMARK INTRA:                  -0.072
REMARK UNBOUND:                -0.376
REMARK SMILES Oc1cc(O)c2cc(O)c(-c3cc(O)c(O)c(O)c3)[o+]c2c1
REMARK SMILES IDX 10 1 20 2 21 3 22 4 2 5 3 6 4 7 6 8 7 9 8 10 11 11 12 12
REMARK SMILES IDX 13 13 19 14 15 15 17 16 14 17 16 19 18 21 9 23 1 25 5 27
REMARK H PARENT 14 18 16 20 18 22 9 24 1 26 5 28
REMARK Flexibility Score: inf
ROOT
ATOM      1  C   UNL     1     -41.666  10.576   6.877  1.00  0.00     0.402 A 
ATOM      2  O   UNL     1     -42.573  10.326   5.936  1.00  0.00    -0.202 OA
ATOM      3  C   UNL     1     -42.265   9.828   4.743  1.00  0.00     0.368 A 
ATOM      4  C   UNL     1     -43.288   9.600   3.818  1.00  0.00     0.162 A 
ATOM      5  C   UNL     1     -42.993   9.081   2.554  1.00  0.00     0.128 A 
ATOM      6  C   UNL     1     -41.670   8.789   2.214  1.00  0.00     0.093 A 
ATOM      7  C   UNL     1     -40.628   9.007   3.123  1.00  0.00     0.136 A 
ATOM      8  C   UNL     1     -40.922   9.532   4.407  1.00  0.00     0.125 A 
ATOM      9  C   UNL     1     -39.944   9.772   5.386  1.00  0.00     0.078 A 
ATOM     10  C   UNL     1     -40.311  10.286   6.633  1.00  0.00     0.223 A 
ENDROOT
BRANCH   1  11
ATOM     11  C   UNL     1     -42.132  11.141   8.165  1.00  0.00     0.091 A 
ATOM     12  C   UNL     1     -42.885  12.325   8.166  1.00  0.00     0.068 A 
ATOM     13  C   UNL     1     -43.321  12.892   9.372  1.00  0.00     0.162 A 
ATOM     14  C   UNL     1     -41.787  10.548   9.391  1.00  0.00     0.068 A 
ATOM     15  C   UNL     1     -42.993  12.285  10.590  1.00  0.00     0.200 A 
ATOM     16  C   UNL     1     -42.219  11.111  10.601  1.00  0.00     0.162 A 
BRANCH  13  17
ATOM     17  O   UNL     1     -44.081  14.060   9.367  1.00  0.00    -0.504 OA
ATOM     18  H   UNL     1     -43.648  14.975   9.431  1.00  0.00     0.293 HD
ENDBRANCH  13  17
BRANCH  15  19
ATOM     19  O   UNL     1     -43.437  12.861  11.780  1.00  0.00    -0.502 OA
ATOM     20  H   UNL     1     -43.679  12.304  12.592  1.00  0.00     0.293 HD
ENDBRANCH  15  19
BRANCH  16  21
ATOM     21  O   UNL     1     -41.878  10.512  11.813  1.00  0.00    -0.504 OA
ATOM     22  H   UNL     1     -41.464  11.042  12.570  1.00  0.00     0.293 HD
ENDBRANCH  16  21
ENDBRANCH   1  11
BRANCH  10  23
ATOM     23  O   UNL     1     -39.347  10.477   7.623  1.00  0.00    -0.500 OA
ATOM     24  H   UNL     1     -38.574  11.120   7.497  1.00  0.00     0.294 HD
ENDBRANCH  10  23
BRANCH   5  25
ATOM     25  O   UNL     1     -44.008   8.852   1.626  1.00  0.00    -0.507 OA
ATOM     26  H   UNL     1     -44.283   9.560   0.957  1.00  0.00     0.293 HD
ENDBRANCH   5  25
BRANCH   7  27
ATOM     27  O   UNL     1     -39.332   8.691   2.703  1.00  0.00    -0.507 OA
ATOM     28  H   UNL     1     -39.112   8.234   1.830  1.00  0.00     0.293 HD
ENDBRANCH   7  27
TORSDOF 7
ENDMDL
MODEL 5
REMARK VINA RESULT:    -6.916      1.796      7.196
REMARK INTER + INTRA:          -8.910
REMARK INTER:                  -8.528
REMARK INTRA:                  -0.381
REMARK UNBOUND:                -0.376
REMARK SMILES Oc1cc(O)c2cc(O)c(-c3cc(O)c(O)c(O)c3)[o+]c2c1
REMARK SMILES IDX 10 1 20 2 21 3 22 4 2 5 3 6 4 7 6 8 7 9 8 10 11 11 12 12
REMARK SMILES IDX 13 13 19 14 15 15 17 16 14 17 16 19 18 21 9 23 1 25 5 27
REMARK H PARENT 14 18 16 20 18 22 9 24 1 26 5 28
REMARK Flexibility Score: inf
ROOT
ATOM      1  C   UNL     1     -41.139  10.434   7.368  1.00  0.00     0.402 A 
ATOM      2  O   UNL     1     -41.847  11.545   7.555  1.00  0.00    -0.202 OA
ATOM      3  C   UNL     1     -42.223  11.977   8.754  1.00  0.00     0.368 A 
ATOM      4  C   UNL     1     -42.968  13.156   8.848  1.00  0.00     0.162 A 
ATOM      5  C   UNL     1     -43.380  13.632  10.096  1.00  0.00     0.128 A 
ATOM      6  C   UNL     1     -43.046  12.926  11.254  1.00  0.00     0.093 A 
ATOM      7  C   UNL     1     -42.300  11.742  11.187  1.00  0.00     0.136 A 
ATOM      8  C   UNL     1     -41.878  11.257   9.922  1.00  0.00     0.125 A 
ATOM      9  C   UNL     1     -41.117  10.088   9.759  1.00  0.00     0.078 A 
ATOM     10  C   UNL     1     -40.733   9.674   8.480  1.00  0.00     0.223 A 
ENDROOT
BRANCH   1  11
ATOM     11  C   UNL     1     -40.789  10.051   5.981  1.00  0.00     0.091 A 
ATOM     12  C   UNL     1     -39.600  10.532   5.412  1.00  0.00     0.068 A 
ATOM     13  C   UNL     1     -39.255  10.201   4.095  1.00  0.00     0.162 A 
ATOM     14  C   UNL     1     -41.651   9.261   5.201  1.00  0.00     0.068 A 
ATOM     15  C   UNL     1     -40.107   9.395   3.329  1.00  0.00     0.200 A 
ATOM     16  C   UNL     1     -41.311   8.927   3.882  1.00  0.00     0.162 A 
BRANCH  13  17
ATOM     17  O   UNL     1     -38.066  10.669   3.539  1.00  0.00    -0.504 OA
ATOM     18  H   UNL     1     -37.488  10.081   2.949  1.00  0.00     0.293 HD
ENDBRANCH  13  17
BRANCH  15  19
ATOM     19  O   UNL     1     -39.746   9.073   2.020  1.00  0.00    -0.502 OA
ATOM     20  H   UNL     1     -39.115   8.310   1.807  1.00  0.00     0.293 HD
ENDBRANCH  15  19
BRANCH  16  21
ATOM     21  O   UNL     1     -42.169   8.137   3.118  1.00  0.00    -0.504 OA
ATOM     22  H   UNL     1     -43.096   7.891   3.444  1.00  0.00     0.293 HD
ENDBRANCH  16  21
ENDBRANCH   1  11
BRANCH  10  23
ATOM     23  O   UNL     1     -39.935   8.541   8.322  1.00  0.00    -0.500 OA
ATOM     24  H   UNL     1     -40.336   7.613   8.246  1.00  0.00     0.294 HD
ENDBRANCH  10  23
BRANCH   5  25
ATOM     25  O   UNL     1     -44.124  14.806  10.198  1.00  0.00    -0.507 OA
ATOM     26  H   UNL     1     -43.691  15.717  10.103  1.00  0.00     0.293 HD
ENDBRANCH   5  25
BRANCH   7  27
ATOM     27  O   UNL     1     -42.010  11.095  12.391  1.00  0.00    -0.507 OA
ATOM     28  H   UNL     1     -42.707  10.717  13.017  1.00  0.00     0.293 HD
ENDBRANCH   7  27
TORSDOF 7
ENDMDL
MODEL 6
REMARK VINA RESULT:    -6.636     11.350     14.049
REMARK INTER + INTRA:          -8.564
REMARK INTER:                  -8.339
REMARK INTRA:                  -0.225
REMARK UNBOUND:                -0.376
REMARK SMILES Oc1cc(O)c2cc(O)c(-c3cc(O)c(O)c(O)c3)[o+]c2c1
REMARK SMILES IDX 10 1 20 2 21 3 22 4 2 5 3 6 4 7 6 8 7 9 8 10 11 11 12 12
REMARK SMILES IDX 13 13 19 14 15 15 17 16 14 17 16 19 18 21 9 23 1 25 5 27
REMARK H PARENT 14 18 16 20 18 22 9 24 1 26 5 28
REMARK Flexibility Score: inf
ROOT
ATOM      1  C   UNL     1     -31.511  12.998   0.618  1.00  0.00     0.402 A 
ATOM      2  O   UNL     1     -32.570  13.161   1.407  1.00  0.00    -0.202 OA
ATOM      3  C   UNL     1     -33.654  12.395   1.339  1.00  0.00     0.368 A 
ATOM      4  C   UNL     1     -34.718  12.645   2.211  1.00  0.00     0.162 A 
ATOM      5  C   UNL     1     -35.872  11.859   2.159  1.00  0.00     0.128 A 
ATOM      6  C   UNL     1     -35.963  10.818   1.231  1.00  0.00     0.093 A 
ATOM      7  C   UNL     1     -34.911  10.547   0.347  1.00  0.00     0.136 A 
ATOM      8  C   UNL     1     -33.737  11.342   0.398  1.00  0.00     0.125 A 
ATOM      9  C   UNL     1     -32.628  11.135  -0.439  1.00  0.00     0.078 A 
ATOM     10  C   UNL     1     -31.502  11.957  -0.328  1.00  0.00     0.223 A 
ENDROOT
BRANCH   1  11
ATOM     11  C   UNL     1     -30.365  13.922   0.783  1.00  0.00     0.091 A 
ATOM     12  C   UNL     1     -29.719  14.004   2.026  1.00  0.00     0.068 A 
ATOM     13  C   UNL     1     -28.645  14.884   2.215  1.00  0.00     0.162 A 
ATOM     14  C   UNL     1     -29.946  14.762  -0.263  1.00  0.00     0.068 A 
ATOM     15  C   UNL     1     -28.218  15.703   1.163  1.00  0.00     0.200 A 
ATOM     16  C   UNL     1     -28.873  15.646  -0.080  1.00  0.00     0.162 A 
BRANCH  13  17
ATOM     17  O   UNL     1     -27.998  14.951   3.447  1.00  0.00    -0.504 OA
ATOM     18  H   UNL     1     -27.579  15.812   3.780  1.00  0.00     0.293 HD
ENDBRANCH  13  17
BRANCH  15  19
ATOM     19  O   UNL     1     -27.146  16.572   1.368  1.00  0.00    -0.502 OA
ATOM     20  H   UNL     1     -27.258  17.471   1.822  1.00  0.00     0.293 HD
ENDBRANCH  15  19
BRANCH  16  21
ATOM     21  O   UNL     1     -28.460  16.471  -1.125  1.00  0.00    -0.504 OA
ATOM     22  H   UNL     1     -28.581  16.201  -2.094  1.00  0.00     0.293 HD
ENDBRANCH  16  21
ENDBRANCH   1  11
BRANCH  10  23
ATOM     23  O   UNL     1     -30.382  11.720  -1.125  1.00  0.00    -0.500 OA
ATOM     24  H   UNL     1     -30.425  11.779  -2.135  1.00  0.00     0.294 HD
ENDBRANCH  10  23
BRANCH   5  25
ATOM     25  O   UNL     1     -36.936  12.102   3.025  1.00  0.00    -0.507 OA
ATOM     26  H   UNL     1     -37.006  11.637   3.922  1.00  0.00     0.293 HD
ENDBRANCH   5  25
BRANCH   7  27
ATOM     27  O   UNL     1     -35.082   9.491  -0.551  1.00  0.00    -0.507 OA
ATOM     28  H   UNL     1     -35.975   9.079  -0.782  1.00  0.00     0.293 HD
ENDBRANCH   7  27
TORSDOF 7
ENDMDL
MODEL 7
REMARK VINA RESULT:    -6.594     10.947     13.348
REMARK INTER + INTRA:          -8.512
REMARK INTER:                  -8.142
REMARK INTRA:                  -0.370
REMARK UNBOUND:                -0.376
REMARK SMILES Oc1cc(O)c2cc(O)c(-c3cc(O)c(O)c(O)c3)[o+]c2c1
REMARK SMILES IDX 10 1 20 2 21 3 22 4 2 5 3 6 4 7 6 8 7 9 8 10 11 11 12 12
REMARK SMILES IDX 13 13 19 14 15 15 17 16 14 17 16 19 18 21 9 23 1 25 5 27
REMARK H PARENT 14 18 16 20 18 22 9 24 1 26 5 28
REMARK Flexibility Score: inf
ROOT
ATOM      1  C   UNL     1     -32.269  13.643   1.704  1.00  0.00     0.402 A 
ATOM      2  O   UNL     1     -31.626  12.797   0.904  1.00  0.00    -0.202 OA
ATOM      3  C   UNL     1     -30.303  12.781   0.772  1.00  0.00     0.368 A 
ATOM      4  C   UNL     1     -29.719  11.855  -0.097  1.00  0.00     0.162 A 
ATOM      5  C   UNL     1     -28.331  11.817  -0.257  1.00  0.00     0.128 A 
ATOM      6  C   UNL     1     -27.524  12.710   0.453  1.00  0.00     0.093 A 
ATOM      7  C   UNL     1     -28.086  13.647   1.330  1.00  0.00     0.136 A 
ATOM      8  C   UNL     1     -29.493  13.687   1.498  1.00  0.00     0.125 A 
ATOM      9  C   UNL     1     -30.143  14.582   2.364  1.00  0.00     0.078 A 
ATOM     10  C   UNL     1     -31.536  14.559   2.481  1.00  0.00     0.223 A 
ENDROOT
BRANCH   1  11
ATOM     11  C   UNL     1     -33.747  13.571   1.758  1.00  0.00     0.091 A 
ATOM     12  C   UNL     1     -34.361  12.545   2.493  1.00  0.00     0.068 A 
ATOM     13  C   UNL     1     -35.758  12.442   2.543  1.00  0.00     0.162 A 
ATOM     14  C   UNL     1     -34.550  14.475   1.042  1.00  0.00     0.068 A 
ATOM     15  C   UNL     1     -36.553  13.358   1.845  1.00  0.00     0.200 A 
ATOM     16  C   UNL     1     -35.949  14.376   1.087  1.00  0.00     0.162 A 
BRANCH  13  17
ATOM     17  O   UNL     1     -36.362  11.430   3.286  1.00  0.00    -0.504 OA
ATOM     18  H   UNL     1     -36.974  11.638   4.067  1.00  0.00     0.293 HD
ENDBRANCH  13  17
BRANCH  15  19
ATOM     19  O   UNL     1     -37.942  13.242   1.909  1.00  0.00    -0.502 OA
ATOM     20  H   UNL     1     -38.429  12.404   1.611  1.00  0.00     0.293 HD
ENDBRANCH  15  19
BRANCH  16  21
ATOM     21  O   UNL     1     -36.737  15.281   0.379  1.00  0.00    -0.504 OA
ATOM     22  H   UNL     1     -37.747  15.204   0.359  1.00  0.00     0.293 HD
ENDBRANCH  16  21
ENDBRANCH   1  11
BRANCH  10  23
ATOM     23  O   UNL     1     -32.177  15.414   3.378  1.00  0.00    -0.500 OA
ATOM     24  H   UNL     1     -31.963  15.403   4.369  1.00  0.00     0.294 HD
ENDBRANCH  10  23
BRANCH   5  25
ATOM     25  O   UNL     1     -27.741  10.898  -1.122  1.00  0.00    -0.507 OA
ATOM     26  H   UNL     1     -27.393  11.174  -2.032  1.00  0.00     0.293 HD
ENDBRANCH   5  25
BRANCH   7  27
ATOM     27  O   UNL     1     -27.210  14.505   2.001  1.00  0.00    -0.507 OA
ATOM     28  H   UNL     1     -26.205  14.400   2.010  1.00  0.00     0.293 HD
ENDBRANCH   7  27
TORSDOF 7
ENDMDL
MODEL 8
REMARK VINA RESULT:    -6.400      1.973      7.851
REMARK INTER + INTRA:          -8.272
REMARK INTER:                  -8.231
REMARK INTRA:                  -0.041
REMARK UNBOUND:                -0.376
REMARK SMILES Oc1cc(O)c2cc(O)c(-c3cc(O)c(O)c(O)c3)[o+]c2c1
REMARK SMILES IDX 10 1 20 2 21 3 22 4 2 5 3 6 4 7 6 8 7 9 8 10 11 11 12 12
REMARK SMILES IDX 13 13 19 14 15 15 17 16 14 17 16 19 18 21 9 23 1 25 5 27
REMARK H PARENT 14 18 16 20 18 22 9 24 1 26 5 28
REMARK Flexibility Score: inf
ROOT
ATOM      1  C   UNL     1     -41.776  10.021   6.214  1.00  0.00     0.402 A 
ATOM      2  O   UNL     1     -41.040   9.663   7.263  1.00  0.00    -0.202 OA
ATOM      3  C   UNL     1     -41.316  10.037   8.508  1.00  0.00     0.368 A 
ATOM      4  C   UNL     1     -40.481   9.612   9.545  1.00  0.00     0.162 A 
ATOM      5  C   UNL     1     -40.745   9.993  10.864  1.00  0.00     0.128 A 
ATOM      6  C   UNL     1     -41.848  10.802  11.147  1.00  0.00     0.093 A 
ATOM      7  C   UNL     1     -42.700  11.241  10.125  1.00  0.00     0.136 A 
ATOM      8  C   UNL     1     -42.437  10.855   8.786  1.00  0.00     0.125 A 
ATOM      9  C   UNL     1     -43.243  11.236   7.700  1.00  0.00     0.078 A 
ATOM     10  C   UNL     1     -42.924  10.813   6.406  1.00  0.00     0.223 A 
ENDROOT
BRANCH   1  11
ATOM     11  C   UNL     1     -41.361   9.549   4.873  1.00  0.00     0.091 A 
ATOM     12  C   UNL     1     -40.045   9.773   4.440  1.00  0.00     0.068 A 
ATOM     13  C   UNL     1     -39.631   9.355   3.168  1.00  0.00     0.162 A 
ATOM     14  C   UNL     1     -42.272   8.931   4.000  1.00  0.00     0.068 A 
ATOM     15  C   UNL     1     -40.538   8.721   2.311  1.00  0.00     0.200 A 
ATOM     16  C   UNL     1     -41.865   8.511   2.725  1.00  0.00     0.162 A 
BRANCH  13  17
ATOM     17  O   UNL     1     -38.320   9.568   2.749  1.00  0.00    -0.504 OA
ATOM     18  H   UNL     1     -37.971  10.498   2.548  1.00  0.00     0.293 HD
ENDBRANCH  13  17
BRANCH  15  19
ATOM     19  O   UNL     1     -40.108   8.308   1.049  1.00  0.00    -0.502 OA
ATOM     20  H   UNL     1     -39.182   7.929   0.891  1.00  0.00     0.293 HD
ENDBRANCH  15  19
BRANCH  16  21
ATOM     21  O   UNL     1     -42.774   7.893   1.868  1.00  0.00    -0.504 OA
ATOM     22  H   UNL     1     -42.622   7.859   0.867  1.00  0.00     0.293 HD
ENDBRANCH  16  21
ENDBRANCH   1  11
BRANCH  10  23
ATOM     23  O   UNL     1     -43.751  11.149   5.336  1.00  0.00    -0.500 OA
ATOM     24  H   UNL     1     -43.967  10.486   4.601  1.00  0.00     0.294 HD
ENDBRANCH  10  23
BRANCH   5  25
ATOM     25  O   UNL     1     -39.917   9.573  11.903  1.00  0.00    -0.507 OA
ATOM     26  H   UNL     1     -40.168   8.793  12.498  1.00  0.00     0.293 HD
ENDBRANCH   5  25
BRANCH   7  27
ATOM     27  O   UNL     1     -43.779  12.050  10.491  1.00  0.00    -0.507 OA
ATOM     28  H   UNL     1     -44.106  12.169  11.439  1.00  0.00     0.293 HD
ENDBRANCH   7  27
TORSDOF 7
ENDMDL
MODEL 9
REMARK VINA RESULT:    -6.361     10.616     13.689
REMARK INTER + INTRA:          -8.224
REMARK INTER:                  -7.867
REMARK INTRA:                  -0.357
REMARK UNBOUND:                -0.376
REMARK SMILES Oc1cc(O)c2cc(O)c(-c3cc(O)c(O)c(O)c3)[o+]c2c1
REMARK SMILES IDX 10 1 20 2 21 3 22 4 2 5 3 6 4 7 6 8 7 9 8 10 11 11 12 12
REMARK SMILES IDX 13 13 19 14 15 15 17 16 14 17 16 19 18 21 9 23 1 25 5 27
REMARK H PARENT 14 18 16 20 18 22 9 24 1 26 5 28
REMARK Flexibility Score: inf
ROOT
ATOM      1  C   UNL     1     -32.282  12.375   0.518  1.00  0.00     0.402 A 
ATOM      2  O   UNL     1     -33.279  12.684   1.341  1.00  0.00    -0.202 OA
ATOM      3  C   UNL     1     -34.398  11.973   1.430  1.00  0.00     0.368 A 
ATOM      4  C   UNL     1     -35.392  12.380   2.325  1.00  0.00     0.162 A 
ATOM      5  C   UNL     1     -36.581  11.653   2.437  1.00  0.00     0.128 A 
ATOM      6  C   UNL     1     -36.777  10.516   1.650  1.00  0.00     0.093 A 
ATOM      7  C   UNL     1     -35.797  10.088   0.746  1.00  0.00     0.136 A 
ATOM      8  C   UNL     1     -34.588  10.821   0.630  1.00  0.00     0.125 A 
ATOM      9  C   UNL     1     -33.545  10.460  -0.238  1.00  0.00     0.078 A 
ATOM     10  C   UNL     1     -32.379  11.229  -0.293  1.00  0.00     0.223 A 
ENDROOT
BRANCH   1  11
ATOM     11  C   UNL     1     -31.088  13.251   0.502  1.00  0.00     0.091 A 
ATOM     12  C   UNL     1     -31.092  14.407  -0.295  1.00  0.00     0.068 A 
ATOM     13  C   UNL     1     -29.968  15.243  -0.343  1.00  0.00     0.162 A 
ATOM     14  C   UNL     1     -29.929  12.922   1.225  1.00  0.00     0.068 A 
ATOM     15  C   UNL     1     -28.823  14.921   0.396  1.00  0.00     0.200 A 
ATOM     16  C   UNL     1     -28.801  13.754   1.179  1.00  0.00     0.162 A 
BRANCH  13  17
ATOM     17  O   UNL     1     -29.982  16.396  -1.125  1.00  0.00    -0.504 OA
ATOM     18  H   UNL     1     -29.124  16.860  -1.402  1.00  0.00     0.293 HD
ENDBRANCH  13  17
BRANCH  15  19
ATOM     19  O   UNL     1     -27.714  15.766   0.338  1.00  0.00    -0.502 OA
ATOM     20  H   UNL     1     -26.933  15.677   0.977  1.00  0.00     0.293 HD
ENDBRANCH  15  19
BRANCH  16  21
ATOM     21  O   UNL     1     -27.658  13.423   1.904  1.00  0.00    -0.504 OA
ATOM     22  H   UNL     1     -26.749  13.805   1.669  1.00  0.00     0.293 HD
ENDBRANCH  16  21
ENDBRANCH   1  11
BRANCH  10  23
ATOM     23  O   UNL     1     -31.324  10.842  -1.119  1.00  0.00    -0.500 OA
ATOM     24  H   UNL     1     -31.451  10.699  -2.114  1.00  0.00     0.294 HD
ENDBRANCH  10  23
BRANCH   5  25
ATOM     25  O   UNL     1     -37.576  12.053   3.327  1.00  0.00    -0.507 OA
ATOM     26  H   UNL     1     -38.226  12.795   3.096  1.00  0.00     0.293 HD
ENDBRANCH   5  25
BRANCH   7  27
ATOM     27  O   UNL     1     -36.072   8.943  -0.006  1.00  0.00    -0.507 OA
ATOM     28  H   UNL     1     -36.963   8.466  -0.013  1.00  0.00     0.293 HD
ENDBRANCH   7  27
TORSDOF 7
ENDMDL
