MODEL 1
REMARK VINA RESULT:    -5.742      0.000      0.000
REMARK INTER + INTRA:         -10.730
REMARK INTER:                  -8.763
REMARK INTRA:                  -1.967
REMARK UNBOUND:                -1.967
REMARK SMILES CC(=O)CCC=C(C)CCC=C(C)CCC=C(C)C
REMARK SMILES IDX 10 1 11 2 12 3 13 4 14 5 15 6 16 7 18 8 17 9 19 10 9 11 7 12
REMARK SMILES IDX 6 13 8 14 5 15 4 16 2 17 3 18 1 19
REMARK H PARENT
REMARK Flexibility Score: inf
ROOT
ATOM      1  C   UNL     1      16.325 -12.435  63.200  1.00  0.00     0.032 C 
ENDROOT
BRANCH   1   2
ATOM      2  C   UNL     1      15.125 -11.758  62.580  1.00  0.00    -0.028 C 
ATOM      3  C   UNL     1      14.017 -11.376  63.257  1.00  0.00    -0.077 C 
ATOM      4  C   UNL     1      13.847 -11.651  64.732  1.00  0.00     0.039 C 
BRANCH   3   5
ATOM      5  C   UNL     1      12.923 -10.638  62.515  1.00  0.00     0.034 C 
BRANCH   5   6
ATOM      6  C   UNL     1      13.076  -9.122  62.680  1.00  0.00     0.032 C 
BRANCH   6   7
ATOM      7  C   UNL     1      13.906  -8.530  61.566  1.00  0.00    -0.028 C 
ATOM      8  C   UNL     1      15.823  -8.093  63.106  1.00  0.00     0.039 C 
ATOM      9  C   UNL     1      15.157  -8.059  61.750  1.00  0.00    -0.080 C 
ATOM     10  C   UNL     1      15.896  -7.488  60.569  1.00  0.00     0.039 C 
ENDBRANCH   6   7
ENDBRANCH   5   6
ENDBRANCH   3   5
ENDBRANCH   1   2
BRANCH   1  11
ATOM     11  C   UNL     1      17.373 -11.411  63.651  1.00  0.00     0.034 C 
BRANCH  11  12
ATOM     12  C   UNL     1      17.492 -11.356  65.161  1.00  0.00    -0.077 C 
ATOM     13  C   UNL     1      17.321 -10.173  65.794  1.00  0.00    -0.028 C 
ATOM     14  C   UNL     1      17.772 -12.634  65.913  1.00  0.00     0.039 C 
BRANCH  13  15
ATOM     15  C   UNL     1      17.420  -9.971  67.288  1.00  0.00     0.035 C 
BRANCH  15  16
ATOM     16  C   UNL     1      18.821  -9.505  67.698  1.00  0.00     0.079 C 
BRANCH  16  17
ATOM     17  C   UNL     1      19.270 -10.154  68.983  1.00  0.00     0.130 C 
ATOM     18  O   UNL     1      19.294  -9.499  70.013  1.00  0.00    -0.300 OA
ATOM     19  C   UNL     1      19.693 -11.593  69.021  1.00  0.00     0.087 C 
ENDBRANCH  16  17
ENDBRANCH  15  16
ENDBRANCH  13  15
ENDBRANCH  11  12
ENDBRANCH   1  11
TORSDOF 9
ENDMDL
MODEL 2
REMARK VINA RESULT:    -5.367      1.522      2.278
REMARK INTER + INTRA:         -10.158
REMARK INTER:                  -8.603
REMARK INTRA:                  -1.554
REMARK UNBOUND:                -1.967
REMARK SMILES CC(=O)CCC=C(C)CCC=C(C)CCC=C(C)C
REMARK SMILES IDX 10 1 11 2 12 3 13 4 14 5 15 6 16 7 18 8 17 9 19 10 9 11 7 12
REMARK SMILES IDX 6 13 8 14 5 15 4 16 2 17 3 18 1 19
REMARK H PARENT
REMARK Flexibility Score: inf
ROOT
ATOM      1  C   UNL     1      14.706 -11.690  63.725  1.00  0.00     0.032 C 
ENDROOT
BRANCH   1   2
ATOM      2  C   UNL     1      13.865 -10.481  63.386  1.00  0.00    -0.028 C 
ATOM      3  C   UNL     1      14.343  -9.323  62.875  1.00  0.00    -0.077 C 
ATOM      4  C   UNL     1      15.819  -9.103  62.640  1.00  0.00     0.039 C 
BRANCH   3   5
ATOM      5  C   UNL     1      13.368  -8.224  62.513  1.00  0.00     0.034 C 
BRANCH   5   6
ATOM      6  C   UNL     1      12.461  -8.655  61.355  1.00  0.00     0.032 C 
BRANCH   6   7
ATOM      7  C   UNL     1      13.097  -8.353  60.019  1.00  0.00    -0.028 C 
ATOM      8  C   UNL     1      13.575 -10.768  59.599  1.00  0.00     0.039 C 
ATOM      9  C   UNL     1      13.606  -9.307  59.213  1.00  0.00    -0.080 C 
ATOM     10  C   UNL     1      14.219  -8.895  57.900  1.00  0.00     0.039 C 
ENDBRANCH   6   7
ENDBRANCH   5   6
ENDBRANCH   3   5
ENDBRANCH   1   2
BRANCH   1  11
ATOM     11  C   UNL     1      15.126 -11.683  65.199  1.00  0.00     0.034 C 
BRANCH  11  12
ATOM     12  C   UNL     1      16.616 -11.454  65.359  1.00  0.00    -0.077 C 
ATOM     13  C   UNL     1      17.064 -10.732  66.411  1.00  0.00    -0.028 C 
ATOM     14  C   UNL     1      17.556 -12.066  64.349  1.00  0.00     0.039 C 
BRANCH  13  15
ATOM     15  C   UNL     1      18.516 -10.418  66.688  1.00  0.00     0.035 C 
BRANCH  15  16
ATOM     16  C   UNL     1      18.664  -9.442  67.859  1.00  0.00     0.079 C 
BRANCH  16  17
ATOM     17  C   UNL     1      19.236 -10.119  69.079  1.00  0.00     0.130 C 
ATOM     18  O   UNL     1      19.335  -9.495  70.124  1.00  0.00    -0.300 OA
ATOM     19  C   UNL     1      19.692 -11.547  69.033  1.00  0.00     0.087 C 
ENDBRANCH  16  17
ENDBRANCH  15  16
ENDBRANCH  13  15
ENDBRANCH  11  12
ENDBRANCH   1  11
TORSDOF 9
ENDMDL
MODEL 3
REMARK VINA RESULT:    -5.260      9.780     12.746
REMARK INTER + INTRA:          -9.994
REMARK INTER:                  -7.255
REMARK INTRA:                  -2.739
REMARK UNBOUND:                -1.967
REMARK SMILES CC(=O)CCC=C(C)CCC=C(C)CCC=C(C)C
REMARK SMILES IDX 10 1 11 2 12 3 13 4 14 5 15 6 16 7 18 8 17 9 19 10 9 11 7 12
REMARK SMILES IDX 6 13 8 14 5 15 4 16 2 17 3 18 1 19
REMARK H PARENT
REMARK Flexibility Score: inf
ROOT
ATOM      1  C   UNL     1       7.935  -6.768  59.320  1.00  0.00     0.032 C 
ENDROOT
BRANCH   1   2
ATOM      2  C   UNL     1       9.080  -7.748  59.213  1.00  0.00    -0.028 C 
ATOM      3  C   UNL     1       8.952  -9.056  58.891  1.00  0.00    -0.077 C 
ATOM      4  C   UNL     1       7.602  -9.692  58.656  1.00  0.00     0.039 C 
BRANCH   3   5
ATOM      5  C   UNL     1      10.198  -9.902  58.747  1.00  0.00     0.034 C 
BRANCH   5   6
ATOM      6  C   UNL     1      11.313  -9.119  58.043  1.00  0.00     0.032 C 
BRANCH   6   7
ATOM      7  C   UNL     1      11.232  -9.280  56.544  1.00  0.00    -0.028 C 
ATOM      8  C   UNL     1      11.169  -6.808  56.194  1.00  0.00     0.039 C 
ATOM      9  C   UNL     1      11.167  -8.233  55.694  1.00  0.00    -0.080 C 
ATOM     10  C   UNL     1      11.089  -8.506  54.215  1.00  0.00     0.039 C 
ENDBRANCH   6   7
ENDBRANCH   5   6
ENDBRANCH   3   5
ENDBRANCH   1   2
BRANCH   1  11
ATOM     11  C   UNL     1       7.884  -5.834  58.104  1.00  0.00     0.034 C 
BRANCH  11  12
ATOM     12  C   UNL     1       6.962  -6.365  57.025  1.00  0.00    -0.077 C 
ATOM     13  C   UNL     1       7.497  -6.946  55.927  1.00  0.00    -0.028 C 
ATOM     14  C   UNL     1       5.470  -6.253  57.226  1.00  0.00     0.039 C 
BRANCH  13  15
ATOM     15  C   UNL     1       6.700  -7.509  54.774  1.00  0.00     0.035 C 
BRANCH  15  16
ATOM     16  C   UNL     1       7.474  -8.611  54.043  1.00  0.00     0.079 C 
BRANCH  16  17
ATOM     17  C   UNL     1       7.180  -9.973  54.619  1.00  0.00     0.130 C 
ATOM     18  O   UNL     1       6.052 -10.432  54.536  1.00  0.00    -0.300 OA
ATOM     19  C   UNL     1       8.249 -10.777  55.298  1.00  0.00     0.087 C 
ENDBRANCH  16  17
ENDBRANCH  15  16
ENDBRANCH  13  15
ENDBRANCH  11  12
ENDBRANCH   1  11
TORSDOF 9
ENDMDL
MODEL 4
REMARK VINA RESULT:    -5.246      3.684      5.998
REMARK INTER + INTRA:          -9.973
REMARK INTER:                  -8.467
REMARK INTRA:                  -1.506
REMARK UNBOUND:                -1.967
REMARK SMILES CC(=O)CCC=C(C)CCC=C(C)CCC=C(C)C
REMARK SMILES IDX 10 1 11 2 12 3 13 4 14 5 15 6 16 7 18 8 17 9 19 10 9 11 7 12
REMARK SMILES IDX 6 13 8 14 5 15 4 16 2 17 3 18 1 19
REMARK H PARENT
REMARK Flexibility Score: inf
ROOT
ATOM      1  C   UNL     1      17.334 -10.008  64.222  1.00  0.00     0.032 C 
ENDROOT
BRANCH   1   2
ATOM      2  C   UNL     1      18.669  -9.905  63.522  1.00  0.00    -0.028 C 
ATOM      3  C   UNL     1      19.845  -9.630  64.133  1.00  0.00    -0.077 C 
ATOM      4  C   UNL     1      19.926  -9.335  65.612  1.00  0.00     0.039 C 
BRANCH   3   5
ATOM      5  C   UNL     1      21.116  -9.635  63.313  1.00  0.00     0.034 C 
BRANCH   5   6
ATOM      6  C   UNL     1      22.143 -10.612  63.898  1.00  0.00     0.032 C 
BRANCH   6   7
ATOM      7  C   UNL     1      23.099 -11.103  62.838  1.00  0.00    -0.028 C 
ATOM      8  C   UNL     1      23.901 -12.963  64.298  1.00  0.00     0.039 C 
ATOM      9  C   UNL     1      23.903 -12.172  63.011  1.00  0.00    -0.080 C 
ATOM     10  C   UNL     1      24.821 -12.577  61.887  1.00  0.00     0.039 C 
ENDBRANCH   6   7
ENDBRANCH   5   6
ENDBRANCH   3   5
ENDBRANCH   1   2
BRANCH   1  11
ATOM     11  C   UNL     1      16.761 -11.427  64.128  1.00  0.00     0.034 C 
BRANCH  11  12
ATOM     12  C   UNL     1      17.367 -12.349  65.167  1.00  0.00    -0.077 C 
ATOM     13  C   UNL     1      17.499 -11.912  66.440  1.00  0.00    -0.028 C 
ATOM     14  C   UNL     1      17.779 -13.740  64.750  1.00  0.00     0.039 C 
BRANCH  13  15
ATOM     15  C   UNL     1      18.092 -12.718  67.572  1.00  0.00     0.035 C 
BRANCH  15  16
ATOM     16  C   UNL     1      19.585 -12.422  67.748  1.00  0.00     0.079 C 
BRANCH  16  17
ATOM     17  C   UNL     1      19.852 -11.631  69.003  1.00  0.00     0.130 C 
ATOM     18  O   UNL     1      20.534 -12.118  69.890  1.00  0.00    -0.300 OA
ATOM     19  C   UNL     1      19.290 -10.252  69.187  1.00  0.00     0.087 C 
ENDBRANCH  16  17
ENDBRANCH  15  16
ENDBRANCH  13  15
ENDBRANCH  11  12
ENDBRANCH   1  11
TORSDOF 9
ENDMDL
MODEL 5
REMARK VINA RESULT:    -5.241      2.313      3.383
REMARK INTER + INTRA:          -9.965
REMARK INTER:                  -8.421
REMARK INTRA:                  -1.544
REMARK UNBOUND:                -1.967
REMARK SMILES CC(=O)CCC=C(C)CCC=C(C)CCC=C(C)C
REMARK SMILES IDX 10 1 11 2 12 3 13 4 14 5 15 6 16 7 18 8 17 9 19 10 9 11 7 12
REMARK SMILES IDX 6 13 8 14 5 15 4 16 2 17 3 18 1 19
REMARK H PARENT
REMARK Flexibility Score: inf
ROOT
ATOM      1  C   UNL     1      14.038 -11.119  63.140  1.00  0.00     0.032 C 
ENDROOT
BRANCH   1   2
ATOM      2  C   UNL     1      13.876  -9.618  63.082  1.00  0.00    -0.028 C 
ATOM      3  C   UNL     1      14.864  -8.743  62.780  1.00  0.00    -0.077 C 
ATOM      4  C   UNL     1      16.281  -9.197  62.519  1.00  0.00     0.039 C 
BRANCH   3   5
ATOM      5  C   UNL     1      14.534  -7.269  62.685  1.00  0.00     0.034 C 
BRANCH   5   6
ATOM      6  C   UNL     1      13.266  -7.044  61.854  1.00  0.00     0.032 C 
BRANCH   6   7
ATOM      7  C   UNL     1      12.684  -5.673  62.103  1.00  0.00    -0.028 C 
ATOM      8  C   UNL     1      11.237  -6.525  63.952  1.00  0.00     0.039 C 
ATOM      9  C   UNL     1      11.760  -5.427  63.056  1.00  0.00    -0.080 C 
ATOM     10  C   UNL     1      11.246  -4.021  63.219  1.00  0.00     0.039 C 
ENDBRANCH   6   7
ENDBRANCH   5   6
ENDBRANCH   3   5
ENDBRANCH   1   2
BRANCH   1  11
ATOM     11  C   UNL     1      14.022 -11.628  64.586  1.00  0.00     0.034 C 
BRANCH  11  12
ATOM     12  C   UNL     1      15.423 -11.775  65.146  1.00  0.00    -0.077 C 
ATOM     13  C   UNL     1      15.688 -11.318  66.391  1.00  0.00    -0.028 C 
ATOM     14  C   UNL     1      16.473 -12.456  64.303  1.00  0.00     0.039 C 
BRANCH  13  15
ATOM     15  C   UNL     1      17.036 -11.391  67.069  1.00  0.00     0.035 C 
BRANCH  15  16
ATOM     16  C   UNL     1      17.686 -10.007  67.172  1.00  0.00     0.079 C 
BRANCH  16  17
ATOM     17  C   UNL     1      19.013  -9.961  66.458  1.00  0.00     0.130 C 
ATOM     18  O   UNL     1      20.046 -10.100  67.095  1.00  0.00    -0.300 OA
ATOM     19  C   UNL     1      19.091  -9.743  64.976  1.00  0.00     0.087 C 
ENDBRANCH  16  17
ENDBRANCH  15  16
ENDBRANCH  13  15
ENDBRANCH  11  12
ENDBRANCH   1  11
TORSDOF 9
ENDMDL
MODEL 6
REMARK VINA RESULT:    -5.239      8.195     11.482
REMARK INTER + INTRA:          -9.963
REMARK INTER:                  -7.382
REMARK INTRA:                  -2.580
REMARK UNBOUND:                -1.967
REMARK SMILES CC(=O)CCC=C(C)CCC=C(C)CCC=C(C)C
REMARK SMILES IDX 10 1 11 2 12 3 13 4 14 5 15 6 16 7 18 8 17 9 19 10 9 11 7 12
REMARK SMILES IDX 6 13 8 14 5 15 4 16 2 17 3 18 1 19
REMARK H PARENT
REMARK Flexibility Score: inf
ROOT
ATOM      1  C   UNL     1       6.961  -8.891  59.534  1.00  0.00     0.032 C 
ENDROOT
BRANCH   1   2
ATOM      2  C   UNL     1       6.049  -8.219  58.534  1.00  0.00    -0.028 C 
ATOM      3  C   UNL     1       6.244  -6.985  58.015  1.00  0.00    -0.077 C 
ATOM      4  C   UNL     1       7.400  -6.112  58.444  1.00  0.00     0.039 C 
BRANCH   3   5
ATOM      5  C   UNL     1       5.285  -6.472  56.963  1.00  0.00     0.034 C 
BRANCH   5   6
ATOM      6  C   UNL     1       5.087  -7.507  55.850  1.00  0.00     0.032 C 
BRANCH   6   7
ATOM      7  C   UNL     1       6.319  -7.625  54.986  1.00  0.00    -0.028 C 
ATOM      8  C   UNL     1       6.448 -10.093  55.352  1.00  0.00     0.039 C 
ATOM      9  C   UNL     1       6.946  -8.798  54.753  1.00  0.00    -0.080 C 
ATOM     10  C   UNL     1       8.169  -8.803  53.875  1.00  0.00     0.039 C 
ENDBRANCH   6   7
ENDBRANCH   5   6
ENDBRANCH   3   5
ENDBRANCH   1   2
BRANCH   1  11
ATOM     11  C   UNL     1       7.938  -9.850  58.843  1.00  0.00     0.034 C 
BRANCH  11  12
ATOM     12  C   UNL     1       9.258  -9.178  58.528  1.00  0.00    -0.077 C 
ATOM     13  C   UNL     1       9.618  -9.001  57.236  1.00  0.00    -0.028 C 
ATOM     14  C   UNL     1      10.120  -8.700  59.671  1.00  0.00     0.039 C 
BRANCH  13  15
ATOM     15  C   UNL     1      10.905  -8.356  56.778  1.00  0.00     0.035 C 
BRANCH  15  16
ATOM     16  C   UNL     1      11.881  -9.394  56.214  1.00  0.00     0.079 C 
BRANCH  16  17
ATOM     17  C   UNL     1      12.538 -10.194  57.310  1.00  0.00     0.130 C 
ATOM     18  O   UNL     1      12.229 -11.364  57.471  1.00  0.00    -0.300 OA
ATOM     19  C   UNL     1      13.565  -9.578  58.214  1.00  0.00     0.087 C 
ENDBRANCH  16  17
ENDBRANCH  15  16
ENDBRANCH  13  15
ENDBRANCH  11  12
ENDBRANCH   1  11
TORSDOF 9
ENDMDL
MODEL 7
REMARK VINA RESULT:    -5.209      3.087      3.748
REMARK INTER + INTRA:          -9.917
REMARK INTER:                  -8.014
REMARK INTRA:                  -1.903
REMARK UNBOUND:                -1.967
REMARK SMILES CC(=O)CCC=C(C)CCC=C(C)CCC=C(C)C
REMARK SMILES IDX 10 1 11 2 12 3 13 4 14 5 15 6 16 7 18 8 17 9 19 10 9 11 7 12
REMARK SMILES IDX 6 13 8 14 5 15 4 16 2 17 3 18 1 19
REMARK H PARENT
REMARK Flexibility Score: inf
ROOT
ATOM      1  C   UNL     1      16.097 -11.615  66.469  1.00  0.00     0.032 C 
ENDROOT
BRANCH   1   2
ATOM      2  C   UNL     1      15.225 -11.466  65.244  1.00  0.00    -0.028 C 
ATOM      3  C   UNL     1      15.466 -12.047  64.046  1.00  0.00    -0.077 C 
ATOM      4  C   UNL     1      16.702 -12.879  63.797  1.00  0.00     0.039 C 
BRANCH   3   5
ATOM      5  C   UNL     1      14.461 -11.870  62.929  1.00  0.00     0.034 C 
BRANCH   5   6
ATOM      6  C   UNL     1      15.023 -10.970  61.823  1.00  0.00     0.032 C 
BRANCH   6   7
ATOM      7  C   UNL     1      14.559  -9.543  61.989  1.00  0.00    -0.028 C 
ATOM      8  C   UNL     1      16.739  -8.856  62.995  1.00  0.00     0.039 C 
ATOM      9  C   UNL     1      15.333  -8.574  62.521  1.00  0.00    -0.080 C 
ATOM     10  C   UNL     1      14.770  -7.182  62.641  1.00  0.00     0.039 C 
ENDBRANCH   6   7
ENDBRANCH   5   6
ENDBRANCH   3   5
ENDBRANCH   1   2
BRANCH   1  11
ATOM     11  C   UNL     1      17.035 -10.413  66.636  1.00  0.00     0.034 C 
BRANCH  11  12
ATOM     12  C   UNL     1      18.454 -10.746  66.222  1.00  0.00    -0.077 C 
ATOM     13  C   UNL     1      19.175  -9.828  65.539  1.00  0.00    -0.028 C 
ATOM     14  C   UNL     1      19.028 -12.087  66.611  1.00  0.00     0.039 C 
BRANCH  13  15
ATOM     15  C   UNL     1      20.593 -10.028  65.056  1.00  0.00     0.035 C 
BRANCH  15  16
ATOM     16  C   UNL     1      20.752  -9.599  63.594  1.00  0.00     0.079 C 
BRANCH  16  17
ATOM     17  C   UNL     1      21.986 -10.199  62.969  1.00  0.00     0.130 C 
ATOM     18  O   UNL     1      22.159 -10.104  61.764  1.00  0.00    -0.300 OA
ATOM     19  C   UNL     1      23.008 -10.916  63.801  1.00  0.00     0.087 C 
ENDBRANCH  16  17
ENDBRANCH  15  16
ENDBRANCH  13  15
ENDBRANCH  11  12
ENDBRANCH   1  11
TORSDOF 9
ENDMDL
MODEL 8
REMARK VINA RESULT:    -5.131      7.510     10.821
REMARK INTER + INTRA:          -9.797
REMARK INTER:                  -7.351
REMARK INTRA:                  -2.447
REMARK UNBOUND:                -1.967
REMARK SMILES CC(=O)CCC=C(C)CCC=C(C)CCC=C(C)C
REMARK SMILES IDX 10 1 11 2 12 3 13 4 14 5 15 6 16 7 18 8 17 9 19 10 9 11 7 12
REMARK SMILES IDX 6 13 8 14 5 15 4 16 2 17 3 18 1 19
REMARK H PARENT
REMARK Flexibility Score: inf
ROOT
ATOM      1  C   UNL     1       5.983  -8.156  57.948  1.00  0.00     0.032 C 
ENDROOT
BRANCH   1   2
ATOM      2  C   UNL     1       6.102  -8.244  56.445  1.00  0.00    -0.028 C 
ATOM      3  C   UNL     1       6.791  -7.374  55.670  1.00  0.00    -0.077 C 
ATOM      4  C   UNL     1       7.482  -6.162  56.250  1.00  0.00     0.039 C 
BRANCH   3   5
ATOM      5  C   UNL     1       6.885  -7.633  54.182  1.00  0.00     0.034 C 
BRANCH   5   6
ATOM      6  C   UNL     1       7.586  -8.966  53.901  1.00  0.00     0.032 C 
BRANCH   6   7
ATOM      7  C   UNL     1       9.029  -8.930  54.343  1.00  0.00    -0.028 C 
ATOM      8  C   UNL     1       8.741 -10.970  55.754  1.00  0.00     0.039 C 
ATOM      9  C   UNL     1       9.564  -9.838  55.186  1.00  0.00    -0.080 C 
ATOM     10  C   UNL     1      11.017  -9.708  55.563  1.00  0.00     0.039 C 
ENDBRANCH   6   7
ENDBRANCH   5   6
ENDBRANCH   3   5
ENDBRANCH   1   2
BRANCH   1  11
ATOM     11  C   UNL     1       6.943  -9.129  58.642  1.00  0.00     0.034 C 
BRANCH  11  12
ATOM     12  C   UNL     1       8.204  -8.435  59.115  1.00  0.00    -0.077 C 
ATOM     13  C   UNL     1       9.405  -9.005  58.868  1.00  0.00    -0.028 C 
ATOM     14  C   UNL     1       8.079  -7.108  59.824  1.00  0.00     0.039 C 
BRANCH  13  15
ATOM     15  C   UNL     1      10.738  -8.430  59.288  1.00  0.00     0.035 C 
BRANCH  15  16
ATOM     16  C   UNL     1      11.514  -9.408  60.177  1.00  0.00     0.079 C 
BRANCH  16  17
ATOM     17  C   UNL     1      11.560  -8.941  61.610  1.00  0.00     0.130 C 
ATOM     18  O   UNL     1      12.008  -9.682  62.471  1.00  0.00    -0.300 OA
ATOM     19  C   UNL     1      11.062  -7.581  62.001  1.00  0.00     0.087 C 
ENDBRANCH  16  17
ENDBRANCH  15  16
ENDBRANCH  13  15
ENDBRANCH  11  12
ENDBRANCH   1  11
TORSDOF 9
ENDMDL
MODEL 9
REMARK VINA RESULT:    -5.071      1.655      2.866
REMARK INTER + INTRA:          -9.707
REMARK INTER:                  -8.338
REMARK INTRA:                  -1.369
REMARK UNBOUND:                -1.967
REMARK SMILES CC(=O)CCC=C(C)CCC=C(C)CCC=C(C)C
REMARK SMILES IDX 10 1 11 2 12 3 13 4 14 5 15 6 16 7 18 8 17 9 19 10 9 11 7 12
REMARK SMILES IDX 6 13 8 14 5 15 4 16 2 17 3 18 1 19
REMARK H PARENT
REMARK Flexibility Score: inf
ROOT
ATOM      1  C   UNL     1      14.610 -10.697  63.991  1.00  0.00     0.032 C 
ENDROOT
BRANCH   1   2
ATOM      2  C   UNL     1      14.980  -9.382  63.345  1.00  0.00    -0.028 C 
ATOM      3  C   UNL     1      14.780  -9.075  62.042  1.00  0.00    -0.077 C 
ATOM      4  C   UNL     1      14.200 -10.073  61.067  1.00  0.00     0.039 C 
BRANCH   3   5
ATOM      5  C   UNL     1      15.133  -7.688  61.553  1.00  0.00     0.034 C 
BRANCH   5   6
ATOM      6  C   UNL     1      13.872  -6.906  61.166  1.00  0.00     0.032 C 
BRANCH   6   7
ATOM      7  C   UNL     1      13.116  -6.446  62.389  1.00  0.00    -0.028 C 
ATOM      8  C   UNL     1      11.189  -7.948  61.872  1.00  0.00     0.039 C 
ATOM      9  C   UNL     1      11.894  -6.915  62.719  1.00  0.00    -0.080 C 
ATOM     10  C   UNL     1      11.228  -6.387  63.962  1.00  0.00     0.039 C 
ENDBRANCH   6   7
ENDBRANCH   5   6
ENDBRANCH   3   5
ENDBRANCH   1   2
BRANCH   1  11
ATOM     11  C   UNL     1      15.801 -11.661  64.019  1.00  0.00     0.034 C 
BRANCH  11  12
ATOM     12  C   UNL     1      16.908 -11.162  64.926  1.00  0.00    -0.077 C 
ATOM     13  C   UNL     1      16.696 -11.112  66.260  1.00  0.00    -0.028 C 
ATOM     14  C   UNL     1      18.227 -10.762  64.308  1.00  0.00     0.039 C 
BRANCH  13  15
ATOM     15  C   UNL     1      17.704 -10.628  67.277  1.00  0.00     0.035 C 
BRANCH  15  16
ATOM     16  C   UNL     1      18.134 -11.757  68.219  1.00  0.00     0.079 C 
BRANCH  16  17
ATOM     17  C   UNL     1      19.420 -11.427  68.933  1.00  0.00     0.130 C 
ATOM     18  O   UNL     1      19.463 -10.465  69.684  1.00  0.00    -0.300 OA
ATOM     19  C   UNL     1      20.655 -12.256  68.735  1.00  0.00     0.087 C 
ENDBRANCH  16  17
ENDBRANCH  15  16
ENDBRANCH  13  15
ENDBRANCH  11  12
ENDBRANCH   1  11
TORSDOF 9
ENDMDL
