MODEL 1
REMARK VINA RESULT:    -5.446      0.000      0.000
REMARK INTER + INTRA:          -7.530
REMARK INTER:                  -6.720
REMARK INTRA:                  -0.810
REMARK UNBOUND:                -0.810
REMARK SMILES CC(C)=CCC[C@@H](C)c1ccc(C)cc1
REMARK SMILES IDX 6 1 7 2 8 3 9 4 13 5 12 6 11 7 14 8 10 9 15 10 5 11 4 12
REMARK SMILES IDX 2 13 1 14 3 15
REMARK H PARENT
REMARK Flexibility Score: inf
ROOT
ATOM      1  C   UNL     1       4.118   1.455  -3.048  1.00  0.00     0.012 C 
ENDROOT
BRANCH   1   2
ATOM      2  C   UNL     1       4.428   0.177  -3.859  1.00  0.00     0.016 C 
ATOM      3  C   UNL     1       5.913   0.074  -4.240  1.00  0.00     0.013 C 
BRANCH   2   4
ATOM      4  C   UNL     1       3.993  -1.057  -3.089  1.00  0.00    -0.045 A 
ATOM      5  C   UNL     1       2.783  -4.565  -0.879  1.00  0.00     0.044 C 
ATOM      6  C   UNL     1       3.209  -3.365  -1.671  1.00  0.00    -0.051 A 
ATOM      7  C   UNL     1       2.268  -2.639  -2.414  1.00  0.00     0.004 A 
ATOM      8  C   UNL     1       4.537  -2.920  -1.620  1.00  0.00     0.004 A 
ATOM      9  C   UNL     1       2.656  -1.499  -3.123  1.00  0.00     0.004 A 
ATOM     10  C   UNL     1       4.928  -1.780  -2.328  1.00  0.00     0.004 A 
ENDBRANCH   2   4
ENDBRANCH   1   2
BRANCH   1  11
ATOM     11  C   UNL     1       3.463   2.553  -3.900  1.00  0.00     0.028 C 
BRANCH  11  12
ATOM     12  C   UNL     1       4.473   3.607  -4.279  1.00  0.00    -0.028 C 
ATOM     13  C   UNL     1       5.045   3.713  -5.500  1.00  0.00    -0.080 C 
ATOM     14  C   UNL     1       4.759   2.725  -6.607  1.00  0.00     0.039 C 
ATOM     15  C   UNL     1       6.008   4.846  -5.745  1.00  0.00     0.039 C 
ENDBRANCH  11  12
ENDBRANCH   1  11
TORSDOF 4
ENDMDL
MODEL 2
REMARK VINA RESULT:    -5.199      3.071      6.141
REMARK INTER + INTRA:          -7.225
REMARK INTER:                  -6.265
REMARK INTRA:                  -0.960
REMARK UNBOUND:                -0.810
REMARK SMILES CC(C)=CCC[C@@H](C)c1ccc(C)cc1
REMARK SMILES IDX 6 1 7 2 8 3 9 4 13 5 12 6 11 7 14 8 10 9 15 10 5 11 4 12
REMARK SMILES IDX 2 13 1 14 3 15
REMARK H PARENT
REMARK Flexibility Score: inf
ROOT
ATOM      1  C   UNL     1       5.710   3.958  -6.559  1.00  0.00     0.012 C 
ENDROOT
BRANCH   1   2
ATOM      2  C   UNL     1       4.443   3.557  -7.347  1.00  0.00     0.016 C 
ATOM      3  C   UNL     1       3.999   4.650  -8.332  1.00  0.00     0.013 C 
BRANCH   2   4
ATOM      4  C   UNL     1       4.666   2.246  -8.077  1.00  0.00    -0.045 A 
ATOM      5  C   UNL     1       5.299  -1.505 -10.125  1.00  0.00     0.044 C 
ATOM      6  C   UNL     1       5.109  -0.194  -9.420  1.00  0.00    -0.051 A 
ATOM      7  C   UNL     1       4.646   0.926 -10.124  1.00  0.00     0.004 A 
ATOM      8  C   UNL     1       5.325  -0.097  -8.038  1.00  0.00     0.004 A 
ATOM      9  C   UNL     1       4.433   2.138  -9.462  1.00  0.00     0.004 A 
ATOM     10  C   UNL     1       5.113   1.114  -7.373  1.00  0.00     0.004 A 
ENDBRANCH   2   4
ENDBRANCH   1   2
BRANCH   1  11
ATOM     11  C   UNL     1       5.431   4.192  -5.067  1.00  0.00     0.028 C 
BRANCH  11  12
ATOM     12  C   UNL     1       5.087   2.895  -4.379  1.00  0.00    -0.028 C 
ATOM     13  C   UNL     1       3.855   2.576  -3.921  1.00  0.00    -0.080 C 
ATOM     14  C   UNL     1       2.694   3.539  -4.010  1.00  0.00     0.039 C 
ATOM     15  C   UNL     1       3.651   1.222  -3.291  1.00  0.00     0.039 C 
ENDBRANCH  11  12
ENDBRANCH   1  11
TORSDOF 4
ENDMDL
MODEL 3
REMARK VINA RESULT:    -5.178      1.130      6.729
REMARK INTER + INTRA:          -7.198
REMARK INTER:                  -6.587
REMARK INTRA:                  -0.612
REMARK UNBOUND:                -0.810
REMARK SMILES CC(C)=CCC[C@@H](C)c1ccc(C)cc1
REMARK SMILES IDX 6 1 7 2 8 3 9 4 13 5 12 6 11 7 14 8 10 9 15 10 5 11 4 12
REMARK SMILES IDX 2 13 1 14 3 15
REMARK H PARENT
REMARK Flexibility Score: inf
ROOT
ATOM      1  C   UNL     1       4.832  -0.450  -2.211  1.00  0.00     0.012 C 
ENDROOT
BRANCH   1   2
ATOM      2  C   UNL     1       3.736  -0.267  -3.285  1.00  0.00     0.016 C 
ATOM      3  C   UNL     1       2.338  -0.101  -2.669  1.00  0.00     0.013 C 
BRANCH   2   4
ATOM      4  C   UNL     1       4.063   0.913  -4.181  1.00  0.00    -0.045 A 
ATOM      5  C   UNL     1       5.002   4.251  -6.757  1.00  0.00     0.044 C 
ATOM      6  C   UNL     1       4.701   3.098  -5.846  1.00  0.00    -0.051 A 
ATOM      7  C   UNL     1       3.902   3.286  -4.710  1.00  0.00     0.004 A 
ATOM      8  C   UNL     1       5.160   1.811  -6.160  1.00  0.00     0.004 A 
ATOM      9  C   UNL     1       3.591   2.205  -3.879  1.00  0.00     0.004 A 
ATOM     10  C   UNL     1       4.850   0.729  -5.331  1.00  0.00     0.004 A 
ENDBRANCH   2   4
ENDBRANCH   1   2
BRANCH   1  11
ATOM     11  C   UNL     1       5.401  -1.876  -2.181  1.00  0.00     0.028 C 
BRANCH  11  12
ATOM     12  C   UNL     1       4.308  -2.881  -1.917  1.00  0.00    -0.028 C 
ATOM     13  C   UNL     1       4.101  -3.489  -0.727  1.00  0.00    -0.080 C 
ATOM     14  C   UNL     1       5.004  -3.252   0.461  1.00  0.00     0.039 C 
ATOM     15  C   UNL     1       2.940  -4.442  -0.600  1.00  0.00     0.039 C 
ENDBRANCH  11  12
ENDBRANCH   1  11
TORSDOF 4
ENDMDL
MODEL 4
REMARK VINA RESULT:    -5.158      1.623      3.320
REMARK INTER + INTRA:          -7.174
REMARK INTER:                  -6.143
REMARK INTRA:                  -1.031
REMARK UNBOUND:                -0.810
REMARK SMILES CC(C)=CCC[C@@H](C)c1ccc(C)cc1
REMARK SMILES IDX 6 1 7 2 8 3 9 4 13 5 12 6 11 7 14 8 10 9 15 10 5 11 4 12
REMARK SMILES IDX 2 13 1 14 3 15
REMARK H PARENT
REMARK Flexibility Score: inf
ROOT
ATOM      1  C   UNL     1       4.248   3.137  -6.094  1.00  0.00     0.012 C 
ENDROOT
BRANCH   1   2
ATOM      2  C   UNL     1       4.139   3.160  -4.552  1.00  0.00     0.016 C 
ATOM      3  C   UNL     1       2.782   3.698  -4.072  1.00  0.00     0.013 C 
BRANCH   2   4
ATOM      4  C   UNL     1       4.391   1.776  -3.982  1.00  0.00    -0.045 A 
ATOM      5  C   UNL     1       5.142  -2.156  -2.361  1.00  0.00     0.044 C 
ATOM      6  C   UNL     1       4.870  -0.804  -2.949  1.00  0.00    -0.051 A 
ATOM      7  C   UNL     1       3.645  -0.165  -2.713  1.00  0.00     0.004 A 
ATOM      8  C   UNL     1       5.863  -0.138  -3.682  1.00  0.00     0.004 A 
ATOM      9  C   UNL     1       3.403   1.111  -3.231  1.00  0.00     0.004 A 
ATOM     10  C   UNL     1       5.624   1.137  -4.200  1.00  0.00     0.004 A 
ENDBRANCH   2   4
ENDBRANCH   1   2
BRANCH   1  11
ATOM     11  C   UNL     1       5.463   3.920  -6.613  1.00  0.00     0.028 C 
BRANCH  11  12
ATOM     12  C   UNL     1       6.010   4.829  -5.541  1.00  0.00    -0.028 C 
ATOM     13  C   UNL     1       7.247   4.720  -5.006  1.00  0.00    -0.080 C 
ATOM     14  C   UNL     1       8.198   3.616  -5.405  1.00  0.00     0.039 C 
ATOM     15  C   UNL     1       7.672   5.728  -3.970  1.00  0.00     0.039 C 
ENDBRANCH  11  12
ENDBRANCH   1  11
TORSDOF 4
ENDMDL
MODEL 5
REMARK VINA RESULT:    -5.135      1.054      1.788
REMARK INTER + INTRA:          -7.146
REMARK INTER:                  -6.454
REMARK INTRA:                  -0.691
REMARK UNBOUND:                -0.810
REMARK SMILES CC(C)=CCC[C@@H](C)c1ccc(C)cc1
REMARK SMILES IDX 6 1 7 2 8 3 9 4 13 5 12 6 11 7 14 8 10 9 15 10 5 11 4 12
REMARK SMILES IDX 2 13 1 14 3 15
REMARK H PARENT
REMARK Flexibility Score: inf
ROOT
ATOM      1  C   UNL     1       4.867  -0.203  -4.363  1.00  0.00     0.012 C 
ENDROOT
BRANCH   1   2
ATOM      2  C   UNL     1       4.176  -0.156  -2.982  1.00  0.00     0.016 C 
ATOM      3  C   UNL     1       2.994   0.825  -2.954  1.00  0.00     0.013 C 
BRANCH   2   4
ATOM      4  C   UNL     1       3.722  -1.544  -2.569  1.00  0.00    -0.045 A 
ATOM      5  C   UNL     1       2.453  -5.495  -1.371  1.00  0.00     0.044 C 
ATOM      6  C   UNL     1       2.903  -4.135  -1.814  1.00  0.00    -0.051 A 
ATOM      7  C   UNL     1       2.026  -3.292  -2.510  1.00  0.00     0.004 A 
ATOM      8  C   UNL     1       4.182  -3.669  -1.476  1.00  0.00     0.004 A 
ATOM      9  C   UNL     1       2.433  -2.010  -2.891  1.00  0.00     0.004 A 
ATOM     10  C   UNL     1       4.591  -2.388  -1.856  1.00  0.00     0.004 A 
ENDBRANCH   2   4
ENDBRANCH   1   2
BRANCH   1  11
ATOM     11  C   UNL     1       5.782   1.006  -4.609  1.00  0.00     0.028 C 
BRANCH  11  12
ATOM     12  C   UNL     1       5.264   1.843  -5.751  1.00  0.00    -0.028 C 
ATOM     13  C   UNL     1       4.736   3.080  -5.614  1.00  0.00    -0.080 C 
ATOM     14  C   UNL     1       4.562   3.731  -4.261  1.00  0.00     0.039 C 
ATOM     15  C   UNL     1       4.297   3.816  -6.854  1.00  0.00     0.039 C 
ENDBRANCH  11  12
ENDBRANCH   1  11
TORSDOF 4
ENDMDL
MODEL 6
REMARK VINA RESULT:    -5.030      2.662      6.639
REMARK INTER + INTRA:          -7.016
REMARK INTER:                  -5.844
REMARK INTRA:                  -1.173
REMARK UNBOUND:                -0.810
REMARK SMILES CC(C)=CCC[C@@H](C)c1ccc(C)cc1
REMARK SMILES IDX 6 1 7 2 8 3 9 4 13 5 12 6 11 7 14 8 10 9 15 10 5 11 4 12
REMARK SMILES IDX 2 13 1 14 3 15
REMARK H PARENT
REMARK Flexibility Score: inf
ROOT
ATOM      1  C   UNL     1       4.487   1.891  -3.358  1.00  0.00     0.012 C 
ENDROOT
BRANCH   1   2
ATOM      2  C   UNL     1       3.732   2.628  -4.487  1.00  0.00     0.016 C 
ATOM      3  C   UNL     1       2.618   3.538  -3.947  1.00  0.00     0.013 C 
BRANCH   2   4
ATOM      4  C   UNL     1       4.701   3.427  -5.339  1.00  0.00    -0.045 A 
ATOM      5  C   UNL     1       7.484   5.698  -7.739  1.00  0.00     0.044 C 
ATOM      6  C   UNL     1       6.500   4.935  -6.902  1.00  0.00    -0.051 A 
ATOM      7  C   UNL     1       5.416   4.281  -7.505  1.00  0.00     0.004 A 
ATOM      8  C   UNL     1       6.695   4.811  -5.519  1.00  0.00     0.004 A 
ATOM      9  C   UNL     1       4.520   3.540  -6.731  1.00  0.00     0.004 A 
ATOM     10  C   UNL     1       5.800   4.070  -4.743  1.00  0.00     0.004 A 
ENDBRANCH   2   4
ENDBRANCH   1   2
BRANCH   1  11
ATOM     11  C   UNL     1       4.534   0.371  -3.570  1.00  0.00     0.028 C 
BRANCH  11  12
ATOM     12  C   UNL     1       4.409   0.032  -5.034  1.00  0.00    -0.028 C 
ATOM     13  C   UNL     1       5.454  -0.073  -5.886  1.00  0.00    -0.080 C 
ATOM     14  C   UNL     1       6.874   0.201  -5.448  1.00  0.00     0.039 C 
ATOM     15  C   UNL     1       5.179  -0.460  -7.316  1.00  0.00     0.039 C 
ENDBRANCH  11  12
ENDBRANCH   1  11
TORSDOF 4
ENDMDL
MODEL 7
REMARK VINA RESULT:    -4.966      1.698      6.901
REMARK INTER + INTRA:          -6.937
REMARK INTER:                  -6.360
REMARK INTRA:                  -0.577
REMARK UNBOUND:                -0.810
REMARK SMILES CC(C)=CCC[C@@H](C)c1ccc(C)cc1
REMARK SMILES IDX 6 1 7 2 8 3 9 4 13 5 12 6 11 7 14 8 10 9 15 10 5 11 4 12
REMARK SMILES IDX 2 13 1 14 3 15
REMARK H PARENT
REMARK Flexibility Score: inf
ROOT
ATOM      1  C   UNL     1       4.087   1.561  -3.223  1.00  0.00     0.012 C 
ENDROOT
BRANCH   1   2
ATOM      2  C   UNL     1       3.873   2.617  -4.332  1.00  0.00     0.016 C 
ATOM      3  C   UNL     1       2.657   3.514  -4.056  1.00  0.00     0.013 C 
BRANCH   2   4
ATOM      4  C   UNL     1       5.123   3.460  -4.510  1.00  0.00    -0.045 A 
ATOM      5  C   UNL     1       8.689   5.837  -5.043  1.00  0.00     0.044 C 
ATOM      6  C   UNL     1       7.462   5.002  -4.831  1.00  0.00    -0.051 A 
ATOM      7  C   UNL     1       6.340   5.545  -4.189  1.00  0.00     0.004 A 
ATOM      8  C   UNL     1       7.401   3.694  -5.333  1.00  0.00     0.004 A 
ATOM      9  C   UNL     1       5.182   4.779  -4.023  1.00  0.00     0.004 A 
ATOM     10  C   UNL     1       6.245   2.927  -5.168  1.00  0.00     0.004 A 
ENDBRANCH   2   4
ENDBRANCH   1   2
BRANCH   1  11
ATOM     11  C   UNL     1       4.079   0.124  -3.764  1.00  0.00     0.028 C 
BRANCH  11  12
ATOM     12  C   UNL     1       4.293  -0.867  -2.648  1.00  0.00    -0.028 C 
ATOM     13  C   UNL     1       5.416  -1.602  -2.483  1.00  0.00    -0.080 C 
ATOM     14  C   UNL     1       6.567  -1.535  -3.460  1.00  0.00     0.039 C 
ATOM     15  C   UNL     1       5.504  -2.523  -1.293  1.00  0.00     0.039 C 
ENDBRANCH  11  12
ENDBRANCH   1  11
TORSDOF 4
ENDMDL
MODEL 8
REMARK VINA RESULT:    -4.918      2.628      6.434
REMARK INTER + INTRA:          -6.878
REMARK INTER:                  -6.059
REMARK INTRA:                  -0.819
REMARK UNBOUND:                -0.810
REMARK SMILES CC(C)=CCC[C@@H](C)c1ccc(C)cc1
REMARK SMILES IDX 6 1 7 2 8 3 9 4 13 5 12 6 11 7 14 8 10 9 15 10 5 11 4 12
REMARK SMILES IDX 2 13 1 14 3 15
REMARK H PARENT
REMARK Flexibility Score: inf
ROOT
ATOM      1  C   UNL     1       7.336  -1.643  -3.295  1.00  0.00     0.012 C 
ENDROOT
BRANCH   1   2
ATOM      2  C   UNL     1       5.825  -1.782  -3.002  1.00  0.00     0.016 C 
ATOM      3  C   UNL     1       5.550  -2.230  -1.558  1.00  0.00     0.013 C 
BRANCH   2   4
ATOM      4  C   UNL     1       5.106  -0.479  -3.298  1.00  0.00    -0.045 A 
ATOM      5  C   UNL     1       3.037   3.224  -4.114  1.00  0.00     0.044 C 
ATOM      6  C   UNL     1       3.744   1.926  -3.857  1.00  0.00    -0.051 A 
ATOM      7  C   UNL     1       5.046   1.724  -4.335  1.00  0.00     0.004 A 
ATOM      8  C   UNL     1       3.135   0.932  -3.078  1.00  0.00     0.004 A 
ATOM      9  C   UNL     1       5.719   0.530  -4.065  1.00  0.00     0.004 A 
ATOM     10  C   UNL     1       3.806  -0.263  -2.806  1.00  0.00     0.004 A 
ENDBRANCH   2   4
ENDBRANCH   1   2
BRANCH   1  11
ATOM     11  C   UNL     1       8.102  -2.959  -3.092  1.00  0.00     0.028 C 
BRANCH  11  12
ATOM     12  C   UNL     1       7.838  -3.912  -4.230  1.00  0.00    -0.028 C 
ATOM     13  C   UNL     1       7.174  -5.083  -4.107  1.00  0.00    -0.080 C 
ATOM     14  C   UNL     1       6.672  -5.582  -2.772  1.00  0.00     0.039 C 
ATOM     15  C   UNL     1       6.948  -5.914  -5.344  1.00  0.00     0.039 C 
ENDBRANCH  11  12
ENDBRANCH   1  11
TORSDOF 4
ENDMDL
MODEL 9
REMARK VINA RESULT:    -4.908      1.956      6.000
REMARK INTER + INTRA:          -6.866
REMARK INTER:                  -5.979
REMARK INTRA:                  -0.887
REMARK UNBOUND:                -0.810
REMARK SMILES CC(C)=CCC[C@@H](C)c1ccc(C)cc1
REMARK SMILES IDX 6 1 7 2 8 3 9 4 13 5 12 6 11 7 14 8 10 9 15 10 5 11 4 12
REMARK SMILES IDX 2 13 1 14 3 15
REMARK H PARENT
REMARK Flexibility Score: inf
ROOT
ATOM      1  C   UNL     1       3.729   3.108  -4.576  1.00  0.00     0.012 C 
ENDROOT
BRANCH   1   2
ATOM      2  C   UNL     1       4.880   3.410  -5.561  1.00  0.00     0.016 C 
ATOM      3  C   UNL     1       6.248   3.460  -4.864  1.00  0.00     0.013 C 
BRANCH   2   4
ATOM      4  C   UNL     1       4.896   2.390  -6.685  1.00  0.00    -0.045 A 
ATOM      5  C   UNL     1       4.944  -0.487  -9.907  1.00  0.00     0.044 C 
ATOM      6  C   UNL     1       4.898   0.504  -8.782  1.00  0.00    -0.051 A 
ATOM      7  C   UNL     1       5.296   0.126  -7.491  1.00  0.00     0.004 A 
ATOM      8  C   UNL     1       4.524   1.833  -9.025  1.00  0.00     0.004 A 
ATOM      9  C   UNL     1       5.288   1.058  -6.450  1.00  0.00     0.004 A 
ATOM     10  C   UNL     1       4.516   2.766  -7.985  1.00  0.00     0.004 A 
ENDBRANCH   2   4
ENDBRANCH   1   2
BRANCH   1  11
ATOM     11  C   UNL     1       4.159   2.183  -3.427  1.00  0.00     0.028 C 
BRANCH  11  12
ATOM     12  C   UNL     1       3.205   1.023  -3.291  1.00  0.00    -0.028 C 
ATOM     13  C   UNL     1       3.586  -0.265  -3.139  1.00  0.00    -0.080 C 
ATOM     14  C   UNL     1       5.040  -0.676  -3.146  1.00  0.00     0.039 C 
ATOM     15  C   UNL     1       2.518  -1.315  -2.972  1.00  0.00     0.039 C 
ENDBRANCH  11  12
ENDBRANCH   1  11
TORSDOF 4
ENDMDL
