MODEL 1
REMARK VINA RESULT:    -2.538      0.000      0.000
REMARK INTER + INTRA:          -2.538
REMARK INTER:                  -2.538
REMARK INTRA:                   0.000
REMARK UNBOUND:                 0.000
REMARK SMILES CC1=CC[C@H]2C[C@@H]1C2(C)C
REMARK SMILES IDX 1 1 2 2 3 3 4 4 5 5 6 6 7 7 8 8 9 9 10 10
REMARK H PARENT
REMARK Flexibility Score: inf
ROOT
ATOM      1  C   UNL     1     164.836 158.137 142.207  1.00  0.00     0.039 C 
ATOM      2  C   UNL     1     164.842 157.432 140.884  1.00  0.00    -0.074 C 
ATOM      3  C   UNL     1     165.826 156.543 140.556  1.00  0.00    -0.027 C 
ATOM      4  C   UNL     1     165.788 155.875 139.167  1.00  0.00     0.031 C 
ATOM      5  C   UNL     1     164.520 156.350 138.377  1.00  0.00    -0.000 C 
ATOM      6  C   UNL     1     163.344 156.242 139.368  1.00  0.00     0.013 C 
ATOM      7  C   UNL     1     163.736 157.655 139.843  1.00  0.00     0.021 C 
ATOM      8  C   UNL     1     164.382 157.895 138.452  1.00  0.00    -0.026 C 
ATOM      9  C   UNL     1     165.672 158.762 138.377  1.00  0.00     0.012 C 
ATOM     10  C   UNL     1     163.367 158.444 137.419  1.00  0.00     0.012 C 
ENDROOT
TORSDOF 0
ENDMDL
MODEL 2
REMARK VINA RESULT:    -2.527     16.141     17.738
REMARK INTER + INTRA:          -2.527
REMARK INTER:                  -2.527
REMARK INTRA:                   0.000
REMARK UNBOUND:                 0.000
REMARK SMILES CC1=CC[C@H]2C[C@@H]1C2(C)C
REMARK SMILES IDX 1 1 2 2 3 3 4 4 5 5 6 6 7 7 8 8 9 9 10 10
REMARK H PARENT
REMARK Flexibility Score: inf
ROOT
ATOM      1  C   UNL     1     167.123 173.863 142.216  1.00  0.00     0.039 C 
ATOM      2  C   UNL     1     167.131 174.567 140.892  1.00  0.00    -0.074 C 
ATOM      3  C   UNL     1     166.153 175.458 140.554  1.00  0.00    -0.027 C 
ATOM      4  C   UNL     1     166.207 176.125 139.165  1.00  0.00     0.031 C 
ATOM      5  C   UNL     1     167.480 175.644 138.386  1.00  0.00    -0.000 C 
ATOM      6  C   UNL     1     168.647 175.749 139.389  1.00  0.00     0.013 C 
ATOM      7  C   UNL     1     168.245 174.339 139.862  1.00  0.00     0.021 C 
ATOM      8  C   UNL     1     167.612 174.099 138.465  1.00  0.00    -0.026 C 
ATOM      9  C   UNL     1     166.320 173.237 138.379  1.00  0.00     0.012 C 
ATOM     10  C   UNL     1     168.634 173.545 137.442  1.00  0.00     0.012 C 
ENDROOT
TORSDOF 0
ENDMDL
MODEL 3
REMARK VINA RESULT:    -2.338     16.171     17.838
REMARK INTER + INTRA:          -2.338
REMARK INTER:                  -2.338
REMARK INTRA:                   0.000
REMARK UNBOUND:                 0.000
REMARK SMILES CC1=CC[C@H]2C[C@@H]1C2(C)C
REMARK SMILES IDX 1 1 2 2 3 3 4 4 5 5 6 6 7 7 8 8 9 9 10 10
REMARK H PARENT
REMARK Flexibility Score: inf
ROOT
ATOM      1  C   UNL     1     166.209 172.562 137.789  1.00  0.00     0.039 C 
ATOM      2  C   UNL     1     166.710 173.826 138.421  1.00  0.00    -0.074 C 
ATOM      3  C   UNL     1     167.888 174.397 138.034  1.00  0.00    -0.027 C 
ATOM      4  C   UNL     1     168.358 175.681 138.746  1.00  0.00     0.031 C 
ATOM      5  C   UNL     1     167.297 176.124 139.812  1.00  0.00    -0.000 C 
ATOM      6  C   UNL     1     165.931 176.036 139.103  1.00  0.00     0.013 C 
ATOM      7  C   UNL     1     165.916 174.552 139.516  1.00  0.00     0.021 C 
ATOM      8  C   UNL     1     166.870 174.913 140.686  1.00  0.00    -0.026 C 
ATOM      9  C   UNL     1     167.952 173.878 141.103  1.00  0.00     0.012 C 
ATOM     10  C   UNL     1     166.101 175.352 141.958  1.00  0.00     0.012 C 
ENDROOT
TORSDOF 0
ENDMDL
MODEL 4
REMARK VINA RESULT:    -2.248      0.929      3.283
REMARK INTER + INTRA:          -2.248
REMARK INTER:                  -2.248
REMARK INTRA:                   0.000
REMARK UNBOUND:                 0.000
REMARK SMILES CC1=CC[C@H]2C[C@@H]1C2(C)C
REMARK SMILES IDX 1 1 2 2 3 3 4 4 5 5 6 6 7 7 8 8 9 9 10 10
REMARK H PARENT
REMARK Flexibility Score: inf
ROOT
ATOM      1  C   UNL     1     165.992 159.443 137.944  1.00  0.00     0.039 C 
ATOM      2  C   UNL     1     165.427 158.187 138.537  1.00  0.00    -0.074 C 
ATOM      3  C   UNL     1     164.211 157.700 138.148  1.00  0.00    -0.027 C 
ATOM      4  C   UNL     1     163.677 156.419 138.820  1.00  0.00     0.031 C 
ATOM      5  C   UNL     1     164.725 155.875 139.851  1.00  0.00    -0.000 C 
ATOM      6  C   UNL     1     166.084 155.911 139.123  1.00  0.00     0.013 C 
ATOM      7  C   UNL     1     166.191 157.375 139.592  1.00  0.00     0.021 C 
ATOM      8  C   UNL     1     165.235 157.025 140.762  1.00  0.00    -0.026 C 
ATOM      9  C   UNL     1     164.221 158.105 141.235  1.00  0.00     0.012 C 
ATOM     10  C   UNL     1     165.994 156.494 142.004  1.00  0.00     0.012 C 
ENDROOT
TORSDOF 0
ENDMDL
MODEL 5
REMARK VINA RESULT:    -2.072     15.896     17.117
REMARK INTER + INTRA:          -2.072
REMARK INTER:                  -2.072
REMARK INTRA:                   0.000
REMARK UNBOUND:                 0.000
REMARK SMILES CC1=CC[C@H]2C[C@@H]1C2(C)C
REMARK SMILES IDX 1 1 2 2 3 3 4 4 5 5 6 6 7 7 8 8 9 9 10 10
REMARK H PARENT
REMARK Flexibility Score: inf
ROOT
ATOM      1  C   UNL     1     165.186 173.203 138.898  1.00  0.00     0.039 C 
ATOM      2  C   UNL     1     166.545 173.824 139.015  1.00  0.00    -0.074 C 
ATOM      3  C   UNL     1     166.761 175.132 138.690  1.00  0.00    -0.027 C 
ATOM      4  C   UNL     1     168.190 175.699 138.806  1.00  0.00     0.031 C 
ATOM      5  C   UNL     1     169.163 174.597 139.350  1.00  0.00    -0.000 C 
ATOM      6  C   UNL     1     168.438 173.956 140.551  1.00  0.00     0.013 C 
ATOM      7  C   UNL     1     167.756 173.030 139.525  1.00  0.00     0.021 C 
ATOM      8  C   UNL     1     168.961 173.266 138.575  1.00  0.00    -0.026 C 
ATOM      9  C   UNL     1     168.694 173.330 137.045  1.00  0.00     0.012 C 
ATOM     10  C   UNL     1     170.114 172.262 138.826  1.00  0.00     0.012 C 
ENDROOT
TORSDOF 0
ENDMDL
MODEL 6
REMARK VINA RESULT:    -2.035      1.351      2.444
REMARK INTER + INTRA:          -2.035
REMARK INTER:                  -2.035
REMARK INTRA:                   0.000
REMARK UNBOUND:                 0.000
REMARK SMILES CC1=CC[C@H]2C[C@@H]1C2(C)C
REMARK SMILES IDX 1 1 2 2 3 3 4 4 5 5 6 6 7 7 8 8 9 9 10 10
REMARK H PARENT
REMARK Flexibility Score: inf
ROOT
ATOM      1  C   UNL     1     166.670 158.915 138.788  1.00  0.00     0.039 C 
ATOM      2  C   UNL     1     165.322 158.270 138.915  1.00  0.00    -0.074 C 
ATOM      3  C   UNL     1     165.123 156.963 138.575  1.00  0.00    -0.027 C 
ATOM      4  C   UNL     1     163.705 156.372 138.704  1.00  0.00     0.031 C 
ATOM      5  C   UNL     1     162.722 157.450 139.278  1.00  0.00    -0.000 C 
ATOM      6  C   UNL     1     163.454 158.088 140.476  1.00  0.00     0.013 C 
ATOM      7  C   UNL     1     164.106 159.038 139.453  1.00  0.00     0.021 C 
ATOM      8  C   UNL     1     162.892 158.795 138.518  1.00  0.00    -0.026 C 
ATOM      9  C   UNL     1     163.138 158.757 136.983  1.00  0.00     0.012 C 
ATOM     10  C   UNL     1     161.727 159.777 138.799  1.00  0.00     0.012 C 
ENDROOT
TORSDOF 0
ENDMDL
MODEL 7
REMARK VINA RESULT:    -2.005      1.177      2.105
REMARK INTER + INTRA:          -2.005
REMARK INTER:                  -2.005
REMARK INTRA:                   0.000
REMARK UNBOUND:                 0.000
REMARK SMILES CC1=CC[C@H]2C[C@@H]1C2(C)C
REMARK SMILES IDX 1 1 2 2 3 3 4 4 5 5 6 6 7 7 8 8 9 9 10 10
REMARK H PARENT
REMARK Flexibility Score: inf
ROOT
ATOM      1  C   UNL     1     165.920 156.144 141.217  1.00  0.00     0.039 C 
ATOM      2  C   UNL     1     165.340 156.955 140.098  1.00  0.00    -0.074 C 
ATOM      3  C   UNL     1     166.110 157.813 139.366  1.00  0.00    -0.027 C 
ATOM      4  C   UNL     1     165.442 158.638 138.248  1.00  0.00     0.031 C 
ATOM      5  C   UNL     1     163.922 158.271 138.142  1.00  0.00    -0.000 C 
ATOM      6  C   UNL     1     163.862 156.730 138.168  1.00  0.00     0.013 C 
ATOM      7  C   UNL     1     163.859 156.848 139.704  1.00  0.00     0.021 C 
ATOM      8  C   UNL     1     163.266 158.274 139.550  1.00  0.00    -0.026 C 
ATOM      9  C   UNL     1     163.696 159.367 140.569  1.00  0.00     0.012 C 
ATOM     10  C   UNL     1     161.718 158.262 139.475  1.00  0.00     0.012 C 
ENDROOT
TORSDOF 0
ENDMDL
MODEL 8
REMARK VINA RESULT:    -1.959     15.836     17.017
REMARK INTER + INTRA:          -1.959
REMARK INTER:                  -1.959
REMARK INTRA:                   0.000
REMARK UNBOUND:                 0.000
REMARK SMILES CC1=CC[C@H]2C[C@@H]1C2(C)C
REMARK SMILES IDX 1 1 2 2 3 3 4 4 5 5 6 6 7 7 8 8 9 9 10 10
REMARK H PARENT
REMARK Flexibility Score: inf
ROOT
ATOM      1  C   UNL     1     169.998 172.190 140.738  1.00  0.00     0.039 C 
ATOM      2  C   UNL     1     169.033 172.851 139.801  1.00  0.00    -0.074 C 
ATOM      3  C   UNL     1     169.240 172.855 138.451  1.00  0.00    -0.027 C 
ATOM      4  C   UNL     1     168.222 173.577 137.547  1.00  0.00     0.031 C 
ATOM      5  C   UNL     1     167.055 174.164 138.413  1.00  0.00    -0.000 C 
ATOM      6  C   UNL     1     166.636 173.032 139.373  1.00  0.00     0.013 C 
ATOM      7  C   UNL     1     167.754 173.536 140.306  1.00  0.00     0.021 C 
ATOM      8  C   UNL     1     167.623 174.931 139.639  1.00  0.00    -0.026 C 
ATOM      9  C   UNL     1     168.909 175.784 139.452  1.00  0.00     0.012 C 
ATOM     10  C   UNL     1     166.551 175.813 140.327  1.00  0.00     0.012 C 
ENDROOT
TORSDOF 0
ENDMDL
