MODEL 1
REMARK VINA RESULT:    -2.475      0.000      0.000
REMARK INTER + INTRA:          -2.772
REMARK INTER:                  -2.764
REMARK INTRA:                  -0.007
REMARK UNBOUND:                -0.007
REMARK SMILES CCCC(=O)[O-]
REMARK SMILES IDX 3 1 4 2 5 3 6 4 2 5 1 6
REMARK H PARENT
REMARK Flexibility Score: inf
ROOT
ATOM      1  C   UNL     1      -1.304 -10.658  40.887  1.00  0.00     0.052 C 
ENDROOT
BRANCH   1   2
ATOM      2  C   UNL     1      -1.604 -11.455  42.118  1.00  0.00     0.041 C 
ATOM      3  O   UNL     1      -2.796 -11.635  42.480  1.00  0.00    -0.550 OA
ATOM      4  O   UNL     1      -0.566 -11.957  42.891  1.00  0.00    -0.550 OA
ENDBRANCH   1   2
BRANCH   1   5
ATOM      5  C   UNL     1      -2.101  -9.352  40.886  1.00  0.00     0.003 C 
ATOM      6  C   UNL     1      -1.348  -8.247  40.150  1.00  0.00     0.004 C 
ENDBRANCH   1   5
TORSDOF 2
ENDMDL
MODEL 2
REMARK VINA RESULT:    -2.454      1.675      2.036
REMARK INTER + INTRA:          -2.749
REMARK INTER:                  -2.710
REMARK INTRA:                  -0.038
REMARK UNBOUND:                -0.007
REMARK SMILES CCCC(=O)[O-]
REMARK SMILES IDX 3 1 4 2 5 3 6 4 2 5 1 6
REMARK H PARENT
REMARK Flexibility Score: inf
ROOT
ATOM      1  C   UNL     1      -2.022  -9.437  40.821  1.00  0.00     0.052 C 
ENDROOT
BRANCH   1   2
ATOM      2  C   UNL     1      -1.159 -10.653  40.700  1.00  0.00     0.041 C 
ATOM      3  O   UNL     1      -1.241 -11.576  41.553  1.00  0.00    -0.550 OA
ATOM      4  O   UNL     1      -0.230 -10.747  39.673  1.00  0.00    -0.550 OA
ENDBRANCH   1   2
BRANCH   1   5
ATOM      5  C   UNL     1      -1.368  -8.243  40.122  1.00  0.00     0.003 C 
ATOM      6  C   UNL     1      -2.191  -7.791  38.919  1.00  0.00     0.004 C 
ENDBRANCH   1   5
TORSDOF 2
ENDMDL
MODEL 3
REMARK VINA RESULT:    -2.433      0.163      1.328
REMARK INTER + INTRA:          -2.725
REMARK INTER:                  -2.718
REMARK INTRA:                  -0.007
REMARK UNBOUND:                -0.007
REMARK SMILES CCCC(=O)[O-]
REMARK SMILES IDX 3 1 4 2 5 3 6 4 2 5 1 6
REMARK H PARENT
REMARK Flexibility Score: inf
ROOT
ATOM      1  C   UNL     1      -1.346 -10.621  40.784  1.00  0.00     0.052 C 
ENDROOT
BRANCH   1   2
ATOM      2  C   UNL     1      -1.632 -11.383  42.040  1.00  0.00     0.041 C 
ATOM      3  O   UNL     1      -0.695 -11.943  42.668  1.00  0.00    -0.550 OA
ATOM      4  O   UNL     1      -2.939 -11.517  42.489  1.00  0.00    -0.550 OA
ENDBRANCH   1   2
BRANCH   1   5
ATOM      5  C   UNL     1      -2.173  -9.335  40.738  1.00  0.00     0.003 C 
ATOM      6  C   UNL     1      -1.380  -8.192  40.111  1.00  0.00     0.004 C 
ENDBRANCH   1   5
TORSDOF 2
ENDMDL
MODEL 4
REMARK VINA RESULT:    -2.424      1.727      2.384
REMARK INTER + INTRA:          -2.715
REMARK INTER:                  -2.706
REMARK INTRA:                  -0.008
REMARK UNBOUND:                -0.007
REMARK SMILES CCCC(=O)[O-]
REMARK SMILES IDX 3 1 4 2 5 3 6 4 2 5 1 6
REMARK H PARENT
REMARK Flexibility Score: inf
ROOT
ATOM      1  C   UNL     1      -2.807 -11.206  42.274  1.00  0.00     0.052 C 
ENDROOT
BRANCH   1   2
ATOM      2  C   UNL     1      -1.363 -11.442  41.959  1.00  0.00     0.041 C 
ATOM      3  O   UNL     1      -0.614 -12.001  42.803  1.00  0.00    -0.550 OA
ATOM      4  O   UNL     1      -0.833 -11.002  40.753  1.00  0.00    -0.550 OA
ENDBRANCH   1   2
BRANCH   1   5
ATOM      5  C   UNL     1      -3.318  -9.963  41.542  1.00  0.00     0.003 C 
ATOM      6  C   UNL     1      -4.744  -9.621  41.965  1.00  0.00     0.004 C 
ENDBRANCH   1   5
TORSDOF 2
ENDMDL
MODEL 5
REMARK VINA RESULT:    -2.394      2.047      3.799
REMARK INTER + INTRA:          -2.682
REMARK INTER:                  -2.677
REMARK INTRA:                  -0.005
REMARK UNBOUND:                -0.007
REMARK SMILES CCCC(=O)[O-]
REMARK SMILES IDX 3 1 4 2 5 3 6 4 2 5 1 6
REMARK H PARENT
REMARK Flexibility Score: inf
ROOT
ATOM      1  C   UNL     1      -1.279 -12.177  42.482  1.00  0.00     0.052 C 
ENDROOT
BRANCH   1   2
ATOM      2  C   UNL     1      -1.436 -11.008  41.562  1.00  0.00     0.041 C 
ATOM      3  O   UNL     1      -0.705 -10.901  40.543  1.00  0.00    -0.550 OA
ATOM      4  O   UNL     1      -2.356 -10.010  41.857  1.00  0.00    -0.550 OA
ENDBRANCH   1   2
BRANCH   1   5
ATOM      5  C   UNL     1      -2.398 -13.195  42.251  1.00  0.00     0.003 C 
ATOM      6  C   UNL     1      -2.123 -14.496  43.000  1.00  0.00     0.004 C 
ENDBRANCH   1   5
TORSDOF 2
ENDMDL
MODEL 6
REMARK VINA RESULT:    -2.314      2.587      3.598
REMARK INTER + INTRA:          -2.592
REMARK INTER:                  -2.556
REMARK INTRA:                  -0.036
REMARK UNBOUND:                -0.007
REMARK SMILES CCCC(=O)[O-]
REMARK SMILES IDX 3 1 4 2 5 3 6 4 2 5 1 6
REMARK H PARENT
REMARK Flexibility Score: inf
ROOT
ATOM      1  C   UNL     1      -1.977  -9.871  41.463  1.00  0.00     0.052 C 
ENDROOT
BRANCH   1   2
ATOM      2  C   UNL     1      -1.389  -9.183  40.271  1.00  0.00     0.041 C 
ATOM      3  O   UNL     1      -0.503  -9.755  39.583  1.00  0.00    -0.550 OA
ATOM      4  O   UNL     1      -1.783  -7.891  39.950  1.00  0.00    -0.550 OA
ENDBRANCH   1   2
BRANCH   1   5
ATOM      5  C   UNL     1      -1.695 -11.374  41.407  1.00  0.00     0.003 C 
ATOM      6  C   UNL     1      -0.935 -11.838  42.646  1.00  0.00     0.004 C 
ENDBRANCH   1   5
TORSDOF 2
ENDMDL
MODEL 7
REMARK VINA RESULT:    -2.245      9.125      9.891
REMARK INTER + INTRA:          -2.515
REMARK INTER:                  -2.445
REMARK INTRA:                  -0.071
REMARK UNBOUND:                -0.007
REMARK SMILES CCCC(=O)[O-]
REMARK SMILES IDX 3 1 4 2 5 3 6 4 2 5 1 6
REMARK H PARENT
REMARK Flexibility Score: inf
ROOT
ATOM      1  C   UNL     1      -4.476  -5.384  33.441  1.00  0.00     0.052 C 
ENDROOT
BRANCH   1   2
ATOM      2  C   UNL     1      -4.164  -4.498  34.605  1.00  0.00     0.041 C 
ATOM      3  O   UNL     1      -3.812  -3.304  34.415  1.00  0.00    -0.550 OA
ATOM      4  O   UNL     1      -4.214  -5.003  35.897  1.00  0.00    -0.550 OA
ENDBRANCH   1   2
BRANCH   1   5
ATOM      5  C   UNL     1      -3.239  -5.566  32.558  1.00  0.00     0.003 C 
ATOM      6  C   UNL     1      -2.123  -6.280  33.315  1.00  0.00     0.004 C 
ENDBRANCH   1   5
TORSDOF 2
ENDMDL
MODEL 8
REMARK VINA RESULT:    -2.132      9.359     10.057
REMARK INTER + INTRA:          -2.389
REMARK INTER:                  -2.318
REMARK INTRA:                  -0.071
REMARK UNBOUND:                -0.007
REMARK SMILES CCCC(=O)[O-]
REMARK SMILES IDX 3 1 4 2 5 3 6 4 2 5 1 6
REMARK H PARENT
REMARK Flexibility Score: inf
ROOT
ATOM      1  C   UNL     1      -3.633  -4.042  34.036  1.00  0.00     0.052 C 
ENDROOT
BRANCH   1   2
ATOM      2  C   UNL     1      -3.114  -5.309  33.434  1.00  0.00     0.041 C 
ATOM      3  O   UNL     1      -2.590  -6.190  34.166  1.00  0.00    -0.550 OA
ATOM      4  O   UNL     1      -3.164  -5.498  32.059  1.00  0.00    -0.550 OA
ENDBRANCH   1   2
BRANCH   1   5
ATOM      5  C   UNL     1      -4.717  -4.346  35.073  1.00  0.00     0.003 C 
ATOM      6  C   UNL     1      -5.952  -4.958  34.416  1.00  0.00     0.004 C 
ENDBRANCH   1   5
TORSDOF 2
ENDMDL
