MODEL 1
REMARK VINA RESULT:    -4.526      0.000      0.000
REMARK INTER + INTRA:          -4.813
REMARK INTER:                  -4.790
REMARK INTRA:                  -0.023
REMARK UNBOUND:                -0.023
REMARK SMILES O=C([O-])c1cccnc1
REMARK SMILES IDX 4 1 5 2 9 3 6 4 8 5 7 6 2 7 1 8 3 9
REMARK H PARENT
REMARK Flexibility Score: inf
ROOT
ATOM      1  C   UNL     1      -5.401  36.579  21.955  1.00  0.00     0.016 A 
ATOM      2  C   UNL     1      -5.837  35.411  22.603  1.00  0.00     0.013 A 
ATOM      3  C   UNL     1      -5.007  37.673  22.745  1.00  0.00     0.120 A 
ATOM      4  C   UNL     1      -5.870  35.354  23.998  1.00  0.00     0.021 A 
ATOM      5  N   UNL     1      -5.048  37.591  24.102  1.00  0.00    -0.264 NA
ATOM      6  C   UNL     1      -5.468  36.466  24.738  1.00  0.00     0.111 A 
ENDROOT
BRANCH   1   7
ATOM      7  C   UNL     1      -5.359  36.661  20.480  1.00  0.00     0.073 C 
ATOM      8  O   UNL     1      -5.279  37.777  19.902  1.00  0.00    -0.545 OA
ATOM      9  O   UNL     1      -5.410  35.504  19.709  1.00  0.00    -0.545 OA
ENDBRANCH   1   7
TORSDOF 1
ENDMDL
MODEL 2
REMARK VINA RESULT:    -4.444      2.964      4.076
REMARK INTER + INTRA:          -4.727
REMARK INTER:                  -4.705
REMARK INTRA:                  -0.022
REMARK UNBOUND:                -0.023
REMARK SMILES O=C([O-])c1cccnc1
REMARK SMILES IDX 4 1 5 2 9 3 6 4 8 5 7 6 2 7 1 8 3 9
REMARK H PARENT
REMARK Flexibility Score: inf
ROOT
ATOM      1  C   UNL     1      -5.337  36.778  23.180  1.00  0.00     0.016 A 
ATOM      2  C   UNL     1      -4.967  38.023  22.645  1.00  0.00     0.013 A 
ATOM      3  C   UNL     1      -5.657  35.738  22.291  1.00  0.00     0.120 A 
ATOM      4  C   UNL     1      -4.924  38.206  21.261  1.00  0.00     0.021 A 
ATOM      5  N   UNL     1      -5.607  35.942  20.948  1.00  0.00    -0.264 NA
ATOM      6  C   UNL     1      -5.251  37.143  20.420  1.00  0.00     0.111 A 
ENDROOT
BRANCH   1   7
ATOM      7  C   UNL     1      -5.390  36.563  24.642  1.00  0.00     0.073 C 
ATOM      8  O   UNL     1      -6.125  35.665  25.131  1.00  0.00    -0.545 OA
ATOM      9  O   UNL     1      -4.628  37.352  25.498  1.00  0.00    -0.545 OA
ENDBRANCH   1   7
TORSDOF 1
ENDMDL
MODEL 3
REMARK VINA RESULT:    -4.439      0.919      1.925
REMARK INTER + INTRA:          -4.721
REMARK INTER:                  -4.698
REMARK INTRA:                  -0.024
REMARK UNBOUND:                -0.023
REMARK SMILES O=C([O-])c1cccnc1
REMARK SMILES IDX 4 1 5 2 9 3 6 4 8 5 7 6 2 7 1 8 3 9
REMARK H PARENT
REMARK Flexibility Score: inf
ROOT
ATOM      1  C   UNL     1      -5.390  36.499  21.945  1.00  0.00     0.016 A 
ATOM      2  C   UNL     1      -5.069  37.657  22.672  1.00  0.00     0.013 A 
ATOM      3  C   UNL     1      -5.711  35.331  22.657  1.00  0.00     0.120 A 
ATOM      4  C   UNL     1      -5.075  37.632  24.069  1.00  0.00     0.021 A 
ATOM      5  N   UNL     1      -5.709  35.332  24.017  1.00  0.00    -0.264 NA
ATOM      6  C   UNL     1      -5.400  36.448  24.730  1.00  0.00     0.111 A 
ENDROOT
BRANCH   1   7
ATOM      7  C   UNL     1      -5.390  36.505  20.466  1.00  0.00     0.073 C 
ATOM      8  O   UNL     1      -5.665  35.458  19.822  1.00  0.00    -0.545 OA
ATOM      9  O   UNL     1      -5.083  37.667  19.766  1.00  0.00    -0.545 OA
ENDBRANCH   1   7
TORSDOF 1
ENDMDL
MODEL 4
REMARK VINA RESULT:    -4.372      2.883      3.769
REMARK INTER + INTRA:          -4.650
REMARK INTER:                  -4.629
REMARK INTRA:                  -0.021
REMARK UNBOUND:                -0.023
REMARK SMILES O=C([O-])c1cccnc1
REMARK SMILES IDX 4 1 5 2 9 3 6 4 8 5 7 6 2 7 1 8 3 9
REMARK H PARENT
REMARK Flexibility Score: inf
ROOT
ATOM      1  C   UNL     1      -5.234  36.866  23.191  1.00  0.00     0.016 A 
ATOM      2  C   UNL     1      -5.354  35.771  22.318  1.00  0.00     0.013 A 
ATOM      3  C   UNL     1      -4.993  38.136  22.640  1.00  0.00     0.120 A 
ATOM      4  C   UNL     1      -5.236  35.958  20.939  1.00  0.00     0.021 A 
ATOM      5  N   UNL     1      -4.882  38.291  21.294  1.00  0.00    -0.264 NA
ATOM      6  C   UNL     1      -4.997  37.239  20.440  1.00  0.00     0.111 A 
ENDROOT
BRANCH   1   7
ATOM      7  C   UNL     1      -5.355  36.689  24.654  1.00  0.00     0.073 C 
ATOM      8  O   UNL     1      -6.125  35.814  25.131  1.00  0.00    -0.545 OA
ATOM      9  O   UNL     1      -4.622  37.489  25.523  1.00  0.00    -0.545 OA
ENDBRANCH   1   7
TORSDOF 1
ENDMDL
MODEL 5
REMARK VINA RESULT:    -4.368      2.964      3.764
REMARK INTER + INTRA:          -4.646
REMARK INTER:                  -4.626
REMARK INTRA:                  -0.020
REMARK UNBOUND:                -0.023
REMARK SMILES O=C([O-])c1cccnc1
REMARK SMILES IDX 4 1 5 2 9 3 6 4 8 5 7 6 2 7 1 8 3 9
REMARK H PARENT
REMARK Flexibility Score: inf
ROOT
ATOM      1  C   UNL     1      -3.853  36.917  19.322  1.00  0.00     0.016 A 
ATOM      2  C   UNL     1      -4.092  37.588  20.533  1.00  0.00     0.013 A 
ATOM      3  C   UNL     1      -4.599  35.759  19.042  1.00  0.00     0.120 A 
ATOM      4  C   UNL     1      -5.051  37.104  21.425  1.00  0.00     0.021 A 
ATOM      5  N   UNL     1      -5.527  35.309  19.928  1.00  0.00    -0.264 NA
ATOM      6  C   UNL     1      -5.766  35.951  21.103  1.00  0.00     0.111 A 
ENDROOT
BRANCH   1   7
ATOM      7  C   UNL     1      -2.842  37.412  18.364  1.00  0.00     0.073 C 
ATOM      8  O   UNL     1      -1.721  37.818  18.769  1.00  0.00    -0.545 OA
ATOM      9  O   UNL     1      -3.116  37.437  17.001  1.00  0.00    -0.545 OA
ENDBRANCH   1   7
TORSDOF 1
ENDMDL
MODEL 6
REMARK VINA RESULT:    -4.300      2.830      3.644
REMARK INTER + INTRA:          -4.574
REMARK INTER:                  -4.552
REMARK INTRA:                  -0.022
REMARK UNBOUND:                -0.023
REMARK SMILES O=C([O-])c1cccnc1
REMARK SMILES IDX 4 1 5 2 9 3 6 4 8 5 7 6 2 7 1 8 3 9
REMARK H PARENT
REMARK Flexibility Score: inf
ROOT
ATOM      1  C   UNL     1      -4.890  37.014  22.132  1.00  0.00     0.016 A 
ATOM      2  C   UNL     1      -4.431  35.741  21.757  1.00  0.00     0.013 A 
ATOM      3  C   UNL     1      -5.157  37.953  21.121  1.00  0.00     0.120 A 
ATOM      4  C   UNL     1      -4.251  35.430  20.407  1.00  0.00     0.021 A 
ATOM      5  N   UNL     1      -4.973  37.625  19.814  1.00  0.00    -0.264 NA
ATOM      6  C   UNL     1      -4.530  36.395  19.440  1.00  0.00     0.111 A 
ENDROOT
BRANCH   1   7
ATOM      7  C   UNL     1      -5.087  37.364  23.555  1.00  0.00     0.073 C 
ATOM      8  O   UNL     1      -5.000  38.560  23.939  1.00  0.00    -0.545 OA
ATOM      9  O   UNL     1      -5.369  36.374  24.491  1.00  0.00    -0.545 OA
ENDBRANCH   1   7
TORSDOF 1
ENDMDL
MODEL 7
REMARK VINA RESULT:    -4.270      3.426      5.061
REMARK INTER + INTRA:          -4.543
REMARK INTER:                  -4.523
REMARK INTRA:                  -0.020
REMARK UNBOUND:                -0.023
REMARK SMILES O=C([O-])c1cccnc1
REMARK SMILES IDX 4 1 5 2 9 3 6 4 8 5 7 6 2 7 1 8 3 9
REMARK H PARENT
REMARK Flexibility Score: inf
ROOT
ATOM      1  C   UNL     1      -4.116  36.124  19.163  1.00  0.00     0.016 A 
ATOM      2  C   UNL     1      -4.227  35.414  17.956  1.00  0.00     0.013 A 
ATOM      3  C   UNL     1      -3.262  37.238  19.206  1.00  0.00     0.120 A 
ATOM      4  C   UNL     1      -3.499  35.820  16.835  1.00  0.00     0.021 A 
ATOM      5  N   UNL     1      -2.564  37.613  18.101  1.00  0.00    -0.264 NA
ATOM      6  C   UNL     1      -2.664  36.933  16.928  1.00  0.00     0.111 A 
ENDROOT
BRANCH   1   7
ATOM      7  C   UNL     1      -4.877  35.710  20.361  1.00  0.00     0.073 C 
ATOM      8  O   UNL     1      -6.100  35.418  20.274  1.00  0.00    -0.545 OA
ATOM      9  O   UNL     1      -4.254  35.639  21.602  1.00  0.00    -0.545 OA
ENDBRANCH   1   7
TORSDOF 1
ENDMDL
MODEL 8
REMARK VINA RESULT:    -4.235      3.360      4.998
REMARK INTER + INTRA:          -4.505
REMARK INTER:                  -4.482
REMARK INTRA:                  -0.023
REMARK UNBOUND:                -0.023
REMARK SMILES O=C([O-])c1cccnc1
REMARK SMILES IDX 4 1 5 2 9 3 6 4 8 5 7 6 2 7 1 8 3 9
REMARK H PARENT
REMARK Flexibility Score: inf
ROOT
ATOM      1  C   UNL     1      -4.227  36.345  19.611  1.00  0.00     0.016 A 
ATOM      2  C   UNL     1      -3.443  37.282  18.917  1.00  0.00     0.013 A 
ATOM      3  C   UNL     1      -4.636  35.184  18.933  1.00  0.00     0.120 A 
ATOM      4  C   UNL     1      -3.085  37.049  17.587  1.00  0.00     0.021 A 
ATOM      5  N   UNL     1      -4.274  34.981  17.638  1.00  0.00    -0.264 NA
ATOM      6  C   UNL     1      -3.516  35.881  16.957  1.00  0.00     0.111 A 
ENDROOT
BRANCH   1   7
ATOM      7  C   UNL     1      -4.616  36.573  21.018  1.00  0.00     0.073 C 
ATOM      8  O   UNL     1      -4.620  37.736  21.502  1.00  0.00    -0.545 OA
ATOM      9  O   UNL     1      -4.981  35.504  21.830  1.00  0.00    -0.545 OA
ENDBRANCH   1   7
TORSDOF 1
ENDMDL
MODEL 9
REMARK VINA RESULT:    -4.231      1.476      1.728
REMARK INTER + INTRA:          -4.502
REMARK INTER:                  -4.480
REMARK INTRA:                  -0.021
REMARK UNBOUND:                -0.023
REMARK SMILES O=C([O-])c1cccnc1
REMARK SMILES IDX 4 1 5 2 9 3 6 4 8 5 7 6 2 7 1 8 3 9
REMARK H PARENT
REMARK Flexibility Score: inf
ROOT
ATOM      1  C   UNL     1      -4.721  36.630  20.616  1.00  0.00     0.016 A 
ATOM      2  C   UNL     1      -4.786  35.686  21.654  1.00  0.00     0.013 A 
ATOM      3  C   UNL     1      -4.994  37.975  20.918  1.00  0.00     0.120 A 
ATOM      4  C   UNL     1      -5.113  36.091  22.950  1.00  0.00     0.021 A 
ATOM      5  N   UNL     1      -5.310  38.343  22.189  1.00  0.00    -0.264 NA
ATOM      6  C   UNL     1      -5.376  37.437  23.201  1.00  0.00     0.111 A 
ENDROOT
BRANCH   1   7
ATOM      7  C   UNL     1      -4.377  36.222  19.237  1.00  0.00     0.073 C 
ATOM      8  O   UNL     1      -3.756  37.008  18.473  1.00  0.00    -0.545 OA
ATOM      9  O   UNL     1      -4.736  34.965  18.764  1.00  0.00    -0.545 OA
ENDBRANCH   1   7
TORSDOF 1
ENDMDL
