MODEL 1
REMARK VINA RESULT:    -1.322      0.000      0.000
REMARK INTER + INTRA:           1.550
REMARK INTER:                  -2.018
REMARK INTRA:                   3.568
REMARK UNBOUND:                 3.568
REMARK SMILES CC1=CCC[C@H](C)C(=O)C[C@@H](C(C)C)C(=O)C1
REMARK SMILES IDX 8 1 9 2 6 3 7 4 5 5 4 6 3 7 2 8 1 9 10 11 11 12 15 13 16 14
REMARK SMILES IDX 17 15 12 17 13 18 14 19
REMARK H PARENT
REMARK Flexibility Score: 70.00
ROOT
ATOM      1  C   UNL     1     -29.180 -11.713  22.911  1.00  0.00     0.136 C 
ATOM      2  O   UNL     1     -30.125 -11.608  23.681  1.00  0.00    -0.299 OA
ENDROOT
BRANCH   1   3
ATOM      3  C   UNL     1     -29.357 -12.629  21.700  1.00  0.00     0.053 C 
ATOM      4  C   UNL     1     -28.018 -12.729  20.953  1.00  0.00     0.016 C 
BRANCH   3   5
ATOM      5  C   UNL     1     -29.882 -14.062  21.976  1.00  0.00     0.015 C 
BRANCH   5   6
ATOM      6  C   UNL     1     -29.426 -14.742  23.281  1.00  0.00     0.028 C 
BRANCH   6   7
ATOM      7  C   UNL     1     -27.971 -14.544  23.629  1.00  0.00    -0.028 C 
ATOM      8  C   UNL     1     -27.458 -13.778  24.627  1.00  0.00    -0.070 CG0
ATOM      9  C   UNL     1     -25.952 -13.667  24.688  1.00  0.00     0.039 C 
ATOM     10  G   UNL     1     -28.257 -13.128  25.754  1.00  0.00     0.000 G0
ENDBRANCH   6   7
ENDBRANCH   5   6
ENDBRANCH   3   5
ENDBRANCH   1   3
BRANCH   1  11
ATOM     11  C   UNL     1     -27.928 -10.925  23.232  1.00  0.00     0.087 C 
BRANCH  11  12
ATOM     12  C   UNL     1     -27.660 -10.739  24.756  1.00  0.00     0.066 C 
BRANCH  12  13
ATOM     13  C   UNL     1     -28.534 -11.658  25.607  1.00  0.00     0.140 C 
ATOM     14  O   UNL     1     -29.549 -11.204  26.118  1.00  0.00    -0.299 OA
BRANCH  13  15
ATOM     15  C   UNL     1     -28.247 -13.133  25.753  1.00  0.00     0.106 CG0
ATOM     16  G   UNL     1     -27.474 -13.778  24.606  1.00  0.00     0.000 G0
ENDBRANCH  13  15
ENDBRANCH  12  13
BRANCH  12  17
ATOM     17  C   UNL     1     -27.723  -9.260  25.263  1.00  0.00    -0.006 C 
ATOM     18  C   UNL     1     -28.829  -8.450  24.562  1.00  0.00     0.008 C 
ATOM     19  C   UNL     1     -26.377  -8.544  25.048  1.00  0.00     0.008 C 
ENDBRANCH  12  17
ENDBRANCH  11  12
ENDBRANCH   1  11
TORSDOF 1
ENDMDL
MODEL 2
REMARK VINA RESULT:    -0.705      1.963      4.494
REMARK INTER + INTRA:           2.492
REMARK INTER:                  -0.738
REMARK INTRA:                   3.230
REMARK UNBOUND:                 3.568
REMARK SMILES CC1=CCC[C@H](C)C(=O)C[C@@H](C(C)C)C(=O)C1
REMARK SMILES IDX 8 1 9 2 6 3 7 4 5 5 4 6 3 7 2 8 1 9 10 11 11 12 15 13 16 14
REMARK SMILES IDX 17 15 12 17 13 18 14 19
REMARK H PARENT
REMARK Flexibility Score: 70.00
ROOT
ATOM      1  C   UNL     1     -27.159 -11.290  24.539  1.00  0.00     0.136 C 
ATOM      2  O   UNL     1     -26.751 -11.108  23.400  1.00  0.00    -0.299 OA
ENDROOT
BRANCH   1   3
ATOM      3  C   UNL     1     -27.868 -10.125  25.228  1.00  0.00     0.053 C 
ATOM      4  C   UNL     1     -27.046  -8.844  25.012  1.00  0.00     0.016 C 
BRANCH   3   5
ATOM      5  C   UNL     1     -29.336  -9.851  24.808  1.00  0.00     0.015 C 
BRANCH   5   6
ATOM      6  C   UNL     1     -30.103 -11.004  24.133  1.00  0.00     0.028 C 
BRANCH   6   7
ATOM      7  C   UNL     1     -30.060 -11.003  22.625  1.00  0.00    -0.028 C 
ATOM      8  C   UNL     1     -29.412 -11.883  21.818  1.00  0.00    -0.070 CG0
ATOM      9  C   UNL     1     -29.439 -11.588  20.336  1.00  0.00     0.039 C 
ATOM     10  G   UNL     1     -28.772 -13.197  22.261  1.00  0.00     0.000 G0
ENDBRANCH   6   7
ENDBRANCH   5   6
ENDBRANCH   3   5
ENDBRANCH   1   3
BRANCH   1  11
ATOM     11  C   UNL     1     -26.922 -12.653  25.154  1.00  0.00     0.087 C 
BRANCH  11  12
ATOM     12  C   UNL     1     -27.564 -13.833  24.363  1.00  0.00     0.066 C 
BRANCH  12  13
ATOM     13  C   UNL     1     -27.673 -13.530  22.870  1.00  0.00     0.140 C 
ATOM     14  O   UNL     1     -26.667 -13.593  22.178  1.00  0.00    -0.299 OA
BRANCH  13  15
ATOM     15  C   UNL     1     -28.999 -13.258  22.200  1.00  0.00     0.106 CG0
ATOM     16  G   UNL     1     -29.300 -11.794  21.888  1.00  0.00     0.000 G0
ENDBRANCH  13  15
ENDBRANCH  12  13
BRANCH  12  17
ATOM     17  C   UNL     1     -28.922 -14.354  24.941  1.00  0.00    -0.006 C 
ATOM     18  C   UNL     1     -29.899 -14.789  23.833  1.00  0.00     0.008 C 
ATOM     19  C   UNL     1     -29.605 -13.278  25.805  1.00  0.00     0.008 C 
ENDBRANCH  12  17
ENDBRANCH  11  12
ENDBRANCH   1  11
TORSDOF 1
ENDMDL
MODEL 3
REMARK VINA RESULT:    -0.505      2.107      4.435
REMARK INTER + INTRA:           2.797
REMARK INTER:                   1.613
REMARK INTRA:                   1.184
REMARK UNBOUND:                 3.568
REMARK SMILES CC1=CCC[C@H](C)C(=O)C[C@@H](C(C)C)C(=O)C1
REMARK SMILES IDX 8 1 9 2 6 3 7 4 5 5 4 6 3 7 2 8 1 9 10 11 11 12 15 13 16 14
REMARK SMILES IDX 17 15 12 17 13 18 14 19
REMARK H PARENT
REMARK Flexibility Score: 70.00
ROOT
ATOM      1  C   UNL     1     -27.014 -13.798  23.888  1.00  0.00     0.136 C 
ATOM      2  O   UNL     1     -25.914 -13.949  23.375  1.00  0.00    -0.299 OA
ENDROOT
BRANCH   1   3
ATOM      3  C   UNL     1     -27.061 -13.566  25.398  1.00  0.00     0.053 C 
ATOM      4  C   UNL     1     -26.748 -12.088  25.684  1.00  0.00     0.016 C 
BRANCH   3   5
ATOM      5  C   UNL     1     -28.377 -13.945  26.125  1.00  0.00     0.015 C 
BRANCH   5   6
ATOM      6  C   UNL     1     -29.683 -13.331  25.587  1.00  0.00     0.028 C 
BRANCH   6   7
ATOM      7  C   UNL     1     -29.927 -11.897  25.989  1.00  0.00    -0.028 C 
ATOM      8  C   UNL     1     -29.849 -10.794  25.199  1.00  0.00    -0.070 CG0
ATOM      9  C   UNL     1     -30.034  -9.458  25.881  1.00  0.00     0.039 C 
ATOM     10  G   UNL     1     -29.719 -10.793  23.677  1.00  0.00     0.000 G0
ENDBRANCH   6   7
ENDBRANCH   5   6
ENDBRANCH   3   5
ENDBRANCH   1   3
BRANCH   1  11
ATOM     11  C   UNL     1     -28.223 -13.853  22.977  1.00  0.00     0.087 C 
BRANCH  11  12
ATOM     12  C   UNL     1     -28.469 -12.548  22.161  1.00  0.00     0.066 C 
BRANCH  12  13
ATOM     13  C   UNL     1     -28.471 -11.307  23.050  1.00  0.00     0.140 C 
ATOM     14  O   UNL     1     -27.428 -10.686  23.202  1.00  0.00    -0.299 OA
BRANCH  13  15
ATOM     15  C   UNL     1     -29.736 -10.759  23.664  1.00  0.00     0.106 CG0
ATOM     16  G   UNL     1     -29.810 -10.801  25.189  1.00  0.00     0.000 G0
ENDBRANCH  13  15
ENDBRANCH  12  13
BRANCH  12  17
ATOM     17  C   UNL     1     -29.724 -12.582  21.225  1.00  0.00    -0.006 C 
ATOM     18  C   UNL     1     -30.123 -14.017  20.836  1.00  0.00     0.008 C 
ATOM     19  C   UNL     1     -29.476 -11.774  19.938  1.00  0.00     0.008 C 
ENDBRANCH  12  17
ENDBRANCH  11  12
ENDBRANCH   1  11
TORSDOF 1
ENDMDL
MODEL 4
REMARK VINA RESULT:     0.823      1.577      4.220
REMARK INTER + INTRA:           4.823
REMARK INTER:                  -1.106
REMARK INTRA:                   5.929
REMARK UNBOUND:                 3.568
REMARK SMILES CC1=CCC[C@H](C)C(=O)C[C@@H](C(C)C)C(=O)C1
REMARK SMILES IDX 8 1 9 2 6 3 7 4 5 5 4 6 3 7 2 8 1 9 10 11 11 12 15 13 16 14
REMARK SMILES IDX 17 15 12 17 13 18 14 19
REMARK H PARENT
REMARK Flexibility Score: 70.00
ROOT
ATOM      1  C   UNL     1     -28.926 -12.187  21.934  1.00  0.00     0.136 C 
ATOM      2  O   UNL     1     -28.650 -11.836  20.796  1.00  0.00    -0.299 OA
ENDROOT
BRANCH   1   3
ATOM      3  C   UNL     1     -28.037 -11.672  23.066  1.00  0.00     0.053 C 
ATOM      4  C   UNL     1     -26.897 -10.836  22.461  1.00  0.00     0.016 C 
BRANCH   3   5
ATOM      5  C   UNL     1     -28.729 -10.840  24.177  1.00  0.00     0.015 C 
BRANCH   5   6
ATOM      6  C   UNL     1     -27.905 -10.526  25.440  1.00  0.00     0.028 C 
BRANCH   6   7
ATOM      7  C   UNL     1     -26.975 -11.627  25.886  1.00  0.00    -0.028 C 
ATOM      8  C   UNL     1     -26.927 -12.904  25.425  1.00  0.00    -0.070 CG0
ATOM      9  C   UNL     1     -25.969 -13.840  26.125  1.00  0.00     0.039 C 
ATOM     10  G   UNL     1     -27.657 -13.437  24.195  1.00  0.00     0.000 G0
ENDBRANCH   6   7
ENDBRANCH   5   6
ENDBRANCH   3   5
ENDBRANCH   1   3
BRANCH   1  11
ATOM     11  C   UNL     1     -30.124 -13.096  22.112  1.00  0.00     0.087 C 
BRANCH  11  12
ATOM     12  C   UNL     1     -29.881 -14.295  23.078  1.00  0.00     0.066 C 
BRANCH  12  13
ATOM     13  C   UNL     1     -29.053 -13.891  24.296  1.00  0.00     0.140 C 
ATOM     14  O   UNL     1     -29.552 -13.986  25.410  1.00  0.00    -0.299 OA
BRANCH  13  15
ATOM     15  C   UNL     1     -27.605 -13.478  24.184  1.00  0.00     0.106 CG0
ATOM     16  G   UNL     1     -26.976 -12.901  25.450  1.00  0.00     0.000 G0
ENDBRANCH  13  15
ENDBRANCH  12  13
BRANCH  12  17
ATOM     17  C   UNL     1     -29.307 -15.583  22.400  1.00  0.00    -0.006 C 
ATOM     18  C   UNL     1     -29.786 -15.738  20.945  1.00  0.00     0.008 C 
ATOM     19  C   UNL     1     -29.705 -16.846  23.186  1.00  0.00     0.008 C 
ENDBRANCH  12  17
ENDBRANCH  11  12
ENDBRANCH   1  11
TORSDOF 1
ENDMDL
