MODEL 1
REMARK VINA RESULT:    -5.779      0.000      0.000
REMARK INTER + INTRA:          -6.320
REMARK INTER:                  -6.116
REMARK INTRA:                  -0.204
REMARK UNBOUND:                -0.204
REMARK SMILES C=C(C)[C@H]1CC=C(C)C(=O)C1
REMARK SMILES IDX 8 1 7 2 6 3 5 4 4 5 11 6 9 7 10 8 2 9 1 10 3 11
REMARK H PARENT
REMARK Flexibility Score: inf
ROOT
ATOM      1  C   UNL     1      13.364 -19.453 -31.468  1.00  0.00     0.048 C 
ATOM      2  C   UNL     1      12.681 -18.615 -30.423  1.00  0.00    -0.012 C 
ATOM      3  C   UNL     1      12.331 -17.351 -30.707  1.00  0.00    -0.019 C 
ATOM      4  C   UNL     1      11.616 -16.468 -29.720  1.00  0.00     0.036 C 
ATOM      5  C   UNL     1      11.941 -16.799 -28.248  1.00  0.00     0.025 C 
ATOM      6  C   UNL     1      11.869 -18.315 -27.973  1.00  0.00     0.089 C 
ATOM      7  C   UNL     1      12.535 -19.135 -29.042  1.00  0.00     0.158 C 
ATOM      8  O   UNL     1      12.939 -20.294 -28.760  1.00  0.00    -0.295 OA
ENDROOT
BRANCH   5   9
ATOM      9  C   UNL     1      13.248 -16.164 -27.771  1.00  0.00    -0.077 C 
ATOM     10  C   UNL     1      13.782 -15.084 -28.368  1.00  0.00     0.008 C 
ATOM     11  C   UNL     1      13.981 -16.754 -26.592  1.00  0.00     0.039 C 
ENDBRANCH   5   9
TORSDOF 1
ENDMDL
MODEL 2
REMARK VINA RESULT:    -5.757      0.090      1.046
REMARK INTER + INTRA:          -6.297
REMARK INTER:                  -6.088
REMARK INTRA:                  -0.209
REMARK UNBOUND:                -0.204
REMARK SMILES C=C(C)[C@H]1CC=C(C)C(=O)C1
REMARK SMILES IDX 8 1 7 2 6 3 5 4 4 5 11 6 9 7 10 8 2 9 1 10 3 11
REMARK H PARENT
REMARK Flexibility Score: inf
ROOT
ATOM      1  C   UNL     1      13.371 -19.433 -31.450  1.00  0.00     0.048 C 
ATOM      2  C   UNL     1      12.694 -18.626 -30.377  1.00  0.00    -0.012 C 
ATOM      3  C   UNL     1      12.345 -17.354 -30.622  1.00  0.00    -0.019 C 
ATOM      4  C   UNL     1      11.636 -16.500 -29.606  1.00  0.00     0.036 C 
ATOM      5  C   UNL     1      11.967 -16.874 -28.146  1.00  0.00     0.025 C 
ATOM      6  C   UNL     1      11.894 -18.398 -27.915  1.00  0.00     0.089 C 
ATOM      7  C   UNL     1      12.554 -19.186 -29.012  1.00  0.00     0.158 C 
ATOM      8  O   UNL     1      12.958 -20.354 -28.766  1.00  0.00    -0.295 OA
ENDROOT
BRANCH   5   9
ATOM      9  C   UNL     1      13.277 -16.256 -27.656  1.00  0.00    -0.077 C 
ATOM     10  C   UNL     1      13.967 -16.763 -26.619  1.00  0.00     0.008 C 
ATOM     11  C   UNL     1      13.834 -15.036 -28.346  1.00  0.00     0.039 C 
ENDBRANCH   5   9
TORSDOF 1
ENDMDL
MODEL 3
REMARK VINA RESULT:    -5.670      1.415      1.903
REMARK INTER + INTRA:          -6.205
REMARK INTER:                  -5.984
REMARK INTRA:                  -0.221
REMARK UNBOUND:                -0.204
REMARK SMILES C=C(C)[C@H]1CC=C(C)C(=O)C1
REMARK SMILES IDX 8 1 7 2 6 3 5 4 4 5 11 6 9 7 10 8 2 9 1 10 3 11
REMARK H PARENT
REMARK Flexibility Score: inf
ROOT
ATOM      1  C   UNL     1      13.216 -19.523 -31.231  1.00  0.00     0.048 C 
ATOM      2  C   UNL     1      12.779 -18.292 -30.486  1.00  0.00    -0.012 C 
ATOM      3  C   UNL     1      13.688 -17.371 -30.133  1.00  0.00    -0.019 C 
ATOM      4  C   UNL     1      13.317 -16.101 -29.415  1.00  0.00     0.036 C 
ATOM      5  C   UNL     1      12.066 -16.240 -28.522  1.00  0.00     0.025 C 
ATOM      6  C   UNL     1      10.917 -16.962 -29.256  1.00  0.00     0.089 C 
ATOM      7  C   UNL     1      11.379 -18.174 -30.015  1.00  0.00     0.158 C 
ATOM      8  O   UNL     1      10.546 -19.082 -30.280  1.00  0.00    -0.295 OA
ENDROOT
BRANCH   5   9
ATOM      9  C   UNL     1      12.378 -16.846 -27.153  1.00  0.00    -0.077 C 
ATOM     10  C   UNL     1      11.487 -17.595 -26.479  1.00  0.00     0.008 C 
ATOM     11  C   UNL     1      13.725 -16.610 -26.518  1.00  0.00     0.039 C 
ENDBRANCH   5   9
TORSDOF 1
ENDMDL
MODEL 4
REMARK VINA RESULT:    -5.401      1.822      2.597
REMARK INTER + INTRA:          -5.920
REMARK INTER:                  -5.717
REMARK INTRA:                  -0.203
REMARK UNBOUND:                -0.204
REMARK SMILES C=C(C)[C@H]1CC=C(C)C(=O)C1
REMARK SMILES IDX 8 1 7 2 6 3 5 4 4 5 11 6 9 7 10 8 2 9 1 10 3 11
REMARK H PARENT
REMARK Flexibility Score: inf
ROOT
ATOM      1  C   UNL     1      12.642 -20.603 -31.223  1.00  0.00     0.048 C 
ATOM      2  C   UNL     1      13.121 -19.399 -30.460  1.00  0.00    -0.012 C 
ATOM      3  C   UNL     1      13.522 -19.535 -29.187  1.00  0.00    -0.019 C 
ATOM      4  C   UNL     1      14.043 -18.380 -28.375  1.00  0.00     0.036 C 
ATOM      5  C   UNL     1      13.449 -17.017 -28.788  1.00  0.00     0.025 C 
ATOM      6  C   UNL     1      13.464 -16.827 -30.319  1.00  0.00     0.089 C 
ATOM      7  C   UNL     1      13.006 -18.050 -31.064  1.00  0.00     0.158 C 
ATOM      8  O   UNL     1      12.553 -17.919 -32.232  1.00  0.00    -0.295 OA
ENDROOT
BRANCH   5   9
ATOM      9  C   UNL     1      12.078 -16.753 -28.165  1.00  0.00    -0.077 C 
ATOM     10  C   UNL     1      11.094 -16.123 -28.832  1.00  0.00     0.008 C 
ATOM     11  C   UNL     1      11.796 -17.205 -26.754  1.00  0.00     0.039 C 
ENDBRANCH   5   9
TORSDOF 1
ENDMDL
MODEL 5
REMARK VINA RESULT:    -5.210      1.784      3.925
REMARK INTER + INTRA:          -5.718
REMARK INTER:                  -5.621
REMARK INTRA:                  -0.097
REMARK UNBOUND:                -0.204
REMARK SMILES C=C(C)[C@H]1CC=C(C)C(=O)C1
REMARK SMILES IDX 8 1 7 2 6 3 5 4 4 5 11 6 9 7 10 8 2 9 1 10 3 11
REMARK H PARENT
REMARK Flexibility Score: inf
ROOT
ATOM      1  C   UNL     1      11.190 -17.666 -26.107  1.00  0.00     0.048 C 
ATOM      2  C   UNL     1      11.724 -17.607 -27.512  1.00  0.00    -0.012 C 
ATOM      3  C   UNL     1      10.927 -17.935 -28.540  1.00  0.00    -0.019 C 
ATOM      4  C   UNL     1      11.386 -17.868 -29.972  1.00  0.00     0.036 C 
ATOM      5  C   UNL     1      12.901 -18.104 -30.147  1.00  0.00     0.025 C 
ATOM      6  C   UNL     1      13.728 -17.285 -29.134  1.00  0.00     0.089 C 
ATOM      7  C   UNL     1      13.163 -17.336 -27.742  1.00  0.00     0.158 C 
ATOM      8  O   UNL     1      13.925 -17.108 -26.765  1.00  0.00    -0.295 OA
ENDROOT
BRANCH   5   9
ATOM      9  C   UNL     1      13.273 -19.587 -30.165  1.00  0.00    -0.077 C 
ATOM     10  C   UNL     1      14.139 -20.121 -29.285  1.00  0.00     0.008 C 
ATOM     11  C   UNL     1      12.660 -20.501 -31.196  1.00  0.00     0.039 C 
ENDBRANCH   5   9
TORSDOF 1
ENDMDL
MODEL 6
REMARK VINA RESULT:    -5.151      1.794      4.100
REMARK INTER + INTRA:          -5.656
REMARK INTER:                  -5.542
REMARK INTRA:                  -0.114
REMARK UNBOUND:                -0.204
REMARK SMILES C=C(C)[C@H]1CC=C(C)C(=O)C1
REMARK SMILES IDX 8 1 7 2 6 3 5 4 4 5 11 6 9 7 10 8 2 9 1 10 3 11
REMARK H PARENT
REMARK Flexibility Score: inf
ROOT
ATOM      1  C   UNL     1      14.149 -15.907 -26.774  1.00  0.00     0.048 C 
ATOM      2  C   UNL     1      13.186 -16.519 -27.754  1.00  0.00    -0.012 C 
ATOM      3  C   UNL     1      12.317 -17.452 -27.338  1.00  0.00    -0.019 C 
ATOM      4  C   UNL     1      11.306 -18.082 -28.258  1.00  0.00     0.036 C 
ATOM      5  C   UNL     1      11.765 -18.148 -29.729  1.00  0.00     0.025 C 
ATOM      6  C   UNL     1      12.364 -16.808 -30.202  1.00  0.00     0.089 C 
ATOM      7  C   UNL     1      13.304 -16.201 -29.197  1.00  0.00     0.158 C 
ATOM      8  O   UNL     1      14.176 -15.384 -29.594  1.00  0.00    -0.295 OA
ENDROOT
BRANCH   5   9
ATOM      9  C   UNL     1      12.674 -19.345 -30.014  1.00  0.00    -0.077 C 
ATOM     10  C   UNL     1      12.918 -20.297 -29.096  1.00  0.00     0.008 C 
ATOM     11  C   UNL     1      13.330 -19.483 -31.366  1.00  0.00     0.039 C 
ENDBRANCH   5   9
TORSDOF 1
ENDMDL
MODEL 7
REMARK VINA RESULT:    -5.111      1.806      3.158
REMARK INTER + INTRA:          -5.613
REMARK INTER:                  -5.406
REMARK INTRA:                  -0.207
REMARK UNBOUND:                -0.204
REMARK SMILES C=C(C)[C@H]1CC=C(C)C(=O)C1
REMARK SMILES IDX 8 1 7 2 6 3 5 4 4 5 11 6 9 7 10 8 2 9 1 10 3 11
REMARK H PARENT
REMARK Flexibility Score: inf
ROOT
ATOM      1  C   UNL     1      13.670 -20.623 -28.764  1.00  0.00     0.048 C 
ATOM      2  C   UNL     1      13.479 -19.369 -29.572  1.00  0.00    -0.012 C 
ATOM      3  C   UNL     1      13.674 -18.172 -28.998  1.00  0.00    -0.019 C 
ATOM      4  C   UNL     1      13.532 -16.879 -29.755  1.00  0.00     0.036 C 
ATOM      5  C   UNL     1      12.517 -16.950 -30.915  1.00  0.00     0.025 C 
ATOM      6  C   UNL     1      12.717 -18.216 -31.773  1.00  0.00     0.089 C 
ATOM      7  C   UNL     1      12.932 -19.454 -30.947  1.00  0.00     0.158 C 
ATOM      8  O   UNL     1      12.673 -20.578 -31.454  1.00  0.00    -0.295 OA
ENDROOT
BRANCH   5   9
ATOM      9  C   UNL     1      11.072 -16.762 -30.451  1.00  0.00    -0.077 C 
ATOM     10  C   UNL     1      10.023 -17.187 -31.178  1.00  0.00     0.008 C 
ATOM     11  C   UNL     1      10.789 -16.079 -29.136  1.00  0.00     0.039 C 
ENDBRANCH   5   9
TORSDOF 1
ENDMDL
MODEL 8
REMARK VINA RESULT:    -4.894      1.808      3.785
REMARK INTER + INTRA:          -5.383
REMARK INTER:                  -5.165
REMARK INTRA:                  -0.219
REMARK UNBOUND:                -0.204
REMARK SMILES C=C(C)[C@H]1CC=C(C)C(=O)C1
REMARK SMILES IDX 8 1 7 2 6 3 5 4 4 5 11 6 9 7 10 8 2 9 1 10 3 11
REMARK H PARENT
REMARK Flexibility Score: inf
ROOT
ATOM      1  C   UNL     1      14.138 -14.804 -28.035  1.00  0.00     0.048 C 
ATOM      2  C   UNL     1      13.646 -16.061 -28.698  1.00  0.00    -0.012 C 
ATOM      3  C   UNL     1      13.753 -16.196 -30.029  1.00  0.00    -0.019 C 
ATOM      4  C   UNL     1      13.312 -17.438 -30.754  1.00  0.00     0.036 C 
ATOM      5  C   UNL     1      12.152 -18.180 -30.058  1.00  0.00     0.025 C 
ATOM      6  C   UNL     1      12.397 -18.334 -28.543  1.00  0.00     0.089 C 
ATOM      7  C   UNL     1      12.912 -17.074 -27.904  1.00  0.00     0.158 C 
ATOM      8  O   UNL     1      12.743 -16.905 -26.667  1.00  0.00    -0.295 OA
ENDROOT
BRANCH   5   9
ATOM      9  C   UNL     1      10.783 -17.581 -30.386  1.00  0.00    -0.077 C 
ATOM     10  C   UNL     1       9.727 -17.711 -29.563  1.00  0.00     0.008 C 
ATOM     11  C   UNL     1      10.588 -16.815 -31.670  1.00  0.00     0.039 C 
ENDBRANCH   5   9
TORSDOF 1
ENDMDL
MODEL 9
REMARK VINA RESULT:    -4.890      1.630      2.240
REMARK INTER + INTRA:          -5.379
REMARK INTER:                  -5.333
REMARK INTRA:                  -0.046
REMARK UNBOUND:                -0.204
REMARK SMILES C=C(C)[C@H]1CC=C(C)C(=O)C1
REMARK SMILES IDX 8 1 7 2 6 3 5 4 4 5 11 6 9 7 10 8 2 9 1 10 3 11
REMARK H PARENT
REMARK Flexibility Score: inf
ROOT
ATOM      1  C   UNL     1       9.573 -18.916 -30.611  1.00  0.00     0.048 C 
ATOM      2  C   UNL     1      10.661 -18.596 -29.624  1.00  0.00    -0.012 C 
ATOM      3  C   UNL     1      10.469 -17.632 -28.710  1.00  0.00    -0.019 C 
ATOM      4  C   UNL     1      11.502 -17.282 -27.673  1.00  0.00     0.036 C 
ATOM      5  C   UNL     1      12.952 -17.542 -28.134  1.00  0.00     0.025 C 
ATOM      6  C   UNL     1      13.103 -18.927 -28.797  1.00  0.00     0.089 C 
ATOM      7  C   UNL     1      11.991 -19.237 -29.760  1.00  0.00     0.158 C 
ATOM      8  O   UNL     1      12.192 -20.084 -30.671  1.00  0.00    -0.295 OA
ENDROOT
BRANCH   5   9
ATOM      9  C   UNL     1      13.516 -16.405 -28.987  1.00  0.00    -0.077 C 
ATOM     10  C   UNL     1      13.772 -16.549 -30.299  1.00  0.00     0.008 C 
ATOM     11  C   UNL     1      13.804 -15.066 -28.354  1.00  0.00     0.039 C 
ENDBRANCH   5   9
TORSDOF 1
ENDMDL
