MODEL 1
REMARK VINA RESULT:    -2.358      0.000      0.000
REMARK INTER + INTRA:          -2.358
REMARK INTER:                  -2.358
REMARK INTRA:                   0.000
REMARK UNBOUND:                 0.000
REMARK SMILES C[C@@H]1CCC=C2CC[C@H]3[C@@H](C3(C)C)[C@@]21C
REMARK SMILES IDX 1 1 2 2 3 3 4 4 5 5 6 6 14 7 10 8 9 9 11 10 12 11 13 12 8 13
REMARK SMILES IDX 7 14 15 15
REMARK H PARENT
REMARK Flexibility Score: inf
ROOT
ATOM      1  C   UNL     1     139.384 152.517 123.354  1.00  0.00     0.008 C 
ATOM      2  C   UNL     1     138.594 153.809 123.038  1.00  0.00    -0.004 C 
ATOM      3  C   UNL     1     139.392 155.029 123.551  1.00  0.00     0.008 C 
ATOM      4  C   UNL     1     139.387 155.125 125.081  1.00  0.00     0.027 C 
ATOM      5  C   UNL     1     138.076 154.748 125.727  1.00  0.00    -0.027 C 
ATOM      6  C   UNL     1     137.102 154.042 125.111  1.00  0.00    -0.068 C 
ATOM      7  C   UNL     1     137.111 153.830 123.580  1.00  0.00    -0.005 C 
ATOM      8  C   UNL     1     136.440 152.438 123.343  1.00  0.00     0.009 C 
ATOM      9  C   UNL     1     134.979 152.554 123.903  1.00  0.00    -0.000 C 
ATOM     10  C   UNL     1     135.266 151.796 122.623  1.00  0.00    -0.028 C 
ATOM     11  C   UNL     1     134.875 152.447 121.291  1.00  0.00     0.012 C 
ATOM     12  C   UNL     1     135.161 150.269 122.712  1.00  0.00     0.012 C 
ATOM     13  C   UNL     1     135.184 152.305 125.393  1.00  0.00     0.009 C 
ATOM     14  C   UNL     1     135.929 153.535 125.974  1.00  0.00     0.031 C 
ATOM     15  C   UNL     1     136.368 155.015 122.893  1.00  0.00     0.017 C 
ENDROOT
TORSDOF 0
ENDMDL
MODEL 2
REMARK VINA RESULT:    -1.978     13.938     16.550
REMARK INTER + INTRA:          -1.978
REMARK INTER:                  -1.978
REMARK INTRA:                   0.000
REMARK UNBOUND:                 0.000
REMARK SMILES C[C@@H]1CCC=C2CC[C@H]3[C@@H](C3(C)C)[C@@]21C
REMARK SMILES IDX 1 1 2 2 3 3 4 4 5 5 6 6 14 7 10 8 9 9 11 10 12 11 13 12 8 13
REMARK SMILES IDX 7 14 15 15
REMARK H PARENT
REMARK Flexibility Score: inf
ROOT
ATOM      1  C   UNL     1     137.970 139.556 123.018  1.00  0.00     0.008 C 
ATOM      2  C   UNL     1     136.780 138.625 122.688  1.00  0.00    -0.004 C 
ATOM      3  C   UNL     1     135.458 139.360 123.001  1.00  0.00     0.008 C 
ATOM      4  C   UNL     1     135.220 139.511 124.507  1.00  0.00     0.027 C 
ATOM      5  C   UNL     1     135.637 138.316 125.329  1.00  0.00    -0.027 C 
ATOM      6  C   UNL     1     136.473 137.349 124.891  1.00  0.00    -0.068 C 
ATOM      7  C   UNL     1     136.826 137.212 123.393  1.00  0.00    -0.005 C 
ATOM      8  C   UNL     1     138.284 136.647 123.353  1.00  0.00     0.009 C 
ATOM      9  C   UNL     1     138.232 135.251 124.066  1.00  0.00    -0.000 C 
ATOM     10  C   UNL     1     139.082 135.465 122.830  1.00  0.00    -0.028 C 
ATOM     11  C   UNL     1     138.592 134.876 121.501  1.00  0.00     0.012 C 
ATOM     12  C   UNL     1     140.597 135.507 123.059  1.00  0.00     0.012 C 
ATOM     13  C   UNL     1     138.323 135.636 125.537  1.00  0.00     0.009 C 
ATOM     14  C   UNL     1     136.988 136.325 125.923  1.00  0.00     0.031 C 
ATOM     15  C   UNL     1     135.774 136.297 122.698  1.00  0.00     0.017 C 
ENDROOT
TORSDOF 0
ENDMDL
MODEL 3
REMARK VINA RESULT:    -0.930     13.787     16.767
REMARK INTER + INTRA:          -0.930
REMARK INTER:                  -0.930
REMARK INTRA:                   0.000
REMARK UNBOUND:                 0.000
REMARK SMILES C[C@@H]1CCC=C2CC[C@H]3[C@@H](C3(C)C)[C@@]21C
REMARK SMILES IDX 1 1 2 2 3 3 4 4 5 5 6 6 14 7 10 8 9 9 11 10 12 11 13 12 8 13
REMARK SMILES IDX 7 14 15 15
REMARK H PARENT
REMARK Flexibility Score: inf
ROOT
ATOM      1  C   UNL     1     140.018 137.329 124.875  1.00  0.00     0.008 C 
ATOM      2  C   UNL     1     139.036 136.157 124.642  1.00  0.00    -0.004 C 
ATOM      3  C   UNL     1     139.841 134.875 124.333  1.00  0.00     0.008 C 
ATOM      4  C   UNL     1     140.485 134.914 122.943  1.00  0.00     0.027 C 
ATOM      5  C   UNL     1     139.629 135.550 121.875  1.00  0.00    -0.027 C 
ATOM      6  C   UNL     1     138.566 136.345 122.128  1.00  0.00    -0.068 C 
ATOM      7  C   UNL     1     137.938 136.419 123.538  1.00  0.00    -0.005 C 
ATOM      8  C   UNL     1     137.384 137.875 123.677  1.00  0.00     0.009 C 
ATOM      9  C   UNL     1     136.304 138.042 122.551  1.00  0.00    -0.000 C 
ATOM     10  C   UNL     1     136.090 138.631 123.931  1.00  0.00    -0.028 C 
ATOM     11  C   UNL     1     135.096 137.936 124.870  1.00  0.00     0.012 C 
ATOM     12  C   UNL     1     136.198 140.157 124.031  1.00  0.00     0.012 C 
ATOM     13  C   UNL     1     137.156 138.384 121.335  1.00  0.00     0.009 C 
ATOM     14  C   UNL     1     137.942 137.106 120.941  1.00  0.00     0.031 C 
ATOM     15  C   UNL     1     136.849 135.313 123.674  1.00  0.00     0.017 C 
ENDROOT
TORSDOF 0
ENDMDL
MODEL 4
REMARK VINA RESULT:    -0.492      1.364      4.726
REMARK INTER + INTRA:          -0.492
REMARK INTER:                  -0.492
REMARK INTRA:                   0.000
REMARK UNBOUND:                 0.000
REMARK SMILES C[C@@H]1CCC=C2CC[C@H]3[C@@H](C3(C)C)[C@@]21C
REMARK SMILES IDX 1 1 2 2 3 3 4 4 5 5 6 6 14 7 10 8 9 9 11 10 12 11 13 12 8 13
REMARK SMILES IDX 7 14 15 15
REMARK H PARENT
REMARK Flexibility Score: inf
ROOT
ATOM      1  C   UNL     1     137.348 150.316 124.472  1.00  0.00     0.008 C 
ATOM      2  C   UNL     1     136.155 151.300 124.495  1.00  0.00    -0.004 C 
ATOM      3  C   UNL     1     134.877 150.558 124.046  1.00  0.00     0.008 C 
ATOM      4  C   UNL     1     134.885 150.243 122.546  1.00  0.00     0.027 C 
ATOM      5  C   UNL     1     135.475 151.331 121.682  1.00  0.00    -0.027 C 
ATOM      6  C   UNL     1     136.262 152.326 122.148  1.00  0.00    -0.068 C 
ATOM      7  C   UNL     1     136.368 152.623 123.660  1.00  0.00    -0.005 C 
ATOM      8  C   UNL     1     137.819 153.163 123.884  1.00  0.00     0.009 C 
ATOM      9  C   UNL     1     137.936 154.471 123.026  1.00  0.00    -0.000 C 
ATOM     10  C   UNL     1     138.562 154.382 124.403  1.00  0.00    -0.028 C 
ATOM     11  C   UNL     1     137.881 155.125 125.559  1.00  0.00     0.012 C 
ATOM     12  C   UNL     1     140.092 154.287 124.438  1.00  0.00     0.012 C 
ATOM     13  C   UNL     1     138.255 153.922 121.641  1.00  0.00     0.009 C 
ATOM     14  C   UNL     1     136.978 153.218 121.113  1.00  0.00     0.031 C 
ATOM     15  C   UNL     1     135.250 153.630 124.066  1.00  0.00     0.017 C 
ENDROOT
TORSDOF 0
ENDMDL
MODEL 5
REMARK VINA RESULT:     0.617      1.287      4.113
REMARK INTER + INTRA:           0.617
REMARK INTER:                   0.617
REMARK INTRA:                   0.000
REMARK UNBOUND:                 0.000
REMARK SMILES C[C@@H]1CCC=C2CC[C@H]3[C@@H](C3(C)C)[C@@]21C
REMARK SMILES IDX 1 1 2 2 3 3 4 4 5 5 6 6 14 7 10 8 9 9 11 10 12 11 13 12 8 13
REMARK SMILES IDX 7 14 15 15
REMARK H PARENT
REMARK Flexibility Score: inf
ROOT
ATOM      1  C   UNL     1     136.289 150.594 123.238  1.00  0.00     0.008 C 
ATOM      2  C   UNL     1     135.602 151.854 122.661  1.00  0.00    -0.004 C 
ATOM      3  C   UNL     1     135.543 151.739 121.121  1.00  0.00     0.008 C 
ATOM      4  C   UNL     1     136.921 151.911 120.472  1.00  0.00     0.027 C 
ATOM      5  C   UNL     1     137.792 152.958 121.123  1.00  0.00    -0.027 C 
ATOM      6  C   UNL     1     137.584 153.454 122.362  1.00  0.00    -0.068 C 
ATOM      7  C   UNL     1     136.248 153.226 123.104  1.00  0.00    -0.005 C 
ATOM      8  C   UNL     1     136.612 153.173 124.624  1.00  0.00     0.009 C 
ATOM      9  C   UNL     1     137.238 154.569 124.973  1.00  0.00    -0.000 C 
ATOM     10  C   UNL     1     136.306 153.868 125.940  1.00  0.00    -0.028 C 
ATOM     11  C   UNL     1     134.875 154.401 126.085  1.00  0.00     0.012 C 
ATOM     12  C   UNL     1     136.963 153.278 127.194  1.00  0.00     0.012 C 
ATOM     13  C   UNL     1     138.684 154.395 124.525  1.00  0.00     0.009 C 
ATOM     14  C   UNL     1     138.690 154.337 122.975  1.00  0.00     0.031 C 
ATOM     15  C   UNL     1     135.252 154.365 122.732  1.00  0.00     0.017 C 
ENDROOT
TORSDOF 0
ENDMDL
