MODEL 1
REMARK VINA RESULT:    -3.813      0.000      0.000
REMARK INTER + INTRA:          -8.287
REMARK INTER:                  -6.711
REMARK INTRA:                  -1.576
REMARK UNBOUND:                -1.576
REMARK SMILES CCCCCCCCCCCCCCC(=O)[O-]
REMARK SMILES IDX 9 1 10 2 11 3 12 4 13 5 14 6 15 7 16 8 17 9 8 10 7 11 6 12
REMARK SMILES IDX 5 13 4 14 3 15 2 16 1 17
REMARK H PARENT
REMARK Flexibility Score: inf
ROOT
ATOM      1  C   UNL     1      26.670  31.721  36.535  1.00  0.00     0.000 C 
ENDROOT
BRANCH   1   2
ATOM      2  C   UNL     1      28.068  31.942  37.125  1.00  0.00     0.000 C 
BRANCH   2   3
ATOM      3  C   UNL     1      28.737  33.177  36.505  1.00  0.00     0.000 C 
BRANCH   3   4
ATOM      4  C   UNL     1      29.973  32.822  35.662  1.00  0.00     0.000 C 
BRANCH   4   5
ATOM      5  C   UNL     1      29.616  32.048  34.385  1.00  0.00     0.006 C 
BRANCH   5   6
ATOM      6  C   UNL     1      30.674  30.984  34.076  1.00  0.00     0.053 C 
BRANCH   6   7
ATOM      7  C   UNL     1      30.085  29.613  34.182  1.00  0.00     0.041 C 
ATOM      8  O   UNL     1      29.980  28.887  33.158  1.00  0.00    -0.550 OA
ATOM      9  O   UNL     1      29.606  29.155  35.403  1.00  0.00    -0.550 OA
ENDBRANCH   6   7
ENDBRANCH   5   6
ENDBRANCH   4   5
ENDBRANCH   3   4
ENDBRANCH   2   3
ENDBRANCH   1   2
BRANCH   1  10
ATOM     10  C   UNL     1      25.710  32.842  36.959  1.00  0.00     0.000 C 
BRANCH  10  11
ATOM     11  C   UNL     1      24.834  33.352  35.800  1.00  0.00    -0.000 C 
BRANCH  11  12
ATOM     12  C   UNL     1      25.556  33.490  34.444  1.00  0.00    -0.000 C 
BRANCH  12  13
ATOM     13  C   UNL     1      26.359  34.791  34.262  1.00  0.00    -0.000 C 
BRANCH  13  14
ATOM     14  C   UNL     1      27.552  34.685  33.293  1.00  0.00    -0.000 C 
BRANCH  14  15
ATOM     15  C   UNL     1      27.273  35.281  31.897  1.00  0.00    -0.000 C 
BRANCH  15  16
ATOM     16  C   UNL     1      26.987  34.201  30.842  1.00  0.00    -0.003 C 
ATOM     17  C   UNL     1      25.611  34.397  30.212  1.00  0.00     0.004 C 
ENDBRANCH  15  16
ENDBRANCH  14  15
ENDBRANCH  13  14
ENDBRANCH  12  13
ENDBRANCH  11  12
ENDBRANCH  10  11
ENDBRANCH   1  10
TORSDOF 13
ENDMDL
MODEL 2
REMARK VINA RESULT:    -3.728      2.308      5.433
REMARK INTER + INTRA:          -8.137
REMARK INTER:                  -6.391
REMARK INTRA:                  -1.746
REMARK UNBOUND:                -1.576
REMARK SMILES CCCCCCCCCCCCCCC(=O)[O-]
REMARK SMILES IDX 9 1 10 2 11 3 12 4 13 5 14 6 15 7 16 8 17 9 8 10 7 11 6 12
REMARK SMILES IDX 5 13 4 14 3 15 2 16 1 17
REMARK H PARENT
REMARK Flexibility Score: inf
ROOT
ATOM      1  C   UNL     1      26.753  32.048  36.018  1.00  0.00     0.000 C 
ENDROOT
BRANCH   1   2
ATOM      2  C   UNL     1      25.548  32.910  36.415  1.00  0.00     0.000 C 
BRANCH   2   3
ATOM      3  C   UNL     1      25.402  34.117  35.477  1.00  0.00     0.000 C 
BRANCH   3   4
ATOM      4  C   UNL     1      26.137  33.923  34.141  1.00  0.00     0.000 C 
BRANCH   4   5
ATOM      5  C   UNL     1      26.946  35.161  33.725  1.00  0.00     0.006 C 
BRANCH   5   6
ATOM      6  C   UNL     1      26.807  35.427  32.223  1.00  0.00     0.053 C 
BRANCH   6   7
ATOM      7  C   UNL     1      27.123  34.191  31.441  1.00  0.00     0.041 C 
ATOM      8  O   UNL     1      28.283  33.700  31.472  1.00  0.00    -0.550 OA
ATOM      9  O   UNL     1      26.150  33.610  30.637  1.00  0.00    -0.550 OA
ENDBRANCH   6   7
ENDBRANCH   5   6
ENDBRANCH   4   5
ENDBRANCH   3   4
ENDBRANCH   2   3
ENDBRANCH   1   2
BRANCH   1  10
ATOM     10  C   UNL     1      27.820  32.053  37.123  1.00  0.00     0.000 C 
BRANCH  10  11
ATOM     11  C   UNL     1      28.869  33.164  36.939  1.00  0.00    -0.000 C 
BRANCH  11  12
ATOM     12  C   UNL     1      29.526  33.221  35.544  1.00  0.00    -0.000 C 
BRANCH  12  13
ATOM     13  C   UNL     1      30.535  32.096  35.250  1.00  0.00    -0.000 C 
BRANCH  13  14
ATOM     14  C   UNL     1      30.085  31.087  34.177  1.00  0.00    -0.000 C 
BRANCH  14  15
ATOM     15  C   UNL     1      29.484  29.789  34.758  1.00  0.00    -0.000 C 
BRANCH  15  16
ATOM     16  C   UNL     1      30.459  29.055  35.691  1.00  0.00    -0.003 C 
ATOM     17  C   UNL     1      29.911  28.982  37.113  1.00  0.00     0.004 C 
ENDBRANCH  15  16
ENDBRANCH  14  15
ENDBRANCH  13  14
ENDBRANCH  12  13
ENDBRANCH  11  12
ENDBRANCH  10  11
ENDBRANCH   1  10
TORSDOF 13
ENDMDL
MODEL 3
REMARK VINA RESULT:    -3.720      1.042      2.113
REMARK INTER + INTRA:          -8.123
REMARK INTER:                  -6.563
REMARK INTRA:                  -1.560
REMARK UNBOUND:                -1.576
REMARK SMILES CCCCCCCCCCCCCCC(=O)[O-]
REMARK SMILES IDX 9 1 10 2 11 3 12 4 13 5 14 6 15 7 16 8 17 9 8 10 7 11 6 12
REMARK SMILES IDX 5 13 4 14 3 15 2 16 1 17
REMARK H PARENT
REMARK Flexibility Score: inf
ROOT
ATOM      1  C   UNL     1      24.682  33.214  35.856  1.00  0.00     0.000 C 
ENDROOT
BRANCH   1   2
ATOM      2  C   UNL     1      25.502  32.949  37.124  1.00  0.00     0.000 C 
BRANCH   2   3
ATOM      3  C   UNL     1      26.587  31.893  36.868  1.00  0.00     0.000 C 
BRANCH   3   4
ATOM      4  C   UNL     1      28.006  32.425  37.125  1.00  0.00     0.000 C 
BRANCH   4   5
ATOM      5  C   UNL     1      28.972  32.115  35.972  1.00  0.00     0.006 C 
BRANCH   5   6
ATOM      6  C   UNL     1      28.616  30.784  35.303  1.00  0.00     0.053 C 
BRANCH   6   7
ATOM      7  C   UNL     1      29.756  30.296  34.466  1.00  0.00     0.041 C 
ATOM      8  O   UNL     1      30.591  31.112  33.994  1.00  0.00    -0.550 OA
ATOM      9  O   UNL     1      29.869  28.944  34.166  1.00  0.00    -0.550 OA
ENDBRANCH   6   7
ENDBRANCH   5   6
ENDBRANCH   4   5
ENDBRANCH   3   4
ENDBRANCH   2   3
ENDBRANCH   1   2
BRANCH   1  10
ATOM     10  C   UNL     1      25.600  33.476  34.652  1.00  0.00     0.000 C 
BRANCH  10  11
ATOM     11  C   UNL     1      26.294  34.848  34.715  1.00  0.00    -0.000 C 
BRANCH  11  12
ATOM     12  C   UNL     1      27.171  35.196  33.494  1.00  0.00    -0.000 C 
BRANCH  12  13
ATOM     13  C   UNL     1      28.164  34.099  33.070  1.00  0.00    -0.000 C 
BRANCH  13  14
ATOM     14  C   UNL     1      28.070  33.676  31.591  1.00  0.00    -0.000 C 
BRANCH  14  15
ATOM     15  C   UNL     1      27.012  34.462  30.787  1.00  0.00    -0.000 C 
BRANCH  15  16
ATOM     16  C   UNL     1      25.783  33.608  30.440  1.00  0.00    -0.003 C 
ATOM     17  C   UNL     1      24.787  34.396  29.593  1.00  0.00     0.004 C 
ENDBRANCH  15  16
ENDBRANCH  14  15
ENDBRANCH  13  14
ENDBRANCH  12  13
ENDBRANCH  11  12
ENDBRANCH  10  11
ENDBRANCH   1  10
TORSDOF 13
ENDMDL
MODEL 4
REMARK VINA RESULT:    -3.675      2.606      5.246
REMARK INTER + INTRA:          -8.044
REMARK INTER:                  -6.545
REMARK INTRA:                  -1.499
REMARK UNBOUND:                -1.576
REMARK SMILES CCCCCCCCCCCCCCC(=O)[O-]
REMARK SMILES IDX 9 1 10 2 11 3 12 4 13 5 14 6 15 7 16 8 17 9 8 10 7 11 6 12
REMARK SMILES IDX 5 13 4 14 3 15 2 16 1 17
REMARK H PARENT
REMARK Flexibility Score: inf
ROOT
ATOM      1  C   UNL     1      25.684  33.594  36.522  1.00  0.00     0.000 C 
ENDROOT
BRANCH   1   2
ATOM      2  C   UNL     1      25.655  33.552  34.989  1.00  0.00     0.000 C 
BRANCH   2   3
ATOM      3  C   UNL     1      26.367  34.774  34.392  1.00  0.00     0.000 C 
BRANCH   3   4
ATOM      4  C   UNL     1      27.612  34.394  33.574  1.00  0.00     0.000 C 
BRANCH   4   5
ATOM      5  C   UNL     1      27.666  35.104  32.213  1.00  0.00     0.006 C 
BRANCH   5   6
ATOM      6  C   UNL     1      27.486  34.104  31.067  1.00  0.00     0.053 C 
BRANCH   6   7
ATOM      7  C   UNL     1      26.034  33.909  30.764  1.00  0.00     0.041 C 
ATOM      8  O   UNL     1      25.350  33.093  31.437  1.00  0.00    -0.550 OA
ATOM      9  O   UNL     1      25.447  34.592  29.705  1.00  0.00    -0.550 OA
ENDBRANCH   6   7
ENDBRANCH   5   6
ENDBRANCH   4   5
ENDBRANCH   3   4
ENDBRANCH   2   3
ENDBRANCH   1   2
BRANCH   1  10
ATOM     10  C   UNL     1      26.240  32.283  37.098  1.00  0.00     0.000 C 
BRANCH  10  11
ATOM     11  C   UNL     1      27.564  31.854  36.442  1.00  0.00    -0.000 C 
BRANCH  11  12
ATOM     12  C   UNL     1      28.821  32.583  36.963  1.00  0.00    -0.000 C 
BRANCH  12  13
ATOM     13  C   UNL     1      29.847  32.969  35.882  1.00  0.00    -0.000 C 
BRANCH  13  14
ATOM     14  C   UNL     1      30.698  31.800  35.350  1.00  0.00    -0.000 C 
BRANCH  14  15
ATOM     15  C   UNL     1      30.223  31.259  33.984  1.00  0.00    -0.000 C 
BRANCH  15  16
ATOM     16  C   UNL     1      29.970  29.744  34.007  1.00  0.00    -0.003 C 
ATOM     17  C   UNL     1      29.999  29.202  35.433  1.00  0.00     0.004 C 
ENDBRANCH  15  16
ENDBRANCH  14  15
ENDBRANCH  13  14
ENDBRANCH  12  13
ENDBRANCH  11  12
ENDBRANCH  10  11
ENDBRANCH   1  10
TORSDOF 13
ENDMDL
MODEL 5
REMARK VINA RESULT:    -3.539      2.346      5.097
REMARK INTER + INTRA:          -7.804
REMARK INTER:                  -6.365
REMARK INTRA:                  -1.439
REMARK UNBOUND:                -1.576
REMARK SMILES CCCCCCCCCCCCCCC(=O)[O-]
REMARK SMILES IDX 9 1 10 2 11 3 12 4 13 5 14 6 15 7 16 8 17 9 8 10 7 11 6 12
REMARK SMILES IDX 5 13 4 14 3 15 2 16 1 17
REMARK H PARENT
REMARK Flexibility Score: inf
ROOT
ATOM      1  C   UNL     1      25.354  33.254  36.565  1.00  0.00     0.000 C 
ENDROOT
BRANCH   1   2
ATOM      2  C   UNL     1      24.676  32.881  35.242  1.00  0.00     0.000 C 
BRANCH   2   3
ATOM      3  C   UNL     1      25.534  33.311  34.043  1.00  0.00     0.000 C 
BRANCH   3   4
ATOM      4  C   UNL     1      26.312  34.610  34.307  1.00  0.00     0.000 C 
BRANCH   4   5
ATOM      5  C   UNL     1      27.517  34.779  33.368  1.00  0.00     0.006 C 
BRANCH   5   6
ATOM      6  C   UNL     1      27.088  35.395  32.033  1.00  0.00     0.053 C 
BRANCH   6   7
ATOM      7  C   UNL     1      27.100  34.362  30.951  1.00  0.00     0.041 C 
ATOM      8  O   UNL     1      26.040  34.082  30.330  1.00  0.00    -0.550 OA
ATOM      9  O   UNL     1      28.270  33.671  30.662  1.00  0.00    -0.550 OA
ENDBRANCH   6   7
ENDBRANCH   5   6
ENDBRANCH   4   5
ENDBRANCH   3   4
ENDBRANCH   2   3
ENDBRANCH   1   2
BRANCH   1  10
ATOM     10  C   UNL     1      26.436  32.229  36.937  1.00  0.00     0.000 C 
BRANCH  10  11
ATOM     11  C   UNL     1      27.825  32.865  37.125  1.00  0.00    -0.000 C 
BRANCH  11  12
ATOM     12  C   UNL     1      29.001  32.059  36.534  1.00  0.00    -0.000 C 
BRANCH  12  13
ATOM     13  C   UNL     1      28.714  31.382  35.182  1.00  0.00    -0.000 C 
BRANCH  13  14
ATOM     14  C   UNL     1      29.629  31.831  34.026  1.00  0.00    -0.000 C 
BRANCH  14  15
ATOM     15  C   UNL     1      30.579  30.725  33.520  1.00  0.00    -0.000 C 
BRANCH  15  16
ATOM     16  C   UNL     1      29.989  29.317  33.695  1.00  0.00    -0.003 C 
ATOM     17  C   UNL     1      30.378  28.409  32.533  1.00  0.00     0.004 C 
ENDBRANCH  15  16
ENDBRANCH  14  15
ENDBRANCH  13  14
ENDBRANCH  12  13
ENDBRANCH  11  12
ENDBRANCH  10  11
ENDBRANCH   1  10
TORSDOF 13
ENDMDL
MODEL 6
REMARK VINA RESULT:    -3.494      2.773      5.374
REMARK INTER + INTRA:          -7.726
REMARK INTER:                  -6.346
REMARK INTRA:                  -1.380
REMARK UNBOUND:                -1.576
REMARK SMILES CCCCCCCCCCCCCCC(=O)[O-]
REMARK SMILES IDX 9 1 10 2 11 3 12 4 13 5 14 6 15 7 16 8 17 9 8 10 7 11 6 12
REMARK SMILES IDX 5 13 4 14 3 15 2 16 1 17
REMARK H PARENT
REMARK Flexibility Score: inf
ROOT
ATOM      1  C   UNL     1      25.487  34.244  35.370  1.00  0.00     0.000 C 
ENDROOT
BRANCH   1   2
ATOM      2  C   UNL     1      26.635  34.078  34.368  1.00  0.00     0.000 C 
BRANCH   2   3
ATOM      3  C   UNL     1      26.882  35.380  33.593  1.00  0.00     0.000 C 
BRANCH   3   4
ATOM      4  C   UNL     1      28.023  35.255  32.570  1.00  0.00     0.000 C 
BRANCH   4   5
ATOM      5  C   UNL     1      27.805  34.103  31.578  1.00  0.00     0.006 C 
BRANCH   5   6
ATOM      6  C   UNL     1      26.983  34.568  30.372  1.00  0.00     0.053 C 
BRANCH   6   7
ATOM      7  C   UNL     1      25.622  33.947  30.394  1.00  0.00     0.041 C 
ATOM      8  O   UNL     1      24.765  34.266  29.528  1.00  0.00    -0.550 OA
ATOM      9  O   UNL     1      25.283  33.053  31.402  1.00  0.00    -0.550 OA
ENDBRANCH   6   7
ENDBRANCH   5   6
ENDBRANCH   4   5
ENDBRANCH   3   4
ENDBRANCH   2   3
ENDBRANCH   1   2
BRANCH   1  10
ATOM     10  C   UNL     1      25.336  32.992  36.247  1.00  0.00     0.000 C 
BRANCH  10  11
ATOM     11  C   UNL     1      26.571  32.722  37.125  1.00  0.00    -0.000 C 
BRANCH  11  12
ATOM     12  C   UNL     1      27.151  31.296  37.022  1.00  0.00    -0.000 C 
BRANCH  12  13
ATOM     13  C   UNL     1      27.721  30.921  35.642  1.00  0.00    -0.000 C 
BRANCH  13  14
ATOM     14  C   UNL     1      29.112  30.258  35.675  1.00  0.00    -0.000 C 
BRANCH  14  15
ATOM     15  C   UNL     1      30.200  31.131  36.335  1.00  0.00    -0.000 C 
BRANCH  15  16
ATOM     16  C   UNL     1      30.639  32.301  35.442  1.00  0.00    -0.003 C 
ATOM     17  C   UNL     1      30.100  33.628  35.969  1.00  0.00     0.004 C 
ENDBRANCH  15  16
ENDBRANCH  14  15
ENDBRANCH  13  14
ENDBRANCH  12  13
ENDBRANCH  11  12
ENDBRANCH  10  11
ENDBRANCH   1  10
TORSDOF 13
ENDMDL
MODEL 7
REMARK VINA RESULT:    -3.316      2.761      5.404
REMARK INTER + INTRA:          -7.412
REMARK INTER:                  -5.849
REMARK INTRA:                  -1.563
REMARK UNBOUND:                -1.576
REMARK SMILES CCCCCCCCCCCCCCC(=O)[O-]
REMARK SMILES IDX 9 1 10 2 11 3 12 4 13 5 14 6 15 7 16 8 17 9 8 10 7 11 6 12
REMARK SMILES IDX 5 13 4 14 3 15 2 16 1 17
REMARK H PARENT
REMARK Flexibility Score: inf
ROOT
ATOM      1  C   UNL     1      29.254  32.394  33.505  1.00  0.00     0.000 C 
ENDROOT
BRANCH   1   2
ATOM      2  C   UNL     1      28.502  33.568  34.142  1.00  0.00     0.000 C 
BRANCH   2   3
ATOM      3  C   UNL     1      28.463  34.776  33.195  1.00  0.00     0.000 C 
BRANCH   3   4
ATOM      4  C   UNL     1      27.210  35.644  33.390  1.00  0.00     0.000 C 
BRANCH   4   5
ATOM      5  C   UNL     1      26.334  35.711  32.129  1.00  0.00     0.006 C 
BRANCH   5   6
ATOM      6  C   UNL     1      26.830  34.727  31.066  1.00  0.00     0.053 C 
BRANCH   6   7
ATOM      7  C   UNL     1      25.674  34.061  30.388  1.00  0.00     0.041 C 
ATOM      8  O   UNL     1      25.111  34.613  29.406  1.00  0.00    -0.550 OA
ATOM      9  O   UNL     1      25.187  32.853  30.873  1.00  0.00    -0.550 OA
ENDBRANCH   6   7
ENDBRANCH   5   6
ENDBRANCH   4   5
ENDBRANCH   3   4
ENDBRANCH   2   3
ENDBRANCH   1   2
BRANCH   1  10
ATOM     10  C   UNL     1      30.002  31.577  34.569  1.00  0.00     0.000 C 
BRANCH  10  11
ATOM     11  C   UNL     1      29.365  31.686  35.966  1.00  0.00    -0.000 C 
BRANCH  11  12
ATOM     12  C   UNL     1      28.227  30.683  36.249  1.00  0.00    -0.000 C 
BRANCH  12  13
ATOM     13  C   UNL     1      27.082  31.224  37.125  1.00  0.00    -0.000 C 
BRANCH  13  14
ATOM     14  C   UNL     1      26.750  32.713  36.909  1.00  0.00    -0.000 C 
BRANCH  14  15
ATOM     15  C   UNL     1      25.236  33.016  36.901  1.00  0.00    -0.000 C 
BRANCH  15  16
ATOM     16  C   UNL     1      24.793  33.768  35.636  1.00  0.00    -0.003 C 
ATOM     17  C   UNL     1      24.897  32.877  34.402  1.00  0.00     0.004 C 
ENDBRANCH  15  16
ENDBRANCH  14  15
ENDBRANCH  13  14
ENDBRANCH  12  13
ENDBRANCH  11  12
ENDBRANCH  10  11
ENDBRANCH   1  10
TORSDOF 13
ENDMDL
MODEL 8
REMARK VINA RESULT:    -3.088      1.465      2.664
REMARK INTER + INTRA:          -7.011
REMARK INTER:                  -5.754
REMARK INTRA:                  -1.258
REMARK UNBOUND:                -1.576
REMARK SMILES CCCCCCCCCCCCCCC(=O)[O-]
REMARK SMILES IDX 9 1 10 2 11 3 12 4 13 5 14 6 15 7 16 8 17 9 8 10 7 11 6 12
REMARK SMILES IDX 5 13 4 14 3 15 2 16 1 17
REMARK H PARENT
REMARK Flexibility Score: inf
ROOT
ATOM      1  C   UNL     1      28.771  32.922  36.375  1.00  0.00     0.000 C 
ENDROOT
BRANCH   1   2
ATOM      2  C   UNL     1      30.245  32.595  36.113  1.00  0.00     0.000 C 
BRANCH   2   3
ATOM      3  C   UNL     1      30.412  31.140  35.651  1.00  0.00     0.000 C 
BRANCH   3   4
ATOM      4  C   UNL     1      30.166  30.963  34.144  1.00  0.00     0.000 C 
BRANCH   4   5
ATOM      5  C   UNL     1      30.002  29.490  33.740  1.00  0.00     0.006 C 
BRANCH   5   6
ATOM      6  C   UNL     1      30.085  28.574  34.965  1.00  0.00     0.053 C 
BRANCH   6   7
ATOM      7  C   UNL     1      30.281  27.152  34.543  1.00  0.00     0.041 C 
ATOM      8  O   UNL     1      30.915  26.885  33.488  1.00  0.00    -0.550 OA
ATOM      9  O   UNL     1      29.720  26.123  35.289  1.00  0.00    -0.550 OA
ENDBRANCH   6   7
ENDBRANCH   5   6
ENDBRANCH   4   5
ENDBRANCH   3   4
ENDBRANCH   2   3
ENDBRANCH   1   2
BRANCH   1  10
ATOM     10  C   UNL     1      28.002  31.673  36.831  1.00  0.00     0.000 C 
BRANCH  10  11
ATOM     11  C   UNL     1      26.503  31.942  37.059  1.00  0.00    -0.000 C 
BRANCH  11  12
ATOM     12  C   UNL     1      26.087  33.427  37.005  1.00  0.00    -0.000 C 
BRANCH  12  13
ATOM     13  C   UNL     1      25.122  33.793  35.863  1.00  0.00    -0.000 C 
BRANCH  13  14
ATOM     14  C   UNL     1      25.373  33.046  34.538  1.00  0.00    -0.000 C 
BRANCH  14  15
ATOM     15  C   UNL     1      26.518  33.647  33.695  1.00  0.00    -0.000 C 
BRANCH  15  16
ATOM     16  C   UNL     1      26.682  35.158  33.916  1.00  0.00    -0.003 C 
ATOM     17  C   UNL     1      26.957  35.881  32.601  1.00  0.00     0.004 C 
ENDBRANCH  15  16
ENDBRANCH  14  15
ENDBRANCH  13  14
ENDBRANCH  12  13
ENDBRANCH  11  12
ENDBRANCH  10  11
ENDBRANCH   1  10
TORSDOF 13
ENDMDL
MODEL 9
REMARK VINA RESULT:    -2.870      1.212      2.068
REMARK INTER + INTRA:          -6.627
REMARK INTER:                  -5.409
REMARK INTRA:                  -1.218
REMARK UNBOUND:                -1.576
REMARK SMILES CCCCCCCCCCCCCCC(=O)[O-]
REMARK SMILES IDX 9 1 10 2 11 3 12 4 13 5 14 6 15 7 16 8 17 9 8 10 7 11 6 12
REMARK SMILES IDX 5 13 4 14 3 15 2 16 1 17
REMARK H PARENT
REMARK Flexibility Score: inf
ROOT
ATOM      1  C   UNL     1      25.638  33.361  36.755  1.00  0.00     0.000 C 
ENDROOT
BRANCH   1   2
ATOM      2  C   UNL     1      26.915  32.512  36.722  1.00  0.00     0.000 C 
BRANCH   2   3
ATOM      3  C   UNL     1      28.020  33.211  35.917  1.00  0.00     0.000 C 
BRANCH   3   4
ATOM      4  C   UNL     1      29.373  33.217  36.647  1.00  0.00     0.000 C 
BRANCH   4   5
ATOM      5  C   UNL     1      30.565  33.124  35.683  1.00  0.00     0.006 C 
BRANCH   5   6
ATOM      6  C   UNL     1      31.035  31.673  35.532  1.00  0.00     0.053 C 
BRANCH   6   7
ATOM      7  C   UNL     1      30.166  30.939  34.561  1.00  0.00     0.041 C 
ATOM      8  O   UNL     1      29.510  29.930  34.934  1.00  0.00    -0.550 OA
ATOM      9  O   UNL     1      30.118  31.338  33.231  1.00  0.00    -0.550 OA
ENDBRANCH   6   7
ENDBRANCH   5   6
ENDBRANCH   4   5
ENDBRANCH   3   4
ENDBRANCH   2   3
ENDBRANCH   1   2
BRANCH   1  10
ATOM     10  C   UNL     1      25.390  34.035  35.397  1.00  0.00     0.000 C 
BRANCH  10  11
ATOM     11  C   UNL     1      24.715  33.100  34.378  1.00  0.00    -0.000 C 
BRANCH  11  12
ATOM     12  C   UNL     1      25.593  32.698  33.174  1.00  0.00    -0.000 C 
BRANCH  12  13
ATOM     13  C   UNL     1      25.315  33.476  31.875  1.00  0.00    -0.000 C 
BRANCH  13  14
ATOM     14  C   UNL     1      26.570  34.008  31.157  1.00  0.00    -0.000 C 
BRANCH  14  15
ATOM     15  C   UNL     1      27.850  33.946  32.018  1.00  0.00    -0.000 C 
BRANCH  15  16
ATOM     16  C   UNL     1      28.028  35.192  32.899  1.00  0.00    -0.003 C 
ATOM     17  C   UNL     1      26.909  36.201  32.658  1.00  0.00     0.004 C 
ENDBRANCH  15  16
ENDBRANCH  14  15
ENDBRANCH  13  14
ENDBRANCH  12  13
ENDBRANCH  11  12
ENDBRANCH  10  11
ENDBRANCH   1  10
TORSDOF 13
ENDMDL
