MODEL 1
REMARK VINA RESULT:    -3.325      0.000      0.000
REMARK INTER + INTRA:          -7.362
REMARK INTER:                  -5.658
REMARK INTRA:                  -1.705
REMARK UNBOUND:                -1.705
REMARK SMILES CCCCCCCCCCCCCC(=O)[O-]
REMARK SMILES IDX 8 1 9 2 10 3 11 4 12 5 13 6 14 7 15 8 16 9 7 10 6 11 5 12
REMARK SMILES IDX 4 13 3 14 2 15 1 16
REMARK H PARENT
REMARK Flexibility Score: inf
ROOT
ATOM      1  C   UNL     1      56.787  27.310  51.576  1.00  0.00     0.000 C 
ENDROOT
BRANCH   1   2
ATOM      2  C   UNL     1      57.000  28.219  50.360  1.00  0.00     0.000 C 
BRANCH   2   3
ATOM      3  C   UNL     1      57.728  29.509  50.755  1.00  0.00     0.000 C 
BRANCH   3   4
ATOM      4  C   UNL     1      59.183  29.493  50.262  1.00  0.00     0.000 C 
BRANCH   4   5
ATOM      5  C   UNL     1      59.460  28.354  49.264  1.00  0.00     0.006 C 
BRANCH   5   6
ATOM      6  C   UNL     1      60.804  27.639  49.478  1.00  0.00     0.053 C 
BRANCH   6   7
ATOM      7  C   UNL     1      60.621  26.222  49.924  1.00  0.00     0.041 C 
ATOM      8  O   UNL     1      61.612  25.539  50.290  1.00  0.00    -0.550 OA
ATOM      9  O   UNL     1      59.358  25.644  49.903  1.00  0.00    -0.550 OA
ENDBRANCH   6   7
ENDBRANCH   5   6
ENDBRANCH   4   5
ENDBRANCH   3   4
ENDBRANCH   2   3
ENDBRANCH   1   2
BRANCH   1  10
ATOM     10  C   UNL     1      55.952  26.077  51.202  1.00  0.00     0.000 C 
BRANCH  10  11
ATOM     11  C   UNL     1      55.493  26.096  49.735  1.00  0.00    -0.000 C 
BRANCH  11  12
ATOM     12  C   UNL     1      54.039  25.625  49.561  1.00  0.00    -0.000 C 
BRANCH  12  13
ATOM     13  C   UNL     1      53.026  26.648  50.120  1.00  0.00    -0.000 C 
BRANCH  13  14
ATOM     14  C   UNL     1      53.235  28.075  49.585  1.00  0.00    -0.000 C 
BRANCH  14  15
ATOM     15  C   UNL     1      53.416  29.111  50.702  1.00  0.00    -0.003 C 
ATOM     16  C   UNL     1      53.239  28.475  52.077  1.00  0.00     0.004 C 
ENDBRANCH  14  15
ENDBRANCH  13  14
ENDBRANCH  12  13
ENDBRANCH  11  12
ENDBRANCH  10  11
ENDBRANCH   1  10
TORSDOF 12
ENDMDL
MODEL 2
REMARK VINA RESULT:    -3.291      2.844      5.810
REMARK INTER + INTRA:          -7.304
REMARK INTER:                  -5.185
REMARK INTRA:                  -2.119
REMARK UNBOUND:                -1.705
REMARK SMILES CCCCCCCCCCCCCC(=O)[O-]
REMARK SMILES IDX 8 1 9 2 10 3 11 4 12 5 13 6 14 7 15 8 16 9 7 10 6 11 5 12
REMARK SMILES IDX 4 13 3 14 2 15 1 16
REMARK H PARENT
REMARK Flexibility Score: inf
ROOT
ATOM      1  C   UNL     1      59.133  28.537  52.776  1.00  0.00     0.000 C 
ENDROOT
BRANCH   1   2
ATOM      2  C   UNL     1      57.832  27.737  52.915  1.00  0.00     0.000 C 
BRANCH   2   3
ATOM      3  C   UNL     1      58.117  26.233  53.013  1.00  0.00     0.000 C 
BRANCH   3   4
ATOM      4  C   UNL     1      57.126  25.430  52.156  1.00  0.00     0.000 C 
BRANCH   4   5
ATOM      5  C   UNL     1      56.012  26.307  51.554  1.00  0.00     0.006 C 
BRANCH   5   6
ATOM      6  C   UNL     1      55.901  26.224  50.023  1.00  0.00     0.053 C 
BRANCH   6   7
ATOM      7  C   UNL     1      54.518  26.542  49.544  1.00  0.00     0.041 C 
ATOM      8  O   UNL     1      53.860  25.687  48.896  1.00  0.00    -0.550 OA
ATOM      9  O   UNL     1      53.969  27.795  49.784  1.00  0.00    -0.550 OA
ENDBRANCH   6   7
ENDBRANCH   5   6
ENDBRANCH   4   5
ENDBRANCH   3   4
ENDBRANCH   2   3
ENDBRANCH   1   2
BRANCH   1  10
ATOM     10  C   UNL     1      58.970  29.680  51.764  1.00  0.00     0.000 C 
BRANCH  10  11
ATOM     11  C   UNL     1      58.104  29.284  50.557  1.00  0.00    -0.000 C 
BRANCH  11  12
ATOM     12  C   UNL     1      58.896  29.262  49.238  1.00  0.00    -0.000 C 
BRANCH  12  13
ATOM     13  C   UNL     1      59.950  28.134  49.212  1.00  0.00    -0.000 C 
BRANCH  13  14
ATOM     14  C   UNL     1      59.364  26.739  49.487  1.00  0.00    -0.000 C 
BRANCH  14  15
ATOM     15  C   UNL     1      60.385  25.774  50.104  1.00  0.00    -0.003 C 
ATOM     16  C   UNL     1      61.593  26.526  50.652  1.00  0.00     0.004 C 
ENDBRANCH  14  15
ENDBRANCH  13  14
ENDBRANCH  12  13
ENDBRANCH  11  12
ENDBRANCH  10  11
ENDBRANCH   1  10
TORSDOF 12
ENDMDL
MODEL 3
REMARK VINA RESULT:    -3.270     11.715     13.630
REMARK INTER + INTRA:          -7.269
REMARK INTER:                  -5.562
REMARK INTRA:                  -1.707
REMARK UNBOUND:                -1.705
REMARK SMILES CCCCCCCCCCCCCC(=O)[O-]
REMARK SMILES IDX 8 1 9 2 10 3 11 4 12 5 13 6 14 7 15 8 16 9 7 10 6 11 5 12
REMARK SMILES IDX 4 13 3 14 2 15 1 16
REMARK H PARENT
REMARK Flexibility Score: inf
ROOT
ATOM      1  C   UNL     1      62.836  33.123  59.388  1.00  0.00     0.000 C 
ENDROOT
BRANCH   1   2
ATOM      2  C   UNL     1      61.645  33.086  60.353  1.00  0.00     0.000 C 
BRANCH   2   3
ATOM      3  C   UNL     1      60.831  31.798  60.176  1.00  0.00     0.000 C 
BRANCH   3   4
ATOM      4  C   UNL     1      60.821  30.973  61.473  1.00  0.00     0.000 C 
BRANCH   4   5
ATOM      5  C   UNL     1      62.117  30.168  61.677  1.00  0.00     0.006 C 
BRANCH   5   6
ATOM      6  C   UNL     1      62.496  29.267  60.490  1.00  0.00     0.053 C 
BRANCH   6   7
ATOM      7  C   UNL     1      63.878  29.551  59.990  1.00  0.00     0.041 C 
ATOM      8  O   UNL     1      64.843  29.620  60.796  1.00  0.00    -0.550 OA
ATOM      9  O   UNL     1      64.097  29.773  58.636  1.00  0.00    -0.550 OA
ENDBRANCH   6   7
ENDBRANCH   5   6
ENDBRANCH   4   5
ENDBRANCH   3   4
ENDBRANCH   2   3
ENDBRANCH   1   2
BRANCH   1  10
ATOM     10  C   UNL     1      64.162  33.232  60.154  1.00  0.00     0.000 C 
BRANCH  10  11
ATOM     11  C   UNL     1      64.161  34.379  61.178  1.00  0.00    -0.000 C 
BRANCH  11  12
ATOM     12  C   UNL     1      64.374  35.757  60.528  1.00  0.00    -0.000 C 
BRANCH  12  13
ATOM     13  C   UNL     1      63.568  36.865  61.237  1.00  0.00    -0.000 C 
BRANCH  13  14
ATOM     14  C   UNL     1      62.046  36.727  61.062  1.00  0.00    -0.000 C 
BRANCH  14  15
ATOM     15  C   UNL     1      61.612  36.720  59.591  1.00  0.00    -0.003 C 
ATOM     16  C   UNL     1      60.141  36.342  59.452  1.00  0.00     0.004 C 
ENDBRANCH  14  15
ENDBRANCH  13  14
ENDBRANCH  12  13
ENDBRANCH  11  12
ENDBRANCH  10  11
ENDBRANCH   1  10
TORSDOF 12
ENDMDL
MODEL 4
REMARK VINA RESULT:    -3.251      1.422      2.547
REMARK INTER + INTRA:          -7.237
REMARK INTER:                  -5.974
REMARK INTRA:                  -1.263
REMARK UNBOUND:                -1.705
REMARK SMILES CCCCCCCCCCCCCC(=O)[O-]
REMARK SMILES IDX 8 1 9 2 10 3 11 4 12 5 13 6 14 7 15 8 16 9 7 10 6 11 5 12
REMARK SMILES IDX 4 13 3 14 2 15 1 16
REMARK H PARENT
REMARK Flexibility Score: inf
ROOT
ATOM      1  C   UNL     1      57.912  29.359  51.221  1.00  0.00     0.000 C 
ENDROOT
BRANCH   1   2
ATOM      2  C   UNL     1      58.177  29.170  49.722  1.00  0.00     0.000 C 
BRANCH   2   3
ATOM      3  C   UNL     1      59.656  28.863  49.458  1.00  0.00     0.000 C 
BRANCH   3   4
ATOM      4  C   UNL     1      60.029  27.468  49.984  1.00  0.00     0.000 C 
BRANCH   4   5
ATOM      5  C   UNL     1      58.990  26.394  49.613  1.00  0.00     0.006 C 
BRANCH   5   6
ATOM      6  C   UNL     1      58.869  25.252  50.634  1.00  0.00     0.053 C 
BRANCH   6   7
ATOM      7  C   UNL     1      60.169  24.538  50.834  1.00  0.00     0.041 C 
ATOM      8  O   UNL     1      60.789  24.642  51.925  1.00  0.00    -0.550 OA
ATOM      9  O   UNL     1      60.715  23.783  49.803  1.00  0.00    -0.550 OA
ENDBRANCH   6   7
ENDBRANCH   5   6
ENDBRANCH   4   5
ENDBRANCH   3   4
ENDBRANCH   2   3
ENDBRANCH   1   2
BRANCH   1  10
ATOM     10  C   UNL     1      56.596  28.685  51.636  1.00  0.00     0.000 C 
BRANCH  10  11
ATOM     11  C   UNL     1      55.833  28.090  50.441  1.00  0.00    -0.000 C 
BRANCH  11  12
ATOM     12  C   UNL     1      54.390  28.612  50.337  1.00  0.00    -0.000 C 
BRANCH  12  13
ATOM     13  C   UNL     1      53.461  27.611  49.618  1.00  0.00    -0.000 C 
BRANCH  13  14
ATOM     14  C   UNL     1      54.153  26.290  49.242  1.00  0.00    -0.000 C 
BRANCH  14  15
ATOM     15  C   UNL     1      53.465  25.061  49.849  1.00  0.00    -0.003 C 
ATOM     16  C   UNL     1      53.564  25.069  51.371  1.00  0.00     0.004 C 
ENDBRANCH  14  15
ENDBRANCH  13  14
ENDBRANCH  12  13
ENDBRANCH  11  12
ENDBRANCH  10  11
ENDBRANCH   1  10
TORSDOF 12
ENDMDL
MODEL 5
REMARK VINA RESULT:    -3.174      2.613      4.783
REMARK INTER + INTRA:          -7.105
REMARK INTER:                  -5.466
REMARK INTRA:                  -1.639
REMARK UNBOUND:                -1.705
REMARK SMILES CCCCCCCCCCCCCC(=O)[O-]
REMARK SMILES IDX 8 1 9 2 10 3 11 4 12 5 13 6 14 7 15 8 16 9 7 10 6 11 5 12
REMARK SMILES IDX 4 13 3 14 2 15 1 16
REMARK H PARENT
REMARK Flexibility Score: inf
ROOT
ATOM      1  C   UNL     1      60.511  27.360  49.970  1.00  0.00     0.000 C 
ENDROOT
BRANCH   1   2
ATOM      2  C   UNL     1      59.987  25.934  50.175  1.00  0.00     0.000 C 
BRANCH   2   3
ATOM      3  C   UNL     1      58.463  25.876  50.012  1.00  0.00     0.000 C 
BRANCH   3   4
ATOM      4  C   UNL     1      57.778  25.583  51.355  1.00  0.00     0.000 C 
BRANCH   4   5
ATOM      5  C   UNL     1      56.271  25.897  51.337  1.00  0.00     0.006 C 
BRANCH   5   6
ATOM      6  C   UNL     1      55.703  26.190  49.938  1.00  0.00     0.053 C 
BRANCH   6   7
ATOM      7  C   UNL     1      54.318  25.647  49.771  1.00  0.00     0.041 C 
ATOM      8  O   UNL     1      53.735  25.090  50.738  1.00  0.00    -0.550 OA
ATOM      9  O   UNL     1      53.682  25.728  48.539  1.00  0.00    -0.550 OA
ENDBRANCH   6   7
ENDBRANCH   5   6
ENDBRANCH   4   5
ENDBRANCH   3   4
ENDBRANCH   2   3
ENDBRANCH   1   2
BRANCH   1  10
ATOM     10  C   UNL     1      59.489  28.217  49.209  1.00  0.00     0.000 C 
BRANCH  10  11
ATOM     11  C   UNL     1      58.979  29.406  50.039  1.00  0.00    -0.000 C 
BRANCH  11  12
ATOM     12  C   UNL     1      57.457  29.369  50.259  1.00  0.00    -0.000 C 
BRANCH  12  13
ATOM     13  C   UNL     1      57.079  29.563  51.743  1.00  0.00    -0.000 C 
BRANCH  13  14
ATOM     14  C   UNL     1      55.603  29.255  52.047  1.00  0.00    -0.000 C 
BRANCH  14  15
ATOM     15  C   UNL     1      54.632  30.105  51.217  1.00  0.00    -0.003 C 
ATOM     16  C   UNL     1      53.637  29.227  50.465  1.00  0.00     0.004 C 
ENDBRANCH  14  15
ENDBRANCH  13  14
ENDBRANCH  12  13
ENDBRANCH  11  12
ENDBRANCH  10  11
ENDBRANCH   1  10
TORSDOF 12
ENDMDL
MODEL 6
REMARK VINA RESULT:    -3.153     11.360     13.352
REMARK INTER + INTRA:          -7.069
REMARK INTER:                  -5.344
REMARK INTRA:                  -1.725
REMARK UNBOUND:                -1.705
REMARK SMILES CCCCCCCCCCCCCC(=O)[O-]
REMARK SMILES IDX 8 1 9 2 10 3 11 4 12 5 13 6 14 7 15 8 16 9 7 10 6 11 5 12
REMARK SMILES IDX 4 13 3 14 2 15 1 16
REMARK H PARENT
REMARK Flexibility Score: inf
ROOT
ATOM      1  C   UNL     1      60.682  32.695  58.508  1.00  0.00     0.000 C 
ENDROOT
BRANCH   1   2
ATOM      2  C   UNL     1      60.501  31.492  59.442  1.00  0.00     0.000 C 
BRANCH   2   3
ATOM      3  C   UNL     1      61.022  31.803  60.850  1.00  0.00     0.000 C 
BRANCH   3   4
ATOM      4  C   UNL     1      61.876  30.645  61.389  1.00  0.00     0.000 C 
BRANCH   4   5
ATOM      5  C   UNL     1      63.371  30.802  61.056  1.00  0.00     0.006 C 
BRANCH   5   6
ATOM      6  C   UNL     1      63.877  29.858  59.954  1.00  0.00     0.053 C 
BRANCH   6   7
ATOM      7  C   UNL     1      64.646  28.703  60.516  1.00  0.00     0.041 C 
ATOM      8  O   UNL     1      64.092  27.581  60.658  1.00  0.00    -0.550 OA
ATOM      9  O   UNL     1      65.966  28.872  60.914  1.00  0.00    -0.550 OA
ENDBRANCH   6   7
ENDBRANCH   5   6
ENDBRANCH   4   5
ENDBRANCH   3   4
ENDBRANCH   2   3
ENDBRANCH   1   2
BRANCH   1  10
ATOM     10  C   UNL     1      62.126  32.783  57.996  1.00  0.00     0.000 C 
BRANCH  10  11
ATOM     11  C   UNL     1      62.829  34.081  58.426  1.00  0.00    -0.000 C 
BRANCH  11  12
ATOM     12  C   UNL     1      61.891  35.047  59.169  1.00  0.00    -0.000 C 
BRANCH  12  13
ATOM     13  C   UNL     1      62.350  35.301  60.620  1.00  0.00    -0.000 C 
BRANCH  13  14
ATOM     14  C   UNL     1      63.641  34.555  60.997  1.00  0.00    -0.000 C 
BRANCH  14  15
ATOM     15  C   UNL     1      64.649  35.441  61.739  1.00  0.00    -0.003 C 
ATOM     16  C   UNL     1      65.573  36.161  60.762  1.00  0.00     0.004 C 
ENDBRANCH  14  15
ENDBRANCH  13  14
ENDBRANCH  12  13
ENDBRANCH  11  12
ENDBRANCH  10  11
ENDBRANCH   1  10
TORSDOF 12
ENDMDL
MODEL 7
REMARK VINA RESULT:    -3.142      2.716      5.618
REMARK INTER + INTRA:          -7.050
REMARK INTER:                  -5.082
REMARK INTRA:                  -1.968
REMARK UNBOUND:                -1.705
REMARK SMILES CCCCCCCCCCCCCC(=O)[O-]
REMARK SMILES IDX 8 1 9 2 10 3 11 4 12 5 13 6 14 7 15 8 16 9 7 10 6 11 5 12
REMARK SMILES IDX 4 13 3 14 2 15 1 16
REMARK H PARENT
REMARK Flexibility Score: inf
ROOT
ATOM      1  C   UNL     1      60.110  26.685  52.151  1.00  0.00     0.000 C 
ENDROOT
BRANCH   1   2
ATOM      2  C   UNL     1      58.717  26.044  52.131  1.00  0.00     0.000 C 
BRANCH   2   3
ATOM      3  C   UNL     1      58.449  25.347  50.792  1.00  0.00     0.000 C 
BRANCH   3   4
ATOM      4  C   UNL     1      57.358  26.083  49.999  1.00  0.00     0.000 C 
BRANCH   4   5
ATOM      5  C   UNL     1      56.073  26.305  50.818  1.00  0.00     0.006 C 
BRANCH   5   6
ATOM      6  C   UNL     1      55.170  27.430  50.285  1.00  0.00     0.053 C 
BRANCH   6   7
ATOM      7  C   UNL     1      53.993  26.893  49.532  1.00  0.00     0.041 C 
ATOM      8  O   UNL     1      52.940  27.576  49.432  1.00  0.00    -0.550 OA
ATOM      9  O   UNL     1      54.045  25.625  48.968  1.00  0.00    -0.550 OA
ENDBRANCH   6   7
ENDBRANCH   5   6
ENDBRANCH   4   5
ENDBRANCH   3   4
ENDBRANCH   2   3
ENDBRANCH   1   2
BRANCH   1  10
ATOM     10  C   UNL     1      60.923  26.273  50.915  1.00  0.00     0.000 C 
BRANCH  10  11
ATOM     11  C   UNL     1      61.397  27.479  50.089  1.00  0.00    -0.000 C 
BRANCH  11  12
ATOM     12  C   UNL     1      60.277  28.087  49.227  1.00  0.00    -0.000 C 
BRANCH  12  13
ATOM     13  C   UNL     1      59.799  29.450  49.773  1.00  0.00    -0.000 C 
BRANCH  13  14
ATOM     14  C   UNL     1      58.278  29.526  49.990  1.00  0.00    -0.000 C 
BRANCH  14  15
ATOM     15  C   UNL     1      57.889  29.600  51.472  1.00  0.00    -0.003 C 
ATOM     16  C   UNL     1      58.934  30.364  52.279  1.00  0.00     0.004 C 
ENDBRANCH  14  15
ENDBRANCH  13  14
ENDBRANCH  12  13
ENDBRANCH  11  12
ENDBRANCH  10  11
ENDBRANCH   1  10
TORSDOF 12
ENDMDL
MODEL 8
REMARK VINA RESULT:    -3.129     11.349     13.042
REMARK INTER + INTRA:          -7.028
REMARK INTER:                  -4.893
REMARK INTRA:                  -2.135
REMARK UNBOUND:                -1.705
REMARK SMILES CCCCCCCCCCCCCC(=O)[O-]
REMARK SMILES IDX 8 1 9 2 10 3 11 4 12 5 13 6 14 7 15 8 16 9 7 10 6 11 5 12
REMARK SMILES IDX 4 13 3 14 2 15 1 16
REMARK H PARENT
REMARK Flexibility Score: inf
ROOT
ATOM      1  C   UNL     1      61.357  32.188  57.868  1.00  0.00     0.000 C 
ENDROOT
BRANCH   1   2
ATOM      2  C   UNL     1      62.257  30.947  57.806  1.00  0.00     0.000 C 
BRANCH   2   3
ATOM      3  C   UNL     1      63.716  31.307  58.111  1.00  0.00     0.000 C 
BRANCH   3   4
ATOM      4  C   UNL     1      63.844  32.784  58.514  1.00  0.00     0.000 C 
BRANCH   4   5
ATOM      5  C   UNL     1      64.119  32.970  60.018  1.00  0.00     0.006 C 
BRANCH   5   6
ATOM      6  C   UNL     1      63.122  33.896  60.734  1.00  0.00     0.053 C 
BRANCH   6   7
ATOM      7  C   UNL     1      63.749  35.196  61.130  1.00  0.00     0.041 C 
ATOM      8  O   UNL     1      64.988  35.264  61.340  1.00  0.00    -0.550 OA
ATOM      9  O   UNL     1      62.960  36.327  61.298  1.00  0.00    -0.550 OA
ENDBRANCH   6   7
ENDBRANCH   5   6
ENDBRANCH   4   5
ENDBRANCH   3   4
ENDBRANCH   2   3
ENDBRANCH   1   2
BRANCH   1  10
ATOM     10  C   UNL     1      60.302  32.047  58.975  1.00  0.00     0.000 C 
BRANCH  10  11
ATOM     11  C   UNL     1      60.463  30.750  59.785  1.00  0.00    -0.000 C 
BRANCH  11  12
ATOM     12  C   UNL     1      60.859  31.009  61.249  1.00  0.00    -0.000 C 
BRANCH  12  13
ATOM     13  C   UNL     1      62.151  30.261  61.641  1.00  0.00    -0.000 C 
BRANCH  13  14
ATOM     14  C   UNL     1      62.154  28.779  61.229  1.00  0.00    -0.000 C 
BRANCH  14  15
ATOM     15  C   UNL     1      63.421  28.374  60.465  1.00  0.00    -0.003 C 
ATOM     16  C   UNL     1      64.606  29.250  60.859  1.00  0.00     0.004 C 
ENDBRANCH  14  15
ENDBRANCH  13  14
ENDBRANCH  12  13
ENDBRANCH  11  12
ENDBRANCH  10  11
ENDBRANCH   1  10
TORSDOF 12
ENDMDL
MODEL 9
REMARK VINA RESULT:    -3.111      2.304      3.988
REMARK INTER + INTRA:          -6.998
REMARK INTER:                  -5.721
REMARK INTRA:                  -1.277
REMARK UNBOUND:                -1.705
REMARK SMILES CCCCCCCCCCCCCC(=O)[O-]
REMARK SMILES IDX 8 1 9 2 10 3 11 4 12 5 13 6 14 7 15 8 16 9 7 10 6 11 5 12
REMARK SMILES IDX 4 13 3 14 2 15 1 16
REMARK H PARENT
REMARK Flexibility Score: inf
ROOT
ATOM      1  C   UNL     1      60.109  28.379  51.496  1.00  0.00     0.000 C 
ENDROOT
BRANCH   1   2
ATOM      2  C   UNL     1      60.527  26.942  51.832  1.00  0.00     0.000 C 
BRANCH   2   3
ATOM      3  C   UNL     1      59.301  26.039  52.014  1.00  0.00     0.000 C 
BRANCH   3   4
ATOM      4  C   UNL     1      59.109  25.122  50.797  1.00  0.00     0.000 C 
BRANCH   4   5
ATOM      5  C   UNL     1      60.428  24.826  50.060  1.00  0.00     0.006 C 
BRANCH   5   6
ATOM      6  C   UNL     1      61.203  23.618  50.610  1.00  0.00     0.053 C 
BRANCH   6   7
ATOM      7  C   UNL     1      60.721  22.328  50.023  1.00  0.00     0.041 C 
ATOM      8  O   UNL     1      60.832  22.114  48.787  1.00  0.00    -0.550 OA
ATOM      9  O   UNL     1      60.119  21.375  50.834  1.00  0.00    -0.550 OA
ENDBRANCH   6   7
ENDBRANCH   5   6
ENDBRANCH   4   5
ENDBRANCH   3   4
ENDBRANCH   2   3
ENDBRANCH   1   2
BRANCH   1  10
ATOM     10  C   UNL     1      60.144  28.622  49.980  1.00  0.00     0.000 C 
BRANCH  10  11
ATOM     11  C   UNL     1      58.767  28.998  49.408  1.00  0.00    -0.000 C 
BRANCH  11  12
ATOM     12  C   UNL     1      57.681  29.100  50.493  1.00  0.00    -0.000 C 
BRANCH  12  13
ATOM     13  C   UNL     1      56.641  27.965  50.382  1.00  0.00    -0.000 C 
BRANCH  13  14
ATOM     14  C   UNL     1      55.185  28.454  50.465  1.00  0.00    -0.000 C 
BRANCH  14  15
ATOM     15  C   UNL     1      54.173  27.399  49.999  1.00  0.00    -0.003 C 
ATOM     16  C   UNL     1      54.879  26.148  49.485  1.00  0.00     0.004 C 
ENDBRANCH  14  15
ENDBRANCH  13  14
ENDBRANCH  12  13
ENDBRANCH  11  12
ENDBRANCH  10  11
ENDBRANCH   1  10
TORSDOF 12
ENDMDL
