MODEL 1
REMARK VINA RESULT:    -2.387      0.000      0.000
REMARK INTER + INTRA:          -2.387
REMARK INTER:                  -2.387
REMARK INTRA:                   0.000
REMARK UNBOUND:                 0.000
REMARK SMILES CC(=O)[O-]
REMARK SMILES IDX 1 1 2 2 3 3 4 4
REMARK H PARENT
REMARK Flexibility Score: inf
ROOT
ATOM      1  C   UNL     1       8.958  54.822  26.058  1.00  0.00     0.063 C 
ATOM      2  C   UNL     1      10.311  54.476  25.536  1.00  0.00     0.038 C 
ATOM      3  O   UNL     1      11.306  54.483  26.307  1.00  0.00    -0.550 OA
ATOM      4  O   UNL     1      10.468  54.090  24.211  1.00  0.00    -0.550 OA
ENDROOT
TORSDOF 0
ENDMDL
MODEL 2
REMARK VINA RESULT:    -2.381      1.415      1.775
REMARK INTER + INTRA:          -2.381
REMARK INTER:                  -2.381
REMARK INTRA:                   0.000
REMARK UNBOUND:                 0.000
REMARK SMILES CC(=O)[O-]
REMARK SMILES IDX 1 1 2 2 3 3 4 4
REMARK H PARENT
REMARK Flexibility Score: inf
ROOT
ATOM      1  C   UNL     1      10.379  53.751  23.931  1.00  0.00     0.063 C 
ATOM      2  C   UNL     1      10.271  54.612  25.144  1.00  0.00     0.038 C 
ATOM      3  O   UNL     1      11.050  54.433  26.117  1.00  0.00    -0.550 OA
ATOM      4  O   UNL     1       9.349  55.650  25.181  1.00  0.00    -0.550 OA
ENDROOT
TORSDOF 0
ENDMDL
MODEL 3
REMARK VINA RESULT:    -2.375      1.363      2.109
REMARK INTER + INTRA:          -2.375
REMARK INTER:                  -2.375
REMARK INTRA:                   0.000
REMARK UNBOUND:                 0.000
REMARK SMILES CC(=O)[O-]
REMARK SMILES IDX 1 1 2 2 3 3 4 4
REMARK H PARENT
REMARK Flexibility Score: inf
ROOT
ATOM      1  C   UNL     1      10.261  53.694  24.024  1.00  0.00     0.063 C 
ATOM      2  C   UNL     1      10.260  54.632  25.184  1.00  0.00     0.038 C 
ATOM      3  O   UNL     1       9.408  55.557  25.248  1.00  0.00    -0.550 OA
ATOM      4  O   UNL     1      11.164  54.454  26.224  1.00  0.00    -0.550 OA
ENDROOT
TORSDOF 0
ENDMDL
MODEL 4
REMARK VINA RESULT:    -2.355      1.463      1.891
REMARK INTER + INTRA:          -2.355
REMARK INTER:                  -2.355
REMARK INTRA:                   0.000
REMARK UNBOUND:                 0.000
REMARK SMILES CC(=O)[O-]
REMARK SMILES IDX 1 1 2 2 3 3 4 4
REMARK H PARENT
REMARK Flexibility Score: inf
ROOT
ATOM      1  C   UNL     1      10.961  54.590  26.368  1.00  0.00     0.063 C 
ATOM      2  C   UNL     1      10.194  54.594  25.089  1.00  0.00     0.038 C 
ATOM      3  O   UNL     1      10.487  53.779  24.175  1.00  0.00    -0.550 OA
ATOM      4  O   UNL     1       9.118  55.457  24.925  1.00  0.00    -0.550 OA
ENDROOT
TORSDOF 0
ENDMDL
MODEL 5
REMARK VINA RESULT:    -2.318      2.085      2.955
REMARK INTER + INTRA:          -2.318
REMARK INTER:                  -2.318
REMARK INTRA:                   0.000
REMARK UNBOUND:                 0.000
REMARK SMILES CC(=O)[O-]
REMARK SMILES IDX 1 1 2 2 3 3 4 4
REMARK H PARENT
REMARK Flexibility Score: inf
ROOT
ATOM      1  C   UNL     1      10.185  52.120  23.375  1.00  0.00     0.063 C 
ATOM      2  C   UNL     1      10.183  53.573  23.711  1.00  0.00     0.038 C 
ATOM      3  O   UNL     1       9.750  54.413  22.879  1.00  0.00    -0.550 OA
ATOM      4  O   UNL     1      10.607  53.999  24.963  1.00  0.00    -0.550 OA
ENDROOT
TORSDOF 0
ENDMDL
MODEL 6
REMARK VINA RESULT:    -2.314      3.214      3.394
REMARK INTER + INTRA:          -2.314
REMARK INTER:                  -2.314
REMARK INTRA:                   0.000
REMARK UNBOUND:                 0.000
REMARK SMILES CC(=O)[O-]
REMARK SMILES IDX 1 1 2 2 3 3 4 4
REMARK H PARENT
REMARK Flexibility Score: inf
ROOT
ATOM      1  C   UNL     1      10.358  53.661  23.332  1.00  0.00     0.063 C 
ATOM      2  C   UNL     1       9.623  52.403  23.649  1.00  0.00     0.038 C 
ATOM      3  O   UNL     1       8.406  52.446  23.968  1.00  0.00    -0.550 OA
ATOM      4  O   UNL     1      10.264  51.176  23.539  1.00  0.00    -0.550 OA
ENDROOT
TORSDOF 0
ENDMDL
MODEL 7
REMARK VINA RESULT:    -2.255      1.899      1.993
REMARK INTER + INTRA:          -2.255
REMARK INTER:                  -2.255
REMARK INTRA:                   0.000
REMARK UNBOUND:                 0.000
REMARK SMILES CC(=O)[O-]
REMARK SMILES IDX 1 1 2 2 3 3 4 4
REMARK H PARENT
REMARK Flexibility Score: inf
ROOT
ATOM      1  C   UNL     1      10.657  54.583  25.607  1.00  0.00     0.063 C 
ATOM      2  C   UNL     1      10.010  53.890  24.456  1.00  0.00     0.038 C 
ATOM      3  O   UNL     1       8.888  53.338  24.601  1.00  0.00    -0.550 OA
ATOM      4  O   UNL     1      10.617  53.901  23.207  1.00  0.00    -0.550 OA
ENDROOT
TORSDOF 0
ENDMDL
MODEL 8
REMARK VINA RESULT:    -2.252      5.050      5.545
REMARK INTER + INTRA:          -2.252
REMARK INTER:                  -2.252
REMARK INTRA:                   0.000
REMARK UNBOUND:                 0.000
REMARK SMILES CC(=O)[O-]
REMARK SMILES IDX 1 1 2 2 3 3 4 4
REMARK H PARENT
REMARK Flexibility Score: inf
ROOT
ATOM      1  C   UNL     1       7.700  56.604  21.362  1.00  0.00     0.063 C 
ATOM      2  C   UNL     1       7.593  55.197  20.881  1.00  0.00     0.038 C 
ATOM      3  O   UNL     1       7.946  54.246  21.627  1.00  0.00    -0.550 OA
ATOM      4  O   UNL     1       7.054  54.928  19.630  1.00  0.00    -0.550 OA
ENDROOT
TORSDOF 0
ENDMDL
MODEL 9
REMARK VINA RESULT:    -2.186      5.202      5.729
REMARK INTER + INTRA:          -2.186
REMARK INTER:                  -2.186
REMARK INTRA:                   0.000
REMARK UNBOUND:                 0.000
REMARK SMILES CC(=O)[O-]
REMARK SMILES IDX 1 1 2 2 3 3 4 4
REMARK H PARENT
REMARK Flexibility Score: inf
ROOT
ATOM      1  C   UNL     1       7.243  54.224  19.596  1.00  0.00     0.063 C 
ATOM      2  C   UNL     1       7.642  54.937  20.844  1.00  0.00     0.038 C 
ATOM      3  O   UNL     1       7.323  56.143  21.011  1.00  0.00    -0.550 OA
ATOM      4  O   UNL     1       8.319  54.257  21.848  1.00  0.00    -0.550 OA
ENDROOT
TORSDOF 0
ENDMDL
