MODEL 1
REMARK VINA RESULT:    90.758      0.000      0.000
REMARK INTER + INTRA:         121.745
REMARK INTER:                 119.939
REMARK INTRA:                   1.805
REMARK UNBOUND:                 1.805
REMARK SMILES C=C(CC[C@@H](C)[C@@H]1CC[C@]2(C)[C@@H]3CC[C@@H]4C(C)(C)[C@@H](O)CC[C@@]45C[C@@]35CC[C@@]12C)C(C)C
REMARK SMILES IDX 4 1 3 2 2 3 1 4 30 5 31 6 32 7 5 8 6 9 7 10 8 11 28 12 9 13
REMARK SMILES IDX 10 14 27 15 29 16 11 17 12 18 26 19 25 20 13 21 23 22 24 23
REMARK SMILES IDX 14 24 15 25 22 26 16 27 21 28 19 29 17 30 18 31 20 32
REMARK H PARENT 20 33
REMARK Flexibility Score: inf
ROOT
ATOM      1  C   UNL     1      80.374  -2.305  69.127  1.00  0.00     0.008 C 
ENDROOT
BRANCH   1   2
ATOM      2  C   UNL     1      80.522  -1.490  67.824  1.00  0.00     0.031 C 
BRANCH   2   3
ATOM      3  C   UNL     1      79.244  -1.359  67.014  1.00  0.00    -0.075 C 
ATOM      4  C   UNL     1      78.166  -2.077  67.376  1.00  0.00     0.008 C 
BRANCH   3   5
ATOM      5  C   UNL     1      79.104  -0.308  65.916  1.00  0.00     0.008 C 
ATOM      6  C   UNL     1      80.482   0.084  65.370  1.00  0.00     0.012 C 
ATOM      7  C   UNL     1      78.175  -0.763  64.783  1.00  0.00     0.012 C 
ENDBRANCH   3   5
ENDBRANCH   2   3
ENDBRANCH   1   2
BRANCH   1   8
ATOM      8  C   UNL     1      81.721  -2.647  69.837  1.00  0.00    -0.010 C 
ATOM      9  C   UNL     1      81.603  -3.994  70.601  1.00  0.00     0.008 C 
BRANCH   8  10
ATOM     10  C   UNL     1      82.919  -2.565  68.815  1.00  0.00    -0.002 C 
ATOM     11  C   UNL     1      82.528  -2.637  67.313  1.00  0.00     0.005 C 
ATOM     12  C   UNL     1      84.128  -3.544  68.972  1.00  0.00    -0.024 C 
ATOM     13  C   UNL     1      83.624  -3.464  66.607  1.00  0.00     0.008 C 
ATOM     14  C   UNL     1      84.825  -3.424  67.570  1.00  0.00    -0.024 C 
ATOM     15  C   UNL     1      85.144  -3.152  70.066  1.00  0.00     0.008 C 
ATOM     16  C   UNL     1      83.608  -4.976  69.310  1.00  0.00     0.012 C 
ATOM     17  C   UNL     1      85.523  -2.030  67.332  1.00  0.00     0.012 C 
ATOM     18  C   UNL     1      85.955  -4.487  67.374  1.00  0.00     0.002 C 
ATOM     19  C   UNL     1      86.385  -4.080  70.050  1.00  0.00     0.008 C 
ATOM     20  C   UNL     1      86.911  -4.506  68.625  1.00  0.00    -0.020 C 
ATOM     21  C   UNL     1      85.525  -5.907  66.886  1.00  0.00     0.005 C 
ATOM     22  C   UNL     1      88.045  -5.563  68.541  1.00  0.00    -0.020 C 
ATOM     23  C   UNL     1      88.373  -4.083  68.364  1.00  0.00     0.015 C 
ATOM     24  C   UNL     1      86.572  -7.016  67.144  1.00  0.00     0.005 C 
ATOM     25  C   UNL     1      88.003  -6.439  67.253  1.00  0.00     0.004 C 
ATOM     26  C   UNL     1      88.388  -6.249  69.883  1.00  0.00     0.010 C 
ATOM     27  C   UNL     1      89.178  -7.486  67.217  1.00  0.00    -0.006 C 
ATOM     28  C   UNL     1      89.547  -7.231  69.748  1.00  0.00     0.033 C 
ATOM     29  C   UNL     1      89.318  -8.214  68.590  1.00  0.00     0.120 C 
ATOM     30  C   UNL     1      88.951  -8.546  66.110  1.00  0.00     0.014 C 
ATOM     31  C   UNL     1      90.490  -6.735  66.857  1.00  0.00     0.014 C 
BRANCH  29  32
ATOM     32  O   UNL     1      90.397  -9.120  68.558  1.00  0.00    -0.393 OA
ATOM     33  H   UNL     1      91.071  -8.762  67.924  1.00  0.00     0.210 HD
ENDBRANCH  29  32
ENDBRANCH   8  10
ENDBRANCH   1   8
TORSDOF 6
ENDMDL
MODEL 2
REMARK VINA RESULT:    92.399     11.119     13.579
REMARK INTER + INTRA:         123.913
REMARK INTER:                 123.196
REMARK INTRA:                   0.716
REMARK UNBOUND:                 1.805
REMARK SMILES C=C(CC[C@@H](C)[C@@H]1CC[C@]2(C)[C@@H]3CC[C@@H]4C(C)(C)[C@@H](O)CC[C@@]45C[C@@]35CC[C@@]12C)C(C)C
REMARK SMILES IDX 4 1 3 2 2 3 1 4 30 5 31 6 32 7 5 8 6 9 7 10 8 11 28 12 9 13
REMARK SMILES IDX 10 14 27 15 29 16 11 17 12 18 26 19 25 20 13 21 23 22 24 23
REMARK SMILES IDX 14 24 15 25 22 26 16 27 21 28 19 29 17 30 18 31 20 32
REMARK H PARENT 20 33
REMARK Flexibility Score: inf
ROOT
ATOM      1  C   UNL     1      81.023   2.370  74.326  1.00  0.00     0.008 C 
ENDROOT
BRANCH   1   2
ATOM      2  C   UNL     1      79.893   2.818  75.279  1.00  0.00     0.031 C 
BRANCH   2   3
ATOM      3  C   UNL     1      79.730   1.951  76.515  1.00  0.00    -0.075 C 
ATOM      4  C   UNL     1      80.818   1.639  77.241  1.00  0.00     0.008 C 
BRANCH   3   5
ATOM      5  C   UNL     1      78.349   1.576  77.046  1.00  0.00     0.008 C 
ATOM      6  C   UNL     1      78.445   1.100  78.500  1.00  0.00     0.012 C 
ATOM      7  C   UNL     1      77.338   2.720  76.910  1.00  0.00     0.012 C 
ENDBRANCH   3   5
ENDBRANCH   2   3
ENDBRANCH   1   2
BRANCH   1   8
ATOM      8  C   UNL     1      82.036   3.495  73.946  1.00  0.00    -0.010 C 
ATOM      9  C   UNL     1      81.333   4.881  73.957  1.00  0.00     0.008 C 
BRANCH   8  10
ATOM     10  C   UNL     1      83.329   3.398  74.840  1.00  0.00    -0.002 C 
ATOM     11  C   UNL     1      83.082   3.213  76.364  1.00  0.00     0.005 C 
ATOM     12  C   UNL     1      84.420   4.514  74.734  1.00  0.00    -0.024 C 
ATOM     13  C   UNL     1      84.158   4.045  77.094  1.00  0.00     0.008 C 
ATOM     14  C   UNL     1      85.258   4.272  76.039  1.00  0.00    -0.024 C 
ATOM     15  C   UNL     1      85.356   4.394  73.513  1.00  0.00     0.008 C 
ATOM     16  C   UNL     1      83.736   5.916  74.662  1.00  0.00     0.012 C 
ATOM     17  C   UNL     1      86.105   2.942  76.004  1.00  0.00     0.012 C 
ATOM     18  C   UNL     1      86.296   5.412  76.300  1.00  0.00     0.002 C 
ATOM     19  C   UNL     1      86.500   5.439  73.567  1.00  0.00     0.008 C 
ATOM     20  C   UNL     1      87.119   5.712  74.992  1.00  0.00    -0.020 C 
ATOM     21  C   UNL     1      85.783   6.693  77.033  1.00  0.00     0.005 C 
ATOM     22  C   UNL     1      88.151   6.862  75.142  1.00  0.00    -0.020 C 
ATOM     23  C   UNL     1      88.633   5.417  75.064  1.00  0.00     0.015 C 
ATOM     24  C   UNL     1      86.691   7.934  76.860  1.00  0.00     0.005 C 
ATOM     25  C   UNL     1      88.152   7.536  76.547  1.00  0.00     0.004 C 
ATOM     26  C   UNL     1      88.295   7.765  73.896  1.00  0.00     0.010 C 
ATOM     27  C   UNL     1      89.221   8.688  76.644  1.00  0.00    -0.006 C 
ATOM     28  C   UNL     1      89.363   8.838  74.081  1.00  0.00     0.033 C 
ATOM     29  C   UNL     1      89.157   9.615  75.390  1.00  0.00     0.120 C 
ATOM     30  C   UNL     1      89.004   9.549  77.914  1.00  0.00     0.014 C 
ATOM     31  C   UNL     1      90.627   8.040  76.776  1.00  0.00     0.014 C 
BRANCH  29  32
ATOM     32  O   UNL     1      90.144  10.618  75.470  1.00  0.00    -0.393 OA
ATOM     33  H   UNL     1      90.909  10.333  74.907  1.00  0.00     0.210 HD
ENDBRANCH  29  32
ENDBRANCH   8  10
ENDBRANCH   1   8
TORSDOF 6
ENDMDL
