MODEL 1
REMARK VINA RESULT:    -3.406      0.000      0.000
REMARK INTER + INTRA:          -7.015
REMARK INTER:                  -5.795
REMARK INTRA:                  -1.220
REMARK UNBOUND:                -1.220
REMARK SMILES CCCCCCCCCCCCCC(=O)[O-]
REMARK SMILES IDX 8 1 9 2 10 3 11 4 12 5 13 6 14 7 15 8 16 9 7 10 6 11 5 12
REMARK SMILES IDX 4 13 3 14 2 15 1 16
REMARK H PARENT
REMARK Flexibility Score: inf
ROOT
ATOM      1  C   UNL     1      44.177  20.542  78.868  1.00  0.00     0.000 C 
ENDROOT
BRANCH   1   2
ATOM      2  C   UNL     1      42.687  20.264  79.104  1.00  0.00     0.000 C 
BRANCH   2   3
ATOM      3  C   UNL     1      41.817  21.047  78.114  1.00  0.00     0.000 C 
BRANCH   3   4
ATOM      4  C   UNL     1      40.355  21.081  78.573  1.00  0.00     0.000 C 
BRANCH   4   5
ATOM      5  C   UNL     1      40.008  19.835  79.400  1.00  0.00     0.006 C 
BRANCH   5   6
ATOM      6  C   UNL     1      39.064  20.156  80.567  1.00  0.00     0.053 C 
BRANCH   6   7
ATOM      7  C   UNL     1      37.884  19.233  80.595  1.00  0.00     0.041 C 
ATOM      8  O   UNL     1      37.935  18.120  80.009  1.00  0.00    -0.550 OA
ATOM      9  O   UNL     1      36.739  19.592  81.295  1.00  0.00    -0.550 OA
ENDBRANCH   6   7
ENDBRANCH   5   6
ENDBRANCH   4   5
ENDBRANCH   3   4
ENDBRANCH   2   3
ENDBRANCH   1   2
BRANCH   1  10
ATOM     10  C   UNL     1      44.874  19.318  78.255  1.00  0.00     0.000 C 
BRANCH  10  11
ATOM     11  C   UNL     1      46.401  19.480  78.192  1.00  0.00    -0.000 C 
BRANCH  11  12
ATOM     12  C   UNL     1      46.901  19.837  76.781  1.00  0.00    -0.000 C 
BRANCH  12  13
ATOM     13  C   UNL     1      45.953  19.353  75.669  1.00  0.00    -0.000 C 
BRANCH  13  14
ATOM     14  C   UNL     1      45.504  20.444  74.681  1.00  0.00    -0.000 C 
BRANCH  14  15
ATOM     15  C   UNL     1      44.147  21.061  75.046  1.00  0.00    -0.003 C 
ATOM     16  C   UNL     1      44.322  22.423  75.710  1.00  0.00     0.004 C 
ENDBRANCH  14  15
ENDBRANCH  13  14
ENDBRANCH  12  13
ENDBRANCH  11  12
ENDBRANCH  10  11
ENDBRANCH   1  10
TORSDOF 12
ENDMDL
MODEL 2
REMARK VINA RESULT:    -3.337     17.894     19.045
REMARK INTER + INTRA:          -6.898
REMARK INTER:                  -5.123
REMARK INTRA:                  -1.775
REMARK UNBOUND:                -1.220
REMARK SMILES CCCCCCCCCCCCCC(=O)[O-]
REMARK SMILES IDX 8 1 9 2 10 3 11 4 12 5 13 6 14 7 15 8 16 9 7 10 6 11 5 12
REMARK SMILES IDX 4 13 3 14 2 15 1 16
REMARK H PARENT
REMARK Flexibility Score: inf
ROOT
ATOM      1  C   UNL     1      49.225  33.059  86.595  1.00  0.00     0.000 C 
ENDROOT
BRANCH   1   2
ATOM      2  C   UNL     1      48.259  32.897  87.776  1.00  0.00     0.000 C 
BRANCH   2   3
ATOM      3  C   UNL     1      48.837  31.948  88.833  1.00  0.00     0.000 C 
BRANCH   3   4
ATOM      4  C   UNL     1      50.225  31.445  88.422  1.00  0.00     0.000 C 
BRANCH   4   5
ATOM      5  C   UNL     1      51.208  31.523  89.599  1.00  0.00     0.006 C 
BRANCH   5   6
ATOM      6  C   UNL     1      50.516  31.309  90.951  1.00  0.00     0.053 C 
BRANCH   6   7
ATOM      7  C   UNL     1      51.250  31.991  92.064  1.00  0.00     0.041 C 
ATOM      8  O   UNL     1      52.428  32.402  91.890  1.00  0.00    -0.550 OA
ATOM      9  O   UNL     1      50.622  32.201  93.285  1.00  0.00    -0.550 OA
ENDBRANCH   6   7
ENDBRANCH   5   6
ENDBRANCH   4   5
ENDBRANCH   3   4
ENDBRANCH   2   3
ENDBRANCH   1   2
BRANCH   1  10
ATOM     10  C   UNL     1      49.578  34.538  86.374  1.00  0.00     0.000 C 
BRANCH  10  11
ATOM     11  C   UNL     1      49.944  35.258  87.681  1.00  0.00    -0.000 C 
BRANCH  11  12
ATOM     12  C   UNL     1      51.393  34.987  88.122  1.00  0.00    -0.000 C 
BRANCH  12  13
ATOM     13  C   UNL     1      52.376  34.923  86.939  1.00  0.00    -0.000 C 
BRANCH  13  14
ATOM     14  C   UNL     1      53.213  33.633  86.864  1.00  0.00    -0.000 C 
BRANCH  14  15
ATOM     15  C   UNL     1      53.186  32.982  85.474  1.00  0.00    -0.003 C 
ATOM     16  C   UNL     1      52.909  34.017  84.386  1.00  0.00     0.004 C 
ENDBRANCH  14  15
ENDBRANCH  13  14
ENDBRANCH  12  13
ENDBRANCH  11  12
ENDBRANCH  10  11
ENDBRANCH   1  10
TORSDOF 12
ENDMDL
MODEL 3
REMARK VINA RESULT:    -3.316      3.541      7.113
REMARK INTER + INTRA:          -6.862
REMARK INTER:                  -5.403
REMARK INTRA:                  -1.459
REMARK UNBOUND:                -1.220
REMARK SMILES CCCCCCCCCCCCCC(=O)[O-]
REMARK SMILES IDX 8 1 9 2 10 3 11 4 12 5 13 6 14 7 15 8 16 9 7 10 6 11 5 12
REMARK SMILES IDX 4 13 3 14 2 15 1 16
REMARK H PARENT
REMARK Flexibility Score: inf
ROOT
ATOM      1  C   UNL     1      41.251  21.277  79.296  1.00  0.00     0.000 C 
ENDROOT
BRANCH   1   2
ATOM      2  C   UNL     1      40.740  21.156  77.855  1.00  0.00     0.000 C 
BRANCH   2   3
ATOM      3  C   UNL     1      41.827  21.557  76.850  1.00  0.00     0.000 C 
BRANCH   3   4
ATOM      4  C   UNL     1      43.167  21.799  77.554  1.00  0.00     0.000 C 
BRANCH   4   5
ATOM      5  C   UNL     1      44.201  20.741  77.148  1.00  0.00     0.006 C 
BRANCH   5   6
ATOM      6  C   UNL     1      44.482  19.738  78.275  1.00  0.00     0.053 C 
BRANCH   6   7
ATOM      7  C   UNL     1      45.692  18.902  77.986  1.00  0.00     0.041 C 
ATOM      8  O   UNL     1      46.823  19.254  78.412  1.00  0.00    -0.550 OA
ATOM      9  O   UNL     1      45.563  17.718  77.271  1.00  0.00    -0.550 OA
ENDBRANCH   6   7
ENDBRANCH   5   6
ENDBRANCH   4   5
ENDBRANCH   3   4
ENDBRANCH   2   3
ENDBRANCH   1   2
BRANCH   1  10
ATOM     10  C   UNL     1      40.783  20.086  80.146  1.00  0.00     0.000 C 
BRANCH  10  11
ATOM     11  C   UNL     1      39.625  19.315  79.492  1.00  0.00    -0.000 C 
BRANCH  11  12
ATOM     12  C   UNL     1      38.606  18.793  80.520  1.00  0.00    -0.000 C 
BRANCH  12  13
ATOM     13  C   UNL     1      37.834  19.924  81.224  1.00  0.00    -0.000 C 
BRANCH  13  14
ATOM     14  C   UNL     1      37.228  20.978  80.281  1.00  0.00    -0.000 C 
BRANCH  14  15
ATOM     15  C   UNL     1      37.781  22.389  80.526  1.00  0.00    -0.003 C 
ATOM     16  C   UNL     1      37.881  23.177  79.223  1.00  0.00     0.004 C 
ENDBRANCH  14  15
ENDBRANCH  13  14
ENDBRANCH  12  13
ENDBRANCH  11  12
ENDBRANCH  10  11
ENDBRANCH   1  10
TORSDOF 12
ENDMDL
MODEL 4
REMARK VINA RESULT:    -3.311     17.367     18.789
REMARK INTER + INTRA:          -6.854
REMARK INTER:                  -5.399
REMARK INTRA:                  -1.455
REMARK UNBOUND:                -1.220
REMARK SMILES CCCCCCCCCCCCCC(=O)[O-]
REMARK SMILES IDX 8 1 9 2 10 3 11 4 12 5 13 6 14 7 15 8 16 9 7 10 6 11 5 12
REMARK SMILES IDX 4 13 3 14 2 15 1 16
REMARK H PARENT
REMARK Flexibility Score: inf
ROOT
ATOM      1  C   UNL     1      46.352  31.682  89.793  1.00  0.00     0.000 C 
ENDROOT
BRANCH   1   2
ATOM      2  C   UNL     1      46.555  30.894  88.493  1.00  0.00     0.000 C 
BRANCH   2   3
ATOM      3  C   UNL     1      47.511  31.630  87.547  1.00  0.00     0.000 C 
BRANCH   3   4
ATOM      4  C   UNL     1      47.979  32.956  88.157  1.00  0.00     0.000 C 
BRANCH   4   5
ATOM      5  C   UNL     1      48.515  33.902  87.073  1.00  0.00     0.006 C 
BRANCH   5   6
ATOM      6  C   UNL     1      50.043  33.832  86.945  1.00  0.00     0.053 C 
BRANCH   6   7
ATOM      7  C   UNL     1      50.703  35.051  87.512  1.00  0.00     0.041 C 
ATOM      8  O   UNL     1      50.008  35.975  88.011  1.00  0.00    -0.550 OA
ATOM      9  O   UNL     1      52.088  35.152  87.519  1.00  0.00    -0.550 OA
ENDBRANCH   6   7
ENDBRANCH   5   6
ENDBRANCH   4   5
ENDBRANCH   3   4
ENDBRANCH   2   3
ENDBRANCH   1   2
BRANCH   1  10
ATOM     10  C   UNL     1      46.465  30.761  91.017  1.00  0.00     0.000 C 
BRANCH  10  11
ATOM     11  C   UNL     1      47.762  29.936  91.016  1.00  0.00    -0.000 C 
BRANCH  11  12
ATOM     12  C   UNL     1      49.016  30.805  91.216  1.00  0.00    -0.000 C 
BRANCH  12  13
ATOM     13  C   UNL     1      50.113  30.520  90.175  1.00  0.00    -0.000 C 
BRANCH  13  14
ATOM     14  C   UNL     1      50.953  31.745  89.769  1.00  0.00    -0.000 C 
BRANCH  14  15
ATOM     15  C   UNL     1      52.396  31.680  90.288  1.00  0.00    -0.003 C 
ATOM     16  C   UNL     1      52.500  32.251  91.699  1.00  0.00     0.004 C 
ENDBRANCH  14  15
ENDBRANCH  13  14
ENDBRANCH  12  13
ENDBRANCH  11  12
ENDBRANCH  10  11
ENDBRANCH   1  10
TORSDOF 12
ENDMDL
MODEL 5
REMARK VINA RESULT:    -3.301     16.844     18.559
REMARK INTER + INTRA:          -6.836
REMARK INTER:                  -5.599
REMARK INTRA:                  -1.237
REMARK UNBOUND:                -1.220
REMARK SMILES CCCCCCCCCCCCCC(=O)[O-]
REMARK SMILES IDX 8 1 9 2 10 3 11 4 12 5 13 6 14 7 15 8 16 9 7 10 6 11 5 12
REMARK SMILES IDX 4 13 3 14 2 15 1 16
REMARK H PARENT
REMARK Flexibility Score: inf
ROOT
ATOM      1  C   UNL     1      45.464  30.857  89.775  1.00  0.00     0.000 C 
ENDROOT
BRANCH   1   2
ATOM      2  C   UNL     1      46.699  30.819  90.684  1.00  0.00     0.000 C 
BRANCH   2   3
ATOM      3  C   UNL     1      47.976  31.125  89.891  1.00  0.00     0.000 C 
BRANCH   3   4
ATOM      4  C   UNL     1      47.684  32.071  88.720  1.00  0.00     0.000 C 
BRANCH   4   5
ATOM      5  C   UNL     1      48.978  32.695  88.181  1.00  0.00     0.006 C 
BRANCH   5   6
ATOM      6  C   UNL     1      48.706  33.814  87.167  1.00  0.00     0.053 C 
BRANCH   6   7
ATOM      7  C   UNL     1      49.273  35.124  87.621  1.00  0.00     0.041 C 
ATOM      8  O   UNL     1      48.516  36.114  87.803  1.00  0.00    -0.550 OA
ATOM      9  O   UNL     1      50.633  35.242  87.874  1.00  0.00    -0.550 OA
ENDBRANCH   6   7
ENDBRANCH   5   6
ENDBRANCH   4   5
ENDBRANCH   3   4
ENDBRANCH   2   3
ENDBRANCH   1   2
BRANCH   1  10
ATOM     10  C   UNL     1      44.215  31.278  90.564  1.00  0.00     0.000 C 
BRANCH  10  11
ATOM     11  C   UNL     1      44.435  31.231  92.084  1.00  0.00    -0.000 C 
BRANCH  11  12
ATOM     12  C   UNL     1      43.492  30.242  92.790  1.00  0.00    -0.000 C 
BRANCH  12  13
ATOM     13  C   UNL     1      44.227  29.015  93.358  1.00  0.00    -0.000 C 
BRANCH  13  14
ATOM     14  C   UNL     1      44.061  27.724  92.538  1.00  0.00    -0.000 C 
BRANCH  14  15
ATOM     15  C   UNL     1      45.230  27.472  91.575  1.00  0.00    -0.003 C 
ATOM     16  C   UNL     1      46.566  27.496  92.312  1.00  0.00     0.004 C 
ENDBRANCH  14  15
ENDBRANCH  13  14
ENDBRANCH  12  13
ENDBRANCH  11  12
ENDBRANCH  10  11
ENDBRANCH   1  10
TORSDOF 12
ENDMDL
MODEL 6
REMARK VINA RESULT:    -3.300     16.165     16.984
REMARK INTER + INTRA:          -6.836
REMARK INTER:                  -5.709
REMARK INTRA:                  -1.126
REMARK UNBOUND:                -1.220
REMARK SMILES CCCCCCCCCCCCCC(=O)[O-]
REMARK SMILES IDX 8 1 9 2 10 3 11 4 12 5 13 6 14 7 15 8 16 9 7 10 6 11 5 12
REMARK SMILES IDX 4 13 3 14 2 15 1 16
REMARK H PARENT
REMARK Flexibility Score: inf
ROOT
ATOM      1  C   UNL     1      48.182  30.387  89.002  1.00  0.00     0.000 C 
ENDROOT
BRANCH   1   2
ATOM      2  C   UNL     1      48.335  30.809  90.469  1.00  0.00     0.000 C 
BRANCH   2   3
ATOM      3  C   UNL     1      46.969  31.100  91.103  1.00  0.00     0.000 C 
BRANCH   3   4
ATOM      4  C   UNL     1      45.963  31.579  90.050  1.00  0.00     0.000 C 
BRANCH   4   5
ATOM      5  C   UNL     1      44.534  31.163  90.426  1.00  0.00     0.006 C 
BRANCH   5   6
ATOM      6  C   UNL     1      44.510  29.979  91.402  1.00  0.00     0.053 C 
BRANCH   6   7
ATOM      7  C   UNL     1      43.589  30.232  92.557  1.00  0.00     0.041 C 
ATOM      8  O   UNL     1      43.813  31.183  93.351  1.00  0.00    -0.550 OA
ATOM      9  O   UNL     1      42.467  29.434  92.737  1.00  0.00    -0.550 OA
ENDBRANCH   6   7
ENDBRANCH   5   6
ENDBRANCH   4   5
ENDBRANCH   3   4
ENDBRANCH   2   3
ENDBRANCH   1   2
BRANCH   1  10
ATOM     10  C   UNL     1      49.161  31.157  88.104  1.00  0.00     0.000 C 
BRANCH  10  11
ATOM     11  C   UNL     1      48.444  32.098  87.123  1.00  0.00    -0.000 C 
BRANCH  11  12
ATOM     12  C   UNL     1      48.211  33.501  87.710  1.00  0.00    -0.000 C 
BRANCH  12  13
ATOM     13  C   UNL     1      48.831  34.619  86.852  1.00  0.00    -0.000 C 
BRANCH  13  14
ATOM     14  C   UNL     1      50.363  34.555  86.716  1.00  0.00    -0.000 C 
BRANCH  14  15
ATOM     15  C   UNL     1      50.822  34.130  85.314  1.00  0.00    -0.003 C 
ATOM     16  C   UNL     1      49.683  34.242  84.304  1.00  0.00     0.004 C 
ENDBRANCH  14  15
ENDBRANCH  13  14
ENDBRANCH  12  13
ENDBRANCH  11  12
ENDBRANCH  10  11
ENDBRANCH   1  10
TORSDOF 12
ENDMDL
MODEL 7
REMARK VINA RESULT:    -3.267      1.502      3.228
REMARK INTER + INTRA:          -6.778
REMARK INTER:                  -5.320
REMARK INTRA:                  -1.459
REMARK UNBOUND:                -1.220
REMARK SMILES CCCCCCCCCCCCCC(=O)[O-]
REMARK SMILES IDX 8 1 9 2 10 3 11 4 12 5 13 6 14 7 15 8 16 9 7 10 6 11 5 12
REMARK SMILES IDX 4 13 3 14 2 15 1 16
REMARK H PARENT
REMARK Flexibility Score: inf
ROOT
ATOM      1  C   UNL     1      40.716  21.406  75.671  1.00  0.00     0.000 C 
ENDROOT
BRANCH   1   2
ATOM      2  C   UNL     1      40.882  22.579  76.645  1.00  0.00     0.000 C 
BRANCH   2   3
ATOM      3  C   UNL     1      40.567  22.150  78.083  1.00  0.00     0.000 C 
BRANCH   3   4
ATOM      4  C   UNL     1      40.585  20.623  78.219  1.00  0.00     0.000 C 
BRANCH   4   5
ATOM      5  C   UNL     1      40.489  20.201  79.692  1.00  0.00     0.006 C 
BRANCH   5   6
ATOM      6  C   UNL     1      39.310  19.252  79.949  1.00  0.00     0.053 C 
BRANCH   6   7
ATOM      7  C   UNL     1      38.159  19.961  80.596  1.00  0.00     0.041 C 
ATOM      8  O   UNL     1      37.722  19.575  81.712  1.00  0.00    -0.550 OA
ATOM      9  O   UNL     1      37.591  21.068  79.978  1.00  0.00    -0.550 OA
ENDBRANCH   6   7
ENDBRANCH   5   6
ENDBRANCH   4   5
ENDBRANCH   3   4
ENDBRANCH   2   3
ENDBRANCH   1   2
BRANCH   1  10
ATOM     10  C   UNL     1      41.748  21.484  74.536  1.00  0.00     0.000 C 
BRANCH  10  11
ATOM     11  C   UNL     1      43.079  22.103  74.992  1.00  0.00    -0.000 C 
BRANCH  11  12
ATOM     12  C   UNL     1      44.257  21.119  74.888  1.00  0.00    -0.000 C 
BRANCH  12  13
ATOM     13  C   UNL     1      45.013  20.948  76.218  1.00  0.00    -0.000 C 
BRANCH  13  14
ATOM     14  C   UNL     1      44.156  21.152  77.480  1.00  0.00    -0.000 C 
BRANCH  14  15
ATOM     15  C   UNL     1      44.341  20.034  78.516  1.00  0.00    -0.003 C 
ATOM     16  C   UNL     1      45.219  18.913  77.966  1.00  0.00     0.004 C 
ENDBRANCH  14  15
ENDBRANCH  13  14
ENDBRANCH  12  13
ENDBRANCH  11  12
ENDBRANCH  10  11
ENDBRANCH   1  10
TORSDOF 12
ENDMDL
MODEL 8
REMARK VINA RESULT:    -3.262      1.221      2.924
REMARK INTER + INTRA:          -6.771
REMARK INTER:                  -5.138
REMARK INTRA:                  -1.633
REMARK UNBOUND:                -1.220
REMARK SMILES CCCCCCCCCCCCCC(=O)[O-]
REMARK SMILES IDX 8 1 9 2 10 3 11 4 12 5 13 6 14 7 15 8 16 9 7 10 6 11 5 12
REMARK SMILES IDX 4 13 3 14 2 15 1 16
REMARK H PARENT
REMARK Flexibility Score: inf
ROOT
ATOM      1  C   UNL     1      43.769  22.538  75.683  1.00  0.00     0.000 C 
ENDROOT
BRANCH   1   2
ATOM      2  C   UNL     1      42.697  22.577  76.779  1.00  0.00     0.000 C 
BRANCH   2   3
ATOM      3  C   UNL     1      41.355  22.048  76.256  1.00  0.00     0.000 C 
BRANCH   3   4
ATOM      4  C   UNL     1      40.726  21.065  77.250  1.00  0.00     0.000 C 
BRANCH   4   5
ATOM      5  C   UNL     1      41.231  21.324  78.676  1.00  0.00     0.006 C 
BRANCH   5   6
ATOM      6  C   UNL     1      41.089  20.090  79.577  1.00  0.00     0.053 C 
BRANCH   6   7
ATOM      7  C   UNL     1      39.667  19.871  79.996  1.00  0.00     0.041 C 
ATOM      8  O   UNL     1      39.043  20.771  80.618  1.00  0.00    -0.550 OA
ATOM      9  O   UNL     1      39.023  18.685  79.672  1.00  0.00    -0.550 OA
ENDBRANCH   6   7
ENDBRANCH   5   6
ENDBRANCH   4   5
ENDBRANCH   3   4
ENDBRANCH   2   3
ENDBRANCH   1   2
BRANCH   1  10
ATOM     10  C   UNL     1      43.864  21.138  75.057  1.00  0.00     0.000 C 
BRANCH  10  11
ATOM     11  C   UNL     1      45.308  20.742  74.715  1.00  0.00    -0.000 C 
BRANCH  11  12
ATOM     12  C   UNL     1      45.747  19.441  75.410  1.00  0.00    -0.000 C 
BRANCH  12  13
ATOM     13  C   UNL     1      46.569  19.693  76.687  1.00  0.00    -0.000 C 
BRANCH  13  14
ATOM     14  C   UNL     1      45.974  19.083  77.969  1.00  0.00    -0.000 C 
BRANCH  14  15
ATOM     15  C   UNL     1      44.646  19.734  78.381  1.00  0.00    -0.003 C 
ATOM     16  C   UNL     1      44.884  21.016  79.175  1.00  0.00     0.004 C 
ENDBRANCH  14  15
ENDBRANCH  13  14
ENDBRANCH  12  13
ENDBRANCH  11  12
ENDBRANCH  10  11
ENDBRANCH   1  10
TORSDOF 12
ENDMDL
MODEL 9
REMARK VINA RESULT:    -3.241     16.699     18.231
REMARK INTER + INTRA:          -6.735
REMARK INTER:                  -4.621
REMARK INTRA:                  -2.114
REMARK UNBOUND:                -1.220
REMARK SMILES CCCCCCCCCCCCCC(=O)[O-]
REMARK SMILES IDX 8 1 9 2 10 3 11 4 12 5 13 6 14 7 15 8 16 9 7 10 6 11 5 12
REMARK SMILES IDX 4 13 3 14 2 15 1 16
REMARK H PARENT
REMARK Flexibility Score: inf
ROOT
ATOM      1  C   UNL     1      48.656  29.221  90.792  1.00  0.00     0.000 C 
ENDROOT
BRANCH   1   2
ATOM      2  C   UNL     1      49.640  30.337  91.167  1.00  0.00     0.000 C 
BRANCH   2   3
ATOM      3  C   UNL     1      50.626  30.608  90.025  1.00  0.00     0.000 C 
BRANCH   3   4
ATOM      4  C   UNL     1      50.924  32.107  89.899  1.00  0.00     0.000 C 
BRANCH   4   5
ATOM      5  C   UNL     1      51.180  32.496  88.436  1.00  0.00     0.006 C 
BRANCH   5   6
ATOM      6  C   UNL     1      51.531  33.982  88.282  1.00  0.00     0.053 C 
BRANCH   6   7
ATOM      7  C   UNL     1      50.499  34.715  87.481  1.00  0.00     0.041 C 
ATOM      8  O   UNL     1      50.246  34.365  86.299  1.00  0.00    -0.550 OA
ATOM      9  O   UNL     1      49.794  35.766  88.054  1.00  0.00    -0.550 OA
ENDBRANCH   6   7
ENDBRANCH   5   6
ENDBRANCH   4   5
ENDBRANCH   3   4
ENDBRANCH   2   3
ENDBRANCH   1   2
BRANCH   1  10
ATOM     10  C   UNL     1      47.213  29.626  91.127  1.00  0.00     0.000 C 
BRANCH  10  11
ATOM     11  C   UNL     1      46.981  31.140  90.998  1.00  0.00    -0.000 C 
BRANCH  11  12
ATOM     12  C   UNL     1      46.429  31.540  89.618  1.00  0.00    -0.000 C 
BRANCH  12  13
ATOM     13  C   UNL     1      47.439  32.343  88.780  1.00  0.00    -0.000 C 
BRANCH  13  14
ATOM     14  C   UNL     1      47.783  31.724  87.413  1.00  0.00    -0.000 C 
BRANCH  14  15
ATOM     15  C   UNL     1      47.490  30.218  87.348  1.00  0.00    -0.003 C 
ATOM     16  C   UNL     1      48.759  29.421  87.060  1.00  0.00     0.004 C 
ENDBRANCH  14  15
ENDBRANCH  13  14
ENDBRANCH  12  13
ENDBRANCH  11  12
ENDBRANCH  10  11
ENDBRANCH   1  10
TORSDOF 12
ENDMDL
