MODEL 1
REMARK VINA RESULT:    -3.653      0.000      0.000
REMARK INTER + INTRA:          -4.259
REMARK INTER:                  -4.187
REMARK INTRA:                  -0.072
REMARK UNBOUND:                -0.072
REMARK SMILES COc1cc(C=O)ccc1O
REMARK SMILES IDX 3 1 10 2 9 3 8 4 5 5 4 6 2 7 1 8 11 9 6 11 7 12
REMARK H PARENT 11 10
REMARK Flexibility Score: inf
ROOT
ATOM      1  C   UNL     1     161.750 174.056 167.967  1.00  0.00     0.161 A 
ATOM      2  C   UNL     1     162.948 173.319 167.976  1.00  0.00     0.157 A 
ATOM      3  C   UNL     1     163.006 172.085 168.632  1.00  0.00     0.051 A 
ATOM      4  C   UNL     1     161.881 171.577 169.282  1.00  0.00     0.015 A 
ATOM      5  C   UNL     1     160.679 172.296 169.284  1.00  0.00     0.018 A 
ATOM      6  C   UNL     1     160.617 173.536 168.625  1.00  0.00     0.062 A 
ENDROOT
BRANCH   1   7
ATOM      7  O   UNL     1     161.721 175.292 167.300  1.00  0.00    -0.493 OA
ATOM      8  C   UNL     1     161.264 175.480 165.965  1.00  0.00     0.278 C 
ENDBRANCH   1   7
BRANCH   2   9
ATOM      9  O   UNL     1     164.093 173.795 167.338  1.00  0.00    -0.504 OA
ATOM     10  H   UNL     1     164.446 174.732 167.491  1.00  0.00     0.293 HD
ENDBRANCH   2   9
BRANCH   5  11
ATOM     11  C   UNL     1     159.501 171.740 169.976  1.00  0.00     0.260 C 
ATOM     12  O   UNL     1     158.513 171.298 169.331  1.00  0.00    -0.298 OA
ENDBRANCH   5  11
TORSDOF 3
ENDMDL
MODEL 2
REMARK VINA RESULT:    -3.646     15.356     16.803
REMARK INTER + INTRA:          -4.251
REMARK INTER:                  -4.182
REMARK INTRA:                  -0.069
REMARK UNBOUND:                -0.072
REMARK SMILES COc1cc(C=O)ccc1O
REMARK SMILES IDX 3 1 10 2 9 3 8 4 5 5 4 6 2 7 1 8 11 9 6 11 7 12
REMARK H PARENT 11 10
REMARK Flexibility Score: inf
ROOT
ATOM      1  C   UNL     1     168.644 158.233 169.067  1.00  0.00     0.161 A 
ATOM      2  C   UNL     1     167.910 159.021 169.971  1.00  0.00     0.157 A 
ATOM      3  C   UNL     1     168.561 159.982 170.752  1.00  0.00     0.051 A 
ATOM      4  C   UNL     1     169.939 160.166 170.641  1.00  0.00     0.015 A 
ATOM      5  C   UNL     1     170.688 159.390 169.746  1.00  0.00     0.018 A 
ATOM      6  C   UNL     1     170.036 158.424 168.960  1.00  0.00     0.062 A 
ENDROOT
BRANCH   1   7
ATOM      7  O   UNL     1     167.963 157.276 168.296  1.00  0.00    -0.493 OA
ATOM      8  C   UNL     1     167.798 157.344 166.884  1.00  0.00     0.278 C 
ENDBRANCH   1   7
BRANCH   2   9
ATOM      9  O   UNL     1     166.531 158.866 170.110  1.00  0.00    -0.504 OA
ATOM     10  H   UNL     1     166.122 158.072 170.588  1.00  0.00     0.293 HD
ENDBRANCH   2   9
BRANCH   5  11
ATOM     11  C   UNL     1     172.144 159.601 169.644  1.00  0.00     0.260 C 
ATOM     12  O   UNL     1     172.678 159.957 168.560  1.00  0.00    -0.298 OA
ENDBRANCH   5  11
TORSDOF 3
ENDMDL
MODEL 3
REMARK VINA RESULT:    -3.601     16.023     17.614
REMARK INTER + INTRA:          -4.199
REMARK INTER:                  -4.135
REMARK INTRA:                  -0.064
REMARK UNBOUND:                -0.072
REMARK SMILES COc1cc(C=O)ccc1O
REMARK SMILES IDX 3 1 10 2 9 3 8 4 5 5 4 6 2 7 1 8 11 9 6 11 7 12
REMARK H PARENT 11 10
REMARK Flexibility Score: inf
ROOT
ATOM      1  C   UNL     1     169.482 157.232 168.117  1.00  0.00     0.161 A 
ATOM      2  C   UNL     1     168.243 157.897 168.165  1.00  0.00     0.157 A 
ATOM      3  C   UNL     1     168.129 159.116 168.841  1.00  0.00     0.051 A 
ATOM      4  C   UNL     1     169.237 159.681 169.472  1.00  0.00     0.015 A 
ATOM      5  C   UNL     1     170.479 159.033 169.437  1.00  0.00     0.018 A 
ATOM      6  C   UNL     1     170.598 157.808 168.758  1.00  0.00     0.062 A 
ENDROOT
BRANCH   1   7
ATOM      7  O   UNL     1     169.567 156.009 167.432  1.00  0.00    -0.493 OA
ATOM      8  C   UNL     1     169.909 155.875 166.056  1.00  0.00     0.278 C 
ENDBRANCH   1   7
BRANCH   2   9
ATOM      9  O   UNL     1     167.113 157.364 167.545  1.00  0.00    -0.504 OA
ATOM     10  H   UNL     1     166.725 157.760 166.698  1.00  0.00     0.293 HD
ENDBRANCH   2   9
BRANCH   5  11
ATOM     11  C   UNL     1     171.639 159.647 170.110  1.00  0.00     0.260 C 
ATOM     12  O   UNL     1     172.680 159.951 169.469  1.00  0.00    -0.298 OA
ENDBRANCH   5  11
TORSDOF 3
ENDMDL
MODEL 4
REMARK VINA RESULT:    -3.530      2.421      4.162
REMARK INTER + INTRA:          -4.118
REMARK INTER:                  -4.052
REMARK INTRA:                  -0.067
REMARK UNBOUND:                -0.072
REMARK SMILES COc1cc(C=O)ccc1O
REMARK SMILES IDX 3 1 10 2 9 3 8 4 5 5 4 6 2 7 1 8 11 9 6 11 7 12
REMARK H PARENT 11 10
REMARK Flexibility Score: inf
ROOT
ATOM      1  C   UNL     1     162.980 174.235 167.005  1.00  0.00     0.161 A 
ATOM      2  C   UNL     1     163.863 174.561 165.959  1.00  0.00     0.157 A 
ATOM      3  C   UNL     1     163.428 175.368 164.902  1.00  0.00     0.051 A 
ATOM      4  C   UNL     1     162.120 175.853 164.875  1.00  0.00     0.015 A 
ATOM      5  C   UNL     1     161.226 175.538 165.907  1.00  0.00     0.018 A 
ATOM      6  C   UNL     1     161.660 174.728 166.971  1.00  0.00     0.062 A 
ENDROOT
BRANCH   1   7
ATOM      7  O   UNL     1     163.444 173.423 168.053  1.00  0.00    -0.493 OA
ATOM      8  C   UNL     1     162.899 172.153 168.395  1.00  0.00     0.278 C 
ENDBRANCH   1   7
BRANCH   2   9
ATOM      9  O   UNL     1     165.177 174.095 165.952  1.00  0.00    -0.504 OA
ATOM     10  H   UNL     1     165.910 174.556 165.426  1.00  0.00     0.293 HD
ENDBRANCH   2   9
BRANCH   5  11
ATOM     11  C   UNL     1     159.848 176.061 165.859  1.00  0.00     0.260 C 
ATOM     12  O   UNL     1     158.890 175.423 166.371  1.00  0.00    -0.298 OA
ENDBRANCH   5  11
TORSDOF 3
ENDMDL
MODEL 5
REMARK VINA RESULT:    -3.513      9.233      9.954
REMARK INTER + INTRA:          -4.099
REMARK INTER:                  -4.023
REMARK INTRA:                  -0.076
REMARK UNBOUND:                -0.072
REMARK SMILES COc1cc(C=O)ccc1O
REMARK SMILES IDX 3 1 10 2 9 3 8 4 5 5 4 6 2 7 1 8 11 9 6 11 7 12
REMARK H PARENT 11 10
REMARK Flexibility Score: inf
ROOT
ATOM      1  C   UNL     1     169.395 166.675 168.173  1.00  0.00     0.161 A 
ATOM      2  C   UNL     1     169.444 166.273 166.826  1.00  0.00     0.157 A 
ATOM      3  C   UNL     1     168.382 165.553 166.270  1.00  0.00     0.051 A 
ATOM      4  C   UNL     1     167.267 165.228 167.045  1.00  0.00     0.015 A 
ATOM      5  C   UNL     1     167.199 165.619 168.389  1.00  0.00     0.018 A 
ATOM      6  C   UNL     1     168.266 166.343 168.950  1.00  0.00     0.062 A 
ENDROOT
BRANCH   1   7
ATOM      7  O   UNL     1     170.477 167.397 168.704  1.00  0.00    -0.493 OA
ATOM      8  C   UNL     1     170.475 168.800 168.940  1.00  0.00     0.278 C 
ENDBRANCH   1   7
BRANCH   2   9
ATOM      9  O   UNL     1     170.541 166.579 166.021  1.00  0.00    -0.504 OA
ATOM     10  H   UNL     1     171.412 166.065 166.077  1.00  0.00     0.293 HD
ENDBRANCH   2   9
BRANCH   5  11
ATOM     11  C   UNL     1     166.013 165.266 169.189  1.00  0.00     0.260 C 
ATOM     12  O   UNL     1     164.848 165.476 168.757  1.00  0.00    -0.298 OA
ENDBRANCH   5  11
TORSDOF 3
ENDMDL
MODEL 6
REMARK VINA RESULT:    -3.425      8.279      9.358
REMARK INTER + INTRA:          -3.997
REMARK INTER:                  -3.925
REMARK INTRA:                  -0.072
REMARK UNBOUND:                -0.072
REMARK SMILES COc1cc(C=O)ccc1O
REMARK SMILES IDX 3 1 10 2 9 3 8 4 5 5 4 6 2 7 1 8 11 9 6 11 7 12
REMARK H PARENT 11 10
REMARK Flexibility Score: inf
ROOT
ATOM      1  C   UNL     1     161.854 164.505 168.316  1.00  0.00     0.161 A 
ATOM      2  C   UNL     1     161.834 164.925 166.974  1.00  0.00     0.157 A 
ATOM      3  C   UNL     1     162.905 165.661 166.454  1.00  0.00     0.051 A 
ATOM      4  C   UNL     1     163.997 165.984 167.259  1.00  0.00     0.015 A 
ATOM      5  C   UNL     1     164.035 165.575 168.599  1.00  0.00     0.018 A 
ATOM      6  C   UNL     1     162.961 164.835 169.124  1.00  0.00     0.062 A 
ENDROOT
BRANCH   1   7
ATOM      7  O   UNL     1     160.766 163.768 168.811  1.00  0.00    -0.493 OA
ATOM      8  C   UNL     1     160.716 162.348 168.881  1.00  0.00     0.278 C 
ENDBRANCH   1   7
BRANCH   2   9
ATOM      9  O   UNL     1     160.760 164.621 166.138  1.00  0.00    -0.504 OA
ATOM     10  H   UNL     1     160.274 165.331 165.604  1.00  0.00     0.293 HD
ENDBRANCH   2   9
BRANCH   5  11
ATOM     11  C   UNL     1     165.199 165.927 169.433  1.00  0.00     0.260 C 
ATOM     12  O   UNL     1     165.915 165.036 169.964  1.00  0.00    -0.298 OA
ENDBRANCH   5  11
TORSDOF 3
ENDMDL
MODEL 7
REMARK VINA RESULT:    -3.368      1.985      2.318
REMARK INTER + INTRA:          -3.932
REMARK INTER:                  -3.855
REMARK INTRA:                  -0.077
REMARK UNBOUND:                -0.072
REMARK SMILES COc1cc(C=O)ccc1O
REMARK SMILES IDX 3 1 10 2 9 3 8 4 5 5 4 6 2 7 1 8 11 9 6 11 7 12
REMARK H PARENT 11 10
REMARK Flexibility Score: inf
ROOT
ATOM      1  C   UNL     1     162.114 174.341 169.893  1.00  0.00     0.161 A 
ATOM      2  C   UNL     1     163.118 173.403 169.592  1.00  0.00     0.157 A 
ATOM      3  C   UNL     1     162.772 172.096 169.236  1.00  0.00     0.051 A 
ATOM      4  C   UNL     1     161.433 171.711 169.176  1.00  0.00     0.015 A 
ATOM      5  C   UNL     1     160.417 172.629 169.473  1.00  0.00     0.018 A 
ATOM      6  C   UNL     1     160.762 173.945 169.832  1.00  0.00     0.062 A 
ENDROOT
BRANCH   1   7
ATOM      7  O   UNL     1     162.491 175.646 170.248  1.00  0.00    -0.493 OA
ATOM      8  C   UNL     1     162.632 176.111 171.586  1.00  0.00     0.278 C 
ENDBRANCH   1   7
BRANCH   2   9
ATOM      9  O   UNL     1     164.468 173.751 169.640  1.00  0.00    -0.504 OA
ATOM     10  H   UNL     1     164.780 174.712 169.566  1.00  0.00     0.293 HD
ENDBRANCH   2   9
BRANCH   5  11
ATOM     11  C   UNL     1     159.008 172.202 169.405  1.00  0.00     0.260 C 
ATOM     12  O   UNL     1     158.637 171.300 168.606  1.00  0.00    -0.298 OA
ENDBRANCH   5  11
TORSDOF 3
ENDMDL
MODEL 8
REMARK VINA RESULT:    -3.338      1.635      2.231
REMARK INTER + INTRA:          -3.897
REMARK INTER:                  -3.823
REMARK INTRA:                  -0.074
REMARK UNBOUND:                -0.072
REMARK SMILES COc1cc(C=O)ccc1O
REMARK SMILES IDX 3 1 10 2 9 3 8 4 5 5 4 6 2 7 1 8 11 9 6 11 7 12
REMARK H PARENT 11 10
REMARK Flexibility Score: inf
ROOT
ATOM      1  C   UNL     1     162.735 172.297 168.904  1.00  0.00     0.161 A 
ATOM      2  C   UNL     1     163.451 172.285 170.115  1.00  0.00     0.157 A 
ATOM      3  C   UNL     1     162.800 171.967 171.311  1.00  0.00     0.051 A 
ATOM      4  C   UNL     1     161.438 171.662 171.314  1.00  0.00     0.015 A 
ATOM      5  C   UNL     1     160.707 171.671 170.119  1.00  0.00     0.018 A 
ATOM      6  C   UNL     1     161.360 171.989 168.915  1.00  0.00     0.062 A 
ENDROOT
BRANCH   1   7
ATOM      7  O   UNL     1     163.416 172.620 167.718  1.00  0.00    -0.493 OA
ATOM      8  C   UNL     1     163.282 173.852 167.019  1.00  0.00     0.278 C 
ENDBRANCH   1   7
BRANCH   2   9
ATOM      9  O   UNL     1     164.813 172.583 170.151  1.00  0.00    -0.504 OA
ATOM     10  H   UNL     1     165.428 172.215 170.867  1.00  0.00     0.293 HD
ENDBRANCH   2   9
BRANCH   5  11
ATOM     11  C   UNL     1     159.269 171.345 170.145  1.00  0.00     0.260 C 
ATOM     12  O   UNL     1     158.595 171.282 169.082  1.00  0.00    -0.298 OA
ENDBRANCH   5  11
TORSDOF 3
ENDMDL
MODEL 9
REMARK VINA RESULT:    -3.301     15.155     16.827
REMARK INTER + INTRA:          -3.855
REMARK INTER:                  -3.804
REMARK INTRA:                  -0.051
REMARK UNBOUND:                -0.072
REMARK SMILES COc1cc(C=O)ccc1O
REMARK SMILES IDX 3 1 10 2 9 3 8 4 5 5 4 6 2 7 1 8 11 9 6 11 7 12
REMARK H PARENT 11 10
REMARK Flexibility Score: inf
ROOT
ATOM      1  C   UNL     1     168.531 159.169 169.966  1.00  0.00     0.161 A 
ATOM      2  C   UNL     1     168.220 157.950 169.337  1.00  0.00     0.157 A 
ATOM      3  C   UNL     1     169.229 157.200 168.724  1.00  0.00     0.051 A 
ATOM      4  C   UNL     1     170.548 157.654 168.731  1.00  0.00     0.015 A 
ATOM      5  C   UNL     1     170.878 158.866 169.351  1.00  0.00     0.018 A 
ATOM      6  C   UNL     1     169.866 159.622 169.968  1.00  0.00     0.062 A 
ENDROOT
BRANCH   1   7
ATOM      7  O   UNL     1     167.496 159.901 170.573  1.00  0.00    -0.493 OA
ATOM      8  C   UNL     1     167.677 161.124 171.278  1.00  0.00     0.278 C 
ENDBRANCH   1   7
BRANCH   2   9
ATOM      9  O   UNL     1     166.912 157.464 169.311  1.00  0.00    -0.504 OA
ATOM     10  H   UNL     1     166.265 157.615 170.076  1.00  0.00     0.293 HD
ENDBRANCH   2   9
BRANCH   5  11
ATOM     11  C   UNL     1     172.279 159.327 169.346  1.00  0.00     0.260 C 
ATOM     12  O   UNL     1     172.727 160.043 168.411  1.00  0.00    -0.298 OA
ENDBRANCH   5  11
TORSDOF 3
ENDMDL
