MODEL 1
REMARK VINA RESULT:    -4.251      0.000      0.000
REMARK INTER + INTRA:          -5.361
REMARK INTER:                  -5.245
REMARK INTRA:                  -0.116
REMARK UNBOUND:                -0.116
REMARK SMILES CCCCCC(=O)[O-]
REMARK SMILES IDX 4 1 5 2 6 3 7 4 8 5 3 6 2 7 1 8
REMARK H PARENT
REMARK Flexibility Score: inf
ROOT
ATOM      1  C   UNL     1       0.326  -1.817   1.612  1.00  0.00     0.006 C 
ENDROOT
BRANCH   1   2
ATOM      2  C   UNL     1       1.262  -1.173   0.587  1.00  0.00     0.053 C 
BRANCH   2   3
ATOM      3  C   UNL     1       2.542  -0.753   1.237  1.00  0.00     0.041 C 
ATOM      4  O   UNL     1       2.650  -0.768   2.492  1.00  0.00    -0.550 OA
ATOM      5  O   UNL     1       3.632  -0.391   0.456  1.00  0.00    -0.550 OA
ENDBRANCH   2   3
ENDBRANCH   1   2
BRANCH   1   6
ATOM      6  C   UNL     1      -0.378  -3.047   1.019  1.00  0.00     0.000 C 
BRANCH   6   7
ATOM      7  C   UNL     1      -0.805  -2.837  -0.442  1.00  0.00    -0.003 C 
ATOM      8  C   UNL     1      -0.757  -4.125  -1.263  1.00  0.00     0.004 C 
ENDBRANCH   6   7
ENDBRANCH   1   6
TORSDOF 4
ENDMDL
MODEL 2
REMARK VINA RESULT:    -4.101     15.412     16.928
REMARK INTER + INTRA:          -5.177
REMARK INTER:                  -5.067
REMARK INTRA:                  -0.110
REMARK UNBOUND:                -0.116
REMARK SMILES CCCCCC(=O)[O-]
REMARK SMILES IDX 4 1 5 2 6 3 7 4 8 5 3 6 2 7 1 8
REMARK H PARENT
REMARK Flexibility Score: inf
ROOT
ATOM      1  C   UNL     1      13.356  -1.104  11.820  1.00  0.00     0.006 C 
ENDROOT
BRANCH   1   2
ATOM      2  C   UNL     1      14.166  -2.352  12.181  1.00  0.00     0.053 C 
BRANCH   2   3
ATOM      3  C   UNL     1      15.515  -1.968  12.702  1.00  0.00     0.041 C 
ATOM      4  O   UNL     1      16.125  -2.728  13.501  1.00  0.00    -0.550 OA
ATOM      5  O   UNL     1      16.121  -0.796  12.269  1.00  0.00    -0.550 OA
ENDBRANCH   2   3
ENDBRANCH   1   2
BRANCH   1   6
ATOM      6  C   UNL     1      12.026  -1.486  11.152  1.00  0.00     0.000 C 
BRANCH   6   7
ATOM      7  C   UNL     1      11.826  -3.006  11.059  1.00  0.00    -0.003 C 
ATOM      8  C   UNL     1      10.914  -3.413   9.902  1.00  0.00     0.004 C 
ENDBRANCH   6   7
ENDBRANCH   1   6
TORSDOF 4
ENDMDL
MODEL 3
REMARK VINA RESULT:    -4.017     13.897     15.819
REMARK INTER + INTRA:          -5.072
REMARK INTER:                  -4.969
REMARK INTRA:                  -0.103
REMARK UNBOUND:                -0.116
REMARK SMILES CCCCCC(=O)[O-]
REMARK SMILES IDX 4 1 5 2 6 3 7 4 8 5 3 6 2 7 1 8
REMARK H PARENT
REMARK Flexibility Score: inf
ROOT
ATOM      1  C   UNL     1      12.120  -1.611  11.207  1.00  0.00     0.006 C 
ENDROOT
BRANCH   1   2
ATOM      2  C   UNL     1      11.821  -3.048  10.772  1.00  0.00     0.053 C 
BRANCH   2   3
ATOM      3  C   UNL     1      10.498  -3.122  10.078  1.00  0.00     0.041 C 
ATOM      4  O   UNL     1       9.616  -2.251  10.301  1.00  0.00    -0.550 OA
ATOM      5  O   UNL     1      10.256  -4.125   9.148  1.00  0.00    -0.550 OA
ENDBRANCH   2   3
ENDBRANCH   1   2
BRANCH   1   6
ATOM      6  C   UNL     1      13.515  -1.506  11.841  1.00  0.00     0.000 C 
BRANCH   6   7
ATOM      7  C   UNL     1      14.087  -2.874  12.240  1.00  0.00    -0.003 C 
ATOM      8  C   UNL     1      15.484  -2.775  12.851  1.00  0.00     0.004 C 
ENDBRANCH   6   7
ENDBRANCH   1   6
TORSDOF 4
ENDMDL
MODEL 4
REMARK VINA RESULT:    -3.994     15.148     16.999
REMARK INTER + INTRA:          -5.045
REMARK INTER:                  -4.928
REMARK INTRA:                  -0.117
REMARK UNBOUND:                -0.116
REMARK SMILES CCCCCC(=O)[O-]
REMARK SMILES IDX 4 1 5 2 6 3 7 4 8 5 3 6 2 7 1 8
REMARK H PARENT
REMARK Flexibility Score: inf
ROOT
ATOM      1  C   UNL     1      13.635  -1.805  11.876  1.00  0.00     0.006 C 
ENDROOT
BRANCH   1   2
ATOM      2  C   UNL     1      12.752  -3.021  11.584  1.00  0.00     0.053 C 
BRANCH   2   3
ATOM      3  C   UNL     1      11.513  -2.608  10.855  1.00  0.00     0.041 C 
ATOM      4  O   UNL     1      10.958  -1.508  11.122  1.00  0.00    -0.550 OA
ATOM      5  O   UNL     1      10.997  -3.412   9.847  1.00  0.00    -0.550 OA
ENDBRANCH   2   3
ENDBRANCH   1   2
BRANCH   1   6
ATOM      6  C   UNL     1      14.951  -2.229  12.544  1.00  0.00     0.000 C 
BRANCH   6   7
ATOM      7  C   UNL     1      14.971  -3.717  12.923  1.00  0.00    -0.003 C 
ATOM      8  C   UNL     1      15.341  -3.950  14.387  1.00  0.00     0.004 C 
ENDBRANCH   6   7
ENDBRANCH   1   6
TORSDOF 4
ENDMDL
MODEL 5
REMARK VINA RESULT:    -3.943      1.086      1.570
REMARK INTER + INTRA:          -4.982
REMARK INTER:                  -4.902
REMARK INTRA:                  -0.080
REMARK UNBOUND:                -0.116
REMARK SMILES CCCCCC(=O)[O-]
REMARK SMILES IDX 4 1 5 2 6 3 7 4 8 5 3 6 2 7 1 8
REMARK H PARENT
REMARK Flexibility Score: inf
ROOT
ATOM      1  C   UNL     1       1.057  -1.186   0.989  1.00  0.00     0.006 C 
ENDROOT
BRANCH   1   2
ATOM      2  C   UNL     1       2.219  -1.066   1.978  1.00  0.00     0.053 C 
BRANCH   2   3
ATOM      3  C   UNL     1       3.496  -0.776   1.254  1.00  0.00     0.041 C 
ATOM      4  O   UNL     1       3.489  -0.053   0.223  1.00  0.00    -0.550 OA
ATOM      5  O   UNL     1       4.700  -1.263   1.746  1.00  0.00    -0.550 OA
ENDBRANCH   2   3
ENDBRANCH   1   2
BRANCH   1   6
ATOM      6  C   UNL     1      -0.027  -2.133   1.526  1.00  0.00     0.000 C 
BRANCH   6   7
ATOM      7  C   UNL     1      -0.449  -3.193   0.497  1.00  0.00    -0.003 C 
ATOM      8  C   UNL     1      -0.439  -2.664  -0.936  1.00  0.00     0.004 C 
ENDBRANCH   6   7
ENDBRANCH   1   6
TORSDOF 4
ENDMDL
MODEL 6
REMARK VINA RESULT:    -3.325     15.041     16.993
REMARK INTER + INTRA:          -4.219
REMARK INTER:                  -4.147
REMARK INTRA:                  -0.071
REMARK UNBOUND:                -0.116
REMARK SMILES CCCCCC(=O)[O-]
REMARK SMILES IDX 4 1 5 2 6 3 7 4 8 5 3 6 2 7 1 8
REMARK H PARENT
REMARK Flexibility Score: inf
ROOT
ATOM      1  C   UNL     1      13.676  -2.307  11.859  1.00  0.00     0.006 C 
ENDROOT
BRANCH   1   2
ATOM      2  C   UNL     1      12.595  -3.331  11.504  1.00  0.00     0.053 C 
BRANCH   2   3
ATOM      3  C   UNL     1      11.455  -2.667  10.798  1.00  0.00     0.041 C 
ATOM      4  O   UNL     1      11.110  -1.498  11.114  1.00  0.00    -0.550 OA
ATOM      5  O   UNL     1      10.805  -3.321   9.760  1.00  0.00    -0.550 OA
ENDBRANCH   2   3
ENDBRANCH   1   2
BRANCH   1   6
ATOM      6  C   UNL     1      14.803  -2.957  12.675  1.00  0.00     0.000 C 
BRANCH   6   7
ATOM      7  C   UNL     1      16.125  -2.181  12.583  1.00  0.00    -0.003 C 
ATOM      8  C   UNL     1      15.928  -0.667  12.649  1.00  0.00     0.004 C 
ENDBRANCH   6   7
ENDBRANCH   1   6
TORSDOF 4
ENDMDL
MODEL 7
REMARK VINA RESULT:    -2.765     16.238     18.016
REMARK INTER + INTRA:          -3.528
REMARK INTER:                  -3.459
REMARK INTRA:                  -0.069
REMARK UNBOUND:                -0.116
REMARK SMILES CCCCCC(=O)[O-]
REMARK SMILES IDX 4 1 5 2 6 3 7 4 8 5 3 6 2 7 1 8
REMARK H PARENT
REMARK Flexibility Score: inf
ROOT
ATOM      1  C   UNL     1      13.872  -3.539  12.817  1.00  0.00     0.006 C 
ENDROOT
BRANCH   1   2
ATOM      2  C   UNL     1      13.194  -3.123  11.509  1.00  0.00     0.053 C 
BRANCH   2   3
ATOM      3  C   UNL     1      12.934  -1.649  11.498  1.00  0.00     0.041 C 
ATOM      4  O   UNL     1      11.798  -1.209  11.178  1.00  0.00    -0.550 OA
ATOM      5  O   UNL     1      13.931  -0.765  11.889  1.00  0.00    -0.550 OA
ENDBRANCH   2   3
ENDBRANCH   1   2
BRANCH   1   6
ATOM      6  C   UNL     1      15.381  -3.739  12.616  1.00  0.00     0.000 C 
BRANCH   6   7
ATOM      7  C   UNL     1      16.125  -4.000  13.934  1.00  0.00    -0.003 C 
ATOM      8  C   UNL     1      15.406  -3.411  15.146  1.00  0.00     0.004 C 
ENDBRANCH   6   7
ENDBRANCH   1   6
TORSDOF 4
ENDMDL
