MODEL 1
REMARK VINA RESULT:    -3.431      0.000      0.000
REMARK INTER + INTRA:          -5.665
REMARK INTER:                  -5.036
REMARK INTRA:                  -0.629
REMARK UNBOUND:                -0.629
REMARK SMILES O=C([O-])CCCCCCCC(=O)[O-]
REMARK SMILES IDX 7 1 6 2 5 3 4 4 2 5 1 6 3 7 8 8 9 9 10 10 11 11 12 12 13 13
REMARK H PARENT
REMARK Flexibility Score: inf
ROOT
ATOM      1  C   UNL     1      58.009  29.008  50.541  1.00  0.00     0.000 C 
ENDROOT
BRANCH   1   2
ATOM      2  C   UNL     1      58.795  28.856  49.233  1.00  0.00     0.000 C 
BRANCH   2   3
ATOM      3  C   UNL     1      59.976  27.894  49.409  1.00  0.00     0.006 C 
BRANCH   3   4
ATOM      4  C   UNL     1      59.510  26.437  49.360  1.00  0.00     0.053 C 
BRANCH   4   5
ATOM      5  C   UNL     1      59.555  25.826  50.725  1.00  0.00     0.041 C 
ATOM      6  O   UNL     1      60.400  26.224  51.570  1.00  0.00    -0.550 OA
ATOM      7  O   UNL     1      58.697  24.783  51.049  1.00  0.00    -0.550 OA
ENDBRANCH   4   5
ENDBRANCH   3   4
ENDBRANCH   2   3
ENDBRANCH   1   2
BRANCH   1   8
ATOM      8  C   UNL     1      56.510  28.778  50.313  1.00  0.00     0.000 C 
BRANCH   8   9
ATOM      9  C   UNL     1      56.058  27.448  50.926  1.00  0.00     0.006 C 
BRANCH   9  10
ATOM     10  C   UNL     1      55.831  26.392  49.842  1.00  0.00     0.053 C 
BRANCH  10  11
ATOM     11  C   UNL     1      54.372  26.257  49.538  1.00  0.00     0.041 C 
ATOM     12  O   UNL     1      53.850  25.116  49.430  1.00  0.00    -0.550 OA
ATOM     13  O   UNL     1      53.578  27.390  49.424  1.00  0.00    -0.550 OA
ENDBRANCH  10  11
ENDBRANCH   9  10
ENDBRANCH   8   9
ENDBRANCH   1   8
TORSDOF 8
ENDMDL
MODEL 2
REMARK VINA RESULT:    -3.301     12.906     14.130
REMARK INTER + INTRA:          -5.473
REMARK INTER:                  -5.040
REMARK INTRA:                  -0.433
REMARK UNBOUND:                -0.629
REMARK SMILES O=C([O-])CCCCCCCC(=O)[O-]
REMARK SMILES IDX 7 1 6 2 5 3 4 4 2 5 1 6 3 7 8 8 9 9 10 10 11 11 12 12 13 13
REMARK H PARENT
REMARK Flexibility Score: inf
ROOT
ATOM      1  C   UNL     1      61.491  32.298  60.828  1.00  0.00     0.000 C 
ENDROOT
BRANCH   1   2
ATOM      2  C   UNL     1      61.084  30.932  61.393  1.00  0.00     0.000 C 
BRANCH   2   3
ATOM      3  C   UNL     1      62.292  30.204  61.997  1.00  0.00     0.006 C 
BRANCH   3   4
ATOM      4  C   UNL     1      62.403  28.778  61.451  1.00  0.00     0.053 C 
BRANCH   4   5
ATOM      5  C   UNL     1      63.838  28.385  61.298  1.00  0.00     0.041 C 
ATOM      6  O   UNL     1      64.721  29.267  61.124  1.00  0.00    -0.550 OA
ATOM      7  O   UNL     1      64.196  27.043  61.298  1.00  0.00    -0.550 OA
ENDBRANCH   4   5
ENDBRANCH   3   4
ENDBRANCH   2   3
ENDBRANCH   1   2
BRANCH   1   8
ATOM      8  C   UNL     1      63.017  32.431  60.754  1.00  0.00     0.000 C 
BRANCH   8   9
ATOM      9  C   UNL     1      63.450  33.893  60.915  1.00  0.00     0.006 C 
BRANCH   9  10
ATOM     10  C   UNL     1      62.264  34.842  60.724  1.00  0.00     0.053 C 
BRANCH  10  11
ATOM     11  C   UNL     1      62.567  36.185  61.309  1.00  0.00     0.041 C 
ATOM     12  O   UNL     1      61.692  37.091  61.302  1.00  0.00    -0.550 OA
ATOM     13  O   UNL     1      63.798  36.422  61.906  1.00  0.00    -0.550 OA
ENDBRANCH  10  11
ENDBRANCH   9  10
ENDBRANCH   8   9
ENDBRANCH   1   8
TORSDOF 8
ENDMDL
MODEL 3
REMARK VINA RESULT:    -3.285      1.952      5.478
REMARK INTER + INTRA:          -5.450
REMARK INTER:                  -4.837
REMARK INTRA:                  -0.614
REMARK UNBOUND:                -0.629
REMARK SMILES O=C([O-])CCCCCCCC(=O)[O-]
REMARK SMILES IDX 7 1 6 2 5 3 4 4 2 5 1 6 3 7 8 8 9 9 10 10 11 11 12 12 13 13
REMARK H PARENT
REMARK Flexibility Score: inf
ROOT
ATOM      1  C   UNL     1      58.142  25.722  49.880  1.00  0.00     0.000 C 
ENDROOT
BRANCH   1   2
ATOM      2  C   UNL     1      56.972  26.112  50.791  1.00  0.00     0.000 C 
BRANCH   2   3
ATOM      3  C   UNL     1      55.684  26.302  49.982  1.00  0.00     0.006 C 
BRANCH   3   4
ATOM      4  C   UNL     1      55.088  27.693  50.216  1.00  0.00     0.053 C 
BRANCH   4   5
ATOM      5  C   UNL     1      53.679  27.751  49.715  1.00  0.00     0.041 C 
ATOM      6  O   UNL     1      53.156  26.740  49.178  1.00  0.00    -0.550 OA
ATOM      7  O   UNL     1      52.960  28.937  49.798  1.00  0.00    -0.550 OA
ENDBRANCH   4   5
ENDBRANCH   3   4
ENDBRANCH   2   3
ENDBRANCH   1   2
BRANCH   1   8
ATOM      8  C   UNL     1      59.427  26.452  50.289  1.00  0.00     0.000 C 
BRANCH   8   9
ATOM      9  C   UNL     1      59.850  27.464  49.217  1.00  0.00     0.006 C 
BRANCH   9  10
ATOM     10  C   UNL     1      59.000  28.734  49.295  1.00  0.00     0.053 C 
BRANCH  10  11
ATOM     11  C   UNL     1      59.105  29.353  50.654  1.00  0.00     0.041 C 
ATOM     12  O   UNL     1      60.213  29.777  51.073  1.00  0.00    -0.550 OA
ATOM     13  O   UNL     1      57.968  29.505  51.437  1.00  0.00    -0.550 OA
ENDBRANCH  10  11
ENDBRANCH   9  10
ENDBRANCH   8   9
ENDBRANCH   1   8
TORSDOF 8
ENDMDL
MODEL 4
REMARK VINA RESULT:    -3.261      0.542      4.744
REMARK INTER + INTRA:          -5.415
REMARK INTER:                  -4.693
REMARK INTRA:                  -0.721
REMARK UNBOUND:                -0.629
REMARK SMILES O=C([O-])CCCCCCCC(=O)[O-]
REMARK SMILES IDX 7 1 6 2 5 3 4 4 2 5 1 6 3 7 8 8 9 9 10 10 11 11 12 12 13 13
REMARK H PARENT
REMARK Flexibility Score: inf
ROOT
ATOM      1  C   UNL     1      58.075  29.171  50.414  1.00  0.00     0.000 C 
ENDROOT
BRANCH   1   2
ATOM      2  C   UNL     1      56.596  28.772  50.345  1.00  0.00     0.000 C 
BRANCH   2   3
ATOM      3  C   UNL     1      56.367  27.396  50.981  1.00  0.00     0.006 C 
BRANCH   3   4
ATOM      4  C   UNL     1      55.964  26.363  49.925  1.00  0.00     0.053 C 
BRANCH   4   5
ATOM      5  C   UNL     1      54.477  26.206  49.885  1.00  0.00     0.041 C 
ATOM      6  O   UNL     1      53.769  26.635  50.835  1.00  0.00    -0.550 OA
ATOM      7  O   UNL     1      53.875  25.544  48.823  1.00  0.00    -0.550 OA
ENDBRANCH   4   5
ENDBRANCH   3   4
ENDBRANCH   2   3
ENDBRANCH   1   2
BRANCH   1   8
ATOM      8  C   UNL     1      58.816  28.765  49.134  1.00  0.00     0.000 C 
BRANCH   8   9
ATOM      9  C   UNL     1      60.064  27.936  49.459  1.00  0.00     0.006 C 
BRANCH   9  10
ATOM     10  C   UNL     1      59.759  26.438  49.400  1.00  0.00     0.053 C 
BRANCH  10  11
ATOM     11  C   UNL     1      59.764  25.847  50.775  1.00  0.00     0.041 C 
ATOM     12  O   UNL     1      58.926  24.961  51.087  1.00  0.00    -0.550 OA
ATOM     13  O   UNL     1      60.725  26.240  51.697  1.00  0.00    -0.550 OA
ENDBRANCH  10  11
ENDBRANCH   9  10
ENDBRANCH   8   9
ENDBRANCH   1   8
TORSDOF 8
ENDMDL
MODEL 5
REMARK VINA RESULT:    -3.261      1.937      5.771
REMARK INTER + INTRA:          -5.414
REMARK INTER:                  -5.030
REMARK INTRA:                  -0.385
REMARK UNBOUND:                -0.629
REMARK SMILES O=C([O-])CCCCCCCC(=O)[O-]
REMARK SMILES IDX 7 1 6 2 5 3 4 4 2 5 1 6 3 7 8 8 9 9 10 10 11 11 12 12 13 13
REMARK H PARENT
REMARK Flexibility Score: inf
ROOT
ATOM      1  C   UNL     1      57.456  27.190  50.477  1.00  0.00     0.000 C 
ENDROOT
BRANCH   1   2
ATOM      2  C   UNL     1      56.034  26.776  50.078  1.00  0.00     0.000 C 
BRANCH   2   3
ATOM      3  C   UNL     1      55.019  27.865  50.446  1.00  0.00     0.006 C 
BRANCH   3   4
ATOM      4  C   UNL     1      53.716  27.688  49.663  1.00  0.00     0.053 C 
BRANCH   4   5
ATOM      5  C   UNL     1      53.267  26.261  49.705  1.00  0.00     0.041 C 
ATOM      6  O   UNL     1      53.201  25.586  48.644  1.00  0.00    -0.550 OA
ATOM      7  O   UNL     1      52.876  25.691  50.910  1.00  0.00    -0.550 OA
ENDBRANCH   4   5
ENDBRANCH   3   4
ENDBRANCH   2   3
ENDBRANCH   1   2
BRANCH   1   8
ATOM      8  C   UNL     1      57.694  28.680  50.198  1.00  0.00     0.000 C 
BRANCH   8   9
ATOM      9  C   UNL     1      58.885  28.880  49.254  1.00  0.00     0.006 C 
BRANCH   9  10
ATOM     10  C   UNL     1      59.759  27.624  49.200  1.00  0.00     0.053 C 
BRANCH  10  11
ATOM     11  C   UNL     1      61.164  27.945  49.604  1.00  0.00     0.041 C 
ATOM     12  O   UNL     1      62.133  27.403  49.011  1.00  0.00    -0.550 OA
ATOM     13  O   UNL     1      61.404  28.881  50.602  1.00  0.00    -0.550 OA
ENDBRANCH  10  11
ENDBRANCH   9  10
ENDBRANCH   8   9
ENDBRANCH   1   8
TORSDOF 8
ENDMDL
MODEL 6
REMARK VINA RESULT:    -3.257     12.876     14.382
REMARK INTER + INTRA:          -5.409
REMARK INTER:                  -5.020
REMARK INTRA:                  -0.389
REMARK UNBOUND:                -0.629
REMARK SMILES O=C([O-])CCCCCCCC(=O)[O-]
REMARK SMILES IDX 7 1 6 2 5 3 4 4 2 5 1 6 3 7 8 8 9 9 10 10 11 11 12 12 13 13
REMARK H PARENT
REMARK Flexibility Score: inf
ROOT
ATOM      1  C   UNL     1      62.103  32.653  60.496  1.00  0.00     0.000 C 
ENDROOT
BRANCH   1   2
ATOM      2  C   UNL     1      61.515  34.057  60.313  1.00  0.00     0.000 C 
BRANCH   2   3
ATOM      3  C   UNL     1      62.409  35.118  60.966  1.00  0.00     0.006 C 
BRANCH   3   4
ATOM      4  C   UNL     1      63.838  34.598  61.146  1.00  0.00     0.053 C 
BRANCH   4   5
ATOM      5  C   UNL     1      64.789  35.736  61.344  1.00  0.00     0.041 C 
ATOM      6  O   UNL     1      64.975  36.212  62.495  1.00  0.00    -0.550 OA
ATOM      7  O   UNL     1      65.433  36.302  60.251  1.00  0.00    -0.550 OA
ENDBRANCH   4   5
ENDBRANCH   3   4
ENDBRANCH   2   3
ENDBRANCH   1   2
BRANCH   1   8
ATOM      8  C   UNL     1      61.071  31.699  61.110  1.00  0.00     0.000 C 
BRANCH   8   9
ATOM      9  C   UNL     1      61.740  30.711  62.074  1.00  0.00     0.006 C 
BRANCH   9  10
ATOM     10  C   UNL     1      61.896  29.333  61.425  1.00  0.00     0.053 C 
BRANCH  10  11
ATOM     11  C   UNL     1      63.325  28.890  61.474  1.00  0.00     0.041 C 
ATOM     12  O   UNL     1      64.252  29.740  61.469  1.00  0.00    -0.550 OA
ATOM     13  O   UNL     1      63.630  27.538  61.576  1.00  0.00    -0.550 OA
ENDBRANCH  10  11
ENDBRANCH   9  10
ENDBRANCH   8   9
ENDBRANCH   1   8
TORSDOF 8
ENDMDL
MODEL 7
REMARK VINA RESULT:    -3.227     12.266     14.025
REMARK INTER + INTRA:          -5.365
REMARK INTER:                  -4.609
REMARK INTRA:                  -0.757
REMARK UNBOUND:                -0.629
REMARK SMILES O=C([O-])CCCCCCCC(=O)[O-]
REMARK SMILES IDX 7 1 6 2 5 3 4 4 2 5 1 6 3 7 8 8 9 9 10 10 11 11 12 12 13 13
REMARK H PARENT
REMARK Flexibility Score: inf
ROOT
ATOM      1  C   UNL     1      61.028  31.686  60.656  1.00  0.00     0.000 C 
ENDROOT
BRANCH   1   2
ATOM      2  C   UNL     1      61.585  33.107  60.802  1.00  0.00     0.000 C 
BRANCH   2   3
ATOM      3  C   UNL     1      62.912  33.259  60.047  1.00  0.00     0.006 C 
BRANCH   3   4
ATOM      4  C   UNL     1      64.060  33.567  61.012  1.00  0.00     0.053 C 
BRANCH   4   5
ATOM      5  C   UNL     1      64.299  35.042  61.089  1.00  0.00     0.041 C 
ATOM      6  O   UNL     1      64.032  35.779  60.103  1.00  0.00    -0.550 OA
ATOM      7  O   UNL     1      64.860  35.598  62.231  1.00  0.00    -0.550 OA
ENDBRANCH   4   5
ENDBRANCH   3   4
ENDBRANCH   2   3
ENDBRANCH   1   2
BRANCH   1   8
ATOM      8  C   UNL     1      61.231  30.881  61.945  1.00  0.00     0.000 C 
BRANCH   8   9
ATOM      9  C   UNL     1      62.107  29.648  61.692  1.00  0.00     0.006 C 
BRANCH   9  10
ATOM     10  C   UNL     1      63.593  30.001  61.786  1.00  0.00     0.053 C 
BRANCH  10  11
ATOM     11  C   UNL     1      64.253  29.849  60.451  1.00  0.00     0.041 C 
ATOM     12  O   UNL     1      63.617  29.358  59.482  1.00  0.00    -0.550 OA
ATOM     13  O   UNL     1      65.555  30.295  60.265  1.00  0.00    -0.550 OA
ENDBRANCH  10  11
ENDBRANCH   9  10
ENDBRANCH   8   9
ENDBRANCH   1   8
TORSDOF 8
ENDMDL
MODEL 8
REMARK VINA RESULT:    -3.227      1.595      2.171
REMARK INTER + INTRA:          -5.365
REMARK INTER:                  -4.887
REMARK INTRA:                  -0.478
REMARK UNBOUND:                -0.629
REMARK SMILES O=C([O-])CCCCCCCC(=O)[O-]
REMARK SMILES IDX 7 1 6 2 5 3 4 4 2 5 1 6 3 7 8 8 9 9 10 10 11 11 12 12 13 13
REMARK H PARENT
REMARK Flexibility Score: inf
ROOT
ATOM      1  C   UNL     1      56.059  28.674  51.693  1.00  0.00     0.000 C 
ENDROOT
BRANCH   1   2
ATOM      2  C   UNL     1      56.890  28.833  50.415  1.00  0.00     0.000 C 
BRANCH   2   3
ATOM      3  C   UNL     1      58.094  27.882  50.418  1.00  0.00     0.006 C 
BRANCH   3   4
ATOM      4  C   UNL     1      59.155  28.336  49.412  1.00  0.00     0.053 C 
BRANCH   4   5
ATOM      5  C   UNL     1      60.238  27.310  49.295  1.00  0.00     0.041 C 
ATOM      6  O   UNL     1      61.436  27.668  49.142  1.00  0.00    -0.550 OA
ATOM      7  O   UNL     1      59.920  25.958  49.305  1.00  0.00    -0.550 OA
ENDBRANCH   4   5
ENDBRANCH   3   4
ENDBRANCH   2   3
ENDBRANCH   1   2
BRANCH   1   8
ATOM      8  C   UNL     1      54.560  28.801  51.395  1.00  0.00     0.000 C 
BRANCH   8   9
ATOM      9  C   UNL     1      54.229  28.264  49.998  1.00  0.00     0.006 C 
BRANCH   9  10
ATOM     10  C   UNL     1      53.306  27.045  50.082  1.00  0.00     0.053 C 
BRANCH  10  11
ATOM     11  C   UNL     1      54.002  25.824  49.569  1.00  0.00     0.041 C 
ATOM     12  O   UNL     1      53.344  24.783  49.309  1.00  0.00    -0.550 OA
ATOM     13  O   UNL     1      55.370  25.852  49.330  1.00  0.00    -0.550 OA
ENDBRANCH  10  11
ENDBRANCH   9  10
ENDBRANCH   8   9
ENDBRANCH   1   8
TORSDOF 8
ENDMDL
MODEL 9
REMARK VINA RESULT:    -3.111      2.266      2.891
REMARK INTER + INTRA:          -5.194
REMARK INTER:                  -4.809
REMARK INTRA:                  -0.385
REMARK UNBOUND:                -0.629
REMARK SMILES O=C([O-])CCCCCCCC(=O)[O-]
REMARK SMILES IDX 7 1 6 2 5 3 4 4 2 5 1 6 3 7 8 8 9 9 10 10 11 11 12 12 13 13
REMARK H PARENT
REMARK Flexibility Score: inf
ROOT
ATOM      1  C   UNL     1      59.241  28.636  49.392  1.00  0.00     0.000 C 
ENDROOT
BRANCH   1   2
ATOM      2  C   UNL     1      59.559  27.143  49.245  1.00  0.00     0.000 C 
BRANCH   2   3
ATOM      3  C   UNL     1      61.026  26.855  49.587  1.00  0.00     0.006 C 
BRANCH   3   4
ATOM      4  C   UNL     1      61.711  28.100  50.157  1.00  0.00     0.053 C 
BRANCH   4   5
ATOM      5  C   UNL     1      62.939  28.430  49.369  1.00  0.00     0.041 C 
ATOM      6  O   UNL     1      63.412  29.597  49.392  1.00  0.00    -0.550 OA
ATOM      7  O   UNL     1      63.533  27.462  48.569  1.00  0.00    -0.550 OA
ENDBRANCH   4   5
ENDBRANCH   3   4
ENDBRANCH   2   3
ENDBRANCH   1   2
BRANCH   1   8
ATOM      8  C   UNL     1      57.841  28.846  49.983  1.00  0.00     0.000 C 
BRANCH   8   9
ATOM      9  C   UNL     1      57.214  27.511  50.400  1.00  0.00     0.006 C 
BRANCH   9  10
ATOM     10  C   UNL     1      55.773  27.707  50.877  1.00  0.00     0.053 C 
BRANCH  10  11
ATOM     11  C   UNL     1      54.810  27.122  49.892  1.00  0.00     0.041 C 
ATOM     12  O   UNL     1      55.021  25.982  49.401  1.00  0.00    -0.550 OA
ATOM     13  O   UNL     1      53.655  27.814  49.553  1.00  0.00    -0.550 OA
ENDBRANCH  10  11
ENDBRANCH   9  10
ENDBRANCH   8   9
ENDBRANCH   1   8
TORSDOF 8
ENDMDL
