MODEL 1
REMARK VINA RESULT:    -3.681      0.000      0.000
REMARK INTER + INTRA:          -5.942
REMARK INTER:                  -5.187
REMARK INTRA:                  -0.755
REMARK UNBOUND:                -0.755
REMARK SMILES CCCCCCCCC(=O)[O-]
REMARK SMILES IDX 6 1 7 2 8 3 9 4 10 5 11 6 5 7 4 8 3 9 2 10 1 11
REMARK H PARENT
REMARK Flexibility Score: inf
ROOT
ATOM      1  C   UNL     1       8.373 -27.835 -28.754  1.00  0.00     0.000 C 
ENDROOT
BRANCH   1   2
ATOM      2  C   UNL     1       8.355 -27.233 -27.334  1.00  0.00     0.006 C 
BRANCH   2   3
ATOM      3  C   UNL     1       9.722 -27.202 -26.633  1.00  0.00     0.053 C 
BRANCH   3   4
ATOM      4  C   UNL     1       9.918 -25.946 -25.841  1.00  0.00     0.041 C 
ATOM      5  O   UNL     1       9.105 -25.641 -24.929  1.00  0.00    -0.550 OA
ATOM      6  O   UNL     1      10.977 -25.096 -26.131  1.00  0.00    -0.550 OA
ENDBRANCH   3   4
ENDBRANCH   2   3
ENDBRANCH   1   2
BRANCH   1   7
ATOM      7  C   UNL     1       9.767 -28.212 -29.291  1.00  0.00     0.000 C 
BRANCH   7   8
ATOM      8  C   UNL     1      10.278 -27.239 -30.365  1.00  0.00    -0.000 C 
BRANCH   8   9
ATOM      9  C   UNL     1      11.201 -26.146 -29.793  1.00  0.00    -0.000 C 
BRANCH   9  10
ATOM     10  C   UNL     1      10.547 -24.763 -29.622  1.00  0.00    -0.003 C 
ATOM     11  C   UNL     1       9.463 -24.481 -30.661  1.00  0.00     0.004 C 
ENDBRANCH   9  10
ENDBRANCH   8   9
ENDBRANCH   7   8
ENDBRANCH   1   7
TORSDOF 7
ENDMDL
MODEL 2
REMARK VINA RESULT:    -3.665      3.115      4.829
REMARK INTER + INTRA:          -5.919
REMARK INTER:                  -5.314
REMARK INTRA:                  -0.605
REMARK UNBOUND:                -0.755
REMARK SMILES CCCCCCCCC(=O)[O-]
REMARK SMILES IDX 6 1 7 2 8 3 9 4 10 5 11 6 5 7 4 8 3 9 2 10 1 11
REMARK H PARENT
REMARK Flexibility Score: inf
ROOT
ATOM      1  C   UNL     1      11.384 -25.732 -28.827  1.00  0.00     0.000 C 
ENDROOT
BRANCH   1   2
ATOM      2  C   UNL     1      10.366 -24.732 -29.412  1.00  0.00     0.006 C 
BRANCH   2   3
ATOM      3  C   UNL     1       9.805 -25.121 -30.789  1.00  0.00     0.053 C 
BRANCH   3   4
ATOM      4  C   UNL     1      10.880 -25.590 -31.721  1.00  0.00     0.041 C 
ATOM      5  O   UNL     1      11.634 -24.755 -32.287  1.00  0.00    -0.550 OA
ATOM      6  O   UNL     1      11.027 -26.944 -31.990  1.00  0.00    -0.550 OA
ENDBRANCH   3   4
ENDBRANCH   2   3
ENDBRANCH   1   2
BRANCH   1   7
ATOM      7  C   UNL     1      10.773 -26.918 -28.057  1.00  0.00     0.000 C 
BRANCH   7   8
ATOM      8  C   UNL     1       9.322 -26.662 -27.615  1.00  0.00    -0.000 C 
BRANCH   8   9
ATOM      9  C   UNL     1       8.330 -27.687 -28.197  1.00  0.00    -0.000 C 
BRANCH   9  10
ATOM     10  C   UNL     1       8.789 -28.376 -29.495  1.00  0.00    -0.003 C 
ATOM     11  C   UNL     1       8.040 -29.676 -29.781  1.00  0.00     0.004 C 
ENDBRANCH   9  10
ENDBRANCH   8   9
ENDBRANCH   7   8
ENDBRANCH   1   7
TORSDOF 7
ENDMDL
MODEL 3
REMARK VINA RESULT:    -3.606      2.891      3.586
REMARK INTER + INTRA:          -5.836
REMARK INTER:                  -5.255
REMARK INTRA:                  -0.581
REMARK UNBOUND:                -0.755
REMARK SMILES CCCCCCCCC(=O)[O-]
REMARK SMILES IDX 6 1 7 2 8 3 9 4 10 5 11 6 5 7 4 8 3 9 2 10 1 11
REMARK H PARENT
REMARK Flexibility Score: inf
ROOT
ATOM      1  C   UNL     1       9.180 -26.858 -27.391  1.00  0.00     0.000 C 
ENDROOT
BRANCH   1   2
ATOM      2  C   UNL     1       8.143 -27.713 -28.148  1.00  0.00     0.006 C 
BRANCH   2   3
ATOM      3  C   UNL     1       8.733 -28.611 -29.248  1.00  0.00     0.053 C 
BRANCH   3   4
ATOM      4  C   UNL     1       9.039 -29.988 -28.743  1.00  0.00     0.041 C 
ATOM      5  O   UNL     1       8.314 -30.960 -29.083  1.00  0.00    -0.550 OA
ATOM      6  O   UNL     1      10.102 -30.191 -27.873  1.00  0.00    -0.550 OA
ENDBRANCH   3   4
ENDBRANCH   2   3
ENDBRANCH   1   2
BRANCH   1   7
ATOM      7  C   UNL     1      10.492 -26.589 -28.151  1.00  0.00     0.000 C 
BRANCH   7   8
ATOM      8  C   UNL     1      10.542 -25.189 -28.784  1.00  0.00    -0.000 C 
BRANCH   8   9
ATOM      9  C   UNL     1       9.722 -25.089 -30.084  1.00  0.00    -0.000 C 
BRANCH   9  10
ATOM     10  C   UNL     1      10.543 -25.193 -31.382  1.00  0.00    -0.003 C 
ATOM     11  C   UNL     1      10.890 -26.632 -31.759  1.00  0.00     0.004 C 
ENDBRANCH   9  10
ENDBRANCH   8   9
ENDBRANCH   7   8
ENDBRANCH   1   7
TORSDOF 7
ENDMDL
MODEL 4
REMARK VINA RESULT:    -3.589      2.397      4.284
REMARK INTER + INTRA:          -5.812
REMARK INTER:                  -5.174
REMARK INTRA:                  -0.638
REMARK UNBOUND:                -0.755
REMARK SMILES CCCCCCCCC(=O)[O-]
REMARK SMILES IDX 6 1 7 2 8 3 9 4 10 5 11 6 5 7 4 8 3 9 2 10 1 11
REMARK H PARENT
REMARK Flexibility Score: inf
ROOT
ATOM      1  C   UNL     1      10.301 -27.018 -30.675  1.00  0.00     0.000 C 
ENDROOT
BRANCH   1   2
ATOM      2  C   UNL     1       9.836 -25.554 -30.530  1.00  0.00     0.006 C 
BRANCH   2   3
ATOM      3  C   UNL     1      10.693 -24.700 -29.582  1.00  0.00     0.053 C 
BRANCH   3   4
ATOM      4  C   UNL     1      11.807 -24.007 -30.305  1.00  0.00     0.041 C 
ATOM      5  O   UNL     1      12.816 -23.601 -29.670  1.00  0.00    -0.550 OA
ATOM      6  O   UNL     1      11.716 -23.780 -31.672  1.00  0.00    -0.550 OA
ENDBRANCH   3   4
ENDBRANCH   2   3
ENDBRANCH   1   2
BRANCH   1   7
ATOM      7  C   UNL     1      10.006 -27.924 -29.465  1.00  0.00     0.000 C 
BRANCH   7   8
ATOM      8  C   UNL     1       8.520 -27.933 -29.071  1.00  0.00    -0.000 C 
BRANCH   8   9
ATOM      9  C   UNL     1       8.277 -27.424 -27.637  1.00  0.00    -0.000 C 
BRANCH   9  10
ATOM     10  C   UNL     1       9.551 -27.185 -26.806  1.00  0.00    -0.003 C 
ATOM     11  C   UNL     1       9.374 -26.111 -25.734  1.00  0.00     0.004 C 
ENDBRANCH   9  10
ENDBRANCH   8   9
ENDBRANCH   7   8
ENDBRANCH   1   7
TORSDOF 7
ENDMDL
MODEL 5
REMARK VINA RESULT:    -3.584      3.291      5.315
REMARK INTER + INTRA:          -5.805
REMARK INTER:                  -5.186
REMARK INTRA:                  -0.619
REMARK UNBOUND:                -0.755
REMARK SMILES CCCCCCCCC(=O)[O-]
REMARK SMILES IDX 6 1 7 2 8 3 9 4 10 5 11 6 5 7 4 8 3 9 2 10 1 11
REMARK H PARENT
REMARK Flexibility Score: inf
ROOT
ATOM      1  C   UNL     1      10.064 -24.859 -29.752  1.00  0.00     0.000 C 
ENDROOT
BRANCH   1   2
ATOM      2  C   UNL     1       9.526 -24.456 -31.140  1.00  0.00     0.006 C 
BRANCH   2   3
ATOM      3  C   UNL     1      10.432 -24.851 -32.318  1.00  0.00     0.053 C 
BRANCH   3   4
ATOM      4  C   UNL     1      11.328 -23.726 -32.737  1.00  0.00     0.041 C 
ATOM      5  O   UNL     1      12.325 -23.416 -32.033  1.00  0.00    -0.550 OA
ATOM      6  O   UNL     1      11.043 -22.999 -33.886  1.00  0.00    -0.550 OA
ENDBRANCH   3   4
ENDBRANCH   2   3
ENDBRANCH   1   2
BRANCH   1   7
ATOM      7  C   UNL     1      11.135 -25.965 -29.757  1.00  0.00     0.000 C 
BRANCH   7   8
ATOM      8  C   UNL     1      10.674 -27.248 -29.047  1.00  0.00    -0.000 C 
BRANCH   8   9
ATOM      9  C   UNL     1       9.508 -27.948 -29.770  1.00  0.00    -0.000 C 
BRANCH   9  10
ATOM     10  C   UNL     1       8.236 -28.138 -28.924  1.00  0.00    -0.003 C 
ATOM     11  C   UNL     1       8.264 -27.353 -27.614  1.00  0.00     0.004 C 
ENDBRANCH   9  10
ENDBRANCH   8   9
ENDBRANCH   7   8
ENDBRANCH   1   7
TORSDOF 7
ENDMDL
MODEL 6
REMARK VINA RESULT:    -3.539      1.987      2.787
REMARK INTER + INTRA:          -5.742
REMARK INTER:                  -5.019
REMARK INTRA:                  -0.723
REMARK UNBOUND:                -0.755
REMARK SMILES CCCCCCCCC(=O)[O-]
REMARK SMILES IDX 6 1 7 2 8 3 9 4 10 5 11 6 5 7 4 8 3 9 2 10 1 11
REMARK H PARENT
REMARK Flexibility Score: inf
ROOT
ATOM      1  C   UNL     1      10.690 -27.099 -30.410  1.00  0.00     0.000 C 
ENDROOT
BRANCH   1   2
ATOM      2  C   UNL     1       9.594 -26.331 -29.645  1.00  0.00     0.006 C 
BRANCH   2   3
ATOM      3  C   UNL     1       9.951 -25.981 -28.191  1.00  0.00     0.053 C 
BRANCH   3   4
ATOM      4  C   UNL     1       9.120 -26.748 -27.209  1.00  0.00     0.041 C 
ATOM      5  O   UNL     1       9.487 -26.844 -26.009  1.00  0.00    -0.550 OA
ATOM      6  O   UNL     1       7.957 -27.384 -27.627  1.00  0.00    -0.550 OA
ENDBRANCH   3   4
ENDBRANCH   2   3
ENDBRANCH   1   2
BRANCH   1   7
ATOM      7  C   UNL     1      10.960 -26.607 -31.844  1.00  0.00     0.000 C 
BRANCH   7   8
ATOM      8  C   UNL     1      10.267 -25.272 -32.159  1.00  0.00    -0.000 C 
BRANCH   8   9
ATOM      9  C   UNL     1      11.255 -24.095 -32.270  1.00  0.00    -0.000 C 
BRANCH   9  10
ATOM     10  C   UNL     1      11.331 -23.188 -31.029  1.00  0.00    -0.003 C 
ATOM     11  C   UNL     1      12.372 -23.651 -30.011  1.00  0.00     0.004 C 
ENDBRANCH   9  10
ENDBRANCH   8   9
ENDBRANCH   7   8
ENDBRANCH   1   7
TORSDOF 7
ENDMDL
MODEL 7
REMARK VINA RESULT:    -3.530      2.982      5.178
REMARK INTER + INTRA:          -5.730
REMARK INTER:                  -5.238
REMARK INTRA:                  -0.492
REMARK UNBOUND:                -0.755
REMARK SMILES CCCCCCCCC(=O)[O-]
REMARK SMILES IDX 6 1 7 2 8 3 9 4 10 5 11 6 5 7 4 8 3 9 2 10 1 11
REMARK H PARENT
REMARK Flexibility Score: inf
ROOT
ATOM      1  C   UNL     1      10.558 -27.396 -30.537  1.00  0.00     0.000 C 
ENDROOT
BRANCH   1   2
ATOM      2  C   UNL     1      10.950 -26.600 -31.799  1.00  0.00     0.006 C 
BRANCH   2   3
ATOM      3  C   UNL     1      10.472 -25.140 -31.810  1.00  0.00     0.053 C 
BRANCH   3   4
ATOM      4  C   UNL     1      11.605 -24.178 -31.620  1.00  0.00     0.041 C 
ATOM      5  O   UNL     1      12.144 -24.050 -30.490  1.00  0.00    -0.550 OA
ATOM      6  O   UNL     1      12.042 -23.398 -32.684  1.00  0.00    -0.550 OA
ENDBRANCH   3   4
ENDBRANCH   2   3
ENDBRANCH   1   2
BRANCH   1   7
ATOM      7  C   UNL     1       9.489 -26.734 -29.647  1.00  0.00     0.000 C 
BRANCH   7   8
ATOM      8  C   UNL     1       8.726 -27.744 -28.776  1.00  0.00    -0.000 C 
BRANCH   8   9
ATOM      9  C   UNL     1       8.271 -28.989 -29.561  1.00  0.00    -0.000 C 
BRANCH   9  10
ATOM     10  C   UNL     1       8.710 -30.336 -28.959  1.00  0.00    -0.003 C 
ATOM     11  C   UNL     1       9.965 -30.226 -28.095  1.00  0.00     0.004 C 
ENDBRANCH   9  10
ENDBRANCH   8   9
ENDBRANCH   7   8
ENDBRANCH   1   7
TORSDOF 7
ENDMDL
MODEL 8
REMARK VINA RESULT:    -3.465      2.967      3.570
REMARK INTER + INTRA:          -5.638
REMARK INTER:                  -5.149
REMARK INTRA:                  -0.489
REMARK UNBOUND:                -0.755
REMARK SMILES CCCCCCCCC(=O)[O-]
REMARK SMILES IDX 6 1 7 2 8 3 9 4 10 5 11 6 5 7 4 8 3 9 2 10 1 11
REMARK H PARENT
REMARK Flexibility Score: inf
ROOT
ATOM      1  C   UNL     1       9.703 -26.508 -29.336  1.00  0.00     0.000 C 
ENDROOT
BRANCH   1   2
ATOM      2  C   UNL     1       8.685 -27.504 -28.745  1.00  0.00     0.006 C 
BRANCH   2   3
ATOM      3  C   UNL     1       8.506 -28.796 -29.559  1.00  0.00     0.053 C 
BRANCH   3   4
ATOM      4  C   UNL     1       8.988 -30.001 -28.810  1.00  0.00     0.041 C 
ATOM      5  O   UNL     1       8.403 -31.107 -28.949  1.00  0.00    -0.550 OA
ATOM      6  O   UNL     1      10.061 -29.894 -27.935  1.00  0.00    -0.550 OA
ENDBRANCH   3   4
ENDBRANCH   2   3
ENDBRANCH   1   2
BRANCH   1   7
ATOM      7  C   UNL     1      10.837 -27.140 -30.165  1.00  0.00     0.000 C 
BRANCH   7   8
ATOM      8  C   UNL     1      10.861 -26.648 -31.621  1.00  0.00    -0.000 C 
BRANCH   8   9
ATOM      9  C   UNL     1      10.334 -25.208 -31.776  1.00  0.00    -0.000 C 
BRANCH   9  10
ATOM     10  C   UNL     1      11.417 -24.115 -31.777  1.00  0.00    -0.003 C 
ATOM     11  C   UNL     1      11.063 -22.918 -30.896  1.00  0.00     0.004 C 
ENDBRANCH   9  10
ENDBRANCH   8   9
ENDBRANCH   7   8
ENDBRANCH   1   7
TORSDOF 7
ENDMDL
MODEL 9
REMARK VINA RESULT:    -3.443      2.353      3.971
REMARK INTER + INTRA:          -5.608
REMARK INTER:                  -4.904
REMARK INTRA:                  -0.703
REMARK UNBOUND:                -0.755
REMARK SMILES CCCCCCCCC(=O)[O-]
REMARK SMILES IDX 6 1 7 2 8 3 9 4 10 5 11 6 5 7 4 8 3 9 2 10 1 11
REMARK H PARENT
REMARK Flexibility Score: inf
ROOT
ATOM      1  C   UNL     1       9.288 -28.301 -29.833  1.00  0.00     0.000 C 
ENDROOT
BRANCH   1   2
ATOM      2  C   UNL     1      10.609 -27.521 -30.000  1.00  0.00     0.006 C 
BRANCH   2   3
ATOM      3  C   UNL     1      10.618 -26.519 -31.164  1.00  0.00     0.053 C 
BRANCH   3   4
ATOM      4  C   UNL     1      10.488 -25.105 -30.688  1.00  0.00     0.041 C 
ATOM      5  O   UNL     1       9.353 -24.568 -30.604  1.00  0.00    -0.550 OA
ATOM      6  O   UNL     1      11.623 -24.370 -30.369  1.00  0.00    -0.550 OA
ENDBRANCH   3   4
ENDBRANCH   2   3
ENDBRANCH   1   2
BRANCH   1   7
ATOM      7  C   UNL     1       8.780 -28.433 -28.385  1.00  0.00     0.000 C 
BRANCH   7   8
ATOM      8  C   UNL     1       8.376 -27.084 -27.767  1.00  0.00    -0.000 C 
BRANCH   8   9
ATOM      9  C   UNL     1       8.980 -26.862 -26.367  1.00  0.00    -0.000 C 
BRANCH   9  10
ATOM     10  C   UNL     1      10.509 -26.681 -26.338  1.00  0.00    -0.003 C 
ATOM     11  C   UNL     1      10.973 -25.392 -27.013  1.00  0.00     0.004 C 
ENDBRANCH   9  10
ENDBRANCH   8   9
ENDBRANCH   7   8
ENDBRANCH   1   7
TORSDOF 7
ENDMDL
