MODEL 1
REMARK VINA RESULT:    -4.353      0.000      0.000
REMARK INTER + INTRA:          -8.775
REMARK INTER:                  -7.407
REMARK INTRA:                  -1.368
REMARK UNBOUND:                -1.368
REMARK SMILES CCCCCCCCCCCCCC(=O)[O-]
REMARK SMILES IDX 8 1 9 2 10 3 11 4 12 5 13 6 14 7 15 8 16 9 7 10 6 11 5 12
REMARK SMILES IDX 4 13 3 14 2 15 1 16
REMARK H PARENT
REMARK Flexibility Score: inf
ROOT
ATOM      1  C   UNL     1       0.684  50.693  21.978  1.00  0.00     0.000 C 
ENDROOT
BRANCH   1   2
ATOM      2  C   UNL     1       1.640  49.633  21.401  1.00  0.00     0.000 C 
BRANCH   2   3
ATOM      3  C   UNL     1       1.205  48.194  21.730  1.00  0.00     0.000 C 
BRANCH   3   4
ATOM      4  C   UNL     1       0.196  48.143  22.895  1.00  0.00     0.000 C 
BRANCH   4   5
ATOM      5  C   UNL     1      -0.483  46.772  23.062  1.00  0.00     0.006 C 
BRANCH   5   6
ATOM      6  C   UNL     1      -0.504  46.292  24.518  1.00  0.00     0.053 C 
BRANCH   6   7
ATOM      7  C   UNL     1      -1.867  46.474  25.108  1.00  0.00     0.041 C 
ATOM      8  O   UNL     1      -2.043  47.276  26.062  1.00  0.00    -0.550 OA
ATOM      9  O   UNL     1      -2.935  45.721  24.636  1.00  0.00    -0.550 OA
ENDBRANCH   6   7
ENDBRANCH   5   6
ENDBRANCH   4   5
ENDBRANCH   3   4
ENDBRANCH   2   3
ENDBRANCH   1   2
BRANCH   1  10
ATOM     10  C   UNL     1       1.369  51.969  22.508  1.00  0.00     0.000 C 
BRANCH  10  11
ATOM     11  C   UNL     1       2.515  51.728  23.507  1.00  0.00    -0.000 C 
BRANCH  11  12
ATOM     12  C   UNL     1       2.018  51.301  24.895  1.00  0.00    -0.000 C 
BRANCH  12  13
ATOM     13  C   UNL     1       2.499  49.886  25.239  1.00  0.00    -0.000 C 
BRANCH  13  14
ATOM     14  C   UNL     1       1.518  49.186  26.187  1.00  0.00    -0.000 C 
BRANCH  14  15
ATOM     15  C   UNL     1       2.227  48.714  27.462  1.00  0.00    -0.003 C 
ATOM     16  C   UNL     1       3.739  48.889  27.349  1.00  0.00     0.004 C 
ENDBRANCH  14  15
ENDBRANCH  13  14
ENDBRANCH  12  13
ENDBRANCH  11  12
ENDBRANCH  10  11
ENDBRANCH   1  10
TORSDOF 12
ENDMDL
MODEL 2
REMARK VINA RESULT:    -4.294      1.100      1.768
REMARK INTER + INTRA:          -8.674
REMARK INTER:                  -7.262
REMARK INTRA:                  -1.413
REMARK UNBOUND:                -1.368
REMARK SMILES CCCCCCCCCCCCCC(=O)[O-]
REMARK SMILES IDX 8 1 9 2 10 3 11 4 12 5 13 6 14 7 15 8 16 9 7 10 6 11 5 12
REMARK SMILES IDX 4 13 3 14 2 15 1 16
REMARK H PARENT
REMARK Flexibility Score: inf
ROOT
ATOM      1  C   UNL     1       1.777  52.366  22.130  1.00  0.00     0.000 C 
ENDROOT
BRANCH   1   2
ATOM      2  C   UNL     1       1.148  51.038  21.672  1.00  0.00     0.000 C 
BRANCH   2   3
ATOM      3  C   UNL     1       2.167  49.887  21.605  1.00  0.00     0.000 C 
BRANCH   3   4
ATOM      4  C   UNL     1       1.516  48.518  21.891  1.00  0.00     0.000 C 
BRANCH   4   5
ATOM      5  C   UNL     1       0.223  48.612  22.720  1.00  0.00     0.006 C 
BRANCH   5   6
ATOM      6  C   UNL     1       0.124  47.523  23.794  1.00  0.00     0.053 C 
BRANCH   6   7
ATOM      7  C   UNL     1      -1.028  46.611  23.508  1.00  0.00     0.041 C 
ATOM      8  O   UNL     1      -0.921  45.708  22.639  1.00  0.00    -0.550 OA
ATOM      9  O   UNL     1      -2.237  46.790  24.168  1.00  0.00    -0.550 OA
ENDBRANCH   6   7
ENDBRANCH   5   6
ENDBRANCH   4   5
ENDBRANCH   3   4
ENDBRANCH   2   3
ENDBRANCH   1   2
BRANCH   1  10
ATOM     10  C   UNL     1       2.955  52.224  23.116  1.00  0.00     0.000 C 
BRANCH  10  11
ATOM     11  C   UNL     1       2.698  52.789  24.525  1.00  0.00    -0.000 C 
BRANCH  11  12
ATOM     12  C   UNL     1       2.037  51.771  25.465  1.00  0.00    -0.000 C 
BRANCH  12  13
ATOM     13  C   UNL     1       2.541  50.352  25.179  1.00  0.00    -0.000 C 
BRANCH  13  14
ATOM     14  C   UNL     1       2.211  49.406  26.341  1.00  0.00    -0.000 C 
BRANCH  14  15
ATOM     15  C   UNL     1       3.486  48.961  27.066  1.00  0.00    -0.003 C 
ATOM     16  C   UNL     1       3.458  49.378  28.534  1.00  0.00     0.004 C 
ENDBRANCH  14  15
ENDBRANCH  13  14
ENDBRANCH  12  13
ENDBRANCH  11  12
ENDBRANCH  10  11
ENDBRANCH   1  10
TORSDOF 12
ENDMDL
MODEL 3
REMARK VINA RESULT:    -4.255      3.319      5.174
REMARK INTER + INTRA:          -8.609
REMARK INTER:                  -7.134
REMARK INTRA:                  -1.475
REMARK UNBOUND:                -1.368
REMARK SMILES CCCCCCCCCCCCCC(=O)[O-]
REMARK SMILES IDX 8 1 9 2 10 3 11 4 12 5 13 6 14 7 15 8 16 9 7 10 6 11 5 12
REMARK SMILES IDX 4 13 3 14 2 15 1 16
REMARK H PARENT
REMARK Flexibility Score: inf
ROOT
ATOM      1  C   UNL     1       0.244  47.677  22.736  1.00  0.00     0.000 C 
ENDROOT
BRANCH   1   2
ATOM      2  C   UNL     1       1.134  48.188  21.588  1.00  0.00     0.000 C 
BRANCH   2   3
ATOM      3  C   UNL     1       2.061  49.338  22.018  1.00  0.00     0.000 C 
BRANCH   3   4
ATOM      4  C   UNL     1       1.766  50.641  21.247  1.00  0.00     0.000 C 
BRANCH   4   5
ATOM      5  C   UNL     1       1.083  51.722  22.103  1.00  0.00     0.006 C 
BRANCH   5   6
ATOM      6  C   UNL     1       1.605  53.133  21.809  1.00  0.00     0.053 C 
BRANCH   6   7
ATOM      7  C   UNL     1       2.726  53.480  22.738  1.00  0.00     0.041 C 
ATOM      8  O   UNL     1       2.781  52.964  23.885  1.00  0.00    -0.550 OA
ATOM      9  O   UNL     1       3.683  54.410  22.355  1.00  0.00    -0.550 OA
ENDBRANCH   6   7
ENDBRANCH   5   6
ENDBRANCH   4   5
ENDBRANCH   3   4
ENDBRANCH   2   3
ENDBRANCH   1   2
BRANCH   1  10
ATOM     10  C   UNL     1      -0.475  48.777  23.543  1.00  0.00     0.000 C 
BRANCH  10  11
ATOM     11  C   UNL     1      -0.802  48.408  25.001  1.00  0.00    -0.000 C 
BRANCH  11  12
ATOM     12  C   UNL     1       0.364  48.679  25.962  1.00  0.00    -0.000 C 
BRANCH  12  13
ATOM     13  C   UNL     1       1.083  49.983  25.598  1.00  0.00    -0.000 C 
BRANCH  13  14
ATOM     14  C   UNL     1       2.606  49.809  25.666  1.00  0.00    -0.000 C 
BRANCH  14  15
ATOM     15  C   UNL     1       2.986  48.648  26.592  1.00  0.00    -0.003 C 
ATOM     16  C   UNL     1       3.626  49.157  27.880  1.00  0.00     0.004 C 
ENDBRANCH  14  15
ENDBRANCH  13  14
ENDBRANCH  12  13
ENDBRANCH  11  12
ENDBRANCH  10  11
ENDBRANCH   1  10
TORSDOF 12
ENDMDL
MODEL 4
REMARK VINA RESULT:    -4.193      2.462      4.952
REMARK INTER + INTRA:          -8.503
REMARK INTER:                  -6.317
REMARK INTRA:                  -2.186
REMARK UNBOUND:                -1.368
REMARK SMILES CCCCCCCCCCCCCC(=O)[O-]
REMARK SMILES IDX 8 1 9 2 10 3 11 4 12 5 13 6 14 7 15 8 16 9 7 10 6 11 5 12
REMARK SMILES IDX 4 13 3 14 2 15 1 16
REMARK H PARENT
REMARK Flexibility Score: inf
ROOT
ATOM      1  C   UNL     1      -0.876  48.256  24.071  1.00  0.00     0.000 C 
ENDROOT
BRANCH   1   2
ATOM      2  C   UNL     1      -0.790  49.759  24.392  1.00  0.00     0.000 C 
BRANCH   2   3
ATOM      3  C   UNL     1      -0.073  50.046  25.723  1.00  0.00     0.000 C 
BRANCH   3   4
ATOM      4  C   UNL     1       1.346  50.610  25.510  1.00  0.00     0.000 C 
BRANCH   4   5
ATOM      5  C   UNL     1       2.442  49.530  25.497  1.00  0.00     0.006 C 
BRANCH   5   6
ATOM      6  C   UNL     1       2.212  48.436  26.545  1.00  0.00     0.053 C 
BRANCH   6   7
ATOM      7  C   UNL     1       2.669  48.899  27.893  1.00  0.00     0.041 C 
ATOM      8  O   UNL     1       3.891  49.102  28.113  1.00  0.00    -0.550 OA
ATOM      9  O   UNL     1       1.749  49.060  28.921  1.00  0.00    -0.550 OA
ENDBRANCH   6   7
ENDBRANCH   5   6
ENDBRANCH   4   5
ENDBRANCH   3   4
ENDBRANCH   2   3
ENDBRANCH   1   2
BRANCH   1  10
ATOM     10  C   UNL     1       0.173  47.743  23.063  1.00  0.00     0.000 C 
BRANCH  10  11
ATOM     11  C   UNL     1       0.574  48.748  21.969  1.00  0.00    -0.000 C 
BRANCH  11  12
ATOM     12  C   UNL     1       2.093  48.936  21.857  1.00  0.00    -0.000 C 
BRANCH  12  13
ATOM     13  C   UNL     1       2.459  50.424  21.789  1.00  0.00    -0.000 C 
BRANCH  13  14
ATOM     14  C   UNL     1       1.200  51.300  21.756  1.00  0.00    -0.000 C 
BRANCH  14  15
ATOM     15  C   UNL     1       1.478  52.683  22.355  1.00  0.00    -0.003 C 
ATOM     16  C   UNL     1       2.869  52.745  22.979  1.00  0.00     0.004 C 
ENDBRANCH  14  15
ENDBRANCH  13  14
ENDBRANCH  12  13
ENDBRANCH  11  12
ENDBRANCH  10  11
ENDBRANCH   1  10
TORSDOF 12
ENDMDL
MODEL 5
REMARK VINA RESULT:    -4.189      2.024      3.245
REMARK INTER + INTRA:          -8.496
REMARK INTER:                  -7.697
REMARK INTRA:                  -0.799
REMARK UNBOUND:                -1.368
REMARK SMILES CCCCCCCCCCCCCC(=O)[O-]
REMARK SMILES IDX 8 1 9 2 10 3 11 4 12 5 13 6 14 7 15 8 16 9 7 10 6 11 5 12
REMARK SMILES IDX 4 13 3 14 2 15 1 16
REMARK H PARENT
REMARK Flexibility Score: inf
ROOT
ATOM      1  C   UNL     1      -0.180  48.246  23.138  1.00  0.00     0.000 C 
ENDROOT
BRANCH   1   2
ATOM      2  C   UNL     1      -0.573  46.758  23.162  1.00  0.00     0.000 C 
BRANCH   2   3
ATOM      3  C   UNL     1      -0.701  46.197  24.589  1.00  0.00     0.000 C 
BRANCH   3   4
ATOM      4  C   UNL     1      -2.171  46.096  25.045  1.00  0.00     0.000 C 
BRANCH   4   5
ATOM      5  C   UNL     1      -2.999  45.083  24.235  1.00  0.00     0.006 C 
BRANCH   5   6
ATOM      6  C   UNL     1      -4.494  45.135  24.566  1.00  0.00     0.053 C 
BRANCH   6   7
ATOM      7  C   UNL     1      -5.219  44.015  23.888  1.00  0.00     0.041 C 
ATOM      8  O   UNL     1      -6.021  44.256  22.949  1.00  0.00    -0.550 OA
ATOM      9  O   UNL     1      -5.044  42.709  24.327  1.00  0.00    -0.550 OA
ENDBRANCH   6   7
ENDBRANCH   5   6
ENDBRANCH   4   5
ENDBRANCH   3   4
ENDBRANCH   2   3
ENDBRANCH   1   2
BRANCH   1  10
ATOM     10  C   UNL     1       1.052  48.582  22.272  1.00  0.00     0.000 C 
BRANCH  10  11
ATOM     11  C   UNL     1       1.980  49.666  22.850  1.00  0.00    -0.000 C 
BRANCH  11  12
ATOM     12  C   UNL     1       1.475  50.234  24.184  1.00  0.00    -0.000 C 
BRANCH  12  13
ATOM     13  C   UNL     1       2.421  49.862  25.332  1.00  0.00    -0.000 C 
BRANCH  13  14
ATOM     14  C   UNL     1       1.851  48.704  26.162  1.00  0.00    -0.000 C 
BRANCH  14  15
ATOM     15  C   UNL     1       2.457  48.688  27.570  1.00  0.00    -0.003 C 
ATOM     16  C   UNL     1       3.948  49.009  27.532  1.00  0.00     0.004 C 
ENDBRANCH  14  15
ENDBRANCH  13  14
ENDBRANCH  12  13
ENDBRANCH  11  12
ENDBRANCH  10  11
ENDBRANCH   1  10
TORSDOF 12
ENDMDL
MODEL 6
REMARK VINA RESULT:    -4.174      2.880      4.377
REMARK INTER + INTRA:          -8.471
REMARK INTER:                  -7.104
REMARK INTRA:                  -1.367
REMARK UNBOUND:                -1.368
REMARK SMILES CCCCCCCCCCCCCC(=O)[O-]
REMARK SMILES IDX 8 1 9 2 10 3 11 4 12 5 13 6 14 7 15 8 16 9 7 10 6 11 5 12
REMARK SMILES IDX 4 13 3 14 2 15 1 16
REMARK H PARENT
REMARK Flexibility Score: inf
ROOT
ATOM      1  C   UNL     1      -0.749  48.313  24.995  1.00  0.00     0.000 C 
ENDROOT
BRANCH   1   2
ATOM      2  C   UNL     1      -0.450  48.702  23.536  1.00  0.00     0.000 C 
BRANCH   2   3
ATOM      3  C   UNL     1       0.183  47.554  22.730  1.00  0.00     0.000 C 
BRANCH   3   4
ATOM      4  C   UNL     1       1.058  48.071  21.569  1.00  0.00     0.000 C 
BRANCH   4   5
ATOM      5  C   UNL     1       2.015  49.204  21.978  1.00  0.00     0.006 C 
BRANCH   5   6
ATOM      6  C   UNL     1       1.724  50.521  21.250  1.00  0.00     0.053 C 
BRANCH   6   7
ATOM      7  C   UNL     1       1.778  51.670  22.208  1.00  0.00     0.041 C 
ATOM      8  O   UNL     1       2.815  51.879  22.888  1.00  0.00    -0.550 OA
ATOM      9  O   UNL     1       0.665  52.482  22.383  1.00  0.00    -0.550 OA
ENDBRANCH   6   7
ENDBRANCH   5   6
ENDBRANCH   4   5
ENDBRANCH   3   4
ENDBRANCH   2   3
ENDBRANCH   1   2
BRANCH   1  10
ATOM     10  C   UNL     1       0.182  48.954  26.045  1.00  0.00     0.000 C 
BRANCH  10  11
ATOM     11  C   UNL     1       1.156  50.010  25.495  1.00  0.00    -0.000 C 
BRANCH  11  12
ATOM     12  C   UNL     1       2.628  49.595  25.632  1.00  0.00    -0.000 C 
BRANCH  12  13
ATOM     13  C   UNL     1       2.808  48.581  26.767  1.00  0.00    -0.000 C 
BRANCH  13  14
ATOM     14  C   UNL     1       3.669  49.163  27.895  1.00  0.00    -0.000 C 
BRANCH  14  15
ATOM     15  C   UNL     1       2.798  49.625  29.069  1.00  0.00    -0.003 C 
ATOM     16  C   UNL     1       3.628  50.368  30.112  1.00  0.00     0.004 C 
ENDBRANCH  14  15
ENDBRANCH  13  14
ENDBRANCH  12  13
ENDBRANCH  11  12
ENDBRANCH  10  11
ENDBRANCH   1  10
TORSDOF 12
ENDMDL
MODEL 7
REMARK VINA RESULT:    -4.137      2.263      4.627
REMARK INTER + INTRA:          -8.408
REMARK INTER:                  -7.183
REMARK INTRA:                  -1.225
REMARK UNBOUND:                -1.368
REMARK SMILES CCCCCCCCCCCCCC(=O)[O-]
REMARK SMILES IDX 8 1 9 2 10 3 11 4 12 5 13 6 14 7 15 8 16 9 7 10 6 11 5 12
REMARK SMILES IDX 4 13 3 14 2 15 1 16
REMARK H PARENT
REMARK Flexibility Score: inf
ROOT
ATOM      1  C   UNL     1       1.581  52.538  22.840  1.00  0.00     0.000 C 
ENDROOT
BRANCH   1   2
ATOM      2  C   UNL     1       2.948  52.274  23.495  1.00  0.00     0.000 C 
BRANCH   2   3
ATOM      3  C   UNL     1       2.881  51.220  24.614  1.00  0.00     0.000 C 
BRANCH   3   4
ATOM      4  C   UNL     1       1.677  51.444  25.553  1.00  0.00     0.000 C 
BRANCH   4   5
ATOM      5  C   UNL     1       1.029  50.139  26.044  1.00  0.00     0.006 C 
BRANCH   5   6
ATOM      6  C   UNL     1       2.012  48.964  26.085  1.00  0.00     0.053 C 
BRANCH   6   7
ATOM      7  C   UNL     1       2.704  48.907  27.411  1.00  0.00     0.041 C 
ATOM      8  O   UNL     1       2.033  48.840  28.473  1.00  0.00    -0.550 OA
ATOM      9  O   UNL     1       4.089  48.979  27.475  1.00  0.00    -0.550 OA
ENDBRANCH   6   7
ENDBRANCH   5   6
ENDBRANCH   4   5
ENDBRANCH   3   4
ENDBRANCH   2   3
ENDBRANCH   1   2
BRANCH   1  10
ATOM     10  C   UNL     1       0.882  51.291  22.261  1.00  0.00     0.000 C 
BRANCH  10  11
ATOM     11  C   UNL     1       1.740  50.453  21.295  1.00  0.00    -0.000 C 
BRANCH  11  12
ATOM     12  C   UNL     1       2.098  49.071  21.861  1.00  0.00    -0.000 C 
BRANCH  12  13
ATOM     13  C   UNL     1       0.921  48.099  21.722  1.00  0.00    -0.000 C 
BRANCH  13  14
ATOM     14  C   UNL     1       0.180  47.936  23.055  1.00  0.00    -0.000 C 
BRANCH  14  15
ATOM     15  C   UNL     1      -0.562  46.596  23.112  1.00  0.00    -0.003 C 
ATOM     16  C   UNL     1      -0.848  46.184  24.553  1.00  0.00     0.004 C 
ENDBRANCH  14  15
ENDBRANCH  13  14
ENDBRANCH  12  13
ENDBRANCH  11  12
ENDBRANCH  10  11
ENDBRANCH   1  10
TORSDOF 12
ENDMDL
MODEL 8
REMARK VINA RESULT:    -4.122      2.268      5.214
REMARK INTER + INTRA:          -8.382
REMARK INTER:                  -7.393
REMARK INTRA:                  -0.989
REMARK UNBOUND:                -1.368
REMARK SMILES CCCCCCCCCCCCCC(=O)[O-]
REMARK SMILES IDX 8 1 9 2 10 3 11 4 12 5 13 6 14 7 15 8 16 9 7 10 6 11 5 12
REMARK SMILES IDX 4 13 3 14 2 15 1 16
REMARK H PARENT
REMARK Flexibility Score: inf
ROOT
ATOM      1  C   UNL     1       2.055  49.037  21.711  1.00  0.00     0.000 C 
ENDROOT
BRANCH   1   2
ATOM      2  C   UNL     1       1.475  50.459  21.811  1.00  0.00     0.000 C 
BRANCH   2   3
ATOM      3  C   UNL     1       2.060  51.262  22.986  1.00  0.00     0.000 C 
BRANCH   3   4
ATOM      4  C   UNL     1       1.505  50.791  24.346  1.00  0.00     0.000 C 
BRANCH   4   5
ATOM      5  C   UNL     1       2.595  50.336  25.332  1.00  0.00     0.006 C 
BRANCH   5   6
ATOM      6  C   UNL     1       2.268  48.998  26.005  1.00  0.00     0.053 C 
BRANCH   6   7
ATOM      7  C   UNL     1       2.884  48.935  27.367  1.00  0.00     0.041 C 
ATOM      8  O   UNL     1       4.135  48.972  27.499  1.00  0.00    -0.550 OA
ATOM      9  O   UNL     1       2.078  48.785  28.488  1.00  0.00    -0.550 OA
ENDBRANCH   6   7
ENDBRANCH   5   6
ENDBRANCH   4   5
ENDBRANCH   3   4
ENDBRANCH   2   3
ENDBRANCH   1   2
BRANCH   1  10
ATOM     10  C   UNL     1       1.007  47.906  21.684  1.00  0.00     0.000 C 
BRANCH  10  11
ATOM     11  C   UNL     1       0.090  47.836  22.918  1.00  0.00    -0.000 C 
BRANCH  11  12
ATOM     12  C   UNL     1      -0.567  46.460  23.098  1.00  0.00    -0.000 C 
BRANCH  12  13
ATOM     13  C   UNL     1      -1.198  46.331  24.489  1.00  0.00    -0.000 C 
BRANCH  13  14
ATOM     14  C   UNL     1      -2.458  45.457  24.444  1.00  0.00    -0.000 C 
BRANCH  14  15
ATOM     15  C   UNL     1      -3.697  46.258  24.861  1.00  0.00    -0.003 C 
ATOM     16  C   UNL     1      -3.346  47.720  25.122  1.00  0.00     0.004 C 
ENDBRANCH  14  15
ENDBRANCH  13  14
ENDBRANCH  12  13
ENDBRANCH  11  12
ENDBRANCH  10  11
ENDBRANCH   1  10
TORSDOF 12
ENDMDL
MODEL 9
REMARK VINA RESULT:    -4.097      3.956      6.009
REMARK INTER + INTRA:          -8.340
REMARK INTER:                  -7.227
REMARK INTRA:                  -1.113
REMARK UNBOUND:                -1.368
REMARK SMILES CCCCCCCCCCCCCC(=O)[O-]
REMARK SMILES IDX 8 1 9 2 10 3 11 4 12 5 13 6 14 7 15 8 16 9 7 10 6 11 5 12
REMARK SMILES IDX 4 13 3 14 2 15 1 16
REMARK H PARENT
REMARK Flexibility Score: inf
ROOT
ATOM      1  C   UNL     1       2.009  49.282  22.017  1.00  0.00     0.000 C 
ENDROOT
BRANCH   1   2
ATOM      2  C   UNL     1       1.635  50.542  21.217  1.00  0.00     0.000 C 
BRANCH   2   3
ATOM      3  C   UNL     1       1.747  51.833  22.047  1.00  0.00     0.000 C 
BRANCH   3   4
ATOM      4  C   UNL     1       2.475  51.601  23.387  1.00  0.00     0.000 C 
BRANCH   4   5
ATOM      5  C   UNL     1       3.368  52.779  23.813  1.00  0.00     0.006 C 
BRANCH   5   6
ATOM      6  C   UNL     1       3.258  53.982  22.871  1.00  0.00     0.053 C 
BRANCH   6   7
ATOM      7  C   UNL     1       3.387  55.261  23.638  1.00  0.00     0.041 C 
ATOM      8  O   UNL     1       3.428  55.244  24.895  1.00  0.00    -0.550 OA
ATOM      9  O   UNL     1       3.412  56.475  22.965  1.00  0.00    -0.550 OA
ENDBRANCH   6   7
ENDBRANCH   5   6
ENDBRANCH   4   5
ENDBRANCH   3   4
ENDBRANCH   2   3
ENDBRANCH   1   2
BRANCH   1  10
ATOM     10  C   UNL     1       1.049  48.088  21.841  1.00  0.00     0.000 C 
BRANCH  10  11
ATOM     11  C   UNL     1       0.098  47.836  23.025  1.00  0.00    -0.000 C 
BRANCH  11  12
ATOM     12  C   UNL     1       0.162  48.941  24.088  1.00  0.00    -0.000 C 
BRANCH  12  13
ATOM     13  C   UNL     1       0.490  48.358  25.468  1.00  0.00    -0.000 C 
BRANCH  13  14
ATOM     14  C   UNL     1       1.550  49.203  26.186  1.00  0.00    -0.000 C 
BRANCH  14  15
ATOM     15  C   UNL     1       2.737  48.339  26.625  1.00  0.00    -0.003 C 
ATOM     16  C   UNL     1       3.745  49.155  27.429  1.00  0.00     0.004 C 
ENDBRANCH  14  15
ENDBRANCH  13  14
ENDBRANCH  12  13
ENDBRANCH  11  12
ENDBRANCH  10  11
ENDBRANCH   1  10
TORSDOF 12
ENDMDL
