MODEL 1
REMARK VINA RESULT:    -3.426      0.000      0.000
REMARK INTER + INTRA:          -6.371
REMARK INTER:                  -5.229
REMARK INTRA:                  -1.141
REMARK UNBOUND:                -1.141
REMARK SMILES CCCCCCCCCCC(=O)[O-]
REMARK SMILES IDX 7 1 8 2 9 3 10 4 11 5 12 6 13 7 6 8 5 9 4 10 3 11 2 12 1 13
REMARK H PARENT
REMARK Flexibility Score: inf
ROOT
ATOM      1  C   UNL     1      17.454 129.095  56.924  1.00  0.00     0.000 C 
ENDROOT
BRANCH   1   2
ATOM      2  C   UNL     1      18.871 129.608  56.595  1.00  0.00     0.000 C 
BRANCH   2   3
ATOM      3  C   UNL     1      19.194 129.500  55.094  1.00  0.00     0.006 C 
BRANCH   3   4
ATOM      4  C   UNL     1      18.894 130.802  54.340  1.00  0.00     0.053 C 
BRANCH   4   5
ATOM      5  C   UNL     1      19.844 131.896  54.718  1.00  0.00     0.041 C 
ATOM      6  O   UNL     1      21.082 131.669  54.773  1.00  0.00    -0.550 OA
ATOM      7  O   UNL     1      19.365 133.174  54.975  1.00  0.00    -0.550 OA
ENDBRANCH   4   5
ENDBRANCH   3   4
ENDBRANCH   2   3
ENDBRANCH   1   2
BRANCH   1   8
ATOM      8  C   UNL     1      16.970 127.977  55.986  1.00  0.00     0.000 C 
BRANCH   8   9
ATOM      9  C   UNL     1      15.508 128.152  55.551  1.00  0.00    -0.000 C 
BRANCH   9  10
ATOM     10  C   UNL     1      15.415 128.517  54.065  1.00  0.00    -0.000 C 
BRANCH  10  11
ATOM     11  C   UNL     1      16.359 127.644  53.225  1.00  0.00    -0.000 C 
BRANCH  11  12
ATOM     12  C   UNL     1      17.027 128.426  52.084  1.00  0.00    -0.003 C 
ATOM     13  C   UNL     1      16.337 129.759  51.796  1.00  0.00     0.004 C 
ENDBRANCH  11  12
ENDBRANCH  10  11
ENDBRANCH   9  10
ENDBRANCH   8   9
ENDBRANCH   1   8
TORSDOF 9
ENDMDL
MODEL 2
REMARK VINA RESULT:    -3.343      3.607      5.533
REMARK INTER + INTRA:          -6.243
REMARK INTER:                  -5.477
REMARK INTRA:                  -0.766
REMARK UNBOUND:                -1.141
REMARK SMILES CCCCCCCCCCC(=O)[O-]
REMARK SMILES IDX 7 1 8 2 9 3 10 4 11 5 12 6 13 7 6 8 5 9 4 10 3 11 2 12 1 13
REMARK H PARENT
REMARK Flexibility Score: inf
ROOT
ATOM      1  C   UNL     1      16.853 129.941  52.312  1.00  0.00     0.000 C 
ENDROOT
BRANCH   1   2
ATOM      2  C   UNL     1      16.686 130.855  51.080  1.00  0.00     0.000 C 
BRANCH   2   3
ATOM      3  C   UNL     1      16.297 130.064  49.818  1.00  0.00     0.006 C 
BRANCH   3   4
ATOM      4  C   UNL     1      17.309 130.250  48.680  1.00  0.00     0.053 C 
BRANCH   4   5
ATOM      5  C   UNL     1      17.851 128.940  48.198  1.00  0.00     0.041 C 
ATOM      6  O   UNL     1      17.296 128.337  47.241  1.00  0.00    -0.550 OA
ATOM      7  O   UNL     1      18.989 128.400  48.783  1.00  0.00    -0.550 OA
ENDBRANCH   4   5
ENDBRANCH   3   4
ENDBRANCH   2   3
ENDBRANCH   1   2
BRANCH   1   8
ATOM      8  C   UNL     1      17.008 128.452  51.958  1.00  0.00     0.000 C 
BRANCH   8   9
ATOM      9  C   UNL     1      16.353 127.521  52.989  1.00  0.00    -0.000 C 
BRANCH   9  10
ATOM     10  C   UNL     1      15.783 128.320  54.168  1.00  0.00    -0.000 C 
BRANCH  10  11
ATOM     11  C   UNL     1      16.139 127.653  55.505  1.00  0.00    -0.000 C 
BRANCH  11  12
ATOM     12  C   UNL     1      16.910 128.592  56.446  1.00  0.00    -0.003 C 
ATOM     13  C   UNL     1      18.212 129.106  55.832  1.00  0.00     0.004 C 
ENDBRANCH  11  12
ENDBRANCH  10  11
ENDBRANCH   9  10
ENDBRANCH   8   9
ENDBRANCH   1   8
TORSDOF 9
ENDMDL
MODEL 3
REMARK VINA RESULT:    -3.315      5.197      7.374
REMARK INTER + INTRA:          -6.200
REMARK INTER:                  -5.734
REMARK INTRA:                  -0.466
REMARK UNBOUND:                -1.141
REMARK SMILES CCCCCCCCCCC(=O)[O-]
REMARK SMILES IDX 7 1 8 2 9 3 10 4 11 5 12 6 13 7 6 8 5 9 4 10 3 11 2 12 1 13
REMARK H PARENT
REMARK Flexibility Score: inf
ROOT
ATOM      1  C   UNL     1      18.258 129.923  61.007  1.00  0.00     0.000 C 
ENDROOT
BRANCH   1   2
ATOM      2  C   UNL     1      18.877 130.063  59.601  1.00  0.00     0.000 C 
BRANCH   2   3
ATOM      3  C   UNL     1      17.846 129.813  58.485  1.00  0.00     0.006 C 
BRANCH   3   4
ATOM      4  C   UNL     1      18.506 129.656  57.109  1.00  0.00     0.053 C 
BRANCH   4   5
ATOM      5  C   UNL     1      17.618 128.928  56.147  1.00  0.00     0.041 C 
ATOM      6  O   UNL     1      17.782 129.064  54.905  1.00  0.00    -0.550 OA
ATOM      7  O   UNL     1      16.632 128.073  56.622  1.00  0.00    -0.550 OA
ENDBRANCH   4   5
ENDBRANCH   3   4
ENDBRANCH   2   3
ENDBRANCH   1   2
BRANCH   1   8
ATOM      8  C   UNL     1      18.997 128.920  61.909  1.00  0.00     0.000 C 
BRANCH   8   9
ATOM      9  C   UNL     1      18.455 128.896  63.346  1.00  0.00    -0.000 C 
BRANCH   9  10
ATOM     10  C   UNL     1      18.274 127.456  63.842  1.00  0.00    -0.000 C 
BRANCH  10  11
ATOM     11  C   UNL     1      17.099 126.773  63.126  1.00  0.00    -0.000 C 
BRANCH  11  12
ATOM     12  C   UNL     1      17.409 125.319  62.738  1.00  0.00    -0.003 C 
ATOM     13  C   UNL     1      18.905 125.003  62.774  1.00  0.00     0.004 C 
ENDBRANCH  11  12
ENDBRANCH  10  11
ENDBRANCH   9  10
ENDBRANCH   8   9
ENDBRANCH   1   8
TORSDOF 9
ENDMDL
MODEL 4
REMARK VINA RESULT:    -3.314      8.580     10.332
REMARK INTER + INTRA:          -6.199
REMARK INTER:                  -5.109
REMARK INTRA:                  -1.089
REMARK UNBOUND:                -1.141
REMARK SMILES CCCCCCCCCCC(=O)[O-]
REMARK SMILES IDX 7 1 8 2 9 3 10 4 11 5 12 6 13 7 6 8 5 9 4 10 3 11 2 12 1 13
REMARK H PARENT
REMARK Flexibility Score: inf
ROOT
ATOM      1  C   UNL     1      15.708 127.484  63.930  1.00  0.00     0.000 C 
ENDROOT
BRANCH   1   2
ATOM      2  C   UNL     1      16.362 126.089  64.017  1.00  0.00     0.000 C 
BRANCH   2   3
ATOM      3  C   UNL     1      17.236 125.780  62.788  1.00  0.00     0.006 C 
BRANCH   3   4
ATOM      4  C   UNL     1      18.735 125.827  63.114  1.00  0.00     0.053 C 
BRANCH   4   5
ATOM      5  C   UNL     1      19.403 124.513  62.849  1.00  0.00     0.041 C 
ATOM      6  O   UNL     1      19.090 123.835  61.835  1.00  0.00    -0.550 OA
ATOM      7  O   UNL     1      20.397 124.054  63.704  1.00  0.00    -0.550 OA
ENDBRANCH   4   5
ENDBRANCH   3   4
ENDBRANCH   2   3
ENDBRANCH   1   2
BRANCH   1   8
ATOM      8  C   UNL     1      16.019 128.386  65.136  1.00  0.00     0.000 C 
BRANCH   8   9
ATOM      9  C   UNL     1      17.448 128.202  65.668  1.00  0.00    -0.000 C 
BRANCH   9  10
ATOM     10  C   UNL     1      18.456 128.989  64.822  1.00  0.00    -0.000 C 
BRANCH  10  11
ATOM     11  C   UNL     1      17.882 130.354  64.414  1.00  0.00    -0.000 C 
BRANCH  11  12
ATOM     12  C   UNL     1      17.781 130.521  62.890  1.00  0.00    -0.003 C 
ATOM     13  C   UNL     1      18.486 129.401  62.125  1.00  0.00     0.004 C 
ENDBRANCH  11  12
ENDBRANCH  10  11
ENDBRANCH   9  10
ENDBRANCH   8   9
ENDBRANCH   1   8
TORSDOF 9
ENDMDL
MODEL 5
REMARK VINA RESULT:    -3.285      2.858      4.474
REMARK INTER + INTRA:          -6.155
REMARK INTER:                  -4.879
REMARK INTRA:                  -1.276
REMARK UNBOUND:                -1.141
REMARK SMILES CCCCCCCCCCC(=O)[O-]
REMARK SMILES IDX 7 1 8 2 9 3 10 4 11 5 12 6 13 7 6 8 5 9 4 10 3 11 2 12 1 13
REMARK H PARENT
REMARK Flexibility Score: inf
ROOT
ATOM      1  C   UNL     1      15.208 128.638  53.911  1.00  0.00     0.000 C 
ENDROOT
BRANCH   1   2
ATOM      2  C   UNL     1      16.180 127.642  53.245  1.00  0.00     0.000 C 
BRANCH   2   3
ATOM      3  C   UNL     1      16.991 128.294  52.110  1.00  0.00     0.006 C 
BRANCH   3   4
ATOM      4  C   UNL     1      16.381 129.624  51.649  1.00  0.00     0.053 C 
BRANCH   4   5
ATOM      5  C   UNL     1      16.460 129.786  50.162  1.00  0.00     0.041 C 
ATOM      6  O   UNL     1      16.944 128.867  49.449  1.00  0.00    -0.550 OA
ATOM      7  O   UNL     1      15.969 130.937  49.561  1.00  0.00    -0.550 OA
ENDBRANCH   4   5
ENDBRANCH   3   4
ENDBRANCH   2   3
ENDBRANCH   1   2
BRANCH   1   8
ATOM      8  C   UNL     1      15.296 128.650  55.447  1.00  0.00     0.000 C 
BRANCH   8   9
ATOM      9  C   UNL     1      16.564 127.968  55.978  1.00  0.00    -0.000 C 
BRANCH   9  10
ATOM     10  C   UNL     1      17.564 129.001  56.511  1.00  0.00    -0.000 C 
BRANCH  10  11
ATOM     11  C   UNL     1      18.847 129.008  55.668  1.00  0.00    -0.000 C 
BRANCH  11  12
ATOM     12  C   UNL     1      18.836 130.098  54.585  1.00  0.00    -0.003 C 
ATOM     13  C   UNL     1      18.023 131.327  54.990  1.00  0.00     0.004 C 
ENDBRANCH  11  12
ENDBRANCH  10  11
ENDBRANCH   9  10
ENDBRANCH   8   9
ENDBRANCH   1   8
TORSDOF 9
ENDMDL
MODEL 6
REMARK VINA RESULT:    -3.269      3.906      6.536
REMARK INTER + INTRA:          -6.130
REMARK INTER:                  -5.727
REMARK INTRA:                  -0.403
REMARK UNBOUND:                -1.141
REMARK SMILES CCCCCCCCCCC(=O)[O-]
REMARK SMILES IDX 7 1 8 2 9 3 10 4 11 5 12 6 13 7 6 8 5 9 4 10 3 11 2 12 1 13
REMARK H PARENT
REMARK Flexibility Score: inf
ROOT
ATOM      1  C   UNL     1      17.851 129.355  56.501  1.00  0.00     0.000 C 
ENDROOT
BRANCH   1   2
ATOM      2  C   UNL     1      16.614 128.601  57.031  1.00  0.00     0.000 C 
BRANCH   2   3
ATOM      3  C   UNL     1      15.925 127.771  55.932  1.00  0.00     0.006 C 
BRANCH   3   4
ATOM      4  C   UNL     1      16.806 127.609  54.687  1.00  0.00     0.053 C 
BRANCH   4   5
ATOM      5  C   UNL     1      16.073 127.981  53.434  1.00  0.00     0.041 C 
ATOM      6  O   UNL     1      14.883 128.389  53.494  1.00  0.00    -0.550 OA
ATOM      7  O   UNL     1      16.716 127.909  52.206  1.00  0.00    -0.550 OA
ENDBRANCH   4   5
ENDBRANCH   3   4
ENDBRANCH   2   3
ENDBRANCH   1   2
BRANCH   1   8
ATOM      8  C   UNL     1      18.819 129.806  57.608  1.00  0.00     0.000 C 
BRANCH   8   9
ATOM      9  C   UNL     1      18.104 130.141  58.926  1.00  0.00    -0.000 C 
BRANCH   9  10
ATOM     10  C   UNL     1      19.052 129.984  60.121  1.00  0.00    -0.000 C 
BRANCH  10  11
ATOM     11  C   UNL     1      18.293 129.484  61.360  1.00  0.00    -0.000 C 
BRANCH  11  12
ATOM     12  C   UNL     1      19.118 128.495  62.197  1.00  0.00    -0.003 C 
ATOM     13  C   UNL     1      18.256 127.426  62.869  1.00  0.00     0.004 C 
ENDBRANCH  11  12
ENDBRANCH  10  11
ENDBRANCH   9  10
ENDBRANCH   8   9
ENDBRANCH   1   8
TORSDOF 9
ENDMDL
MODEL 7
REMARK VINA RESULT:    -3.246      4.058      4.847
REMARK INTER + INTRA:          -6.096
REMARK INTER:                  -5.585
REMARK INTRA:                  -0.511
REMARK UNBOUND:                -1.141
REMARK SMILES CCCCCCCCCCC(=O)[O-]
REMARK SMILES IDX 7 1 8 2 9 3 10 4 11 5 12 6 13 7 6 8 5 9 4 10 3 11 2 12 1 13
REMARK H PARENT
REMARK Flexibility Score: inf
ROOT
ATOM      1  C   UNL     1      18.808 129.779  57.374  1.00  0.00     0.000 C 
ENDROOT
BRANCH   1   2
ATOM      2  C   UNL     1      18.173 130.274  58.690  1.00  0.00     0.000 C 
BRANCH   2   3
ATOM      3  C   UNL     1      19.134 130.141  59.885  1.00  0.00     0.006 C 
BRANCH   3   4
ATOM      4  C   UNL     1      18.420 129.658  61.154  1.00  0.00     0.053 C 
BRANCH   4   5
ATOM      5  C   UNL     1      19.239 128.652  61.903  1.00  0.00     0.041 C 
ATOM      6  O   UNL     1      20.385 128.333  61.491  1.00  0.00    -0.550 OA
ATOM      7  O   UNL     1      18.748 128.092  63.076  1.00  0.00    -0.550 OA
ENDBRANCH   4   5
ENDBRANCH   3   4
ENDBRANCH   2   3
ENDBRANCH   1   2
BRANCH   1   8
ATOM      8  C   UNL     1      17.778 129.419  56.290  1.00  0.00     0.000 C 
BRANCH   8   9
ATOM      9  C   UNL     1      16.696 128.451  56.791  1.00  0.00    -0.000 C 
BRANCH   9  10
ATOM     10  C   UNL     1      16.090 127.654  55.630  1.00  0.00    -0.000 C 
BRANCH  10  11
ATOM     11  C   UNL     1      17.016 127.679  54.405  1.00  0.00    -0.000 C 
BRANCH  11  12
ATOM     12  C   UNL     1      16.250 127.896  53.090  1.00  0.00    -0.003 C 
ATOM     13  C   UNL     1      15.682 129.309  52.962  1.00  0.00     0.004 C 
ENDBRANCH  11  12
ENDBRANCH  10  11
ENDBRANCH   9  10
ENDBRANCH   8   9
ENDBRANCH   1   8
TORSDOF 9
ENDMDL
MODEL 8
REMARK VINA RESULT:    -3.164      1.538      2.246
REMARK INTER + INTRA:          -5.969
REMARK INTER:                  -4.521
REMARK INTRA:                  -1.448
REMARK UNBOUND:                -1.141
REMARK SMILES CCCCCCCCCCC(=O)[O-]
REMARK SMILES IDX 7 1 8 2 9 3 10 4 11 5 12 6 13 7 6 8 5 9 4 10 3 11 2 12 1 13
REMARK H PARENT
REMARK Flexibility Score: inf
ROOT
ATOM      1  C   UNL     1      16.023 129.339  57.159  1.00  0.00     0.000 C 
ENDROOT
BRANCH   1   2
ATOM      2  C   UNL     1      16.106 130.722  56.479  1.00  0.00     0.000 C 
BRANCH   2   3
ATOM      3  C   UNL     1      17.561 131.161  56.233  1.00  0.00     0.006 C 
BRANCH   3   4
ATOM      4  C   UNL     1      18.574 130.112  56.710  1.00  0.00     0.053 C 
BRANCH   4   5
ATOM      5  C   UNL     1      19.634 129.856  55.683  1.00  0.00     0.041 C 
ATOM      6  O   UNL     1      20.424 130.776  55.343  1.00  0.00    -0.550 OA
ATOM      7  O   UNL     1      19.770 128.591  55.125  1.00  0.00    -0.550 OA
ENDBRANCH   4   5
ENDBRANCH   3   4
ENDBRANCH   2   3
ENDBRANCH   1   2
BRANCH   1   8
ATOM      8  C   UNL     1      15.360 128.262  56.284  1.00  0.00     0.000 C 
BRANCH   8   9
ATOM      9  C   UNL     1      16.377 127.322  55.620  1.00  0.00    -0.000 C 
BRANCH   9  10
ATOM     10  C   UNL     1      16.507 127.621  54.122  1.00  0.00    -0.000 C 
BRANCH  10  11
ATOM     11  C   UNL     1      15.291 128.409  53.612  1.00  0.00    -0.000 C 
BRANCH  11  12
ATOM     12  C   UNL     1      15.690 129.679  52.845  1.00  0.00    -0.003 C 
ATOM     13  C   UNL     1      17.204 129.875  52.773  1.00  0.00     0.004 C 
ENDBRANCH  11  12
ENDBRANCH  10  11
ENDBRANCH   9  10
ENDBRANCH   8   9
ENDBRANCH   1   8
TORSDOF 9
ENDMDL
MODEL 9
REMARK VINA RESULT:    -3.140      1.955      3.494
REMARK INTER + INTRA:          -5.933
REMARK INTER:                  -5.166
REMARK INTRA:                  -0.767
REMARK UNBOUND:                -1.141
REMARK SMILES CCCCCCCCCCC(=O)[O-]
REMARK SMILES IDX 7 1 8 2 9 3 10 4 11 5 12 6 13 7 6 8 5 9 4 10 3 11 2 12 1 13
REMARK H PARENT
REMARK Flexibility Score: inf
ROOT
ATOM      1  C   UNL     1      15.208 128.572  53.587  1.00  0.00     0.000 C 
ENDROOT
BRANCH   1   2
ATOM      2  C   UNL     1      15.380 128.821  55.100  1.00  0.00     0.000 C 
BRANCH   2   3
ATOM      3  C   UNL     1      16.539 128.002  55.695  1.00  0.00     0.006 C 
BRANCH   3   4
ATOM      4  C   UNL     1      17.427 128.839  56.625  1.00  0.00     0.053 C 
BRANCH   4   5
ATOM      5  C   UNL     1      18.680 129.289  55.940  1.00  0.00     0.041 C 
ATOM      6  O   UNL     1      19.209 128.571  55.050  1.00  0.00    -0.550 OA
ATOM      7  O   UNL     1      19.245 130.517  56.260  1.00  0.00    -0.550 OA
ENDBRANCH   4   5
ENDBRANCH   3   4
ENDBRANCH   2   3
ENDBRANCH   1   2
BRANCH   1   8
ATOM      8  C   UNL     1      16.368 127.784  52.956  1.00  0.00     0.000 C 
BRANCH   8   9
ATOM      9  C   UNL     1      17.289 128.662  52.097  1.00  0.00    -0.000 C 
BRANCH   9  10
ATOM     10  C   UNL     1      16.514 129.827  51.472  1.00  0.00    -0.000 C 
BRANCH  10  11
ATOM     11  C   UNL     1      16.691 129.850  49.947  1.00  0.00    -0.000 C 
BRANCH  11  12
ATOM     12  C   UNL     1      17.460 128.626  49.424  1.00  0.00    -0.003 C 
ATOM     13  C   UNL     1      18.477 128.986  48.340  1.00  0.00     0.004 C 
ENDBRANCH  11  12
ENDBRANCH  10  11
ENDBRANCH   9  10
ENDBRANCH   8   9
ENDBRANCH   1   8
TORSDOF 9
ENDMDL
