MODEL 1
REMARK VINA RESULT:    -3.426      0.000      0.000
REMARK INTER + INTRA:          -3.454
REMARK INTER:                  -4.227
REMARK INTRA:                   0.772
REMARK UNBOUND:                 0.772
REMARK SMILES CC1=CC=CC(C)(C)CC1=O
REMARK SMILES IDX 1 1 2 2 3 3 10 4 11 5 9 6 4 8 5 9 6 10 7 11 8 12
REMARK H PARENT
REMARK Flexibility Score: 80.00
ROOT
ATOM      1  C   UNL     1       2.954   3.755  28.656  1.00  0.00     0.048 C 
ATOM      2  C   UNL     1       2.191   4.759  29.486  1.00  0.00    -0.008 C 
ATOM      3  C   UNL     1       1.387   5.628  28.835  1.00  0.00     0.007 C 
ENDROOT
BRANCH   2   4
ATOM      4  C   UNL     1       2.443   4.760  30.949  1.00  0.00     0.159 C 
ATOM      5  O   UNL     1       3.403   4.075  31.400  1.00  0.00    -0.295 OA
BRANCH   4   6
ATOM      6  C   UNL     1       1.609   5.520  31.932  1.00  0.00     0.091 CG0
ATOM      7  G   UNL     1       1.585   7.042  31.662  1.00  0.00     0.000 G0
ENDBRANCH   4   6
ENDBRANCH   2   4
BRANCH   3   8
ATOM      8  C   UNL     1       0.546   6.727  29.365  1.00  0.00    -0.003 C 
ATOM      9  C   UNL     1       0.616   7.347  30.550  1.00  0.00    -0.020 C 
BRANCH   9  10
ATOM     10  C   UNL     1       1.584   7.040  31.669  1.00  0.00    -0.010 CG0
ATOM     11  C   UNL     1       2.983   7.599  31.324  1.00  0.00     0.016 C 
ATOM     12  C   UNL     1       1.087   7.751  32.948  1.00  0.00     0.016 C 
ATOM     13  G   UNL     1       1.600   5.518  31.939  1.00  0.00     0.000 G0
ENDBRANCH   9  10
ENDBRANCH   3   8
TORSDOF 0
ENDMDL
MODEL 2
REMARK VINA RESULT:    -3.281      1.635      2.430
REMARK INTER + INTRA:          -3.276
REMARK INTER:                  -4.017
REMARK INTRA:                   0.741
REMARK UNBOUND:                 0.772
REMARK SMILES CC1=CC=CC(C)(C)CC1=O
REMARK SMILES IDX 1 1 2 2 3 3 10 4 11 5 9 6 4 8 5 9 6 10 7 11 8 12
REMARK H PARENT
REMARK Flexibility Score: 80.00
ROOT
ATOM      1  C   UNL     1       3.669   3.411  27.813  1.00  0.00     0.048 C 
ATOM      2  C   UNL     1       3.161   4.208  28.991  1.00  0.00    -0.008 C 
ATOM      3  C   UNL     1       2.440   3.551  29.926  1.00  0.00     0.007 C 
ENDROOT
BRANCH   2   4
ATOM      4  C   UNL     1       3.431   5.667  28.987  1.00  0.00     0.159 C 
ATOM      5  O   UNL     1       3.866   6.203  27.930  1.00  0.00    -0.295 OA
BRANCH   4   6
ATOM      6  C   UNL     1       3.229   6.548  30.181  1.00  0.00     0.091 CG0
ATOM      7  G   UNL     1       1.771   6.553  30.695  1.00  0.00     0.000 G0
ENDBRANCH   4   6
ENDBRANCH   2   4
BRANCH   3   8
ATOM      8  C   UNL     1       1.797   4.059  31.160  1.00  0.00    -0.003 C 
ATOM      9  C   UNL     1       1.491   5.319  31.496  1.00  0.00    -0.020 C 
BRANCH   9  10
ATOM     10  C   UNL     1       1.767   6.559  30.678  1.00  0.00    -0.010 CG0
ATOM     11  C   UNL     1       0.735   6.676  29.534  1.00  0.00     0.016 C 
ATOM     12  C   UNL     1       1.605   7.791  31.596  1.00  0.00     0.016 C 
ATOM     13  G   UNL     1       3.225   6.529  30.165  1.00  0.00     0.000 G0
ENDBRANCH   9  10
ENDBRANCH   3   8
TORSDOF 0
ENDMDL
MODEL 3
REMARK VINA RESULT:    -3.277      1.711      3.491
REMARK INTER + INTRA:          -3.271
REMARK INTER:                  -4.025
REMARK INTRA:                   0.753
REMARK UNBOUND:                 0.772
REMARK SMILES CC1=CC=CC(C)(C)CC1=O
REMARK SMILES IDX 1 1 2 2 3 3 10 4 11 5 9 6 4 8 5 9 6 10 7 11 8 12
REMARK H PARENT
REMARK Flexibility Score: 80.00
ROOT
ATOM      1  C   UNL     1       0.369   7.110  29.560  1.00  0.00     0.048 C 
ATOM      2  C   UNL     1       1.483   6.124  29.821  1.00  0.00    -0.008 C 
ATOM      3  C   UNL     1       2.025   5.496  28.755  1.00  0.00     0.007 C 
ENDROOT
BRANCH   2   4
ATOM      4  C   UNL     1       1.842   5.868  31.239  1.00  0.00     0.159 C 
ATOM      5  O   UNL     1       1.076   6.295  32.147  1.00  0.00    -0.295 OA
BRANCH   4   6
ATOM      6  C   UNL     1       3.080   5.139  31.659  1.00  0.00     0.091 CG0
ATOM      7  G   UNL     1       3.152   3.695  31.111  1.00  0.00     0.000 G0
ENDBRANCH   4   6
ENDBRANCH   2   4
BRANCH   3   8
ATOM      8  C   UNL     1       3.097   4.475  28.697  1.00  0.00    -0.003 C 
ATOM      9  C   UNL     1       3.578   3.699  29.676  1.00  0.00    -0.020 C 
BRANCH   9  10
ATOM     10  C   UNL     1       3.142   3.704  31.123  1.00  0.00    -0.010 CG0
ATOM     11  C   UNL     1       1.798   2.955  31.272  1.00  0.00     0.016 C 
ATOM     12  C   UNL     1       4.205   2.948  31.952  1.00  0.00     0.016 C 
ATOM     13  G   UNL     1       3.073   5.159  31.639  1.00  0.00     0.000 G0
ENDBRANCH   9  10
ENDBRANCH   3   8
TORSDOF 0
ENDMDL
MODEL 4
REMARK VINA RESULT:    -3.070     20.098     21.814
REMARK INTER + INTRA:          -3.015
REMARK INTER:                  -3.776
REMARK INTRA:                   0.761
REMARK UNBOUND:                 0.772
REMARK SMILES CC1=CC=CC(C)(C)CC1=O
REMARK SMILES IDX 1 1 2 2 3 3 10 4 11 5 9 6 4 8 5 9 6 10 7 11 8 12
REMARK H PARENT
REMARK Flexibility Score: 80.00
ROOT
ATOM      1  C   UNL     1      -5.729  -8.533  19.810  1.00  0.00     0.048 C 
ATOM      2  C   UNL     1      -6.765  -8.473  18.712  1.00  0.00    -0.008 C 
ATOM      3  C   UNL     1      -7.166  -9.641  18.165  1.00  0.00     0.007 C 
ENDROOT
BRANCH   2   4
ATOM      4  C   UNL     1      -7.204  -7.126  18.269  1.00  0.00     0.159 C 
ATOM      5  O   UNL     1      -6.568  -6.114  18.676  1.00  0.00    -0.295 OA
BRANCH   4   6
ATOM      6  C   UNL     1      -8.379  -6.893  17.371  1.00  0.00     0.091 CG0
ATOM      7  G   UNL     1      -8.251  -7.602  16.004  1.00  0.00     0.000 G0
ENDBRANCH   4   6
ENDBRANCH   2   4
BRANCH   3   8
ATOM      8  C   UNL     1      -8.133  -9.897  17.072  1.00  0.00    -0.003 C 
ATOM      9  C   UNL     1      -8.594  -9.056  16.138  1.00  0.00    -0.020 C 
BRANCH   9  10
ATOM     10  C   UNL     1      -8.243  -7.593  15.995  1.00  0.00    -0.010 CG0
ATOM     11  C   UNL     1      -6.833  -7.446  15.380  1.00  0.00     0.016 C 
ATOM     12  C   UNL     1      -9.257  -6.944  15.026  1.00  0.00     0.016 C 
ATOM     13  G   UNL     1      -8.371  -6.891  17.366  1.00  0.00     0.000 G0
ENDBRANCH   9  10
ENDBRANCH   3   8
TORSDOF 0
ENDMDL
MODEL 5
REMARK VINA RESULT:    -2.962     20.665     21.988
REMARK INTER + INTRA:          -2.883
REMARK INTER:                  -3.624
REMARK INTRA:                   0.742
REMARK UNBOUND:                 0.772
REMARK SMILES CC1=CC=CC(C)(C)CC1=O
REMARK SMILES IDX 1 1 2 2 3 3 10 4 11 5 9 6 4 8 5 9 6 10 7 11 8 12
REMARK H PARENT
REMARK Flexibility Score: 80.00
ROOT
ATOM      1  C   UNL     1      -9.704  -2.804  19.219  1.00  0.00     0.048 C 
ATOM      2  C   UNL     1     -10.373  -3.620  18.138  1.00  0.00    -0.008 C 
ATOM      3  C   UNL     1     -11.174  -2.967  17.268  1.00  0.00     0.007 C 
ENDROOT
BRANCH   2   4
ATOM      4  C   UNL     1     -10.155  -5.088  18.165  1.00  0.00     0.159 C 
ATOM      5  O   UNL     1      -9.613  -5.603  19.182  1.00  0.00    -0.295 OA
BRANCH   4   6
ATOM      6  C   UNL     1     -10.531  -6.001  17.040  1.00  0.00     0.091 CG0
ATOM      7  G   UNL     1     -12.042  -5.977  16.715  1.00  0.00     0.000 G0
ENDBRANCH   4   6
ENDBRANCH   2   4
BRANCH   3   8
ATOM      8  C   UNL     1     -11.974  -3.491  16.135  1.00  0.00    -0.003 C 
ATOM      9  C   UNL     1     -12.363  -4.748  15.887  1.00  0.00    -0.020 C 
BRANCH   9  10
ATOM     10  C   UNL     1     -12.043  -5.968  16.718  1.00  0.00    -0.010 CG0
ATOM     11  C   UNL     1     -12.937  -5.998  17.978  1.00  0.00     0.016 C 
ATOM     12  C   UNL     1     -12.362  -7.225  15.876  1.00  0.00     0.016 C 
ATOM     13  G   UNL     1     -10.535  -5.986  17.056  1.00  0.00     0.000 G0
ENDBRANCH   9  10
ENDBRANCH   3   8
TORSDOF 0
ENDMDL
MODEL 6
REMARK VINA RESULT:    -2.909      2.416      3.858
REMARK INTER + INTRA:          -2.817
REMARK INTER:                  -3.580
REMARK INTRA:                   0.763
REMARK UNBOUND:                 0.772
REMARK SMILES CC1=CC=CC(C)(C)CC1=O
REMARK SMILES IDX 1 1 2 2 3 3 10 4 11 5 9 6 4 8 5 9 6 10 7 11 8 12
REMARK H PARENT
REMARK Flexibility Score: 80.00
ROOT
ATOM      1  C   UNL     1       0.413   6.430  29.259  1.00  0.00     0.048 C 
ATOM      2  C   UNL     1       1.779   5.786  29.206  1.00  0.00    -0.008 C 
ATOM      3  C   UNL     1       1.869   4.553  28.662  1.00  0.00     0.007 C 
ENDROOT
BRANCH   2   4
ATOM      4  C   UNL     1       2.902   6.531  29.828  1.00  0.00     0.159 C 
ATOM      5  O   UNL     1       2.644   7.552  30.524  1.00  0.00    -0.295 OA
BRANCH   4   6
ATOM      6  C   UNL     1       4.340   6.147  29.663  1.00  0.00     0.091 CG0
ATOM      7  G   UNL     1       4.648   4.716  30.157  1.00  0.00     0.000 G0
ENDBRANCH   4   6
ENDBRANCH   2   4
BRANCH   3   8
ATOM      8  C   UNL     1       3.048   3.670  28.496  1.00  0.00    -0.003 C 
ATOM      9  C   UNL     1       4.228   3.712  29.125  1.00  0.00    -0.020 C 
BRANCH   9  10
ATOM     10  C   UNL     1       4.657   4.720  30.166  1.00  0.00    -0.010 CG0
ATOM     11  C   UNL     1       3.984   4.398  31.520  1.00  0.00     0.016 C 
ATOM     12  C   UNL     1       6.186   4.603  30.353  1.00  0.00     0.016 C 
ATOM     13  G   UNL     1       4.340   6.148  29.668  1.00  0.00     0.000 G0
ENDBRANCH   9  10
ENDBRANCH   3   8
TORSDOF 0
ENDMDL
MODEL 7
REMARK VINA RESULT:    -2.872      2.386      4.493
REMARK INTER + INTRA:          -2.771
REMARK INTER:                  -3.517
REMARK INTRA:                   0.746
REMARK UNBOUND:                 0.772
REMARK SMILES CC1=CC=CC(C)(C)CC1=O
REMARK SMILES IDX 1 1 2 2 3 3 10 4 11 5 9 6 4 8 5 9 6 10 7 11 8 12
REMARK H PARENT
REMARK Flexibility Score: 80.00
ROOT
ATOM      1  C   UNL     1       1.257   5.696  31.854  1.00  0.00     0.048 C 
ATOM      2  C   UNL     1       2.180   4.927  30.938  1.00  0.00    -0.008 C 
ATOM      3  C   UNL     1       3.167   4.202  31.510  1.00  0.00     0.007 C 
ENDROOT
BRANCH   2   4
ATOM      4  C   UNL     1       1.974   5.089  29.477  1.00  0.00     0.159 C 
ATOM      5  O   UNL     1       1.180   5.983  29.071  1.00  0.00    -0.295 OA
BRANCH   4   6
ATOM      6  C   UNL     1       2.649   4.238  28.447  1.00  0.00     0.091 CG0
ATOM      7  G   UNL     1       4.191   4.296  28.523  1.00  0.00     0.000 G0
ENDBRANCH   4   6
ENDBRANCH   2   4
BRANCH   3   8
ATOM      8  C   UNL     1       4.227   3.378  30.882  1.00  0.00    -0.003 C 
ATOM      9  C   UNL     1       4.683   3.404  29.624  1.00  0.00    -0.020 C 
BRANCH   9  10
ATOM     10  C   UNL     1       4.185   4.291  28.506  1.00  0.00    -0.010 CG0
ATOM     11  C   UNL     1       4.740   5.723  28.683  1.00  0.00     0.016 C 
ATOM     12  C   UNL     1       4.722   3.732  27.169  1.00  0.00     0.016 C 
ATOM     13  G   UNL     1       2.641   4.252  28.460  1.00  0.00     0.000 G0
ENDBRANCH   9  10
ENDBRANCH   3   8
TORSDOF 0
ENDMDL
MODEL 8
REMARK VINA RESULT:    -2.846     19.602     21.162
REMARK INTER + INTRA:          -2.739
REMARK INTER:                  -3.495
REMARK INTRA:                   0.756
REMARK UNBOUND:                 0.772
REMARK SMILES CC1=CC=CC(C)(C)CC1=O
REMARK SMILES IDX 1 1 2 2 3 3 10 4 11 5 9 6 4 8 5 9 6 10 7 11 8 12
REMARK H PARENT
REMARK Flexibility Score: 80.00
ROOT
ATOM      1  C   UNL     1      -9.331  -8.092  15.075  1.00  0.00     0.048 C 
ATOM      2  C   UNL     1      -8.698  -7.778  16.410  1.00  0.00    -0.008 C 
ATOM      3  C   UNL     1      -9.054  -6.624  17.015  1.00  0.00     0.007 C 
ENDROOT
BRANCH   2   4
ATOM      4  C   UNL     1      -7.676  -8.728  16.915  1.00  0.00     0.159 C 
ATOM      5  O   UNL     1      -7.241  -9.623  16.138  1.00  0.00    -0.295 OA
BRANCH   4   6
ATOM      6  C   UNL     1      -7.136  -8.697  18.311  1.00  0.00     0.091 CG0
ATOM      7  G   UNL     1      -6.441  -7.363  18.666  1.00  0.00     0.000 G0
ENDBRANCH   4   6
ENDBRANCH   2   4
BRANCH   3   8
ATOM      8  C   UNL     1      -8.593  -6.040  18.297  1.00  0.00    -0.003 C 
ATOM      9  C   UNL     1      -7.493  -6.323  19.006  1.00  0.00    -0.020 C 
BRANCH   9  10
ATOM     10  C   UNL     1      -6.447  -7.359  18.665  1.00  0.00    -0.010 CG0
ATOM     11  C   UNL     1      -5.531  -6.833  17.536  1.00  0.00     0.016 C 
ATOM     12  C   UNL     1      -5.572  -7.594  19.918  1.00  0.00     0.016 C 
ATOM     13  G   UNL     1      -7.135  -8.693  18.301  1.00  0.00     0.000 G0
ENDBRANCH   9  10
ENDBRANCH   3   8
TORSDOF 0
ENDMDL
MODEL 9
REMARK VINA RESULT:    -2.828     19.399     21.107
REMARK INTER + INTRA:          -2.718
REMARK INTER:                  -3.482
REMARK INTRA:                   0.765
REMARK UNBOUND:                 0.772
REMARK SMILES CC1=CC=CC(C)(C)CC1=O
REMARK SMILES IDX 1 1 2 2 3 3 10 4 11 5 9 6 4 8 5 9 6 10 7 11 8 12
REMARK H PARENT
REMARK Flexibility Score: 80.00
ROOT
ATOM      1  C   UNL     1      -8.321  -5.250  20.306  1.00  0.00     0.048 C 
ATOM      2  C   UNL     1      -8.164  -5.960  18.982  1.00  0.00    -0.008 C 
ATOM      3  C   UNL     1      -9.244  -6.019  18.172  1.00  0.00     0.007 C 
ENDROOT
BRANCH   2   4
ATOM      4  C   UNL     1      -6.855  -6.604  18.709  1.00  0.00     0.159 C 
ATOM      5  O   UNL     1      -6.014  -6.692  19.646  1.00  0.00    -0.295 OA
BRANCH   4   6
ATOM      6  C   UNL     1      -6.463  -7.147  17.370  1.00  0.00     0.091 CG0
ATOM      7  G   UNL     1      -7.417  -8.250  16.858  1.00  0.00     0.000 G0
ENDBRANCH   4   6
ENDBRANCH   2   4
BRANCH   3   8
ATOM      8  C   UNL     1      -9.404  -6.659  16.845  1.00  0.00    -0.003 C 
ATOM      9  C   UNL     1      -8.655  -7.608  16.270  1.00  0.00    -0.020 C 
BRANCH   9  10
ATOM     10  C   UNL     1      -7.415  -8.247  16.849  1.00  0.00    -0.010 CG0
ATOM     11  C   UNL     1      -7.808  -9.265  17.944  1.00  0.00     0.016 C 
ATOM     12  C   UNL     1      -6.693  -9.017  15.719  1.00  0.00     0.016 C 
ATOM     13  G   UNL     1      -6.459  -7.150  17.370  1.00  0.00     0.000 G0
ENDBRANCH   9  10
ENDBRANCH   3   8
TORSDOF 0
ENDMDL
