MODEL 1
REMARK VINA RESULT:    -3.887      0.000      0.000
REMARK INTER + INTRA:          -5.539
REMARK INTER:                  -5.932
REMARK INTRA:                   0.393
REMARK UNBOUND:                 0.393
REMARK SMILES CC1=CCC[C@H](C)C(=O)C[C@@H](C(C)C)C(=O)C1
REMARK SMILES IDX 8 1 9 2 6 3 7 4 5 5 4 6 3 7 2 8 1 9 10 11 11 12 15 13 16 14
REMARK SMILES IDX 17 15 12 17 13 18 14 19
REMARK H PARENT
REMARK Flexibility Score: 70.00
ROOT
ATOM      1  C   UNL     1      20.972  25.734  28.305  1.00  0.00     0.136 C 
ATOM      2  O   UNL     1      21.197  25.106  29.330  1.00  0.00    -0.299 OA
ENDROOT
BRANCH   1   3
ATOM      3  C   UNL     1      19.760  25.394  27.468  1.00  0.00     0.053 C 
ATOM      4  C   UNL     1      19.730  23.902  27.114  1.00  0.00     0.016 C 
BRANCH   3   5
ATOM      5  C   UNL     1      18.483  25.823  28.232  1.00  0.00     0.015 C 
BRANCH   5   6
ATOM      6  C   UNL     1      17.755  27.066  27.684  1.00  0.00     0.028 C 
BRANCH   6   7
ATOM      7  C   UNL     1      17.518  28.208  28.650  1.00  0.00    -0.028 C 
ATOM      8  C   UNL     1      18.443  29.068  29.137  1.00  0.00    -0.070 CG0
ATOM      9  C   UNL     1      17.995  30.060  30.183  1.00  0.00     0.039 C 
ATOM     10  G   UNL     1      19.876  29.155  28.640  1.00  0.00     0.000 G0
ENDBRANCH   6   7
ENDBRANCH   5   6
ENDBRANCH   3   5
ENDBRANCH   1   3
BRANCH   1  11
ATOM     11  C   UNL     1      21.873  26.891  27.935  1.00  0.00     0.087 C 
BRANCH  11  12
ATOM     12  C   UNL     1      22.150  27.839  29.137  1.00  0.00     0.066 C 
BRANCH  12  13
ATOM     13  C   UNL     1      20.871  28.528  29.600  1.00  0.00     0.140 C 
ATOM     14  O   UNL     1      20.609  28.558  30.794  1.00  0.00    -0.299 OA
BRANCH  13  15
ATOM     15  C   UNL     1      19.899  29.159  28.624  1.00  0.00     0.106 CG0
ATOM     16  G   UNL     1      18.475  29.069  29.146  1.00  0.00     0.000 G0
ENDBRANCH  13  15
ENDBRANCH  12  13
BRANCH  12  17
ATOM     17  C   UNL     1      23.288  28.859  28.825  1.00  0.00    -0.006 C 
ATOM     18  C   UNL     1      24.288  29.058  29.978  1.00  0.00     0.008 C 
ATOM     19  C   UNL     1      24.035  28.491  27.534  1.00  0.00     0.008 C 
ENDBRANCH  12  17
ENDBRANCH  11  12
ENDBRANCH   1  11
TORSDOF 1
ENDMDL
MODEL 2
REMARK VINA RESULT:    -3.763      1.820      4.148
REMARK INTER + INTRA:          -5.350
REMARK INTER:                  -5.248
REMARK INTRA:                  -0.102
REMARK UNBOUND:                 0.393
REMARK SMILES CC1=CCC[C@H](C)C(=O)C[C@@H](C(C)C)C(=O)C1
REMARK SMILES IDX 8 1 9 2 6 3 7 4 5 5 4 6 3 7 2 8 1 9 10 11 11 12 15 13 16 14
REMARK SMILES IDX 17 15 12 17 13 18 14 19
REMARK H PARENT
REMARK Flexibility Score: 70.00
ROOT
ATOM      1  C   UNL     1      18.372  27.484  28.659  1.00  0.00     0.136 C 
ATOM      2  O   UNL     1      18.295  28.036  27.570  1.00  0.00    -0.299 OA
ENDROOT
BRANCH   1   3
ATOM      3  C   UNL     1      18.240  25.981  28.747  1.00  0.00     0.053 C 
ATOM      4  C   UNL     1      17.016  25.483  27.968  1.00  0.00     0.016 C 
BRANCH   3   5
ATOM      5  C   UNL     1      19.546  25.328  28.231  1.00  0.00     0.015 C 
BRANCH   5   6
ATOM      6  C   UNL     1      20.797  25.540  29.106  1.00  0.00     0.028 C 
BRANCH   6   7
ATOM      7  C   UNL     1      21.864  26.471  28.570  1.00  0.00    -0.028 C 
ATOM      8  C   UNL     1      22.157  27.716  29.015  1.00  0.00    -0.070 CG0
ATOM      9  C   UNL     1      23.188  28.508  28.248  1.00  0.00     0.039 C 
ATOM     10  G   UNL     1      21.579  28.330  30.278  1.00  0.00     0.000 G0
ENDBRANCH   6   7
ENDBRANCH   5   6
ENDBRANCH   3   5
ENDBRANCH   1   3
BRANCH   1  11
ATOM     11  C   UNL     1      18.671  28.312  29.888  1.00  0.00     0.087 C 
BRANCH  11  12
ATOM     12  C   UNL     1      19.368  29.660  29.543  1.00  0.00     0.066 C 
BRANCH  12  13
ATOM     13  C   UNL     1      20.839  29.637  29.938  1.00  0.00     0.140 C 
ATOM     14  O   UNL     1      21.465  30.687  29.972  1.00  0.00    -0.299 OA
BRANCH  13  15
ATOM     15  C   UNL     1      21.562  28.346  30.270  1.00  0.00     0.106 CG0
ATOM     16  G   UNL     1      22.148  27.719  29.017  1.00  0.00     0.000 G0
ENDBRANCH  13  15
ENDBRANCH  12  13
BRANCH  12  17
ATOM     17  C   UNL     1      18.613  30.880  30.155  1.00  0.00    -0.006 C 
ATOM     18  C   UNL     1      18.140  31.914  29.118  1.00  0.00     0.008 C 
ATOM     19  C   UNL     1      17.432  30.430  31.029  1.00  0.00     0.008 C 
ENDBRANCH  12  17
ENDBRANCH  11  12
ENDBRANCH   1  11
TORSDOF 1
ENDMDL
MODEL 3
REMARK VINA RESULT:    -3.729      2.305      3.326
REMARK INTER + INTRA:          -5.298
REMARK INTER:                  -4.933
REMARK INTRA:                  -0.365
REMARK UNBOUND:                 0.393
REMARK SMILES CC1=CCC[C@H](C)C(=O)C[C@@H](C(C)C)C(=O)C1
REMARK SMILES IDX 8 1 9 2 6 3 7 4 5 5 4 6 3 7 2 8 1 9 10 11 11 12 15 13 16 14
REMARK SMILES IDX 17 15 12 17 13 18 14 19
REMARK H PARENT
REMARK Flexibility Score: 70.00
ROOT
ATOM      1  C   UNL     1      17.652  25.797  27.596  1.00  0.00     0.136 C 
ATOM      2  O   UNL     1      18.236  24.751  27.345  1.00  0.00    -0.299 OA
ENDROOT
BRANCH   1   3
ATOM      3  C   UNL     1      16.204  25.760  28.029  1.00  0.00     0.053 C 
ATOM      4  C   UNL     1      15.372  24.855  27.112  1.00  0.00     0.016 C 
BRANCH   3   5
ATOM      5  C   UNL     1      16.130  25.297  29.505  1.00  0.00     0.015 C 
BRANCH   5   6
ATOM      6  C   UNL     1      15.729  26.375  30.531  1.00  0.00     0.028 C 
BRANCH   6   7
ATOM      7  C   UNL     1      15.197  27.683  29.985  1.00  0.00    -0.028 C 
ATOM      8  C   UNL     1      15.811  28.890  30.019  1.00  0.00    -0.070 CG0
ATOM      9  C   UNL     1      15.036  30.084  29.515  1.00  0.00     0.039 C 
ATOM     10  G   UNL     1      17.252  29.104  30.450  1.00  0.00     0.000 G0
ENDBRANCH   6   7
ENDBRANCH   5   6
ENDBRANCH   3   5
ENDBRANCH   1   3
BRANCH   1  11
ATOM     11  C   UNL     1      18.415  27.101  27.541  1.00  0.00     0.087 C 
BRANCH  11  12
ATOM     12  C   UNL     1      18.847  27.599  28.951  1.00  0.00     0.066 C 
BRANCH  12  13
ATOM     13  C   UNL     1      18.210  28.944  29.278  1.00  0.00     0.140 C 
ATOM     14  O   UNL     1      18.483  29.916  28.589  1.00  0.00    -0.299 OA
BRANCH  13  15
ATOM     15  C   UNL     1      17.264  29.122  30.448  1.00  0.00     0.106 CG0
ATOM     16  G   UNL     1      15.826  28.883  30.021  1.00  0.00     0.000 G0
ENDBRANCH  13  15
ENDBRANCH  12  13
BRANCH  12  17
ATOM     17  C   UNL     1      20.399  27.628  29.109  1.00  0.00    -0.006 C 
ATOM     18  C   UNL     1      20.883  28.129  30.481  1.00  0.00     0.008 C 
ATOM     19  C   UNL     1      21.022  26.259  28.795  1.00  0.00     0.008 C 
ENDBRANCH  12  17
ENDBRANCH  11  12
ENDBRANCH   1  11
TORSDOF 1
ENDMDL
MODEL 4
REMARK VINA RESULT:    -3.666      2.402      4.791
REMARK INTER + INTRA:          -5.201
REMARK INTER:                  -5.027
REMARK INTRA:                  -0.174
REMARK UNBOUND:                 0.393
REMARK SMILES CC1=CCC[C@H](C)C(=O)C[C@@H](C(C)C)C(=O)C1
REMARK SMILES IDX 8 1 9 2 6 3 7 4 5 5 4 6 3 7 2 8 1 9 10 11 11 12 15 13 16 14
REMARK SMILES IDX 17 15 12 17 13 18 14 19
REMARK H PARENT
REMARK Flexibility Score: 70.00
ROOT
ATOM      1  C   UNL     1      20.377  27.686  29.133  1.00  0.00     0.136 C 
ATOM      2  O   UNL     1      19.460  27.874  28.346  1.00  0.00    -0.299 OA
ENDROOT
BRANCH   1   3
ATOM      3  C   UNL     1      21.412  26.625  28.838  1.00  0.00     0.053 C 
ATOM      4  C   UNL     1      20.825  25.499  27.980  1.00  0.00     0.016 C 
BRANCH   3   5
ATOM      5  C   UNL     1      22.632  27.287  28.150  1.00  0.00     0.015 C 
BRANCH   5   6
ATOM      6  C   UNL     1      23.943  27.288  28.958  1.00  0.00     0.028 C 
BRANCH   6   7
ATOM      7  C   UNL     1      24.668  28.610  29.095  1.00  0.00    -0.028 C 
ATOM      8  C   UNL     1      24.318  29.655  29.883  1.00  0.00    -0.070 CG0
ATOM      9  C   UNL     1      25.129  30.922  29.769  1.00  0.00     0.039 C 
ATOM     10  G   UNL     1      23.218  29.603  30.931  1.00  0.00     0.000 G0
ENDBRANCH   6   7
ENDBRANCH   5   6
ENDBRANCH   3   5
ENDBRANCH   1   3
BRANCH   1  11
ATOM     11  C   UNL     1      20.497  28.573  30.352  1.00  0.00     0.087 C 
BRANCH  11  12
ATOM     12  C   UNL     1      20.785  30.057  29.982  1.00  0.00     0.066 C 
BRANCH  12  13
ATOM     13  C   UNL     1      22.076  30.545  30.629  1.00  0.00     0.140 C 
ATOM     14  O   UNL     1      22.204  31.735  30.881  1.00  0.00    -0.299 OA
BRANCH  13  15
ATOM     15  C   UNL     1      23.219  29.604  30.951  1.00  0.00     0.106 CG0
ATOM     16  G   UNL     1      24.289  29.667  29.874  1.00  0.00     0.000 G0
ENDBRANCH  13  15
ENDBRANCH  12  13
BRANCH  12  17
ATOM     17  C   UNL     1      19.574  30.985  30.310  1.00  0.00    -0.006 C 
ATOM     18  C   UNL     1      18.577  31.153  29.151  1.00  0.00     0.008 C 
ATOM     19  C   UNL     1      18.840  30.524  31.578  1.00  0.00     0.008 C 
ENDBRANCH  12  17
ENDBRANCH  11  12
ENDBRANCH   1  11
TORSDOF 1
ENDMDL
MODEL 5
REMARK VINA RESULT:    -3.625      2.689      5.223
REMARK INTER + INTRA:          -5.138
REMARK INTER:                  -4.934
REMARK INTRA:                  -0.204
REMARK UNBOUND:                 0.393
REMARK SMILES CC1=CCC[C@H](C)C(=O)C[C@@H](C(C)C)C(=O)C1
REMARK SMILES IDX 8 1 9 2 6 3 7 4 5 5 4 6 3 7 2 8 1 9 10 11 11 12 15 13 16 14
REMARK SMILES IDX 17 15 12 17 13 18 14 19
REMARK H PARENT
REMARK Flexibility Score: 70.00
ROOT
ATOM      1  C   UNL     1      15.887  29.117  30.025  1.00  0.00     0.136 C 
ATOM      2  O   UNL     1      14.852  29.238  29.385  1.00  0.00    -0.299 OA
ENDROOT
BRANCH   1   3
ATOM      3  C   UNL     1      16.644  27.809  29.985  1.00  0.00     0.053 C 
ATOM      4  C   UNL     1      15.869  26.695  30.697  1.00  0.00     0.016 C 
BRANCH   3   5
ATOM      5  C   UNL     1      16.941  27.443  28.509  1.00  0.00     0.015 C 
BRANCH   5   6
ATOM      6  C   UNL     1      18.319  27.873  27.971  1.00  0.00     0.028 C 
BRANCH   6   7
ATOM      7  C   UNL     1      19.486  27.809  28.934  1.00  0.00    -0.028 C 
ATOM      8  C   UNL     1      20.205  28.852  29.413  1.00  0.00    -0.070 CG0
ATOM      9  C   UNL     1      21.404  28.540  30.274  1.00  0.00     0.039 C 
ATOM     10  G   UNL     1      19.833  30.311  29.210  1.00  0.00     0.000 G0
ENDBRANCH   6   7
ENDBRANCH   5   6
ENDBRANCH   3   5
ENDBRANCH   1   3
BRANCH   1  11
ATOM     11  C   UNL     1      16.428  30.306  30.786  1.00  0.00     0.087 C 
BRANCH  11  12
ATOM     12  C   UNL     1      17.418  31.156  29.938  1.00  0.00     0.066 C 
BRANCH  12  13
ATOM     13  C   UNL     1      18.865  30.801  30.261  1.00  0.00     0.140 C 
ATOM     14  O   UNL     1      19.265  30.920  31.410  1.00  0.00    -0.299 OA
BRANCH  13  15
ATOM     15  C   UNL     1      19.832  30.325  29.196  1.00  0.00     0.106 CG0
ATOM     16  G   UNL     1      20.193  28.864  29.410  1.00  0.00     0.000 G0
ENDBRANCH  13  15
ENDBRANCH  12  13
BRANCH  12  17
ATOM     17  C   UNL     1      17.142  32.685  30.077  1.00  0.00    -0.006 C 
ATOM     18  C   UNL     1      16.501  33.325  28.834  1.00  0.00     0.008 C 
ATOM     19  C   UNL     1      16.300  32.993  31.325  1.00  0.00     0.008 C 
ENDBRANCH  12  17
ENDBRANCH  11  12
ENDBRANCH   1  11
TORSDOF 1
ENDMDL
MODEL 6
REMARK VINA RESULT:    -3.605      2.124      4.831
REMARK INTER + INTRA:          -5.108
REMARK INTER:                  -5.227
REMARK INTRA:                   0.119
REMARK UNBOUND:                 0.393
REMARK SMILES CC1=CCC[C@H](C)C(=O)C[C@@H](C(C)C)C(=O)C1
REMARK SMILES IDX 8 1 9 2 6 3 7 4 5 5 4 6 3 7 2 8 1 9 10 11 11 12 15 13 16 14
REMARK SMILES IDX 17 15 12 17 13 18 14 19
REMARK H PARENT
REMARK Flexibility Score: 70.00
ROOT
ATOM      1  C   UNL     1      23.924  28.086  28.184  1.00  0.00     0.136 C 
ATOM      2  O   UNL     1      23.634  28.496  27.068  1.00  0.00    -0.299 OA
ENDROOT
BRANCH   1   3
ATOM      3  C   UNL     1      25.175  28.591  28.865  1.00  0.00     0.053 C 
ATOM      4  C   UNL     1      26.271  28.919  27.845  1.00  0.00     0.016 C 
BRANCH   3   5
ATOM      5  C   UNL     1      24.816  29.825  29.730  1.00  0.00     0.015 C 
BRANCH   5   6
ATOM      6  C   UNL     1      24.140  29.527  31.083  1.00  0.00     0.028 C 
BRANCH   6   7
ATOM      7  C   UNL     1      22.981  30.414  31.485  1.00  0.00    -0.028 C 
ATOM      8  C   UNL     1      21.661  30.156  31.319  1.00  0.00    -0.070 CG0
ATOM      9  C   UNL     1      20.683  31.243  31.693  1.00  0.00     0.039 C 
ATOM     10  G   UNL     1      21.103  28.819  30.863  1.00  0.00     0.000 G0
ENDBRANCH   6   7
ENDBRANCH   5   6
ENDBRANCH   3   5
ENDBRANCH   1   3
BRANCH   1  11
ATOM     11  C   UNL     1      22.982  27.137  28.889  1.00  0.00     0.087 C 
BRANCH  11  12
ATOM     12  C   UNL     1      21.487  27.462  28.608  1.00  0.00     0.066 C 
BRANCH  12  13
ATOM     13  C   UNL     1      21.048  28.720  29.347  1.00  0.00     0.140 C 
ATOM     14  O   UNL     1      20.675  29.691  28.704  1.00  0.00    -0.299 OA
BRANCH  13  15
ATOM     15  C   UNL     1      21.081  28.816  30.859  1.00  0.00     0.106 CG0
ATOM     16  G   UNL     1      21.654  30.152  31.302  1.00  0.00     0.000 G0
ENDBRANCH  13  15
ENDBRANCH  12  13
BRANCH  12  17
ATOM     17  C   UNL     1      20.558  26.246  28.912  1.00  0.00    -0.006 C 
ATOM     18  C   UNL     1      19.104  26.431  28.445  1.00  0.00     0.008 C 
ATOM     19  C   UNL     1      21.135  24.941  28.342  1.00  0.00     0.008 C 
ENDBRANCH  12  17
ENDBRANCH  11  12
ENDBRANCH   1  11
TORSDOF 1
ENDMDL
MODEL 7
REMARK VINA RESULT:    -3.559      2.757      5.318
REMARK INTER + INTRA:          -5.038
REMARK INTER:                  -4.665
REMARK INTRA:                  -0.373
REMARK UNBOUND:                 0.393
REMARK SMILES CC1=CCC[C@H](C)C(=O)C[C@@H](C(C)C)C(=O)C1
REMARK SMILES IDX 8 1 9 2 6 3 7 4 5 5 4 6 3 7 2 8 1 9 10 11 11 12 15 13 16 14
REMARK SMILES IDX 17 15 12 17 13 18 14 19
REMARK H PARENT
REMARK Flexibility Score: 70.00
ROOT
ATOM      1  C   UNL     1      20.109  28.889  30.986  1.00  0.00     0.136 C 
ATOM      2  O   UNL     1      20.709  27.975  30.438  1.00  0.00    -0.299 OA
ENDROOT
BRANCH   1   3
ATOM      3  C   UNL     1      20.886  29.979  31.689  1.00  0.00     0.053 C 
ATOM      4  C   UNL     1      21.827  29.397  32.749  1.00  0.00     0.016 C 
BRANCH   3   5
ATOM      5  C   UNL     1      21.661  30.807  30.634  1.00  0.00     0.015 C 
BRANCH   5   6
ATOM      6  C   UNL     1      20.967  32.093  30.143  1.00  0.00     0.028 C 
BRANCH   6   7
ATOM      7  C   UNL     1      19.786  32.590  30.948  1.00  0.00    -0.028 C 
ATOM      8  C   UNL     1      18.491  32.635  30.553  1.00  0.00    -0.070 CG0
ATOM      9  C   UNL     1      17.496  33.282  31.485  1.00  0.00     0.039 C 
ATOM     10  G   UNL     1      17.966  32.003  29.275  1.00  0.00     0.000 G0
ENDBRANCH   6   7
ENDBRANCH   5   6
ENDBRANCH   3   5
ENDBRANCH   1   3
BRANCH   1  11
ATOM     11  C   UNL     1      18.602  28.948  30.886  1.00  0.00     0.087 C 
BRANCH  11  12
ATOM     12  C   UNL     1      18.115  29.372  29.469  1.00  0.00     0.066 C 
BRANCH  12  13
ATOM     13  C   UNL     1      17.319  30.669  29.526  1.00  0.00     0.140 C 
ATOM     14  O   UNL     1      16.121  30.624  29.768  1.00  0.00    -0.299 OA
BRANCH  13  15
ATOM     15  C   UNL     1      17.960  32.018  29.269  1.00  0.00     0.106 CG0
ATOM     16  G   UNL     1      18.491  32.618  30.560  1.00  0.00     0.000 G0
ENDBRANCH  13  15
ENDBRANCH  12  13
BRANCH  12  17
ATOM     17  C   UNL     1      17.329  28.228  28.757  1.00  0.00    -0.006 C 
ATOM     18  C   UNL     1      18.076  27.594  27.571  1.00  0.00     0.008 C 
ATOM     19  C   UNL     1      16.894  27.140  29.751  1.00  0.00     0.008 C 
ENDBRANCH  12  17
ENDBRANCH  11  12
ENDBRANCH   1  11
TORSDOF 1
ENDMDL
MODEL 8
REMARK VINA RESULT:    -3.555      2.975      5.879
REMARK INTER + INTRA:          -5.033
REMARK INTER:                  -5.137
REMARK INTRA:                   0.105
REMARK UNBOUND:                 0.393
REMARK SMILES CC1=CCC[C@H](C)C(=O)C[C@@H](C(C)C)C(=O)C1
REMARK SMILES IDX 8 1 9 2 6 3 7 4 5 5 4 6 3 7 2 8 1 9 10 11 11 12 15 13 16 14
REMARK SMILES IDX 17 15 12 17 13 18 14 19
REMARK H PARENT
REMARK Flexibility Score: 70.00
ROOT
ATOM      1  C   UNL     1      19.535  31.780  29.833  1.00  0.00     0.136 C 
ATOM      2  O   UNL     1      19.535  32.878  30.373  1.00  0.00    -0.299 OA
ENDROOT
BRANCH   1   3
ATOM      3  C   UNL     1      20.750  30.889  29.950  1.00  0.00     0.053 C 
ATOM      4  C   UNL     1      21.968  31.671  30.455  1.00  0.00     0.016 C 
BRANCH   3   5
ATOM      5  C   UNL     1      20.414  29.698  30.882  1.00  0.00     0.015 C 
BRANCH   5   6
ATOM      6  C   UNL     1      20.647  28.293  30.293  1.00  0.00     0.028 C 
BRANCH   6   7
ATOM      7  C   UNL     1      19.712  27.844  29.190  1.00  0.00    -0.028 C 
ATOM      8  C   UNL     1      18.361  27.777  29.244  1.00  0.00    -0.070 CG0
ATOM      9  C   UNL     1      17.641  27.185  28.057  1.00  0.00     0.039 C 
ATOM     10  G   UNL     1      17.523  28.336  30.382  1.00  0.00     0.000 G0
ENDBRANCH   6   7
ENDBRANCH   5   6
ENDBRANCH   3   5
ENDBRANCH   1   3
BRANCH   1  11
ATOM     11  C   UNL     1      18.289  31.308  29.119  1.00  0.00     0.087 C 
BRANCH  11  12
ATOM     12  C   UNL     1      17.136  30.957  30.103  1.00  0.00     0.066 C 
BRANCH  12  13
ATOM     13  C   UNL     1      16.674  29.516  29.918  1.00  0.00     0.140 C 
ATOM     14  O   UNL     1      15.589  29.300  29.399  1.00  0.00    -0.299 OA
BRANCH  13  15
ATOM     15  C   UNL     1      17.510  28.339  30.379  1.00  0.00     0.106 CG0
ATOM     16  G   UNL     1      18.335  27.781  29.232  1.00  0.00     0.000 G0
ENDBRANCH  13  15
ENDBRANCH  12  13
BRANCH  12  17
ATOM     17  C   UNL     1      15.955  31.971  30.003  1.00  0.00    -0.006 C 
ATOM     18  C   UNL     1      15.577  32.632  31.340  1.00  0.00     0.008 C 
ATOM     19  C   UNL     1      16.226  33.046  28.939  1.00  0.00     0.008 C 
ENDBRANCH  12  17
ENDBRANCH  11  12
ENDBRANCH   1  11
TORSDOF 1
ENDMDL
MODEL 9
REMARK VINA RESULT:    -3.483      2.925      6.450
REMARK INTER + INTRA:          -4.922
REMARK INTER:                  -4.632
REMARK INTRA:                  -0.290
REMARK UNBOUND:                 0.393
REMARK SMILES CC1=CCC[C@H](C)C(=O)C[C@@H](C(C)C)C(=O)C1
REMARK SMILES IDX 8 1 9 2 6 3 7 4 5 5 4 6 3 7 2 8 1 9 10 11 11 12 15 13 16 14
REMARK SMILES IDX 17 15 12 17 13 18 14 19
REMARK H PARENT
REMARK Flexibility Score: 70.00
ROOT
ATOM      1  C   UNL     1      18.954  32.958  29.679  1.00  0.00     0.136 C 
ATOM      2  O   UNL     1      18.448  34.050  29.894  1.00  0.00    -0.299 OA
ENDROOT
BRANCH   1   3
ATOM      3  C   UNL     1      20.418  32.737  29.985  1.00  0.00     0.053 C 
ATOM      4  C   UNL     1      21.247  33.987  29.669  1.00  0.00     0.016 C 
BRANCH   3   5
ATOM      5  C   UNL     1      20.565  32.317  31.469  1.00  0.00     0.015 C 
BRANCH   5   6
ATOM      6  C   UNL     1      21.112  30.898  31.716  1.00  0.00     0.028 C 
BRANCH   6   7
ATOM      7  C   UNL     1      21.362  30.033  30.500  1.00  0.00    -0.028 C 
ATOM      8  C   UNL     1      20.604  28.996  30.067  1.00  0.00    -0.070 CG0
ATOM      9  C   UNL     1      21.114  28.200  28.891  1.00  0.00     0.039 C 
ATOM     10  G   UNL     1      19.241  28.640  30.635  1.00  0.00     0.000 G0
ENDBRANCH   6   7
ENDBRANCH   5   6
ENDBRANCH   3   5
ENDBRANCH   1   3
BRANCH   1  11
ATOM     11  C   UNL     1      18.084  31.826  29.179  1.00  0.00     0.087 C 
BRANCH  11  12
ATOM     12  C   UNL     1      17.730  30.807  30.301  1.00  0.00     0.066 C 
BRANCH  12  13
ATOM     13  C   UNL     1      18.130  29.391  29.904  1.00  0.00     0.140 C 
ATOM     14  O   UNL     1      17.538  28.839  28.988  1.00  0.00    -0.299 OA
BRANCH  13  15
ATOM     15  C   UNL     1      19.226  28.634  30.627  1.00  0.00     0.106 CG0
ATOM     16  G   UNL     1      20.591  28.998  30.070  1.00  0.00     0.000 G0
ENDBRANCH  13  15
ENDBRANCH  12  13
BRANCH  12  17
ATOM     17  C   UNL     1      16.230  30.900  30.721  1.00  0.00    -0.006 C 
ATOM     18  C   UNL     1      16.010  31.120  32.228  1.00  0.00     0.008 C 
ATOM     19  C   UNL     1      15.486  31.976  29.915  1.00  0.00     0.008 C 
ENDBRANCH  12  17
ENDBRANCH  11  12
ENDBRANCH   1  11
TORSDOF 1
ENDMDL
