MODEL 1
REMARK VINA RESULT:    -2.706      0.000      0.000
REMARK INTER + INTRA:          -3.393
REMARK INTER:                  -3.181
REMARK INTRA:                  -0.212
REMARK UNBOUND:                -0.212
REMARK SMILES [NH3+][C@@H](CO)C(=O)[O-]
REMARK SMILES IDX 3 1 2 2 1 3 5 7 6 8 7 9 4 10
REMARK H PARENT 1 4 1 5 1 6 4 11
REMARK Flexibility Score: inf
ROOT
ATOM      1  C   UNL     1      -5.932  -3.720   1.670  1.00  0.00     0.227 C 
ENDROOT
BRANCH   1   2
ATOM      2  C   UNL     1      -6.679  -2.603   0.917  1.00  0.00     0.253 C 
BRANCH   2   3
ATOM      3  N   UNL     1      -5.793  -1.926  -0.039  1.00  0.00    -0.348 N 
ATOM      4  H   UNL     1      -6.334  -1.208  -0.575  1.00  0.00     0.345 HD
ATOM      5  H   UNL     1      -5.409  -2.619  -0.721  1.00  0.00     0.345 HD
ATOM      6  H   UNL     1      -5.000  -1.459   0.457  1.00  0.00     0.345 HD
ENDBRANCH   2   3
BRANCH   2   7
ATOM      7  C   UNL     1      -7.252  -1.614   1.895  1.00  0.00     0.102 C 
ATOM      8  O   UNL     1      -6.802  -1.541   3.069  1.00  0.00    -0.544 OA
ATOM      9  O   UNL     1      -8.298  -0.785   1.510  1.00  0.00    -0.544 OA
ENDBRANCH   2   7
ENDBRANCH   1   2
BRANCH   1  10
ATOM     10  O   UNL     1      -4.604  -3.348   1.923  1.00  0.00    -0.390 OA
ATOM     11  H   UNL     1      -4.547  -2.370   1.763  1.00  0.00     0.210 HD
ENDBRANCH   1  10
TORSDOF 4
ENDMDL
MODEL 2
REMARK VINA RESULT:    -2.591      2.444      3.325
REMARK INTER + INTRA:          -3.258
REMARK INTER:                  -3.022
REMARK INTRA:                  -0.236
REMARK UNBOUND:                -0.212
REMARK SMILES [NH3+][C@@H](CO)C(=O)[O-]
REMARK SMILES IDX 3 1 2 2 1 3 5 7 6 8 7 9 4 10
REMARK H PARENT 1 4 1 5 1 6 4 11
REMARK Flexibility Score: inf
ROOT
ATOM      1  C   UNL     1      -5.890  -2.694  -0.425  1.00  0.00     0.227 C 
ENDROOT
BRANCH   1   2
ATOM      2  C   UNL     1      -5.985  -3.246   1.010  1.00  0.00     0.253 C 
BRANCH   2   3
ATOM      3  N   UNL     1      -6.344  -2.187   1.961  1.00  0.00    -0.348 N 
ATOM      4  H   UNL     1      -5.483  -1.670   2.257  1.00  0.00     0.345 HD
ATOM      5  H   UNL     1      -6.780  -2.606   2.814  1.00  0.00     0.345 HD
ATOM      6  H   UNL     1      -7.017  -1.512   1.529  1.00  0.00     0.345 HD
ENDBRANCH   2   3
BRANCH   2   7
ATOM      7  C   UNL     1      -4.683  -3.889   1.404  1.00  0.00     0.102 C 
ATOM      8  O   UNL     1      -4.369  -4.003   2.618  1.00  0.00    -0.544 OA
ATOM      9  O   UNL     1      -3.811  -4.347   0.424  1.00  0.00    -0.544 OA
ENDBRANCH   2   7
ENDBRANCH   1   2
BRANCH   1  10
ATOM     10  O   UNL     1      -4.791  -1.834  -0.556  1.00  0.00    -0.390 OA
ATOM     11  H   UNL     1      -4.071  -2.202   0.022  1.00  0.00     0.210 HD
ENDBRANCH   1  10
TORSDOF 4
ENDMDL
MODEL 3
REMARK VINA RESULT:    -2.570      9.614     10.391
REMARK INTER + INTRA:          -3.233
REMARK INTER:                  -2.842
REMARK INTRA:                  -0.391
REMARK UNBOUND:                -0.212
REMARK SMILES [NH3+][C@@H](CO)C(=O)[O-]
REMARK SMILES IDX 3 1 2 2 1 3 5 7 6 8 7 9 4 10
REMARK H PARENT 1 4 1 5 1 6 4 11
REMARK Flexibility Score: inf
ROOT
ATOM      1  C   UNL     1      -7.403   5.406  -7.010  1.00  0.00     0.227 C 
ENDROOT
BRANCH   1   2
ATOM      2  C   UNL     1      -8.585   4.570  -6.483  1.00  0.00     0.253 C 
BRANCH   2   3
ATOM      3  N   UNL     1      -9.423   5.357  -5.569  1.00  0.00    -0.348 N 
ATOM      4  H   UNL     1      -9.613   4.805  -4.701  1.00  0.00     0.345 HD
ATOM      5  H   UNL     1     -10.339   5.574  -6.023  1.00  0.00     0.345 HD
ATOM      6  H   UNL     1      -8.949   6.252  -5.310  1.00  0.00     0.345 HD
ENDBRANCH   2   3
BRANCH   2   7
ATOM      7  C   UNL     1      -8.076   3.331  -5.797  1.00  0.00     0.102 C 
ATOM      8  O   UNL     1      -7.988   2.244  -6.426  1.00  0.00    -0.544 OA
ATOM      9  O   UNL     1      -7.718   3.379  -4.456  1.00  0.00    -0.544 OA
ENDBRANCH   2   7
ENDBRANCH   1   2
BRANCH   1  10
ATOM     10  O   UNL     1      -6.200   4.697  -6.892  1.00  0.00    -0.390 OA
ATOM     11  H   UNL     1      -5.618   5.222  -6.282  1.00  0.00     0.210 HD
ENDBRANCH   1  10
TORSDOF 4
ENDMDL
MODEL 4
REMARK VINA RESULT:    -2.557      1.926      3.334
REMARK INTER + INTRA:          -3.218
REMARK INTER:                  -2.966
REMARK INTRA:                  -0.252
REMARK UNBOUND:                -0.212
REMARK SMILES [NH3+][C@@H](CO)C(=O)[O-]
REMARK SMILES IDX 3 1 2 2 1 3 5 7 6 8 7 9 4 10
REMARK H PARENT 1 4 1 5 1 6 4 11
REMARK Flexibility Score: inf
ROOT
ATOM      1  C   UNL     1      -7.592  -2.197   2.319  1.00  0.00     0.227 C 
ENDROOT
BRANCH   1   2
ATOM      2  C   UNL     1      -6.895  -3.565   2.203  1.00  0.00     0.253 C 
BRANCH   2   3
ATOM      3  N   UNL     1      -6.664  -4.155   3.528  1.00  0.00    -0.348 N 
ATOM      4  H   UNL     1      -5.689  -3.945   3.844  1.00  0.00     0.345 HD
ATOM      5  H   UNL     1      -6.772  -5.193   3.479  1.00  0.00     0.345 HD
ATOM      6  H   UNL     1      -7.341  -3.772   4.227  1.00  0.00     0.345 HD
ENDBRANCH   2   3
BRANCH   2   7
ATOM      7  C   UNL     1      -5.596  -3.421   1.457  1.00  0.00     0.102 C 
ATOM      8  O   UNL     1      -5.586  -3.027   0.261  1.00  0.00    -0.544 OA
ATOM      9  O   UNL     1      -4.398  -3.741   2.083  1.00  0.00    -0.544 OA
ENDBRANCH   2   7
ENDBRANCH   1   2
BRANCH   1  10
ATOM     10  O   UNL     1      -6.650  -1.162   2.407  1.00  0.00    -0.390 OA
ATOM     11  H   UNL     1      -6.949  -0.451   1.782  1.00  0.00     0.210 HD
ENDBRANCH   1  10
TORSDOF 4
ENDMDL
MODEL 5
REMARK VINA RESULT:    -2.541     11.561     11.869
REMARK INTER + INTRA:          -3.199
REMARK INTER:                  -2.827
REMARK INTRA:                  -0.372
REMARK UNBOUND:                -0.212
REMARK SMILES [NH3+][C@@H](CO)C(=O)[O-]
REMARK SMILES IDX 3 1 2 2 1 3 5 7 6 8 7 9 4 10
REMARK H PARENT 1 4 1 5 1 6 4 11
REMARK Flexibility Score: inf
ROOT
ATOM      1  C   UNL     1       3.517   2.435   1.736  1.00  0.00     0.227 C 
ENDROOT
BRANCH   1   2
ATOM      2  C   UNL     1       4.424   3.257   2.671  1.00  0.00     0.253 C 
BRANCH   2   3
ATOM      3  N   UNL     1       5.241   2.381   3.521  1.00  0.00    -0.348 N 
ATOM      4  H   UNL     1       5.329   2.798   4.477  1.00  0.00     0.345 HD
ATOM      5  H   UNL     1       6.200   2.286   3.118  1.00  0.00     0.345 HD
ATOM      6  H   UNL     1       4.807   1.432   3.600  1.00  0.00     0.345 HD
ENDBRANCH   2   3
BRANCH   2   7
ATOM      7  C   UNL     1       3.592   4.183   3.516  1.00  0.00     0.102 C 
ATOM      8  O   UNL     1       3.003   3.756   4.544  1.00  0.00    -0.544 OA
ATOM      9  O   UNL     1       3.455   5.517   3.153  1.00  0.00    -0.544 OA
ENDBRANCH   2   7
ENDBRANCH   1   2
BRANCH   1  10
ATOM     10  O   UNL     1       2.183   2.851   1.844  1.00  0.00    -0.390 OA
ATOM     11  H   UNL     1       1.950   3.285   0.981  1.00  0.00     0.210 HD
ENDBRANCH   1  10
TORSDOF 4
ENDMDL
MODEL 6
REMARK VINA RESULT:    -2.505      1.801      2.760
REMARK INTER + INTRA:          -3.157
REMARK INTER:                  -2.925
REMARK INTRA:                  -0.232
REMARK UNBOUND:                -0.212
REMARK SMILES [NH3+][C@@H](CO)C(=O)[O-]
REMARK SMILES IDX 3 1 2 2 1 3 5 7 6 8 7 9 4 10
REMARK H PARENT 1 4 1 5 1 6 4 11
REMARK Flexibility Score: inf
ROOT
ATOM      1  C   UNL     1      -7.183  -2.416   2.368  1.00  0.00     0.227 C 
ENDROOT
BRANCH   1   2
ATOM      2  C   UNL     1      -6.364  -3.111   1.264  1.00  0.00     0.253 C 
BRANCH   2   3
ATOM      3  N   UNL     1      -4.968  -3.297   1.679  1.00  0.00    -0.348 N 
ATOM      4  H   UNL     1      -4.750  -2.663   2.482  1.00  0.00     0.345 HD
ATOM      5  H   UNL     1      -4.326  -3.054   0.890  1.00  0.00     0.345 HD
ATOM      6  H   UNL     1      -4.796  -4.288   1.967  1.00  0.00     0.345 HD
ENDBRANCH   2   3
BRANCH   2   7
ATOM      7  C   UNL     1      -6.433  -2.313  -0.010  1.00  0.00     0.102 C 
ATOM      8  O   UNL     1      -7.499  -1.732  -0.344  1.00  0.00    -0.544 OA
ATOM      9  O   UNL     1      -5.319  -2.230  -0.837  1.00  0.00    -0.544 OA
ENDBRANCH   2   7
ENDBRANCH   1   2
BRANCH   1  10
ATOM     10  O   UNL     1      -6.769  -1.088   2.534  1.00  0.00    -0.390 OA
ATOM     11  H   UNL     1      -6.427  -1.011   3.464  1.00  0.00     0.210 HD
ENDBRANCH   1  10
TORSDOF 4
ENDMDL
MODEL 7
REMARK VINA RESULT:    -2.492      1.264      2.857
REMARK INTER + INTRA:          -3.141
REMARK INTER:                  -2.885
REMARK INTRA:                  -0.256
REMARK UNBOUND:                -0.212
REMARK SMILES [NH3+][C@@H](CO)C(=O)[O-]
REMARK SMILES IDX 3 1 2 2 1 3 5 7 6 8 7 9 4 10
REMARK H PARENT 1 4 1 5 1 6 4 11
REMARK Flexibility Score: inf
ROOT
ATOM      1  C   UNL     1      -7.282  -1.596   1.328  1.00  0.00     0.227 C 
ENDROOT
BRANCH   1   2
ATOM      2  C   UNL     1      -6.447  -2.766   0.776  1.00  0.00     0.253 C 
BRANCH   2   3
ATOM      3  N   UNL     1      -7.277  -3.681  -0.018  1.00  0.00    -0.348 N 
ATOM      4  H   UNL     1      -7.128  -3.498  -1.038  1.00  0.00     0.345 HD
ATOM      5  H   UNL     1      -8.287  -3.522   0.196  1.00  0.00     0.345 HD
ATOM      6  H   UNL     1      -7.035  -4.677   0.191  1.00  0.00     0.345 HD
ENDBRANCH   2   3
BRANCH   2   7
ATOM      7  C   UNL     1      -5.781  -3.505   1.905  1.00  0.00     0.102 C 
ATOM      8  O   UNL     1      -6.462  -3.959   2.861  1.00  0.00    -0.544 OA
ATOM      9  O   UNL     1      -4.402  -3.675   1.904  1.00  0.00    -0.544 OA
ENDBRANCH   2   7
ENDBRANCH   1   2
BRANCH   1  10
ATOM     10  O   UNL     1      -6.726  -1.106   2.518  1.00  0.00    -0.390 OA
ATOM     11  H   UNL     1      -5.747  -1.035   2.367  1.00  0.00     0.210 HD
ENDBRANCH   1  10
TORSDOF 4
ENDMDL
MODEL 8
REMARK VINA RESULT:    -2.489     11.723     12.046
REMARK INTER + INTRA:          -3.137
REMARK INTER:                  -2.900
REMARK INTRA:                  -0.237
REMARK UNBOUND:                -0.212
REMARK SMILES [NH3+][C@@H](CO)C(=O)[O-]
REMARK SMILES IDX 3 1 2 2 1 3 5 7 6 8 7 9 4 10
REMARK H PARENT 1 4 1 5 1 6 4 11
REMARK Flexibility Score: inf
ROOT
ATOM      1  C   UNL     1       3.335   2.697   2.370  1.00  0.00     0.227 C 
ENDROOT
BRANCH   1   2
ATOM      2  C   UNL     1       3.813   4.086   2.832  1.00  0.00     0.253 C 
BRANCH   2   3
ATOM      3  N   UNL     1       3.053   4.544   4.002  1.00  0.00    -0.348 N 
ATOM      4  H   UNL     1       2.116   4.899   3.700  1.00  0.00     0.345 HD
ATOM      5  H   UNL     1       3.560   5.328   4.472  1.00  0.00     0.345 HD
ATOM      6  H   UNL     1       2.921   3.764   4.687  1.00  0.00     0.345 HD
ENDBRANCH   2   3
BRANCH   2   7
ATOM      7  C   UNL     1       3.691   5.076   1.705  1.00  0.00     0.102 C 
ATOM      8  O   UNL     1       3.271   6.243   1.922  1.00  0.00    -0.544 OA
ATOM      9  O   UNL     1       4.028   4.698   0.411  1.00  0.00    -0.544 OA
ENDBRANCH   2   7
ENDBRANCH   1   2
BRANCH   1  10
ATOM     10  O   UNL     1       2.068   2.778   1.775  1.00  0.00    -0.390 OA
ATOM     11  H   UNL     1       1.634   3.592   2.142  1.00  0.00     0.210 HD
ENDBRANCH   1  10
TORSDOF 4
ENDMDL
MODEL 9
REMARK VINA RESULT:    -2.454     11.399     11.866
REMARK INTER + INTRA:          -3.096
REMARK INTER:                  -2.717
REMARK INTRA:                  -0.379
REMARK UNBOUND:                -0.212
REMARK SMILES [NH3+][C@@H](CO)C(=O)[O-]
REMARK SMILES IDX 3 1 2 2 1 3 5 7 6 8 7 9 4 10
REMARK H PARENT 1 4 1 5 1 6 4 11
REMARK Flexibility Score: inf
ROOT
ATOM      1  C   UNL     1       3.477   4.127   4.317  1.00  0.00     0.227 C 
ENDROOT
BRANCH   1   2
ATOM      2  C   UNL     1       3.767   2.837   3.526  1.00  0.00     0.253 C 
BRANCH   2   3
ATOM      3  N   UNL     1       5.206   2.545   3.499  1.00  0.00    -0.348 N 
ATOM      4  H   UNL     1       5.366   1.534   3.717  1.00  0.00     0.345 HD
ATOM      5  H   UNL     1       5.700   3.116   4.222  1.00  0.00     0.345 HD
ATOM      6  H   UNL     1       5.610   2.761   2.558  1.00  0.00     0.345 HD
ENDBRANCH   2   3
BRANCH   2   7
ATOM      7  C   UNL     1       3.227   2.956   2.127  1.00  0.00     0.102 C 
ATOM      8  O   UNL     1       2.084   2.508   1.843  1.00  0.00    -0.544 OA
ATOM      9  O   UNL     1       3.997   3.547   1.134  1.00  0.00    -0.544 OA
ENDBRANCH   2   7
ENDBRANCH   1   2
BRANCH   1  10
ATOM     10  O   UNL     1       2.982   5.129   3.470  1.00  0.00    -0.390 OA
ATOM     11  H   UNL     1       3.279   5.996   3.853  1.00  0.00     0.210 HD
ENDBRANCH   1  10
TORSDOF 4
ENDMDL
