MODEL 1
REMARK VINA RESULT:    -5.558      0.000      0.000
REMARK INTER + INTRA:          -7.162
REMARK INTER:                  -6.858
REMARK INTRA:                  -0.305
REMARK UNBOUND:                -0.305
REMARK SMILES Oc1cc(O)c2cc(O)c(-c3cc(O)c(O)c(O)c3)[o+]c2c1
REMARK SMILES IDX 10 1 20 2 21 3 22 4 2 5 3 6 4 7 6 8 7 9 8 10 11 11 12 12
REMARK SMILES IDX 13 13 19 14 15 15 17 16 14 17 16 19 18 21 9 23 1 25 5 27
REMARK H PARENT 14 18 16 20 18 22 9 24 1 26 5 28
REMARK Flexibility Score: inf
ROOT
ATOM      1  C   UNL     1     -13.206 -15.733  32.400  1.00  0.00     0.402 A 
ATOM      2  O   UNL     1     -12.172 -15.618  33.230  1.00  0.00    -0.202 OA
ATOM      3  C   UNL     1     -12.178 -14.829  34.299  1.00  0.00     0.368 A 
ATOM      4  C   UNL     1     -11.041 -14.773  35.109  1.00  0.00     0.162 A 
ATOM      5  C   UNL     1     -11.018 -13.952  36.237  1.00  0.00     0.128 A 
ATOM      6  C   UNL     1     -12.139 -13.178  36.558  1.00  0.00     0.093 A 
ATOM      7  C   UNL     1     -13.291 -13.216  35.763  1.00  0.00     0.136 A 
ATOM      8  C   UNL     1     -13.319 -14.053  34.616  1.00  0.00     0.125 A 
ATOM      9  C   UNL     1     -14.434 -14.165  33.769  1.00  0.00     0.078 A 
ATOM     10  C   UNL     1     -14.388 -15.015  32.659  1.00  0.00     0.223 A 
ENDROOT
BRANCH   1  11
ATOM     11  C   UNL     1     -13.073 -16.638  31.236  1.00  0.00     0.091 A 
ATOM     12  C   UNL     1     -13.107 -18.035  31.387  1.00  0.00     0.068 A 
ATOM     13  C   UNL     1     -13.001 -18.876  30.270  1.00  0.00     0.162 A 
ATOM     14  C   UNL     1     -12.966 -16.093  29.947  1.00  0.00     0.068 A 
ATOM     15  C   UNL     1     -12.873 -18.320  28.985  1.00  0.00     0.200 A 
ATOM     16  C   UNL     1     -12.859 -16.924  28.828  1.00  0.00     0.162 A 
BRANCH  13  17
ATOM     17  O   UNL     1     -13.031 -20.260  30.433  1.00  0.00    -0.504 OA
ATOM     18  H   UNL     1     -13.567 -20.856  29.815  1.00  0.00     0.293 HD
ENDBRANCH  13  17
BRANCH  15  19
ATOM     19  O   UNL     1     -12.762 -19.143  27.863  1.00  0.00    -0.502 OA
ATOM     20  H   UNL     1     -12.829 -20.151  27.924  1.00  0.00     0.293 HD
ENDBRANCH  15  19
BRANCH  16  21
ATOM     21  O   UNL     1     -12.740 -16.344  27.565  1.00  0.00    -0.504 OA
ATOM     22  H   UNL     1     -12.028 -15.655  27.353  1.00  0.00     0.293 HD
ENDBRANCH  16  21
ENDBRANCH   1  11
BRANCH  10  23
ATOM     23  O   UNL     1     -15.511 -15.164  31.846  1.00  0.00    -0.500 OA
ATOM     24  H   UNL     1     -16.271 -14.494  31.860  1.00  0.00     0.294 HD
ENDBRANCH  10  23
BRANCH   5  25
ATOM     25  O   UNL     1      -9.875 -13.909  37.032  1.00  0.00    -0.507 OA
ATOM     26  H   UNL     1      -9.926 -14.008  38.039  1.00  0.00     0.293 HD
ENDBRANCH   5  25
BRANCH   7  27
ATOM     27  O   UNL     1     -14.368 -12.413  36.149  1.00  0.00    -0.507 OA
ATOM     28  H   UNL     1     -14.571 -11.505  35.757  1.00  0.00     0.293 HD
ENDBRANCH   7  27
TORSDOF 7
ENDMDL
MODEL 2
REMARK VINA RESULT:    -5.549      0.111      1.797
REMARK INTER + INTRA:          -7.151
REMARK INTER:                  -6.799
REMARK INTRA:                  -0.352
REMARK UNBOUND:                -0.305
REMARK SMILES Oc1cc(O)c2cc(O)c(-c3cc(O)c(O)c(O)c3)[o+]c2c1
REMARK SMILES IDX 10 1 20 2 21 3 22 4 2 5 3 6 4 7 6 8 7 9 8 10 11 11 12 12
REMARK SMILES IDX 13 13 19 14 15 15 17 16 14 17 16 19 18 21 9 23 1 25 5 27
REMARK H PARENT 14 18 16 20 18 22 9 24 1 26 5 28
REMARK Flexibility Score: inf
ROOT
ATOM      1  C   UNL     1     -13.301 -15.654  32.357  1.00  0.00     0.402 A 
ATOM      2  O   UNL     1     -12.252 -15.565  33.171  1.00  0.00    -0.202 OA
ATOM      3  C   UNL     1     -12.233 -14.798  34.256  1.00  0.00     0.368 A 
ATOM      4  C   UNL     1     -11.081 -14.768  35.047  1.00  0.00     0.162 A 
ATOM      5  C   UNL     1     -11.032 -13.971  36.191  1.00  0.00     0.128 A 
ATOM      6  C   UNL     1     -12.141 -13.195  36.548  1.00  0.00     0.093 A 
ATOM      7  C   UNL     1     -13.307 -13.207  35.772  1.00  0.00     0.136 A 
ATOM      8  C   UNL     1     -13.361 -14.020  34.609  1.00  0.00     0.125 A 
ATOM      9  C   UNL     1     -14.492 -14.105  33.779  1.00  0.00     0.078 A 
ATOM     10  C   UNL     1     -14.473 -14.932  32.652  1.00  0.00     0.223 A 
ENDROOT
BRANCH   1  11
ATOM     11  C   UNL     1     -13.196 -16.535  31.172  1.00  0.00     0.091 A 
ATOM     12  C   UNL     1     -12.990 -16.010  29.885  1.00  0.00     0.068 A 
ATOM     13  C   UNL     1     -12.872 -16.862  28.778  1.00  0.00     0.162 A 
ATOM     14  C   UNL     1     -13.247 -17.928  31.341  1.00  0.00     0.068 A 
ATOM     15  C   UNL     1     -12.946 -18.255  28.955  1.00  0.00     0.200 A 
ATOM     16  C   UNL     1     -13.131 -18.785  30.243  1.00  0.00     0.162 A 
BRANCH  13  17
ATOM     17  O   UNL     1     -12.673 -16.329  27.505  1.00  0.00    -0.504 OA
ATOM     18  H   UNL     1     -13.447 -16.010  26.936  1.00  0.00     0.293 HD
ENDBRANCH  13  17
BRANCH  15  19
ATOM     19  O   UNL     1     -12.834 -19.117  27.863  1.00  0.00    -0.502 OA
ATOM     20  H   UNL     1     -13.397 -19.954  27.776  1.00  0.00     0.293 HD
ENDBRANCH  15  19
BRANCH  16  21
ATOM     21  O   UNL     1     -13.201 -20.162  30.451  1.00  0.00    -0.504 OA
ATOM     22  H   UNL     1     -13.313 -20.563  31.374  1.00  0.00     0.293 HD
ENDBRANCH  16  21
ENDBRANCH   1  11
BRANCH  10  23
ATOM     23  O   UNL     1     -15.611 -15.054  31.856  1.00  0.00    -0.500 OA
ATOM     24  H   UNL     1     -16.521 -15.251  32.255  1.00  0.00     0.294 HD
ENDBRANCH  10  23
BRANCH   5  25
ATOM     25  O   UNL     1      -9.875 -13.955  36.966  1.00  0.00    -0.507 OA
ATOM     26  H   UNL     1      -9.426 -13.085  37.230  1.00  0.00     0.293 HD
ENDBRANCH   5  25
BRANCH   7  27
ATOM     27  O   UNL     1     -14.369 -12.404  36.194  1.00  0.00    -0.507 OA
ATOM     28  H   UNL     1     -14.335 -11.397  36.249  1.00  0.00     0.293 HD
ENDBRANCH   7  27
TORSDOF 7
ENDMDL
MODEL 3
REMARK VINA RESULT:    -5.432      1.046      3.135
REMARK INTER + INTRA:          -7.006
REMARK INTER:                  -6.670
REMARK INTRA:                  -0.337
REMARK UNBOUND:                -0.305
REMARK SMILES Oc1cc(O)c2cc(O)c(-c3cc(O)c(O)c(O)c3)[o+]c2c1
REMARK SMILES IDX 10 1 20 2 21 3 22 4 2 5 3 6 4 7 6 8 7 9 8 10 11 11 12 12
REMARK SMILES IDX 13 13 19 14 15 15 17 16 14 17 16 19 18 21 9 23 1 25 5 27
REMARK H PARENT 14 18 16 20 18 22 9 24 1 26 5 28
REMARK Flexibility Score: inf
ROOT
ATOM      1  C   UNL     1     -12.114 -16.301  32.426  1.00  0.00     0.402 A 
ATOM      2  O   UNL     1     -12.968 -15.458  33.002  1.00  0.00    -0.202 OA
ATOM      3  C   UNL     1     -12.669 -14.739  34.079  1.00  0.00     0.368 A 
ATOM      4  C   UNL     1     -13.636 -13.883  34.614  1.00  0.00     0.162 A 
ATOM      5  C   UNL     1     -13.351 -13.117  35.745  1.00  0.00     0.128 A 
ATOM      6  C   UNL     1     -12.092 -13.209  36.349  1.00  0.00     0.093 A 
ATOM      7  C   UNL     1     -11.106 -14.059  35.832  1.00  0.00     0.136 A 
ATOM      8  C   UNL     1     -11.391 -14.837  34.680  1.00  0.00     0.125 A 
ATOM      9  C   UNL     1     -10.461 -15.706  34.085  1.00  0.00     0.078 A 
ATOM     10  C   UNL     1     -10.814 -16.437  32.946  1.00  0.00     0.223 A 
ENDROOT
BRANCH   1  11
ATOM     11  C   UNL     1     -12.569 -17.054  31.235  1.00  0.00     0.091 A 
ATOM     12  C   UNL     1     -12.627 -16.453  29.966  1.00  0.00     0.068 A 
ATOM     13  C   UNL     1     -13.040 -17.189  28.847  1.00  0.00     0.162 A 
ATOM     14  C   UNL     1     -12.897 -18.413  31.362  1.00  0.00     0.068 A 
ATOM     15  C   UNL     1     -13.387 -18.543  28.989  1.00  0.00     0.200 A 
ATOM     16  C   UNL     1     -13.311 -19.154  30.251  1.00  0.00     0.162 A 
BRANCH  13  17
ATOM     17  O   UNL     1     -13.098 -16.580  27.594  1.00  0.00    -0.504 OA
ATOM     18  H   UNL     1     -13.929 -16.098  27.276  1.00  0.00     0.293 HD
ENDBRANCH  13  17
BRANCH  15  19
ATOM     19  O   UNL     1     -13.804 -19.290  27.885  1.00  0.00    -0.502 OA
ATOM     20  H   UNL     1     -14.302 -18.873  27.108  1.00  0.00     0.293 HD
ENDBRANCH  15  19
BRANCH  16  21
ATOM     21  O   UNL     1     -13.642 -20.498  30.422  1.00  0.00    -0.504 OA
ATOM     22  H   UNL     1     -12.937 -21.219  30.525  1.00  0.00     0.293 HD
ENDBRANCH  16  21
ENDBRANCH   1  11
BRANCH  10  23
ATOM     23  O   UNL     1      -9.875 -17.261  32.327  1.00  0.00    -0.500 OA
ATOM     24  H   UNL     1      -9.610 -17.133  31.358  1.00  0.00     0.294 HD
ENDBRANCH  10  23
BRANCH   5  25
ATOM     25  O   UNL     1     -14.327 -12.270  36.263  1.00  0.00    -0.507 OA
ATOM     26  H   UNL     1     -14.445 -12.147  37.263  1.00  0.00     0.293 HD
ENDBRANCH   5  25
BRANCH   7  27
ATOM     27  O   UNL     1      -9.875 -14.095  36.493  1.00  0.00    -0.507 OA
ATOM     28  H   UNL     1      -8.984 -13.933  36.049  1.00  0.00     0.293 HD
ENDBRANCH   7  27
TORSDOF 7
ENDMDL
MODEL 4
REMARK VINA RESULT:    -5.181      1.053      2.575
REMARK INTER + INTRA:          -6.697
REMARK INTER:                  -6.318
REMARK INTRA:                  -0.378
REMARK UNBOUND:                -0.305
REMARK SMILES Oc1cc(O)c2cc(O)c(-c3cc(O)c(O)c(O)c3)[o+]c2c1
REMARK SMILES IDX 10 1 20 2 21 3 22 4 2 5 3 6 4 7 6 8 7 9 8 10 11 11 12 12
REMARK SMILES IDX 13 13 19 14 15 15 17 16 14 17 16 19 18 21 9 23 1 25 5 27
REMARK H PARENT 14 18 16 20 18 22 9 24 1 26 5 28
REMARK Flexibility Score: inf
ROOT
ATOM      1  C   UNL     1     -12.116 -16.285  32.434  1.00  0.00     0.402 A 
ATOM      2  O   UNL     1     -12.969 -15.444  33.012  1.00  0.00    -0.202 OA
ATOM      3  C   UNL     1     -12.671 -14.725  34.089  1.00  0.00     0.368 A 
ATOM      4  C   UNL     1     -13.638 -13.870  34.626  1.00  0.00     0.162 A 
ATOM      5  C   UNL     1     -13.353 -13.105  35.757  1.00  0.00     0.128 A 
ATOM      6  C   UNL     1     -12.093 -13.195  36.360  1.00  0.00     0.093 A 
ATOM      7  C   UNL     1     -11.106 -14.044  35.841  1.00  0.00     0.136 A 
ATOM      8  C   UNL     1     -11.392 -14.821  34.688  1.00  0.00     0.125 A 
ATOM      9  C   UNL     1     -10.461 -15.688  34.092  1.00  0.00     0.078 A 
ATOM     10  C   UNL     1     -10.814 -16.419  32.953  1.00  0.00     0.223 A 
ENDROOT
BRANCH   1  11
ATOM     11  C   UNL     1     -12.571 -17.038  31.244  1.00  0.00     0.091 A 
ATOM     12  C   UNL     1     -13.041 -18.358  31.348  1.00  0.00     0.068 A 
ATOM     13  C   UNL     1     -13.489 -19.048  30.213  1.00  0.00     0.162 A 
ATOM     14  C   UNL     1     -12.586 -16.405  29.991  1.00  0.00     0.068 A 
ATOM     15  C   UNL     1     -13.479 -18.412  28.959  1.00  0.00     0.200 A 
ATOM     16  C   UNL     1     -13.029 -17.086  28.853  1.00  0.00     0.162 A 
BRANCH  13  17
ATOM     17  O   UNL     1     -13.949 -20.358  30.328  1.00  0.00    -0.504 OA
ATOM     18  H   UNL     1     -14.005 -20.974  29.527  1.00  0.00     0.293 HD
ENDBRANCH  13  17
BRANCH  15  19
ATOM     19  O   UNL     1     -13.917 -19.086  27.817  1.00  0.00    -0.502 OA
ATOM     20  H   UNL     1     -13.323 -19.729  27.309  1.00  0.00     0.293 HD
ENDBRANCH  15  19
BRANCH  16  21
ATOM     21  O   UNL     1     -13.015 -16.426  27.624  1.00  0.00    -0.504 OA
ATOM     22  H   UNL     1     -12.659 -15.483  27.522  1.00  0.00     0.293 HD
ENDBRANCH  16  21
ENDBRANCH   1  11
BRANCH  10  23
ATOM     23  O   UNL     1      -9.875 -17.242  32.332  1.00  0.00    -0.500 OA
ATOM     24  H   UNL     1      -9.072 -17.605  32.832  1.00  0.00     0.294 HD
ENDBRANCH  10  23
BRANCH   5  25
ATOM     25  O   UNL     1     -14.330 -12.260  36.277  1.00  0.00    -0.507 OA
ATOM     26  H   UNL     1     -15.316 -12.422  36.105  1.00  0.00     0.293 HD
ENDBRANCH   5  25
BRANCH   7  27
ATOM     27  O   UNL     1      -9.875 -14.079  36.501  1.00  0.00    -0.507 OA
ATOM     28  H   UNL     1      -9.155 -13.379  36.401  1.00  0.00     0.293 HD
ENDBRANCH   7  27
TORSDOF 7
ENDMDL
MODEL 5
REMARK VINA RESULT:    -4.365      1.510      7.182
REMARK INTER + INTRA:          -5.691
REMARK INTER:                  -5.425
REMARK INTRA:                  -0.266
REMARK UNBOUND:                -0.305
REMARK SMILES Oc1cc(O)c2cc(O)c(-c3cc(O)c(O)c(O)c3)[o+]c2c1
REMARK SMILES IDX 10 1 20 2 21 3 22 4 2 5 3 6 4 7 6 8 7 9 8 10 11 11 12 12
REMARK SMILES IDX 13 13 19 14 15 15 17 16 14 17 16 19 18 21 9 23 1 25 5 27
REMARK H PARENT 14 18 16 20 18 22 9 24 1 26 5 28
REMARK Flexibility Score: inf
ROOT
ATOM      1  C   UNL     1     -12.670 -16.310  32.013  1.00  0.00     0.402 A 
ATOM      2  O   UNL     1     -12.005 -15.991  30.905  1.00  0.00    -0.202 OA
ATOM      3  C   UNL     1     -12.080 -16.693  29.780  1.00  0.00     0.368 A 
ATOM      4  C   UNL     1     -11.338 -16.279  28.670  1.00  0.00     0.162 A 
ATOM      5  C   UNL     1     -11.396 -16.999  27.476  1.00  0.00     0.128 A 
ATOM      6  C   UNL     1     -12.198 -18.142  27.389  1.00  0.00     0.093 A 
ATOM      7  C   UNL     1     -12.951 -18.578  28.487  1.00  0.00     0.136 A 
ATOM      8  C   UNL     1     -12.897 -17.846  29.703  1.00  0.00     0.125 A 
ATOM      9  C   UNL     1     -13.626 -18.201  30.850  1.00  0.00     0.078 A 
ATOM     10  C   UNL     1     -13.525 -17.428  32.011  1.00  0.00     0.223 A 
ENDROOT
BRANCH   1  11
ATOM     11  C   UNL     1     -12.495 -15.453  33.207  1.00  0.00     0.091 A 
ATOM     12  C   UNL     1     -13.536 -14.637  33.682  1.00  0.00     0.068 A 
ATOM     13  C   UNL     1     -13.359 -13.850  34.828  1.00  0.00     0.162 A 
ATOM     14  C   UNL     1     -11.285 -15.496  33.916  1.00  0.00     0.068 A 
ATOM     15  C   UNL     1     -12.135 -13.883  35.518  1.00  0.00     0.200 A 
ATOM     16  C   UNL     1     -11.099 -14.713  35.059  1.00  0.00     0.162 A 
BRANCH  13  17
ATOM     17  O   UNL     1     -14.398 -13.040  35.286  1.00  0.00    -0.504 OA
ATOM     18  H   UNL     1     -14.260 -12.371  36.033  1.00  0.00     0.293 HD
ENDBRANCH  13  17
BRANCH  15  19
ATOM     19  O   UNL     1     -11.940 -13.102  36.658  1.00  0.00    -0.502 OA
ATOM     20  H   UNL     1     -12.406 -12.213  36.790  1.00  0.00     0.293 HD
ENDBRANCH  15  19
BRANCH  16  21
ATOM     21  O   UNL     1      -9.875 -14.773  35.726  1.00  0.00    -0.504 OA
ATOM     22  H   UNL     1      -9.466 -15.650  36.025  1.00  0.00     0.293 HD
ENDBRANCH  16  21
ENDBRANCH   1  11
BRANCH  10  23
ATOM     23  O   UNL     1     -14.287 -17.751  33.134  1.00  0.00    -0.500 OA
ATOM     24  H   UNL     1     -15.283 -17.927  33.069  1.00  0.00     0.294 HD
ENDBRANCH  10  23
BRANCH   5  25
ATOM     25  O   UNL     1     -10.650 -16.570  26.381  1.00  0.00    -0.507 OA
ATOM     26  H   UNL     1      -9.696 -16.882  26.235  1.00  0.00     0.293 HD
ENDBRANCH   5  25
BRANCH   7  27
ATOM     27  O   UNL     1     -13.725 -19.729  28.322  1.00  0.00    -0.507 OA
ATOM     28  H   UNL     1     -14.401 -19.860  27.585  1.00  0.00     0.293 HD
ENDBRANCH   7  27
TORSDOF 7
ENDMDL
MODEL 6
REMARK VINA RESULT:    -4.177      1.532      7.157
REMARK INTER + INTRA:          -5.459
REMARK INTER:                  -5.133
REMARK INTRA:                  -0.326
REMARK UNBOUND:                -0.305
REMARK SMILES Oc1cc(O)c2cc(O)c(-c3cc(O)c(O)c(O)c3)[o+]c2c1
REMARK SMILES IDX 10 1 20 2 21 3 22 4 2 5 3 6 4 7 6 8 7 9 8 10 11 11 12 12
REMARK SMILES IDX 13 13 19 14 15 15 17 16 14 17 16 19 18 21 9 23 1 25 5 27
REMARK H PARENT 14 18 16 20 18 22 9 24 1 26 5 28
REMARK Flexibility Score: inf
ROOT
ATOM      1  C   UNL     1     -12.625 -16.446  31.929  1.00  0.00     0.402 A 
ATOM      2  O   UNL     1     -12.068 -16.028  30.795  1.00  0.00    -0.202 OA
ATOM      3  C   UNL     1     -12.150 -16.698  29.650  1.00  0.00     0.368 A 
ATOM      4  C   UNL     1     -11.528 -16.179  28.512  1.00  0.00     0.162 A 
ATOM      5  C   UNL     1     -11.596 -16.862  27.297  1.00  0.00     0.128 A 
ATOM      6  C   UNL     1     -12.288 -18.076  27.218  1.00  0.00     0.093 A 
ATOM      7  C   UNL     1     -12.920 -18.618  28.344  1.00  0.00     0.136 A 
ATOM      8  C   UNL     1     -12.856 -17.923  29.581  1.00  0.00     0.125 A 
ATOM      9  C   UNL     1     -13.470 -18.384  30.758  1.00  0.00     0.078 A 
ATOM     10  C   UNL     1     -13.367 -17.643  31.939  1.00  0.00     0.223 A 
ENDROOT
BRANCH   1  11
ATOM     11  C   UNL     1     -12.454 -15.615  33.142  1.00  0.00     0.091 A 
ATOM     12  C   UNL     1     -11.236 -15.585  33.843  1.00  0.00     0.068 A 
ATOM     13  C   UNL     1     -11.086 -14.775  34.977  1.00  0.00     0.162 A 
ATOM     14  C   UNL     1     -13.509 -14.796  33.572  1.00  0.00     0.068 A 
ATOM     15  C   UNL     1     -12.157 -13.975  35.413  1.00  0.00     0.200 A 
ATOM     16  C   UNL     1     -13.369 -13.986  34.702  1.00  0.00     0.162 A 
BRANCH  13  17
ATOM     17  O   UNL     1      -9.875 -14.758  35.668  1.00  0.00    -0.504 OA
ATOM     18  H   UNL     1      -9.236 -15.543  35.640  1.00  0.00     0.293 HD
ENDBRANCH  13  17
BRANCH  15  19
ATOM     19  O   UNL     1     -12.026 -13.165  36.542  1.00  0.00    -0.502 OA
ATOM     20  H   UNL     1     -12.225 -12.173  36.521  1.00  0.00     0.293 HD
ENDBRANCH  15  19
BRANCH  16  21
ATOM     21  O   UNL     1     -14.447 -13.198  35.105  1.00  0.00    -0.504 OA
ATOM     22  H   UNL     1     -15.405 -13.517  35.035  1.00  0.00     0.293 HD
ENDBRANCH  16  21
ENDBRANCH   1  11
BRANCH  10  23
ATOM     23  O   UNL     1     -14.017 -18.074  33.094  1.00  0.00    -0.500 OA
ATOM     24  H   UNL     1     -13.647 -17.882  34.018  1.00  0.00     0.294 HD
ENDBRANCH  10  23
BRANCH   5  25
ATOM     25  O   UNL     1     -10.969 -16.328  26.175  1.00  0.00    -0.507 OA
ATOM     26  H   UNL     1     -10.487 -16.918  25.506  1.00  0.00     0.293 HD
ENDBRANCH   5  25
BRANCH   7  27
ATOM     27  O   UNL     1     -13.590 -19.834  28.184  1.00  0.00    -0.507 OA
ATOM     28  H   UNL     1     -14.267 -20.021  27.461  1.00  0.00     0.293 HD
ENDBRANCH   7  27
TORSDOF 7
ENDMDL
MODEL 7
REMARK VINA RESULT:    -2.912      1.598      7.327
REMARK INTER + INTRA:          -3.898
REMARK INTER:                  -3.750
REMARK INTRA:                  -0.148
REMARK UNBOUND:                -0.305
REMARK SMILES Oc1cc(O)c2cc(O)c(-c3cc(O)c(O)c(O)c3)[o+]c2c1
REMARK SMILES IDX 10 1 20 2 21 3 22 4 2 5 3 6 4 7 6 8 7 9 8 10 11 11 12 12
REMARK SMILES IDX 13 13 19 14 15 15 17 16 14 17 16 19 18 21 9 23 1 25 5 27
REMARK H PARENT 14 18 16 20 18 22 9 24 1 26 5 28
REMARK Flexibility Score: inf
ROOT
ATOM      1  C   UNL     1     -11.838 -16.123  32.090  1.00  0.00     0.402 A 
ATOM      2  O   UNL     1     -12.711 -17.099  31.856  1.00  0.00    -0.202 OA
ATOM      3  C   UNL     1     -12.725 -17.813  30.736  1.00  0.00     0.368 A 
ATOM      4  C   UNL     1     -13.686 -18.817  30.581  1.00  0.00     0.162 A 
ATOM      5  C   UNL     1     -13.725 -19.581  29.415  1.00  0.00     0.128 A 
ATOM      6  C   UNL     1     -12.800 -19.341  28.393  1.00  0.00     0.093 A 
ATOM      7  C   UNL     1     -11.827 -18.342  28.523  1.00  0.00     0.136 A 
ATOM      8  C   UNL     1     -11.782 -17.564  29.710  1.00  0.00     0.125 A 
ATOM      9  C   UNL     1     -10.835 -16.551  29.934  1.00  0.00     0.078 A 
ATOM     10  C   UNL     1     -10.850 -15.829  31.131  1.00  0.00     0.223 A 
ENDROOT
BRANCH   1  11
ATOM     11  C   UNL     1     -11.932 -15.391  33.374  1.00  0.00     0.091 A 
ATOM     12  C   UNL     1     -10.852 -15.348  34.272  1.00  0.00     0.068 A 
ATOM     13  C   UNL     1     -10.952 -14.632  35.473  1.00  0.00     0.162 A 
ATOM     14  C   UNL     1     -13.102 -14.679  33.678  1.00  0.00     0.068 A 
ATOM     15  C   UNL     1     -12.136 -13.939  35.779  1.00  0.00     0.200 A 
ATOM     16  C   UNL     1     -13.210 -13.962  34.874  1.00  0.00     0.162 A 
BRANCH  13  17
ATOM     17  O   UNL     1      -9.876 -14.600  36.359  1.00  0.00    -0.504 OA
ATOM     18  H   UNL     1      -9.024 -14.097  36.143  1.00  0.00     0.293 HD
ENDBRANCH  13  17
BRANCH  15  19
ATOM     19  O   UNL     1     -12.254 -13.224  36.972  1.00  0.00    -0.502 OA
ATOM     20  H   UNL     1     -12.949 -13.453  37.672  1.00  0.00     0.293 HD
ENDBRANCH  15  19
BRANCH  16  21
ATOM     21  O   UNL     1     -14.396 -13.279  35.146  1.00  0.00    -0.504 OA
ATOM     22  H   UNL     1     -14.408 -12.397  35.643  1.00  0.00     0.293 HD
ENDBRANCH  16  21
ENDBRANCH   1  11
BRANCH  10  23
ATOM     23  O   UNL     1      -9.880 -14.858  31.374  1.00  0.00    -0.500 OA
ATOM     24  H   UNL     1      -9.668 -14.539  32.312  1.00  0.00     0.294 HD
ENDBRANCH  10  23
BRANCH   5  25
ATOM     25  O   UNL     1     -14.691 -20.576  29.280  1.00  0.00    -0.507 OA
ATOM     26  H   UNL     1     -14.579 -21.485  29.714  1.00  0.00     0.293 HD
ENDBRANCH   5  25
BRANCH   7  27
ATOM     27  O   UNL     1     -10.941 -18.163  27.458  1.00  0.00    -0.507 OA
ATOM     28  H   UNL     1     -11.125 -17.582  26.654  1.00  0.00     0.293 HD
ENDBRANCH   7  27
TORSDOF 7
ENDMDL
MODEL 8
REMARK VINA RESULT:    -2.855      1.623      7.428
REMARK INTER + INTRA:          -3.827
REMARK INTER:                  -3.845
REMARK INTRA:                   0.018
REMARK UNBOUND:                -0.305
REMARK SMILES Oc1cc(O)c2cc(O)c(-c3cc(O)c(O)c(O)c3)[o+]c2c1
REMARK SMILES IDX 10 1 20 2 21 3 22 4 2 5 3 6 4 7 6 8 7 9 8 10 11 11 12 12
REMARK SMILES IDX 13 13 19 14 15 15 17 16 14 17 16 19 18 21 9 23 1 25 5 27
REMARK H PARENT 14 18 16 20 18 22 9 24 1 26 5 28
REMARK Flexibility Score: inf
ROOT
ATOM      1  C   UNL     1     -11.517 -15.870  33.117  1.00  0.00     0.402 A 
ATOM      2  O   UNL     1     -12.195 -15.740  31.979  1.00  0.00    -0.202 OA
ATOM      3  C   UNL     1     -12.055 -16.565  30.947  1.00  0.00     0.368 A 
ATOM      4  C   UNL     1     -12.810 -16.343  29.792  1.00  0.00     0.162 A 
ATOM      5  C   UNL     1     -12.682 -17.193  28.692  1.00  0.00     0.128 A 
ATOM      6  C   UNL     1     -11.792 -18.271  28.744  1.00  0.00     0.093 A 
ATOM      7  C   UNL     1     -11.024 -18.515  29.890  1.00  0.00     0.136 A 
ATOM      8  C   UNL     1     -11.154 -17.654  31.012  1.00  0.00     0.125 A 
ATOM      9  C   UNL     1     -10.435 -17.830  32.206  1.00  0.00     0.078 A 
ATOM     10  C   UNL     1     -10.620 -16.943  33.272  1.00  0.00     0.223 A 
ENDROOT
BRANCH   1  11
ATOM     11  C   UNL     1     -11.753 -14.879  34.191  1.00  0.00     0.091 A 
ATOM     12  C   UNL     1     -10.693 -14.358  34.952  1.00  0.00     0.068 A 
ATOM     13  C   UNL     1     -10.934 -13.403  35.950  1.00  0.00     0.162 A 
ATOM     14  C   UNL     1     -13.055 -14.406  34.419  1.00  0.00     0.068 A 
ATOM     15  C   UNL     1     -12.244 -12.952  36.186  1.00  0.00     0.200 A 
ATOM     16  C   UNL     1     -13.304 -13.455  35.413  1.00  0.00     0.162 A 
BRANCH  13  17
ATOM     17  O   UNL     1      -9.875 -12.898  36.702  1.00  0.00    -0.504 OA
ATOM     18  H   UNL     1      -9.999 -12.122  37.341  1.00  0.00     0.293 HD
ENDBRANCH  13  17
BRANCH  15  19
ATOM     19  O   UNL     1     -12.503 -12.005  37.179  1.00  0.00    -0.502 OA
ATOM     20  H   UNL     1     -11.859 -11.834  37.942  1.00  0.00     0.293 HD
ENDBRANCH  15  19
BRANCH  16  21
ATOM     21  O   UNL     1     -14.614 -13.021  35.619  1.00  0.00    -0.504 OA
ATOM     22  H   UNL     1     -15.305 -13.020  34.878  1.00  0.00     0.293 HD
ENDBRANCH  16  21
ENDBRANCH   1  11
BRANCH  10  23
ATOM     23  O   UNL     1      -9.944 -17.145  34.474  1.00  0.00    -0.500 OA
ATOM     24  H   UNL     1      -8.952 -17.350  34.500  1.00  0.00     0.294 HD
ENDBRANCH  10  23
BRANCH   5  25
ATOM     25  O   UNL     1     -13.443 -16.955  27.550  1.00  0.00    -0.507 OA
ATOM     26  H   UNL     1     -14.339 -16.483  27.599  1.00  0.00     0.293 HD
ENDBRANCH   5  25
BRANCH   7  27
ATOM     27  O   UNL     1     -10.157 -19.610  29.863  1.00  0.00    -0.507 OA
ATOM     28  H   UNL     1      -9.709 -19.963  29.030  1.00  0.00     0.293 HD
ENDBRANCH   7  27
TORSDOF 7
ENDMDL
MODEL 9
REMARK VINA RESULT:    -2.558      1.491      7.289
REMARK INTER + INTRA:          -3.461
REMARK INTER:                  -3.286
REMARK INTRA:                  -0.175
REMARK UNBOUND:                -0.305
REMARK SMILES Oc1cc(O)c2cc(O)c(-c3cc(O)c(O)c(O)c3)[o+]c2c1
REMARK SMILES IDX 10 1 20 2 21 3 22 4 2 5 3 6 4 7 6 8 7 9 8 10 11 11 12 12
REMARK SMILES IDX 13 13 19 14 15 15 17 16 14 17 16 19 18 21 9 23 1 25 5 27
REMARK H PARENT 14 18 16 20 18 22 9 24 1 26 5 28
REMARK Flexibility Score: inf
ROOT
ATOM      1  C   UNL     1     -12.572 -16.245  31.884  1.00  0.00     0.402 A 
ATOM      2  O   UNL     1     -12.958 -15.590  30.792  1.00  0.00    -0.202 OA
ATOM      3  C   UNL     1     -13.115 -16.172  29.608  1.00  0.00     0.368 A 
ATOM      4  C   UNL     1     -13.521 -15.397  28.518  1.00  0.00     0.162 A 
ATOM      5  C   UNL     1     -13.691 -15.982  27.262  1.00  0.00     0.128 A 
ATOM      6  C   UNL     1     -13.452 -17.350  27.092  1.00  0.00     0.093 A 
ATOM      7  C   UNL     1     -13.044 -18.148  28.169  1.00  0.00     0.136 A 
ATOM      8  C   UNL     1     -12.873 -17.557  29.448  1.00  0.00     0.125 A 
ATOM      9  C   UNL     1     -12.480 -18.281  30.586  1.00  0.00     0.078 A 
ATOM     10  C   UNL     1     -12.336 -17.631  31.816  1.00  0.00     0.223 A 
ENDROOT
BRANCH   1  11
ATOM     11  C   UNL     1     -12.423 -15.481  33.144  1.00  0.00     0.091 A 
ATOM     12  C   UNL     1     -11.210 -15.469  33.853  1.00  0.00     0.068 A 
ATOM     13  C   UNL     1     -11.082 -14.722  35.033  1.00  0.00     0.162 A 
ATOM     14  C   UNL     1     -13.496 -14.709  33.613  1.00  0.00     0.068 A 
ATOM     15  C   UNL     1     -12.170 -13.969  35.506  1.00  0.00     0.200 A 
ATOM     16  C   UNL     1     -13.378 -13.962  34.789  1.00  0.00     0.162 A 
BRANCH  13  17
ATOM     17  O   UNL     1      -9.875 -14.722  35.731  1.00  0.00    -0.504 OA
ATOM     18  H   UNL     1      -9.845 -14.668  36.741  1.00  0.00     0.293 HD
ENDBRANCH  13  17
BRANCH  15  19
ATOM     19  O   UNL     1     -12.061 -13.223  36.682  1.00  0.00    -0.502 OA
ATOM     20  H   UNL     1     -11.481 -13.520  37.457  1.00  0.00     0.293 HD
ENDBRANCH  15  19
BRANCH  16  21
ATOM     21  O   UNL     1     -14.472 -13.218  35.230  1.00  0.00    -0.504 OA
ATOM     22  H   UNL     1     -15.062 -13.527  35.993  1.00  0.00     0.293 HD
ENDBRANCH  16  21
ENDBRANCH   1  11
BRANCH  10  23
ATOM     23  O   UNL     1     -11.994 -18.358  32.955  1.00  0.00    -0.500 OA
ATOM     24  H   UNL     1     -11.029 -18.498  33.228  1.00  0.00     0.294 HD
ENDBRANCH  10  23
BRANCH   5  25
ATOM     25  O   UNL     1     -14.096 -15.193  26.189  1.00  0.00    -0.507 OA
ATOM     26  H   UNL     1     -15.076 -15.001  26.012  1.00  0.00     0.293 HD
ENDBRANCH   5  25
BRANCH   7  27
ATOM     27  O   UNL     1     -12.823 -19.505  27.917  1.00  0.00    -0.507 OA
ATOM     28  H   UNL     1     -12.715 -20.207  28.634  1.00  0.00     0.293 HD
ENDBRANCH   7  27
TORSDOF 7
ENDMDL
