MODEL 1
REMARK VINA RESULT:    -4.529      0.000      0.000
REMARK INTER + INTRA:          -4.561
REMARK INTER:                  -5.588
REMARK INTRA:                   1.027
REMARK UNBOUND:                 1.027
REMARK SMILES CC1=CC=CC(C)(C)CC1=O
REMARK SMILES IDX 1 1 2 2 3 3 10 4 11 5 9 6 4 8 5 9 6 10 7 11 8 12
REMARK H PARENT
REMARK Flexibility Score: 80.00
ROOT
ATOM      1  C   UNL     1     103.549  48.429  52.473  1.00  0.00     0.048 C 
ATOM      2  C   UNL     1     103.399  48.084  53.936  1.00  0.00    -0.008 C 
ATOM      3  C   UNL     1     102.390  47.257  54.284  1.00  0.00     0.007 C 
ENDROOT
BRANCH   2   4
ATOM      4  C   UNL     1     104.422  48.623  54.867  1.00  0.00     0.159 C 
ATOM      5  O   UNL     1     105.160  49.570  54.478  1.00  0.00    -0.295 OA
BRANCH   4   6
ATOM      6  C   UNL     1     104.623  48.112  56.260  1.00  0.00     0.091 CG0
ATOM      7  G   UNL     1     103.365  48.247  57.146  1.00  0.00     0.000 G0
ENDBRANCH   4   6
ENDBRANCH   2   4
BRANCH   3   8
ATOM      8  C   UNL     1     102.011  46.724  55.614  1.00  0.00    -0.003 C 
ATOM      9  C   UNL     1     102.420  47.115  56.828  1.00  0.00    -0.020 C 
BRANCH   9  10
ATOM     10  C   UNL     1     103.375  48.244  57.132  1.00  0.00    -0.010 CG0
ATOM     11  C   UNL     1     103.717  48.254  58.640  1.00  0.00     0.016 C 
ATOM     12  C   UNL     1     102.671  49.578  56.795  1.00  0.00     0.016 C 
ATOM     13  G   UNL     1     104.628  48.121  56.237  1.00  0.00     0.000 G0
ENDBRANCH   9  10
ENDBRANCH   3   8
TORSDOF 0
ENDMDL
MODEL 2
REMARK VINA RESULT:    -4.464      1.675      3.208
REMARK INTER + INTRA:          -4.481
REMARK INTER:                  -5.245
REMARK INTRA:                   0.764
REMARK UNBOUND:                 1.027
REMARK SMILES CC1=CC=CC(C)(C)CC1=O
REMARK SMILES IDX 1 1 2 2 3 3 10 4 11 5 9 6 4 8 5 9 6 10 7 11 8 12
REMARK H PARENT
REMARK Flexibility Score: 80.00
ROOT
ATOM      1  C   UNL     1     101.626  46.458  56.196  1.00  0.00     0.048 C 
ATOM      2  C   UNL     1     102.625  47.210  55.348  1.00  0.00    -0.008 C 
ATOM      3  C   UNL     1     102.454  47.185  54.008  1.00  0.00     0.007 C 
ENDROOT
BRANCH   2   4
ATOM      4  C   UNL     1     103.672  47.982  56.062  1.00  0.00     0.159 C 
ATOM      5  O   UNL     1     103.571  48.135  57.311  1.00  0.00    -0.295 OA
BRANCH   4   6
ATOM      6  C   UNL     1     104.863  48.585  55.382  1.00  0.00     0.091 CG0
ATOM      7  G   UNL     1     104.486  49.602  54.282  1.00  0.00     0.000 G0
ENDBRANCH   4   6
ENDBRANCH   2   4
BRANCH   3   8
ATOM      8  C   UNL     1     103.241  47.838  52.936  1.00  0.00    -0.003 C 
ATOM      9  C   UNL     1     104.097  48.865  53.023  1.00  0.00    -0.020 C 
BRANCH   9  10
ATOM     10  C   UNL     1     104.490  49.601  54.281  1.00  0.00    -0.010 CG0
ATOM     11  C   UNL     1     103.353  50.556  54.711  1.00  0.00     0.016 C 
ATOM     12  C   UNL     1     105.739  50.457  53.972  1.00  0.00     0.016 C 
ATOM     13  G   UNL     1     104.864  48.586  55.384  1.00  0.00     0.000 G0
ENDBRANCH   9  10
ENDBRANCH   3   8
TORSDOF 0
ENDMDL
MODEL 3
REMARK VINA RESULT:    -4.392      8.331      9.604
REMARK INTER + INTRA:          -4.391
REMARK INTER:                  -5.154
REMARK INTRA:                   0.762
REMARK UNBOUND:                 1.027
REMARK SMILES CC1=CC=CC(C)(C)CC1=O
REMARK SMILES IDX 1 1 2 2 3 3 10 4 11 5 9 6 4 8 5 9 6 10 7 11 8 12
REMARK H PARENT
REMARK Flexibility Score: 80.00
ROOT
ATOM      1  C   UNL     1     108.950  46.055  62.370  1.00  0.00     0.048 C 
ATOM      2  C   UNL     1     108.292  46.987  63.360  1.00  0.00    -0.008 C 
ATOM      3  C   UNL     1     108.506  46.758  64.673  1.00  0.00     0.007 C 
ENDROOT
BRANCH   2   4
ATOM      4  C   UNL     1     107.523  48.129  62.804  1.00  0.00     0.159 C 
ATOM      5  O   UNL     1     107.606  48.376  61.569  1.00  0.00    -0.295 OA
BRANCH   4   6
ATOM      6  C   UNL     1     106.635  49.007  63.631  1.00  0.00     0.091 CG0
ATOM      7  G   UNL     1     107.381  49.721  64.779  1.00  0.00     0.000 G0
ENDBRANCH   4   6
ENDBRANCH   2   4
BRANCH   3   8
ATOM      8  C   UNL     1     108.026  47.504  65.860  1.00  0.00    -0.003 C 
ATOM      9  C   UNL     1     107.555  48.756  65.937  1.00  0.00    -0.020 C 
BRANCH   9  10
ATOM     10  C   UNL     1     107.375  49.719  64.788  1.00  0.00    -0.010 CG0
ATOM     11  C   UNL     1     108.746  50.295  64.361  1.00  0.00     0.016 C 
ATOM     12  C   UNL     1     106.496  50.893  65.273  1.00  0.00     0.016 C 
ATOM     13  G   UNL     1     106.639  49.013  63.627  1.00  0.00     0.000 G0
ENDBRANCH   9  10
ENDBRANCH   3   8
TORSDOF 0
ENDMDL
MODEL 4
REMARK VINA RESULT:    -4.002      1.678      2.539
REMARK INTER + INTRA:          -3.910
REMARK INTER:                  -4.655
REMARK INTRA:                   0.745
REMARK UNBOUND:                 1.027
REMARK SMILES CC1=CC=CC(C)(C)CC1=O
REMARK SMILES IDX 1 1 2 2 3 3 10 4 11 5 9 6 4 8 5 9 6 10 7 11 8 12
REMARK H PARENT
REMARK Flexibility Score: 80.00
ROOT
ATOM      1  C   UNL     1     102.107  47.070  52.499  1.00  0.00     0.048 C 
ATOM      2  C   UNL     1     102.862  47.452  53.751  1.00  0.00    -0.008 C 
ATOM      3  C   UNL     1     103.832  48.385  53.638  1.00  0.00     0.007 C 
ENDROOT
BRANCH   2   4
ATOM      4  C   UNL     1     102.423  46.824  55.023  1.00  0.00     0.159 C 
ATOM      5  O   UNL     1     101.346  46.166  55.037  1.00  0.00    -0.295 OA
BRANCH   4   6
ATOM      6  C   UNL     1     103.199  46.915  56.300  1.00  0.00     0.091 CG0
ATOM      7  G   UNL     1     103.420  48.368  56.776  1.00  0.00     0.000 G0
ENDBRANCH   4   6
ENDBRANCH   2   4
BRANCH   3   8
ATOM      8  C   UNL     1     104.711  48.975  54.675  1.00  0.00    -0.003 C 
ATOM      9  C   UNL     1     104.557  48.985  56.006  1.00  0.00    -0.020 C 
BRANCH   9  10
ATOM     10  C   UNL     1     103.427  48.353  56.783  1.00  0.00    -0.010 CG0
ATOM     11  C   UNL     1     102.161  49.235  56.685  1.00  0.00     0.016 C 
ATOM     12  C   UNL     1     103.843  48.282  58.270  1.00  0.00     0.016 C 
ATOM     13  G   UNL     1     103.190  46.912  56.280  1.00  0.00     0.000 G0
ENDBRANCH   9  10
ENDBRANCH   3   8
TORSDOF 0
ENDMDL
MODEL 5
REMARK VINA RESULT:    -3.742      7.388      9.655
REMARK INTER + INTRA:          -3.590
REMARK INTER:                  -4.650
REMARK INTRA:                   1.060
REMARK UNBOUND:                 1.027
REMARK SMILES CC1=CC=CC(C)(C)CC1=O
REMARK SMILES IDX 1 1 2 2 3 3 10 4 11 5 9 6 4 8 5 9 6 10 7 11 8 12
REMARK H PARENT
REMARK Flexibility Score: 80.00
ROOT
ATOM      1  C   UNL     1     107.939  48.462  66.740  1.00  0.00     0.048 C 
ATOM      2  C   UNL     1     107.977  47.958  65.316  1.00  0.00    -0.008 C 
ATOM      3  C   UNL     1     108.502  46.734  65.098  1.00  0.00     0.007 C 
ENDROOT
BRANCH   2   4
ATOM      4  C   UNL     1     107.362  48.823  64.277  1.00  0.00     0.159 C 
ATOM      5  O   UNL     1     107.128  50.032  64.552  1.00  0.00    -0.295 OA
BRANCH   4   6
ATOM      6  C   UNL     1     107.012  48.341  62.903  1.00  0.00     0.091 CG0
ATOM      7  G   UNL     1     108.227  47.798  62.119  1.00  0.00     0.000 G0
ENDBRANCH   4   6
ENDBRANCH   2   4
BRANCH   3   8
ATOM      8  C   UNL     1     108.649  45.971  63.836  1.00  0.00    -0.003 C 
ATOM      9  C   UNL     1     108.522  46.398  62.573  1.00  0.00    -0.020 C 
BRANCH   9  10
ATOM     10  C   UNL     1     108.215  47.808  62.128  1.00  0.00    -0.010 CG0
ATOM     11  C   UNL     1     108.004  47.845  60.597  1.00  0.00     0.016 C 
ATOM     12  C   UNL     1     109.434  48.698  62.462  1.00  0.00     0.016 C 
ATOM     13  G   UNL     1     106.997  48.347  62.911  1.00  0.00     0.000 G0
ENDBRANCH   9  10
ENDBRANCH   3   8
TORSDOF 0
ENDMDL
MODEL 6
REMARK VINA RESULT:    -3.728      9.394     10.344
REMARK INTER + INTRA:          -3.572
REMARK INTER:                  -4.323
REMARK INTRA:                   0.751
REMARK UNBOUND:                 1.027
REMARK SMILES CC1=CC=CC(C)(C)CC1=O
REMARK SMILES IDX 1 1 2 2 3 3 10 4 11 5 9 6 4 8 5 9 6 10 7 11 8 12
REMARK H PARENT
REMARK Flexibility Score: 80.00
ROOT
ATOM      1  C   UNL     1     108.365  45.098  64.475  1.00  0.00     0.048 C 
ATOM      2  C   UNL     1     108.551  46.583  64.275  1.00  0.00    -0.008 C 
ATOM      3  C   UNL     1     108.903  47.010  63.043  1.00  0.00     0.007 C 
ENDROOT
BRANCH   2   4
ATOM      4  C   UNL     1     108.255  47.464  65.433  1.00  0.00     0.159 C 
ATOM      5  O   UNL     1     107.684  46.969  66.444  1.00  0.00    -0.295 OA
BRANCH   4   6
ATOM      6  C   UNL     1     108.610  48.918  65.477  1.00  0.00     0.091 CG0
ATOM      7  G   UNL     1     107.970  49.737  64.335  1.00  0.00     0.000 G0
ENDBRANCH   4   6
ENDBRANCH   2   4
BRANCH   3   8
ATOM      8  C   UNL     1     109.128  48.386  62.540  1.00  0.00    -0.003 C 
ATOM      9  C   UNL     1     108.731  49.552  63.066  1.00  0.00    -0.020 C 
BRANCH   9  10
ATOM     10  C   UNL     1     107.959  49.741  64.350  1.00  0.00    -0.010 CG0
ATOM     11  C   UNL     1     106.469  49.393  64.126  1.00  0.00     0.016 C 
ATOM     12  C   UNL     1     108.044  51.231  64.752  1.00  0.00     0.016 C 
ATOM     13  G   UNL     1     108.605  48.902  65.474  1.00  0.00     0.000 G0
ENDBRANCH   9  10
ENDBRANCH   3   8
TORSDOF 0
ENDMDL
MODEL 7
REMARK VINA RESULT:    -3.544      8.108      9.932
REMARK INTER + INTRA:          -3.345
REMARK INTER:                  -4.101
REMARK INTRA:                   0.756
REMARK UNBOUND:                 1.027
REMARK SMILES CC1=CC=CC(C)(C)CC1=O
REMARK SMILES IDX 1 1 2 2 3 3 10 4 11 5 9 6 4 8 5 9 6 10 7 11 8 12
REMARK H PARENT
REMARK Flexibility Score: 80.00
ROOT
ATOM      1  C   UNL     1     107.989  52.128  64.867  1.00  0.00     0.048 C 
ATOM      2  C   UNL     1     108.108  50.630  64.720  1.00  0.00    -0.008 C 
ATOM      3  C   UNL     1     107.361  49.858  65.538  1.00  0.00     0.007 C 
ENDROOT
BRANCH   2   4
ATOM      4  C   UNL     1     108.983  50.125  63.631  1.00  0.00     0.159 C 
ATOM      5  O   UNL     1     109.412  50.940  62.768  1.00  0.00    -0.295 OA
BRANCH   4   6
ATOM      6  C   UNL     1     109.402  48.693  63.504  1.00  0.00     0.091 CG0
ATOM      7  G   UNL     1     108.211  47.722  63.349  1.00  0.00     0.000 G0
ENDBRANCH   4   6
ENDBRANCH   2   4
BRANCH   3   8
ATOM      8  C   UNL     1     107.245  48.383  65.612  1.00  0.00    -0.003 C 
ATOM      9  C   UNL     1     107.585  47.463  64.699  1.00  0.00    -0.020 C 
BRANCH   9  10
ATOM     10  C   UNL     1     108.210  47.725  63.350  1.00  0.00    -0.010 CG0
ATOM     11  C   UNL     1     107.138  48.247  62.365  1.00  0.00     0.016 C 
ATOM     12  C   UNL     1     108.752  46.387  62.799  1.00  0.00     0.016 C 
ATOM     13  G   UNL     1     109.399  48.698  63.507  1.00  0.00     0.000 G0
ENDBRANCH   9  10
ENDBRANCH   3   8
TORSDOF 0
ENDMDL
MODEL 8
REMARK VINA RESULT:    -3.544      1.838      2.742
REMARK INTER + INTRA:          -3.345
REMARK INTER:                  -4.099
REMARK INTRA:                   0.754
REMARK UNBOUND:                 1.027
REMARK SMILES CC1=CC=CC(C)(C)CC1=O
REMARK SMILES IDX 1 1 2 2 3 3 10 4 11 5 9 6 4 8 5 9 6 10 7 11 8 12
REMARK H PARENT
REMARK Flexibility Score: 80.00
ROOT
ATOM      1  C   UNL     1     104.357  51.738  54.027  1.00  0.00     0.048 C 
ATOM      2  C   UNL     1     103.791  50.350  54.215  1.00  0.00    -0.008 C 
ATOM      3  C   UNL     1     104.214  49.382  53.375  1.00  0.00     0.007 C 
ENDROOT
BRANCH   2   4
ATOM      4  C   UNL     1     102.871  50.146  55.363  1.00  0.00     0.159 C 
ATOM      5  O   UNL     1     102.779  51.050  56.238  1.00  0.00    -0.295 OA
BRANCH   4   6
ATOM      6  C   UNL     1     102.026  48.921  55.536  1.00  0.00     0.091 CG0
ATOM      7  G   UNL     1     102.853  47.620  55.639  1.00  0.00     0.000 G0
ENDBRANCH   4   6
ENDBRANCH   2   4
BRANCH   3   8
ATOM      8  C   UNL     1     103.866  47.942  53.329  1.00  0.00    -0.003 C 
ATOM      9  C   UNL     1     103.305  47.179  54.276  1.00  0.00    -0.020 C 
BRANCH   9  10
ATOM     10  C   UNL     1     102.859  47.632  55.646  1.00  0.00    -0.010 CG0
ATOM     11  C   UNL     1     104.084  47.786  56.576  1.00  0.00     0.016 C 
ATOM     12  C   UNL     1     101.942  46.539  56.242  1.00  0.00     0.016 C 
ATOM     13  G   UNL     1     102.037  48.934  55.521  1.00  0.00     0.000 G0
ENDBRANCH   9  10
ENDBRANCH   3   8
TORSDOF 0
ENDMDL
MODEL 9
REMARK VINA RESULT:    -3.003      8.142      9.894
REMARK INTER + INTRA:          -2.678
REMARK INTER:                  -3.742
REMARK INTRA:                   1.064
REMARK UNBOUND:                 1.027
REMARK SMILES CC1=CC=CC(C)(C)CC1=O
REMARK SMILES IDX 1 1 2 2 3 3 10 4 11 5 9 6 4 8 5 9 6 10 7 11 8 12
REMARK H PARENT
REMARK Flexibility Score: 80.00
ROOT
ATOM      1  C   UNL     1     106.746  51.054  65.397  1.00  0.00     0.048 C 
ATOM      2  C   UNL     1     107.552  50.032  64.630  1.00  0.00    -0.008 C 
ATOM      3  C   UNL     1     108.534  50.487  63.822  1.00  0.00     0.007 C 
ENDROOT
BRANCH   2   4
ATOM      4  C   UNL     1     107.250  48.602  64.886  1.00  0.00     0.159 C 
ATOM      5  O   UNL     1     106.173  48.303  65.472  1.00  0.00    -0.295 OA
BRANCH   4   6
ATOM      6  C   UNL     1     108.152  47.480  64.474  1.00  0.00     0.091 CG0
ATOM      7  G   UNL     1     108.399  47.424  62.950  1.00  0.00     0.000 G0
ENDBRANCH   4   6
ENDBRANCH   2   4
BRANCH   3   8
ATOM      8  C   UNL     1     109.496  49.740  62.978  1.00  0.00    -0.003 C 
ATOM      9  C   UNL     1     109.469  48.454  62.605  1.00  0.00    -0.020 C 
BRANCH   9  10
ATOM     10  C   UNL     1     108.403  47.441  62.949  1.00  0.00    -0.010 CG0
ATOM     11  C   UNL     1     108.817  46.043  62.436  1.00  0.00     0.016 C 
ATOM     12  C   UNL     1     107.098  47.846  62.227  1.00  0.00     0.016 C 
ATOM     13  G   UNL     1     108.137  47.463  64.471  1.00  0.00     0.000 G0
ENDBRANCH   9  10
ENDBRANCH   3   8
TORSDOF 0
ENDMDL
