MODEL 1
REMARK VINA RESULT:    -4.971      0.000      0.000
REMARK INTER + INTRA:         -14.352
REMARK INTER:                 -10.784
REMARK INTRA:                  -3.568
REMARK UNBOUND:                -3.568
REMARK SMILES CCCCCCCCCCCCCCCCCCCCCC(=O)[O-]
REMARK SMILES IDX 12 1 11 2 10 3 9 4 8 5 7 6 6 7 5 8 4 9 3 10 2 11 1 12 13 13
REMARK SMILES IDX 14 14 15 15 16 16 17 17 18 18 19 19 20 20 21 21 22 22 23 23
REMARK SMILES IDX 24 24
REMARK H PARENT
REMARK Flexibility Score: inf
ROOT
ATOM      1  C   UNL     1       9.778  15.885   5.559  1.00  0.00     0.000 C 
ENDROOT
BRANCH   1   2
ATOM      2  C   UNL     1      10.462  14.948   6.568  1.00  0.00     0.000 C 
BRANCH   2   3
ATOM      3  C   UNL     1      11.957  14.743   6.268  1.00  0.00     0.000 C 
BRANCH   3   4
ATOM      4  C   UNL     1      12.349  13.257   6.234  1.00  0.00    -0.000 C 
BRANCH   4   5
ATOM      5  C   UNL     1      13.249  12.912   5.038  1.00  0.00    -0.000 C 
BRANCH   5   6
ATOM      6  C   UNL     1      12.713  11.686   4.282  1.00  0.00    -0.000 C 
BRANCH   6   7
ATOM      7  C   UNL     1      11.178  11.628   4.253  1.00  0.00    -0.000 C 
BRANCH   7   8
ATOM      8  C   UNL     1      10.632  10.227   4.582  1.00  0.00    -0.000 C 
BRANCH   8   9
ATOM      9  C   UNL     1       9.906  10.180   5.936  1.00  0.00    -0.000 C 
BRANCH   9  10
ATOM     10  C   UNL     1       9.347  11.545   6.360  1.00  0.00    -0.000 C 
BRANCH  10  11
ATOM     11  C   UNL     1       7.862  11.666   6.000  1.00  0.00    -0.003 C 
ATOM     12  C   UNL     1       7.149  12.657   6.916  1.00  0.00     0.004 C 
ENDBRANCH  10  11
ENDBRANCH   9  10
ENDBRANCH   8   9
ENDBRANCH   7   8
ENDBRANCH   6   7
ENDBRANCH   5   6
ENDBRANCH   4   5
ENDBRANCH   3   4
ENDBRANCH   2   3
ENDBRANCH   1   2
BRANCH   1  13
ATOM     13  C   UNL     1       8.696  15.179   4.727  1.00  0.00     0.000 C 
BRANCH  13  14
ATOM     14  C   UNL     1       9.288  14.594   3.440  1.00  0.00     0.000 C 
BRANCH  14  15
ATOM     15  C   UNL     1      10.337  15.540   2.836  1.00  0.00     0.000 C 
BRANCH  15  16
ATOM     16  C   UNL     1      11.597  14.798   2.362  1.00  0.00     0.000 C 
BRANCH  16  17
ATOM     17  C   UNL     1      12.067  15.260   0.971  1.00  0.00     0.000 C 
BRANCH  17  18
ATOM     18  C   UNL     1      13.502  14.808   0.654  1.00  0.00     0.000 C 
BRANCH  18  19
ATOM     19  C   UNL     1      13.829  13.429   1.251  1.00  0.00     0.000 C 
BRANCH  19  20
ATOM     20  C   UNL     1      15.172  13.408   1.997  1.00  0.00     0.006 C 
BRANCH  20  21
ATOM     21  C   UNL     1      15.629  14.805   2.438  1.00  0.00     0.053 C 
BRANCH  21  22
ATOM     22  C   UNL     1      16.967  14.731   3.103  1.00  0.00     0.041 C 
ATOM     23  O   UNL     1      17.361  13.650   3.615  1.00  0.00    -0.550 OA
ATOM     24  O   UNL     1      17.760  15.868   3.199  1.00  0.00    -0.550 OA
ENDBRANCH  21  22
ENDBRANCH  20  21
ENDBRANCH  19  20
ENDBRANCH  18  19
ENDBRANCH  17  18
ENDBRANCH  16  17
ENDBRANCH  15  16
ENDBRANCH  14  15
ENDBRANCH  13  14
ENDBRANCH   1  13
TORSDOF 20
ENDMDL
MODEL 2
REMARK VINA RESULT:    -4.845      1.196      2.756
REMARK INTER + INTRA:         -14.078
REMARK INTER:                 -10.571
REMARK INTRA:                  -3.506
REMARK UNBOUND:                -3.568
REMARK SMILES CCCCCCCCCCCCCCCCCCCCCC(=O)[O-]
REMARK SMILES IDX 12 1 11 2 10 3 9 4 8 5 7 6 6 7 5 8 4 9 3 10 2 11 1 12 13 13
REMARK SMILES IDX 14 14 15 15 16 16 17 17 18 18 19 19 20 20 21 21 22 22 23 23
REMARK SMILES IDX 24 24
REMARK H PARENT
REMARK Flexibility Score: inf
ROOT
ATOM      1  C   UNL     1      11.598  15.260   6.260  1.00  0.00     0.000 C 
ENDROOT
BRANCH   1   2
ATOM      2  C   UNL     1      10.065  15.274   6.368  1.00  0.00     0.000 C 
BRANCH   2   3
ATOM      3  C   UNL     1       9.376  15.510   5.013  1.00  0.00     0.000 C 
BRANCH   3   4
ATOM      4  C   UNL     1       9.594  14.344   4.035  1.00  0.00    -0.000 C 
BRANCH   4   5
ATOM      5  C   UNL     1       8.567  13.217   4.223  1.00  0.00    -0.000 C 
BRANCH   5   6
ATOM      6  C   UNL     1       9.222  11.840   4.032  1.00  0.00    -0.000 C 
BRANCH   6   7
ATOM      7  C   UNL     1       8.889  10.859   5.167  1.00  0.00    -0.000 C 
BRANCH   7   8
ATOM      8  C   UNL     1       9.784  11.058   6.403  1.00  0.00    -0.000 C 
BRANCH   8   9
ATOM      9  C   UNL     1       8.976  11.182   7.704  1.00  0.00    -0.000 C 
BRANCH   9  10
ATOM     10  C   UNL     1       9.276  12.478   8.470  1.00  0.00    -0.000 C 
BRANCH  10  11
ATOM     11  C   UNL     1       8.001  13.306   8.668  1.00  0.00    -0.003 C 
ATOM     12  C   UNL     1       6.988  13.037   7.560  1.00  0.00     0.004 C 
ENDBRANCH  10  11
ENDBRANCH   9  10
ENDBRANCH   8   9
ENDBRANCH   7   8
ENDBRANCH   6   7
ENDBRANCH   5   6
ENDBRANCH   4   5
ENDBRANCH   3   4
ENDBRANCH   2   3
ENDBRANCH   1   2
BRANCH   1  13
ATOM     13  C   UNL     1      12.216  13.928   6.711  1.00  0.00     0.000 C 
BRANCH  13  14
ATOM     14  C   UNL     1      13.292  13.460   5.725  1.00  0.00     0.000 C 
BRANCH  14  15
ATOM     15  C   UNL     1      12.805  12.252   4.911  1.00  0.00     0.000 C 
BRANCH  15  16
ATOM     16  C   UNL     1      13.360  12.244   3.478  1.00  0.00     0.000 C 
BRANCH  16  17
ATOM     17  C   UNL     1      12.383  12.863   2.462  1.00  0.00     0.000 C 
BRANCH  17  18
ATOM     18  C   UNL     1      13.106  13.619   1.334  1.00  0.00     0.000 C 
BRANCH  18  19
ATOM     19  C   UNL     1      14.611  13.783   1.608  1.00  0.00     0.000 C 
BRANCH  19  20
ATOM     20  C   UNL     1      14.998  15.231   1.945  1.00  0.00     0.006 C 
BRANCH  20  21
ATOM     21  C   UNL     1      15.680  15.361   3.313  1.00  0.00     0.053 C 
BRANCH  21  22
ATOM     22  C   UNL     1      17.132  15.013   3.209  1.00  0.00     0.041 C 
ATOM     23  O   UNL     1      17.515  13.831   3.412  1.00  0.00    -0.550 OA
ATOM     24  O   UNL     1      18.066  16.003   2.933  1.00  0.00    -0.550 OA
ENDBRANCH  21  22
ENDBRANCH  20  21
ENDBRANCH  19  20
ENDBRANCH  18  19
ENDBRANCH  17  18
ENDBRANCH  16  17
ENDBRANCH  15  16
ENDBRANCH  14  15
ENDBRANCH  13  14
ENDBRANCH   1  13
TORSDOF 20
ENDMDL
MODEL 3
REMARK VINA RESULT:    -4.812      1.242      3.820
REMARK INTER + INTRA:         -14.006
REMARK INTER:                 -10.727
REMARK INTRA:                  -3.279
REMARK UNBOUND:                -3.568
REMARK SMILES CCCCCCCCCCCCCCCCCCCCCC(=O)[O-]
REMARK SMILES IDX 12 1 11 2 10 3 9 4 8 5 7 6 6 7 5 8 4 9 3 10 2 11 1 12 13 13
REMARK SMILES IDX 14 14 15 15 16 16 17 17 18 18 19 19 20 20 21 21 22 22 23 23
REMARK SMILES IDX 24 24
REMARK H PARENT
REMARK Flexibility Score: inf
ROOT
ATOM      1  C   UNL     1      12.416  11.702   4.289  1.00  0.00     0.000 C 
ENDROOT
BRANCH   1   2
ATOM      2  C   UNL     1      10.958  11.388   3.917  1.00  0.00     0.000 C 
BRANCH   2   3
ATOM      3  C   UNL     1      10.334  10.312   4.822  1.00  0.00     0.000 C 
BRANCH   3   4
ATOM      4  C   UNL     1       9.070  10.812   5.539  1.00  0.00    -0.000 C 
BRANCH   4   5
ATOM      5  C   UNL     1       9.275  10.969   7.053  1.00  0.00    -0.000 C 
BRANCH   5   6
ATOM      6  C   UNL     1       8.031  11.581   7.716  1.00  0.00    -0.000 C 
BRANCH   6   7
ATOM      7  C   UNL     1       7.249  12.509   6.775  1.00  0.00    -0.000 C 
BRANCH   7   8
ATOM      8  C   UNL     1       7.660  13.985   6.923  1.00  0.00    -0.000 C 
BRANCH   8   9
ATOM      9  C   UNL     1       7.993  14.643   5.575  1.00  0.00    -0.000 C 
BRANCH   9  10
ATOM     10  C   UNL     1       9.455  14.434   5.156  1.00  0.00    -0.000 C 
BRANCH  10  11
ATOM     11  C   UNL     1      10.391  14.517   6.367  1.00  0.00    -0.003 C 
ATOM     12  C   UNL     1      11.368  15.681   6.234  1.00  0.00     0.004 C 
ENDBRANCH  10  11
ENDBRANCH   9  10
ENDBRANCH   8   9
ENDBRANCH   7   8
ENDBRANCH   6   7
ENDBRANCH   5   6
ENDBRANCH   4   5
ENDBRANCH   3   4
ENDBRANCH   2   3
ENDBRANCH   1   2
BRANCH   1  13
ATOM     13  C   UNL     1      12.843  13.122   3.884  1.00  0.00     0.000 C 
BRANCH  13  14
ATOM     14  C   UNL     1      12.596  13.364   2.391  1.00  0.00     0.000 C 
BRANCH  14  15
ATOM     15  C   UNL     1      11.743  14.623   2.171  1.00  0.00     0.000 C 
BRANCH  15  16
ATOM     16  C   UNL     1      12.438  15.655   1.269  1.00  0.00     0.000 C 
BRANCH  16  17
ATOM     17  C   UNL     1      13.450  15.012   0.304  1.00  0.00     0.000 C 
BRANCH  17  18
ATOM     18  C   UNL     1      14.727  15.854   0.141  1.00  0.00     0.000 C 
BRANCH  18  19
ATOM     19  C   UNL     1      15.038  16.696   1.390  1.00  0.00     0.000 C 
BRANCH  19  20
ATOM     20  C   UNL     1      16.245  16.164   2.178  1.00  0.00     0.006 C 
BRANCH  20  21
ATOM     21  C   UNL     1      15.845  15.194   3.297  1.00  0.00     0.053 C 
BRANCH  21  22
ATOM     22  C   UNL     1      16.555  13.887   3.135  1.00  0.00     0.041 C 
ATOM     23  O   UNL     1      16.091  13.006   2.363  1.00  0.00    -0.550 OA
ATOM     24  O   UNL     1      17.704  13.624   3.869  1.00  0.00    -0.550 OA
ENDBRANCH  21  22
ENDBRANCH  20  21
ENDBRANCH  19  20
ENDBRANCH  18  19
ENDBRANCH  17  18
ENDBRANCH  16  17
ENDBRANCH  15  16
ENDBRANCH  14  15
ENDBRANCH  13  14
ENDBRANCH   1  13
TORSDOF 20
ENDMDL
MODEL 4
REMARK VINA RESULT:    -4.750      1.156      2.441
REMARK INTER + INTRA:         -13.873
REMARK INTER:                 -10.090
REMARK INTRA:                  -3.782
REMARK UNBOUND:                -3.568
REMARK SMILES CCCCCCCCCCCCCCCCCCCCCC(=O)[O-]
REMARK SMILES IDX 12 1 11 2 10 3 9 4 8 5 7 6 6 7 5 8 4 9 3 10 2 11 1 12 13 13
REMARK SMILES IDX 14 14 15 15 16 16 17 17 18 18 19 19 20 20 21 21 22 22 23 23
REMARK SMILES IDX 24 24
REMARK H PARENT
REMARK Flexibility Score: inf
ROOT
ATOM      1  C   UNL     1      12.083  14.869   4.415  1.00  0.00     0.000 C 
ENDROOT
BRANCH   1   2
ATOM      2  C   UNL     1      12.318  14.281   5.816  1.00  0.00     0.000 C 
BRANCH   2   3
ATOM      3  C   UNL     1      11.993  12.779   5.891  1.00  0.00     0.000 C 
BRANCH   3   4
ATOM      4  C   UNL     1      12.138  12.080   4.530  1.00  0.00    -0.000 C 
BRANCH   4   5
ATOM      5  C   UNL     1      10.928  11.198   4.188  1.00  0.00    -0.000 C 
BRANCH   5   6
ATOM      6  C   UNL     1       9.959  11.110   5.377  1.00  0.00    -0.000 C 
BRANCH   6   7
ATOM      7  C   UNL     1       8.486  11.235   4.957  1.00  0.00    -0.000 C 
BRANCH   7   8
ATOM      8  C   UNL     1       7.830  12.525   5.478  1.00  0.00    -0.000 C 
BRANCH   8   9
ATOM      9  C   UNL     1       8.423  13.790   4.837  1.00  0.00    -0.000 C 
BRANCH   9  10
ATOM     10  C   UNL     1       8.218  15.045   5.696  1.00  0.00    -0.000 C 
BRANCH  10  11
ATOM     11  C   UNL     1       8.891  14.890   7.064  1.00  0.00    -0.003 C 
ATOM     12  C   UNL     1       7.874  14.997   8.197  1.00  0.00     0.004 C 
ENDBRANCH  10  11
ENDBRANCH   9  10
ENDBRANCH   8   9
ENDBRANCH   7   8
ENDBRANCH   6   7
ENDBRANCH   5   6
ENDBRANCH   4   5
ENDBRANCH   3   4
ENDBRANCH   2   3
ENDBRANCH   1   2
BRANCH   1  13
ATOM     13  C   UNL     1      11.551  16.310   4.454  1.00  0.00     0.000 C 
BRANCH  13  14
ATOM     14  C   UNL     1      10.681  16.608   3.229  1.00  0.00     0.000 C 
BRANCH  14  15
ATOM     15  C   UNL     1      10.756  15.461   2.209  1.00  0.00     0.000 C 
BRANCH  15  16
ATOM     16  C   UNL     1      11.272  15.925   0.837  1.00  0.00     0.000 C 
BRANCH  16  17
ATOM     17  C   UNL     1      12.299  14.952   0.231  1.00  0.00     0.000 C 
BRANCH  17  18
ATOM     18  C   UNL     1      13.607  14.899   1.037  1.00  0.00     0.000 C 
BRANCH  18  19
ATOM     19  C   UNL     1      14.031  13.460   1.376  1.00  0.00     0.000 C 
BRANCH  19  20
ATOM     20  C   UNL     1      14.994  13.390   2.571  1.00  0.00     0.006 C 
BRANCH  20  21
ATOM     21  C   UNL     1      15.504  14.770   3.004  1.00  0.00     0.053 C 
BRANCH  21  22
ATOM     22  C   UNL     1      16.981  14.730   3.243  1.00  0.00     0.041 C 
ATOM     23  O   UNL     1      17.691  15.739   2.990  1.00  0.00    -0.550 OA
ATOM     24  O   UNL     1      17.580  13.563   3.701  1.00  0.00    -0.550 OA
ENDBRANCH  21  22
ENDBRANCH  20  21
ENDBRANCH  19  20
ENDBRANCH  18  19
ENDBRANCH  17  18
ENDBRANCH  16  17
ENDBRANCH  15  16
ENDBRANCH  14  15
ENDBRANCH  13  14
ENDBRANCH   1  13
TORSDOF 20
ENDMDL
MODEL 5
REMARK VINA RESULT:    -4.738      1.255      2.563
REMARK INTER + INTRA:         -13.845
REMARK INTER:                 -10.384
REMARK INTRA:                  -3.461
REMARK UNBOUND:                -3.568
REMARK SMILES CCCCCCCCCCCCCCCCCCCCCC(=O)[O-]
REMARK SMILES IDX 12 1 11 2 10 3 9 4 8 5 7 6 6 7 5 8 4 9 3 10 2 11 1 12 13 13
REMARK SMILES IDX 14 14 15 15 16 16 17 17 18 18 19 19 20 20 21 21 22 22 23 23
REMARK SMILES IDX 24 24
REMARK H PARENT
REMARK Flexibility Score: inf
ROOT
ATOM      1  C   UNL     1      12.444  13.184   6.229  1.00  0.00     0.000 C 
ENDROOT
BRANCH   1   2
ATOM      2  C   UNL     1      13.545  13.100   5.160  1.00  0.00     0.000 C 
BRANCH   2   3
ATOM      3  C   UNL     1      13.220  12.085   4.051  1.00  0.00     0.000 C 
BRANCH   3   4
ATOM      4  C   UNL     1      11.988  11.228   4.385  1.00  0.00    -0.000 C 
BRANCH   4   5
ATOM      5  C   UNL     1      10.757  11.616   3.554  1.00  0.00    -0.000 C 
BRANCH   5   6
ATOM      6  C   UNL     1       9.468  11.465   4.376  1.00  0.00    -0.000 C 
BRANCH   6   7
ATOM      7  C   UNL     1       9.567  10.364   5.443  1.00  0.00    -0.000 C 
BRANCH   7   8
ATOM      8  C   UNL     1       9.457  10.916   6.875  1.00  0.00    -0.000 C 
BRANCH   8   9
ATOM      9  C   UNL     1       8.878  12.339   6.916  1.00  0.00    -0.000 C 
BRANCH   9  10
ATOM     10  C   UNL     1       7.345  12.361   6.853  1.00  0.00    -0.000 C 
BRANCH  10  11
ATOM     11  C   UNL     1       6.794  13.705   7.342  1.00  0.00    -0.003 C 
ATOM     12  C   UNL     1       7.476  14.873   6.636  1.00  0.00     0.004 C 
ENDBRANCH  10  11
ENDBRANCH   9  10
ENDBRANCH   8   9
ENDBRANCH   7   8
ENDBRANCH   6   7
ENDBRANCH   5   6
ENDBRANCH   4   5
ENDBRANCH   3   4
ENDBRANCH   2   3
ENDBRANCH   1   2
BRANCH   1  13
ATOM     13  C   UNL     1      11.769  14.564   6.284  1.00  0.00     0.000 C 
BRANCH  13  14
ATOM     14  C   UNL     1      11.139  14.921   4.933  1.00  0.00     0.000 C 
BRANCH  14  15
ATOM     15  C   UNL     1      11.767  16.197   4.354  1.00  0.00     0.000 C 
BRANCH  15  16
ATOM     16  C   UNL     1      11.588  16.303   2.830  1.00  0.00     0.000 C 
BRANCH  16  17
ATOM     17  C   UNL     1      11.669  14.935   2.129  1.00  0.00     0.000 C 
BRANCH  17  18
ATOM     18  C   UNL     1      13.061  14.657   1.538  1.00  0.00     0.000 C 
BRANCH  18  19
ATOM     19  C   UNL     1      13.878  15.943   1.330  1.00  0.00     0.000 C 
BRANCH  19  20
ATOM     20  C   UNL     1      15.368  15.760   1.658  1.00  0.00     0.006 C 
BRANCH  20  21
ATOM     21  C   UNL     1      15.602  15.197   3.066  1.00  0.00     0.053 C 
BRANCH  21  22
ATOM     22  C   UNL     1      16.445  13.962   3.002  1.00  0.00     0.041 C 
ATOM     23  O   UNL     1      16.081  12.983   2.298  1.00  0.00    -0.550 OA
ATOM     24  O   UNL     1      17.609  13.875   3.755  1.00  0.00    -0.550 OA
ENDBRANCH  21  22
ENDBRANCH  20  21
ENDBRANCH  19  20
ENDBRANCH  18  19
ENDBRANCH  17  18
ENDBRANCH  16  17
ENDBRANCH  15  16
ENDBRANCH  14  15
ENDBRANCH  13  14
ENDBRANCH   1  13
TORSDOF 20
ENDMDL
MODEL 6
REMARK VINA RESULT:    -4.712      3.424      6.677
REMARK INTER + INTRA:         -13.790
REMARK INTER:                 -10.354
REMARK INTRA:                  -3.436
REMARK UNBOUND:                -3.568
REMARK SMILES CCCCCCCCCCCCCCCCCCCCCC(=O)[O-]
REMARK SMILES IDX 12 1 11 2 10 3 9 4 8 5 7 6 6 7 5 8 4 9 3 10 2 11 1 12 13 13
REMARK SMILES IDX 14 14 15 15 16 16 17 17 18 18 19 19 20 20 21 21 22 22 23 23
REMARK SMILES IDX 24 24
REMARK H PARENT
REMARK Flexibility Score: inf
ROOT
ATOM      1  C   UNL     1      12.166  16.655   6.222  1.00  0.00     0.000 C 
ENDROOT
BRANCH   1   2
ATOM      2  C   UNL     1      13.113  17.303   5.200  1.00  0.00     0.000 C 
BRANCH   2   3
ATOM      3  C   UNL     1      13.669  16.293   4.182  1.00  0.00     0.000 C 
BRANCH   3   4
ATOM      4  C   UNL     1      15.042  16.710   3.632  1.00  0.00    -0.000 C 
BRANCH   4   5
ATOM      5  C   UNL     1      15.851  15.518   3.101  1.00  0.00    -0.000 C 
BRANCH   5   6
ATOM      6  C   UNL     1      15.355  14.199   3.715  1.00  0.00    -0.000 C 
BRANCH   6   7
ATOM      7  C   UNL     1      15.033  13.132   2.657  1.00  0.00    -0.000 C 
BRANCH   7   8
ATOM      8  C   UNL     1      14.575  13.743   1.321  1.00  0.00    -0.000 C 
BRANCH   8   9
ATOM      9  C   UNL     1      13.051  13.929   1.248  1.00  0.00    -0.000 C 
BRANCH   9  10
ATOM     10  C   UNL     1      12.630  15.001   0.234  1.00  0.00    -0.000 C 
BRANCH  10  11
ATOM     11  C   UNL     1      13.585  16.200   0.273  1.00  0.00    -0.003 C 
ATOM     12  C   UNL     1      14.403  16.299  -1.010  1.00  0.00     0.004 C 
ENDBRANCH  10  11
ENDBRANCH   9  10
ENDBRANCH   8   9
ENDBRANCH   7   8
ENDBRANCH   6   7
ENDBRANCH   5   6
ENDBRANCH   4   5
ENDBRANCH   3   4
ENDBRANCH   2   3
ENDBRANCH   1   2
BRANCH   1  13
ATOM     13  C   UNL     1      10.884  16.101   5.580  1.00  0.00     0.000 C 
BRANCH  13  14
ATOM     14  C   UNL     1      10.659  14.639   5.977  1.00  0.00     0.000 C 
BRANCH  14  15
ATOM     15  C   UNL     1      11.904  14.057   6.664  1.00  0.00     0.000 C 
BRANCH  15  16
ATOM     16  C   UNL     1      12.612  13.000   5.801  1.00  0.00     0.000 C 
BRANCH  16  17
ATOM     17  C   UNL     1      11.874  12.722   4.480  1.00  0.00     0.000 C 
BRANCH  17  18
ATOM     18  C   UNL     1      11.895  11.234   4.093  1.00  0.00     0.000 C 
BRANCH  18  19
ATOM     19  C   UNL     1      10.695  10.461   4.666  1.00  0.00     0.000 C 
BRANCH  19  20
ATOM     20  C   UNL     1       9.401  11.290   4.665  1.00  0.00     0.006 C 
BRANCH  20  21
ATOM     21  C   UNL     1       8.709  11.312   6.034  1.00  0.00     0.053 C 
BRANCH  21  22
ATOM     22  C   UNL     1       7.534  12.239   6.011  1.00  0.00     0.041 C 
ATOM     23  O   UNL     1       7.530  13.237   5.242  1.00  0.00    -0.550 OA
ATOM     24  O   UNL     1       6.464  12.028   6.871  1.00  0.00    -0.550 OA
ENDBRANCH  21  22
ENDBRANCH  20  21
ENDBRANCH  19  20
ENDBRANCH  18  19
ENDBRANCH  17  18
ENDBRANCH  16  17
ENDBRANCH  15  16
ENDBRANCH  14  15
ENDBRANCH  13  14
ENDBRANCH   1  13
TORSDOF 20
ENDMDL
MODEL 7
REMARK VINA RESULT:    -4.707      1.919      3.973
REMARK INTER + INTRA:         -13.779
REMARK INTER:                  -9.922
REMARK INTRA:                  -3.857
REMARK UNBOUND:                -3.568
REMARK SMILES CCCCCCCCCCCCCCCCCCCCCC(=O)[O-]
REMARK SMILES IDX 12 1 11 2 10 3 9 4 8 5 7 6 6 7 5 8 4 9 3 10 2 11 1 12 13 13
REMARK SMILES IDX 14 14 15 15 16 16 17 17 18 18 19 19 20 20 21 21 22 22 23 23
REMARK SMILES IDX 24 24
REMARK H PARENT
REMARK Flexibility Score: inf
ROOT
ATOM      1  C   UNL     1      11.919  14.778   1.962  1.00  0.00     0.000 C 
ENDROOT
BRANCH   1   2
ATOM      2  C   UNL     1      10.574  15.523   1.937  1.00  0.00     0.000 C 
BRANCH   2   3
ATOM      3  C   UNL     1       9.711  15.230   3.176  1.00  0.00     0.000 C 
BRANCH   3   4
ATOM      4  C   UNL     1      10.306  15.832   4.460  1.00  0.00    -0.000 C 
BRANCH   4   5
ATOM      5  C   UNL     1      10.490  14.787   5.570  1.00  0.00    -0.000 C 
BRANCH   5   6
ATOM      6  C   UNL     1      11.979  14.474   5.788  1.00  0.00    -0.000 C 
BRANCH   6   7
ATOM      7  C   UNL     1      12.251  12.974   5.981  1.00  0.00    -0.000 C 
BRANCH   7   8
ATOM      8  C   UNL     1      12.358  12.216   4.647  1.00  0.00    -0.000 C 
BRANCH   8   9
ATOM      9  C   UNL     1      11.281  11.129   4.497  1.00  0.00    -0.000 C 
BRANCH   9  10
ATOM     10  C   UNL     1      10.067  11.602   3.685  1.00  0.00    -0.000 C 
BRANCH  10  11
ATOM     11  C   UNL     1       8.799  11.604   4.546  1.00  0.00    -0.003 C 
ATOM     12  C   UNL     1       9.051  10.958   5.905  1.00  0.00     0.004 C 
ENDBRANCH  10  11
ENDBRANCH   9  10
ENDBRANCH   8   9
ENDBRANCH   7   8
ENDBRANCH   6   7
ENDBRANCH   5   6
ENDBRANCH   4   5
ENDBRANCH   3   4
ENDBRANCH   2   3
ENDBRANCH   1   2
BRANCH   1  13
ATOM     13  C   UNL     1      12.695  14.903   0.641  1.00  0.00     0.000 C 
BRANCH  13  14
ATOM     14  C   UNL     1      13.886  13.939   0.611  1.00  0.00     0.000 C 
BRANCH  14  15
ATOM     15  C   UNL     1      14.104  13.291   1.986  1.00  0.00     0.000 C 
BRANCH  15  16
ATOM     16  C   UNL     1      15.593  13.094   2.316  1.00  0.00     0.000 C 
BRANCH  16  17
ATOM     17  C   UNL     1      16.168  14.244   3.162  1.00  0.00     0.000 C 
BRANCH  17  18
ATOM     18  C   UNL     1      15.083  15.001   3.944  1.00  0.00     0.000 C 
BRANCH  18  19
ATOM     19  C   UNL     1      15.017  16.491   3.566  1.00  0.00     0.000 C 
BRANCH  19  20
ATOM     20  C   UNL     1      15.939  16.845   2.390  1.00  0.00     0.006 C 
BRANCH  20  21
ATOM     21  C   UNL     1      15.192  17.511   1.227  1.00  0.00     0.053 C 
BRANCH  21  22
ATOM     22  C   UNL     1      16.055  17.552   0.006  1.00  0.00     0.041 C 
ATOM     23  O   UNL     1      17.125  18.218   0.009  1.00  0.00    -0.550 OA
ATOM     24  O   UNL     1      15.657  16.893  -1.150  1.00  0.00    -0.550 OA
ENDBRANCH  21  22
ENDBRANCH  20  21
ENDBRANCH  19  20
ENDBRANCH  18  19
ENDBRANCH  17  18
ENDBRANCH  16  17
ENDBRANCH  15  16
ENDBRANCH  14  15
ENDBRANCH  13  14
ENDBRANCH   1  13
TORSDOF 20
ENDMDL
MODEL 8
REMARK VINA RESULT:    -4.657      3.504      7.016
REMARK INTER + INTRA:         -13.669
REMARK INTER:                 -10.017
REMARK INTRA:                  -3.652
REMARK UNBOUND:                -3.568
REMARK SMILES CCCCCCCCCCCCCCCCCCCCCC(=O)[O-]
REMARK SMILES IDX 12 1 11 2 10 3 9 4 8 5 7 6 6 7 5 8 4 9 3 10 2 11 1 12 13 13
REMARK SMILES IDX 14 14 15 15 16 16 17 17 18 18 19 19 20 20 21 21 22 22 23 23
REMARK SMILES IDX 24 24
REMARK H PARENT
REMARK Flexibility Score: inf
ROOT
ATOM      1  C   UNL     1      11.025  15.338   3.100  1.00  0.00     0.000 C 
ENDROOT
BRANCH   1   2
ATOM      2  C   UNL     1      11.713  16.281   4.100  1.00  0.00     0.000 C 
BRANCH   2   3
ATOM      3  C   UNL     1      12.963  16.959   3.514  1.00  0.00     0.000 C 
BRANCH   3   4
ATOM      4  C   UNL     1      14.267  16.361   4.064  1.00  0.00    -0.000 C 
BRANCH   4   5
ATOM      5  C   UNL     1      15.483  16.692   3.187  1.00  0.00    -0.000 C 
BRANCH   5   6
ATOM      6  C   UNL     1      16.376  15.456   2.995  1.00  0.00    -0.000 C 
BRANCH   6   7
ATOM      7  C   UNL     1      15.784  14.188   3.629  1.00  0.00    -0.000 C 
BRANCH   7   8
ATOM      8  C   UNL     1      15.383  13.134   2.583  1.00  0.00    -0.000 C 
BRANCH   8   9
ATOM      9  C   UNL     1      13.980  13.378   2.006  1.00  0.00    -0.000 C 
BRANCH   9  10
ATOM     10  C   UNL     1      14.007  13.811   0.534  1.00  0.00    -0.000 C 
BRANCH  10  11
ATOM     11  C   UNL     1      13.460  15.234   0.370  1.00  0.00    -0.003 C 
ATOM     12  C   UNL     1      14.419  16.107  -0.433  1.00  0.00     0.004 C 
ENDBRANCH  10  11
ENDBRANCH   9  10
ENDBRANCH   8   9
ENDBRANCH   7   8
ENDBRANCH   6   7
ENDBRANCH   5   6
ENDBRANCH   4   5
ENDBRANCH   3   4
ENDBRANCH   2   3
ENDBRANCH   1   2
BRANCH   1  13
ATOM     13  C   UNL     1      10.748  13.944   3.686  1.00  0.00     0.000 C 
BRANCH  13  14
ATOM     14  C   UNL     1      11.760  13.600   4.785  1.00  0.00     0.000 C 
BRANCH  14  15
ATOM     15  C   UNL     1      12.044  12.091   4.818  1.00  0.00     0.000 C 
BRANCH  15  16
ATOM     16  C   UNL     1      11.004  11.278   4.029  1.00  0.00     0.000 C 
BRANCH  16  17
ATOM     17  C   UNL     1      10.475  10.068   4.819  1.00  0.00     0.000 C 
BRANCH  17  18
ATOM     18  C   UNL     1       9.671  10.482   6.063  1.00  0.00     0.000 C 
BRANCH  18  19
ATOM     19  C   UNL     1       8.480  11.392   5.716  1.00  0.00     0.000 C 
BRANCH  19  20
ATOM     20  C   UNL     1       8.067  12.300   6.884  1.00  0.00     0.006 C 
BRANCH  20  21
ATOM     21  C   UNL     1       8.580  13.738   6.729  1.00  0.00     0.053 C 
BRANCH  21  22
ATOM     22  C   UNL     1       7.658  14.698   7.414  1.00  0.00     0.041 C 
ATOM     23  O   UNL     1       8.126  15.649   8.094  1.00  0.00    -0.550 OA
ATOM     24  O   UNL     1       6.283  14.517   7.338  1.00  0.00    -0.550 OA
ENDBRANCH  21  22
ENDBRANCH  20  21
ENDBRANCH  19  20
ENDBRANCH  18  19
ENDBRANCH  17  18
ENDBRANCH  16  17
ENDBRANCH  15  16
ENDBRANCH  14  15
ENDBRANCH  13  14
ENDBRANCH   1  13
TORSDOF 20
ENDMDL
MODEL 9
REMARK VINA RESULT:    -4.651      3.384      6.696
REMARK INTER + INTRA:         -13.656
REMARK INTER:                  -9.628
REMARK INTRA:                  -4.028
REMARK UNBOUND:                -3.568
REMARK SMILES CCCCCCCCCCCCCCCCCCCCCC(=O)[O-]
REMARK SMILES IDX 12 1 11 2 10 3 9 4 8 5 7 6 6 7 5 8 4 9 3 10 2 11 1 12 13 13
REMARK SMILES IDX 14 14 15 15 16 16 17 17 18 18 19 19 20 20 21 21 22 22 23 23
REMARK SMILES IDX 24 24
REMARK H PARENT
REMARK Flexibility Score: inf
ROOT
ATOM      1  C   UNL     1      14.018  13.803   0.986  1.00  0.00     0.000 C 
ENDROOT
BRANCH   1   2
ATOM      2  C   UNL     1      13.393  15.017   0.281  1.00  0.00     0.000 C 
BRANCH   2   3
ATOM      3  C   UNL     1      14.068  16.343   0.673  1.00  0.00     0.000 C 
BRANCH   3   4
ATOM      4  C   UNL     1      15.412  16.128   1.388  1.00  0.00    -0.000 C 
BRANCH   4   5
ATOM      5  C   UNL     1      15.532  16.951   2.679  1.00  0.00    -0.000 C 
BRANCH   5   6
ATOM      6  C   UNL     1      14.910  16.203   3.868  1.00  0.00    -0.000 C 
BRANCH   6   7
ATOM      7  C   UNL     1      13.588  16.827   4.341  1.00  0.00    -0.000 C 
BRANCH   7   8
ATOM      8  C   UNL     1      12.731  15.847   5.161  1.00  0.00    -0.000 C 
BRANCH   8   9
ATOM      9  C   UNL     1      11.477  15.382   4.404  1.00  0.00    -0.000 C 
BRANCH   9  10
ATOM     10  C   UNL     1      11.196  16.218   3.147  1.00  0.00    -0.000 C 
BRANCH  10  11
ATOM     11  C   UNL     1      10.243  15.481   2.200  1.00  0.00    -0.003 C 
ATOM     12  C   UNL     1       9.372  16.460   1.418  1.00  0.00     0.004 C 
ENDBRANCH  10  11
ENDBRANCH   9  10
ENDBRANCH   8   9
ENDBRANCH   7   8
ENDBRANCH   6   7
ENDBRANCH   5   6
ENDBRANCH   4   5
ENDBRANCH   3   4
ENDBRANCH   2   3
ENDBRANCH   1   2
BRANCH   1  13
ATOM     13  C   UNL     1      13.066  13.145   1.997  1.00  0.00     0.000 C 
BRANCH  13  14
ATOM     14  C   UNL     1      13.819  12.716   3.261  1.00  0.00     0.000 C 
BRANCH  14  15
ATOM     15  C   UNL     1      12.892  11.957   4.223  1.00  0.00     0.000 C 
BRANCH  15  16
ATOM     16  C   UNL     1      11.484  11.749   3.642  1.00  0.00     0.000 C 
BRANCH  16  17
ATOM     17  C   UNL     1      10.627  10.795   4.495  1.00  0.00     0.000 C 
BRANCH  17  18
ATOM     18  C   UNL     1       9.287  11.422   4.914  1.00  0.00     0.000 C 
BRANCH  18  19
ATOM     19  C   UNL     1       8.700  12.336   3.825  1.00  0.00     0.000 C 
BRANCH  19  20
ATOM     20  C   UNL     1       8.050  13.603   4.400  1.00  0.00     0.006 C 
BRANCH  20  21
ATOM     21  C   UNL     1       8.464  13.876   5.852  1.00  0.00     0.053 C 
BRANCH  21  22
ATOM     22  C   UNL     1       7.927  15.197   6.309  1.00  0.00     0.041 C 
ATOM     23  O   UNL     1       6.910  15.244   7.051  1.00  0.00    -0.550 OA
ATOM     24  O   UNL     1       8.522  16.376   5.879  1.00  0.00    -0.550 OA
ENDBRANCH  21  22
ENDBRANCH  20  21
ENDBRANCH  19  20
ENDBRANCH  18  19
ENDBRANCH  17  18
ENDBRANCH  16  17
ENDBRANCH  15  16
ENDBRANCH  14  15
ENDBRANCH  13  14
ENDBRANCH   1  13
TORSDOF 20
ENDMDL
