MODEL 1
REMARK VINA RESULT:    -5.688      0.000      0.000
REMARK INTER + INTRA:          -9.469
REMARK INTER:                  -9.012
REMARK INTRA:                  -0.457
REMARK UNBOUND:                -0.457
REMARK SMILES CCCCCCCCCCCC(=O)[O-]
REMARK SMILES IDX 7 1 8 2 9 3 10 4 11 5 12 6 13 7 14 8 6 9 5 10 4 11 3 12 2 13
REMARK SMILES IDX 1 14
REMARK H PARENT
REMARK Flexibility Score: inf
ROOT
ATOM      1  C   UNL     1     102.532 306.434 195.728  1.00  0.00     0.000 C 
ENDROOT
BRANCH   1   2
ATOM      2  C   UNL     1     101.930 306.889 197.066  1.00  0.00     0.000 C 
BRANCH   2   3
ATOM      3  C   UNL     1     101.871 305.724 198.065  1.00  0.00     0.000 C 
BRANCH   3   4
ATOM      4  C   UNL     1     101.307 306.139 199.436  1.00  0.00     0.006 C 
BRANCH   4   5
ATOM      5  C   UNL     1     102.295 305.973 200.602  1.00  0.00     0.053 C 
BRANCH   5   6
ATOM      6  C   UNL     1     101.593 305.767 201.909  1.00  0.00     0.041 C 
ATOM      7  O   UNL     1     100.430 305.282 201.934  1.00  0.00    -0.550 OA
ATOM      8  O   UNL     1     102.234 306.076 203.102  1.00  0.00    -0.550 OA
ENDBRANCH   5   6
ENDBRANCH   4   5
ENDBRANCH   3   4
ENDBRANCH   2   3
ENDBRANCH   1   2
BRANCH   1   9
ATOM      9  C   UNL     1     101.460 306.076 194.686  1.00  0.00     0.000 C 
BRANCH   9  10
ATOM     10  C   UNL     1     102.050 305.833 193.289  1.00  0.00    -0.000 C 
BRANCH  10  11
ATOM     11  C   UNL     1     103.468 306.404 193.186  1.00  0.00    -0.000 C 
BRANCH  11  12
ATOM     12  C   UNL     1     103.534 307.531 192.148  1.00  0.00    -0.000 C 
BRANCH  12  13
ATOM     13  C   UNL     1     102.171 307.746 191.480  1.00  0.00    -0.003 C 
ATOM     14  C   UNL     1     102.241 308.847 190.426  1.00  0.00     0.004 C 
ENDBRANCH  12  13
ENDBRANCH  11  12
ENDBRANCH  10  11
ENDBRANCH   9  10
ENDBRANCH   1   9
TORSDOF 10
ENDMDL
MODEL 2
REMARK VINA RESULT:    -5.663      1.015      1.680
REMARK INTER + INTRA:          -9.430
REMARK INTER:                  -8.998
REMARK INTRA:                  -0.433
REMARK UNBOUND:                -0.457
REMARK SMILES CCCCCCCCCCCC(=O)[O-]
REMARK SMILES IDX 7 1 8 2 9 3 10 4 11 5 12 6 13 7 14 8 6 9 5 10 4 11 3 12 2 13
REMARK SMILES IDX 1 14
REMARK H PARENT
REMARK Flexibility Score: inf
ROOT
ATOM      1  C   UNL     1     101.493 306.204 194.597  1.00  0.00     0.000 C 
ENDROOT
BRANCH   1   2
ATOM      2  C   UNL     1     102.473 306.297 195.776  1.00  0.00     0.000 C 
BRANCH   2   3
ATOM      3  C   UNL     1     101.880 305.642 197.033  1.00  0.00     0.000 C 
BRANCH   3   4
ATOM      4  C   UNL     1     101.941 306.557 198.270  1.00  0.00     0.006 C 
BRANCH   4   5
ATOM      5  C   UNL     1     101.437 305.903 199.566  1.00  0.00     0.053 C 
BRANCH   5   6
ATOM      6  C   UNL     1     102.197 306.375 200.767  1.00  0.00     0.041 C 
ATOM      7  O   UNL     1     102.775 307.494 200.752  1.00  0.00    -0.550 OA
ATOM      8  O   UNL     1     102.239 305.595 201.916  1.00  0.00    -0.550 OA
ENDBRANCH   5   6
ENDBRANCH   4   5
ENDBRANCH   3   4
ENDBRANCH   2   3
ENDBRANCH   1   2
BRANCH   1   9
ATOM      9  C   UNL     1     102.181 305.787 193.286  1.00  0.00     0.000 C 
BRANCH   9  10
ATOM     10  C   UNL     1     103.610 306.339 193.166  1.00  0.00    -0.000 C 
BRANCH  10  11
ATOM     11  C   UNL     1     103.657 307.531 192.204  1.00  0.00    -0.000 C 
BRANCH  11  12
ATOM     12  C   UNL     1     102.306 307.731 191.507  1.00  0.00    -0.000 C 
BRANCH  12  13
ATOM     13  C   UNL     1     102.358 308.914 190.533  1.00  0.00    -0.003 C 
ATOM     14  C   UNL     1     103.795 309.367 190.292  1.00  0.00     0.004 C 
ENDBRANCH  12  13
ENDBRANCH  11  12
ENDBRANCH  10  11
ENDBRANCH   9  10
ENDBRANCH   1   9
TORSDOF 10
ENDMDL
MODEL 3
REMARK VINA RESULT:    -5.641      1.237      1.996
REMARK INTER + INTRA:          -9.395
REMARK INTER:                  -8.428
REMARK INTRA:                  -0.967
REMARK UNBOUND:                -0.457
REMARK SMILES CCCCCCCCCCCC(=O)[O-]
REMARK SMILES IDX 7 1 8 2 9 3 10 4 11 5 12 6 13 7 14 8 6 9 5 10 4 11 3 12 2 13
REMARK SMILES IDX 1 14
REMARK H PARENT
REMARK Flexibility Score: inf
ROOT
ATOM      1  C   UNL     1     101.473 305.897 194.584  1.00  0.00     0.000 C 
ENDROOT
BRANCH   1   2
ATOM      2  C   UNL     1     102.422 306.444 195.661  1.00  0.00     0.000 C 
BRANCH   2   3
ATOM      3  C   UNL     1     101.820 307.679 196.347  1.00  0.00     0.000 C 
BRANCH   3   4
ATOM      4  C   UNL     1     101.776 307.549 197.881  1.00  0.00     0.006 C 
BRANCH   4   5
ATOM      5  C   UNL     1     101.794 306.100 198.393  1.00  0.00     0.053 C 
BRANCH   5   6
ATOM      6  C   UNL     1     101.533 306.020 199.866  1.00  0.00     0.041 C 
ATOM      7  O   UNL     1     100.352 306.055 200.303  1.00  0.00    -0.550 OA
ATOM      8  O   UNL     1     102.591 305.873 200.754  1.00  0.00    -0.550 OA
ENDBRANCH   5   6
ENDBRANCH   4   5
ENDBRANCH   3   4
ENDBRANCH   2   3
ENDBRANCH   1   2
BRANCH   1   9
ATOM      9  C   UNL     1     102.155 305.737 193.217  1.00  0.00     0.000 C 
BRANCH   9  10
ATOM     10  C   UNL     1     103.600 306.262 193.211  1.00  0.00    -0.000 C 
BRANCH  10  11
ATOM     11  C   UNL     1     103.776 307.369 192.166  1.00  0.00    -0.000 C 
BRANCH  11  12
ATOM     12  C   UNL     1     102.420 307.843 191.630  1.00  0.00    -0.000 C 
BRANCH  12  13
ATOM     13  C   UNL     1     102.228 309.345 191.869  1.00  0.00    -0.003 C 
ATOM     14  C   UNL     1     101.916 309.635 193.334  1.00  0.00     0.004 C 
ENDBRANCH  12  13
ENDBRANCH  11  12
ENDBRANCH  10  11
ENDBRANCH   9  10
ENDBRANCH   1   9
TORSDOF 10
ENDMDL
MODEL 4
REMARK VINA RESULT:    -5.610     19.856     20.569
REMARK INTER + INTRA:          -9.347
REMARK INTER:                  -8.605
REMARK INTRA:                  -0.741
REMARK UNBOUND:                -0.457
REMARK SMILES CCCCCCCCCCCC(=O)[O-]
REMARK SMILES IDX 7 1 8 2 9 3 10 4 11 5 12 6 13 7 14 8 6 9 5 10 4 11 3 12 2 13
REMARK SMILES IDX 1 14
REMARK H PARENT
REMARK Flexibility Score: inf
ROOT
ATOM      1  C   UNL     1      87.414 320.407 195.789  1.00  0.00     0.000 C 
ENDROOT
BRANCH   1   2
ATOM      2  C   UNL     1      86.515 320.128 197.003  1.00  0.00     0.000 C 
BRANCH   2   3
ATOM      3  C   UNL     1      86.976 320.938 198.223  1.00  0.00     0.000 C 
BRANCH   3   4
ATOM      4  C   UNL     1      87.328 320.051 199.432  1.00  0.00     0.006 C 
BRANCH   4   5
ATOM      5  C   UNL     1      88.014 320.798 200.587  1.00  0.00     0.053 C 
BRANCH   5   6
ATOM      6  C   UNL     1      87.466 320.396 201.921  1.00  0.00     0.041 C 
ATOM      7  O   UNL     1      86.683 319.413 202.015  1.00  0.00    -0.550 OA
ATOM      8  O   UNL     1      87.846 321.083 203.067  1.00  0.00    -0.550 OA
ENDBRANCH   5   6
ENDBRANCH   4   5
ENDBRANCH   3   4
ENDBRANCH   2   3
ENDBRANCH   1   2
BRANCH   1   9
ATOM      9  C   UNL     1      86.628 320.936 194.578  1.00  0.00     0.000 C 
BRANCH   9  10
ATOM     10  C   UNL     1      85.134 320.580 194.640  1.00  0.00    -0.000 C 
BRANCH  10  11
ATOM     11  C   UNL     1      84.789 319.487 193.622  1.00  0.00    -0.000 C 
BRANCH  11  12
ATOM     12  C   UNL     1      86.011 319.118 192.774  1.00  0.00    -0.000 C 
BRANCH  12  13
ATOM     13  C   UNL     1      86.281 317.610 192.822  1.00  0.00    -0.003 C 
ATOM     14  C   UNL     1      86.663 317.162 194.230  1.00  0.00     0.004 C 
ENDBRANCH  12  13
ENDBRANCH  11  12
ENDBRANCH  10  11
ENDBRANCH   9  10
ENDBRANCH   1   9
TORSDOF 10
ENDMDL
MODEL 5
REMARK VINA RESULT:    -5.546      5.975      8.334
REMARK INTER + INTRA:          -9.245
REMARK INTER:                  -8.029
REMARK INTRA:                  -1.216
REMARK UNBOUND:                -0.457
REMARK SMILES CCCCCCCCCCCC(=O)[O-]
REMARK SMILES IDX 7 1 8 2 9 3 10 4 11 5 12 6 13 7 14 8 6 9 5 10 4 11 3 12 2 13
REMARK SMILES IDX 1 14
REMARK H PARENT
REMARK Flexibility Score: inf
ROOT
ATOM      1  C   UNL     1     103.577 306.216 193.192  1.00  0.00     0.000 C 
ENDROOT
BRANCH   1   2
ATOM      2  C   UNL     1     103.709 307.419 192.246  1.00  0.00     0.000 C 
BRANCH   2   3
ATOM      3  C   UNL     1     102.365 307.739 191.575  1.00  0.00     0.000 C 
BRANCH   3   4
ATOM      4  C   UNL     1     102.250 309.212 191.139  1.00  0.00     0.006 C 
BRANCH   4   5
ATOM      5  C   UNL     1     102.391 309.436 189.625  1.00  0.00     0.053 C 
BRANCH   5   6
ATOM      6  C   UNL     1     101.087 309.803 188.987  1.00  0.00     0.041 C 
ATOM      7  O   UNL     1     100.632 310.972 189.102  1.00  0.00    -0.550 OA
ATOM      8  O   UNL     1     100.390 308.865 188.236  1.00  0.00    -0.550 OA
ENDBRANCH   5   6
ENDBRANCH   4   5
ENDBRANCH   3   4
ENDBRANCH   2   3
ENDBRANCH   1   2
BRANCH   1   9
ATOM      9  C   UNL     1     102.133 305.698 193.294  1.00  0.00     0.000 C 
BRANCH   9  10
ATOM     10  C   UNL     1     101.463 306.069 194.625  1.00  0.00    -0.000 C 
BRANCH  10  11
ATOM     11  C   UNL     1     102.511 306.411 195.690  1.00  0.00    -0.000 C 
BRANCH  11  12
ATOM     12  C   UNL     1     102.247 307.793 196.299  1.00  0.00    -0.000 C 
BRANCH  12  13
ATOM     13  C   UNL     1     101.497 308.697 195.313  1.00  0.00    -0.003 C 
ATOM     14  C   UNL     1     102.386 309.836 194.825  1.00  0.00     0.004 C 
ENDBRANCH  12  13
ENDBRANCH  11  12
ENDBRANCH  10  11
ENDBRANCH   9  10
ENDBRANCH   1   9
TORSDOF 10
ENDMDL
MODEL 6
REMARK VINA RESULT:    -5.505     19.793     21.383
REMARK INTER + INTRA:          -9.181
REMARK INTER:                  -7.897
REMARK INTRA:                  -1.283
REMARK UNBOUND:                -0.457
REMARK SMILES CCCCCCCCCCCC(=O)[O-]
REMARK SMILES IDX 7 1 8 2 9 3 10 4 11 5 12 6 13 7 14 8 6 9 5 10 4 11 3 12 2 13
REMARK SMILES IDX 1 14
REMARK H PARENT
REMARK Flexibility Score: inf
ROOT
ATOM      1  C   UNL     1      85.113 320.336 194.429  1.00  0.00     0.000 C 
ENDROOT
BRANCH   1   2
ATOM      2  C   UNL     1      84.860 319.337 193.290  1.00  0.00     0.000 C 
BRANCH   2   3
ATOM      3  C   UNL     1      86.153 319.059 192.508  1.00  0.00     0.000 C 
BRANCH   3   4
ATOM      4  C   UNL     1      86.189 317.646 191.896  1.00  0.00     0.006 C 
BRANCH   4   5
ATOM      5  C   UNL     1      86.465 317.620 190.384  1.00  0.00     0.053 C 
BRANCH   5   6
ATOM      6  C   UNL     1      85.532 316.699 189.658  1.00  0.00     0.041 C 
ATOM      7  O   UNL     1      84.507 316.250 190.237  1.00  0.00    -0.550 OA
ATOM      8  O   UNL     1      85.774 316.366 188.332  1.00  0.00    -0.550 OA
ENDBRANCH   5   6
ENDBRANCH   4   5
ENDBRANCH   3   4
ENDBRANCH   2   3
ENDBRANCH   1   2
BRANCH   1   9
ATOM      9  C   UNL     1      86.520 320.953 194.376  1.00  0.00     0.000 C 
BRANCH   9  10
ATOM     10  C   UNL     1      87.336 320.676 195.648  1.00  0.00    -0.000 C 
BRANCH  10  11
ATOM     11  C   UNL     1      86.604 319.690 196.565  1.00  0.00    -0.000 C 
BRANCH  11  12
ATOM     12  C   UNL     1      87.439 318.425 196.791  1.00  0.00    -0.000 C 
BRANCH  12  13
ATOM     13  C   UNL     1      87.304 317.456 195.610  1.00  0.00    -0.003 C 
ATOM     14  C   UNL     1      85.976 316.707 195.661  1.00  0.00     0.004 C 
ENDBRANCH  12  13
ENDBRANCH  11  12
ENDBRANCH  10  11
ENDBRANCH   9  10
ENDBRANCH   1   9
TORSDOF 10
ENDMDL
MODEL 7
REMARK VINA RESULT:    -5.463     20.185     21.587
REMARK INTER + INTRA:          -9.113
REMARK INTER:                  -8.343
REMARK INTRA:                  -0.771
REMARK UNBOUND:                -0.457
REMARK SMILES CCCCCCCCCCCC(=O)[O-]
REMARK SMILES IDX 7 1 8 2 9 3 10 4 11 5 12 6 13 7 14 8 6 9 5 10 4 11 3 12 2 13
REMARK SMILES IDX 1 14
REMARK H PARENT
REMARK Flexibility Score: inf
ROOT
ATOM      1  C   UNL     1      85.143 320.180 194.484  1.00  0.00     0.000 C 
ENDROOT
BRANCH   1   2
ATOM      2  C   UNL     1      84.842 319.182 193.356  1.00  0.00     0.000 C 
BRANCH   2   3
ATOM      3  C   UNL     1      86.095 318.921 192.506  1.00  0.00     0.000 C 
BRANCH   3   4
ATOM      4  C   UNL     1      85.884 317.818 191.452  1.00  0.00     0.006 C 
BRANCH   4   5
ATOM      5  C   UNL     1      84.440 317.301 191.359  1.00  0.00     0.053 C 
BRANCH   5   6
ATOM      6  C   UNL     1      84.349 315.833 191.643  1.00  0.00     0.041 C 
ATOM      7  O   UNL     1      84.381 315.001 190.697  1.00  0.00    -0.550 OA
ATOM      8  O   UNL     1      84.264 315.380 192.954  1.00  0.00    -0.550 OA
ENDBRANCH   5   6
ENDBRANCH   4   5
ENDBRANCH   3   4
ENDBRANCH   2   3
ENDBRANCH   1   2
BRANCH   1   9
ATOM      9  C   UNL     1      86.518 320.849 194.332  1.00  0.00     0.000 C 
BRANCH   9  10
ATOM     10  C   UNL     1      87.330 320.837 195.637  1.00  0.00    -0.000 C 
BRANCH  10  11
ATOM     11  C   UNL     1      87.392 319.426 196.230  1.00  0.00    -0.000 C 
BRANCH  11  12
ATOM     12  C   UNL     1      86.920 319.419 197.689  1.00  0.00    -0.000 C 
BRANCH  12  13
ATOM     13  C   UNL     1      87.199 320.767 198.365  1.00  0.00    -0.003 C 
ATOM     14  C   UNL     1      87.620 320.578 199.819  1.00  0.00     0.004 C 
ENDBRANCH  12  13
ENDBRANCH  11  12
ENDBRANCH  10  11
ENDBRANCH   9  10
ENDBRANCH   1   9
TORSDOF 10
ENDMDL
MODEL 8
REMARK VINA RESULT:    -5.421     19.781     21.085
REMARK INTER + INTRA:          -9.047
REMARK INTER:                  -7.639
REMARK INTRA:                  -1.408
REMARK UNBOUND:                -0.457
REMARK SMILES CCCCCCCCCCCC(=O)[O-]
REMARK SMILES IDX 7 1 8 2 9 3 10 4 11 5 12 6 13 7 14 8 6 9 5 10 4 11 3 12 2 13
REMARK SMILES IDX 1 14
REMARK H PARENT
REMARK Flexibility Score: inf
ROOT
ATOM      1  C   UNL     1      87.316 320.561 195.626  1.00  0.00     0.000 C 
ENDROOT
BRANCH   1   2
ATOM      2  C   UNL     1      86.470 320.924 194.397  1.00  0.00     0.000 C 
BRANCH   2   3
ATOM      3  C   UNL     1      85.068 320.303 194.493  1.00  0.00     0.000 C 
BRANCH   3   4
ATOM      4  C   UNL     1      84.746 319.370 193.310  1.00  0.00     0.006 C 
BRANCH   4   5
ATOM      5  C   UNL     1      85.981 318.885 192.533  1.00  0.00     0.053 C 
BRANCH   5   6
ATOM      6  C   UNL     1      85.628 317.861 191.498  1.00  0.00     0.041 C 
ATOM      7  O   UNL     1      84.562 317.196 191.602  1.00  0.00    -0.550 OA
ATOM      8  O   UNL     1      86.456 317.665 190.401  1.00  0.00    -0.550 OA
ENDBRANCH   5   6
ENDBRANCH   4   5
ENDBRANCH   3   4
ENDBRANCH   2   3
ENDBRANCH   1   2
BRANCH   1   9
ATOM      9  C   UNL     1      86.464 320.328 196.885  1.00  0.00     0.000 C 
BRANCH   9  10
ATOM     10  C   UNL     1      87.031 319.222 197.788  1.00  0.00    -0.000 C 
BRANCH  10  11
ATOM     11  C   UNL     1      88.061 318.374 197.034  1.00  0.00    -0.000 C 
BRANCH  11  12
ATOM     12  C   UNL     1      87.525 316.962 196.771  1.00  0.00    -0.000 C 
BRANCH  12  13
ATOM     13  C   UNL     1      87.061 316.810 195.318  1.00  0.00    -0.003 C 
ATOM     14  C   UNL     1      85.593 316.399 195.248  1.00  0.00     0.004 C 
ENDBRANCH  12  13
ENDBRANCH  11  12
ENDBRANCH  10  11
ENDBRANCH   9  10
ENDBRANCH   1   9
TORSDOF 10
ENDMDL
MODEL 9
REMARK VINA RESULT:    -5.416      4.406      7.466
REMARK INTER + INTRA:          -9.039
REMARK INTER:                  -8.158
REMARK INTRA:                  -0.881
REMARK UNBOUND:                -0.457
REMARK SMILES CCCCCCCCCCCC(=O)[O-]
REMARK SMILES IDX 7 1 8 2 9 3 10 4 11 5 12 6 13 7 14 8 6 9 5 10 4 11 3 12 2 13
REMARK SMILES IDX 1 14
REMARK H PARENT
REMARK Flexibility Score: inf
ROOT
ATOM      1  C   UNL     1     102.246 305.710 193.234  1.00  0.00     0.000 C 
ENDROOT
BRANCH   1   2
ATOM      2  C   UNL     1     103.720 306.133 193.326  1.00  0.00     0.000 C 
BRANCH   2   3
ATOM      3  C   UNL     1     104.000 307.345 192.426  1.00  0.00     0.000 C 
BRANCH   3   4
ATOM      4  C   UNL     1     102.729 307.898 191.755  1.00  0.00     0.006 C 
BRANCH   4   5
ATOM      5  C   UNL     1     102.247 309.242 192.324  1.00  0.00     0.053 C 
BRANCH   5   6
ATOM      6  C   UNL     1     103.369 310.221 192.482  1.00  0.00     0.041 C 
ATOM      7  O   UNL     1     103.901 310.745 191.467  1.00  0.00    -0.550 OA
ATOM      8  O   UNL     1     103.806 310.582 193.750  1.00  0.00    -0.550 OA
ENDBRANCH   5   6
ENDBRANCH   4   5
ENDBRANCH   3   4
ENDBRANCH   2   3
ENDBRANCH   1   2
BRANCH   1   9
ATOM      9  C   UNL     1     101.496 305.878 194.565  1.00  0.00     0.000 C 
BRANCH   9  10
ATOM     10  C   UNL     1     102.416 306.328 195.710  1.00  0.00    -0.000 C 
BRANCH  10  11
ATOM     11  C   UNL     1     101.944 307.661 196.301  1.00  0.00    -0.000 C 
BRANCH  11  12
ATOM     12  C   UNL     1     101.589 307.513 197.784  1.00  0.00    -0.000 C 
BRANCH  12  13
ATOM     13  C   UNL     1     101.871 306.089 198.279  1.00  0.00    -0.003 C 
ATOM     14  C   UNL     1     101.339 305.881 199.694  1.00  0.00     0.004 C 
ENDBRANCH  12  13
ENDBRANCH  11  12
ENDBRANCH  10  11
ENDBRANCH   9  10
ENDBRANCH   1   9
TORSDOF 10
ENDMDL
