MODEL 1
REMARK VINA RESULT:    -6.856      0.000      0.000
REMARK INTER + INTRA:         -12.774
REMARK INTER:                 -10.865
REMARK INTRA:                  -1.910
REMARK UNBOUND:                -1.910
REMARK SMILES C[C@H]1O[C@H](O[C@H]2[C@@H](Oc3cc(O)c4c(c3)O[C@@H](c3ccc(O)cc3)CC4=O)O[C@H](CO)[C@@H](O)[C@H]2O)[C@H](O)[C@@H](O)[C@H]1O
REMARK SMILES IDX 6 1 34 2 32 3 29 4 28 5 7 6 5 7 4 8 1 9 2 10 40 11 3 12
REMARK SMILES IDX 38 13 36 14 41 15 39 17 37 19 35 21 8 23 9 24 10 25 15 26
REMARK SMILES IDX 11 27 14 28 13 29 16 30 26 31 17 32 27 33 25 34 12 35 18 37
REMARK SMILES IDX 19 38 24 39 20 40 23 41 21 42 22 43 33 45 30 47 31 48
REMARK H PARENT 41 16 39 18 37 20 35 22 12 36 22 44 33 46 31 49
REMARK Flexibility Score: inf
ROOT
ATOM      1  C   UNL     1     -19.926  27.331  34.622  1.00  0.00     0.221 C 
ATOM      2  C   UNL     1     -19.411  28.570  33.906  1.00  0.00     0.181 C 
ATOM      3  C   UNL     1     -18.631  29.555  34.783  1.00  0.00     0.177 C 
ATOM      4  C   UNL     1     -19.221  29.691  36.191  1.00  0.00     0.179 C 
ATOM      5  O   UNL     1     -20.453  29.033  36.315  1.00  0.00    -0.332 OA
ATOM      6  C   UNL     1     -20.296  27.596  36.072  1.00  0.00     0.339 C 
ENDROOT
BRANCH   1   7
ATOM      7  O   UNL     1     -19.063  26.233  34.551  1.00  0.00    -0.337 OA
BRANCH   7   8
ATOM      8  C   UNL     1     -19.326  25.309  33.456  1.00  0.00     0.282 C 
ATOM      9  C   UNL     1     -15.995  25.109  31.877  1.00  0.00     0.041 C 
ATOM     10  C   UNL     1     -17.062  24.908  32.941  1.00  0.00     0.150 C 
ATOM     11  C   UNL     1     -17.121  23.398  33.317  1.00  0.00     0.174 C 
ATOM     12  O   UNL     1     -18.286  25.368  32.466  1.00  0.00    -0.344 OA
ATOM     13  C   UNL     1     -18.237  23.190  34.395  1.00  0.00     0.179 C 
ATOM     14  C   UNL     1     -19.526  23.815  33.914  1.00  0.00     0.202 C 
BRANCH  11  15
ATOM     15  O   UNL     1     -17.403  22.638  32.139  1.00  0.00    -0.388 OA
ATOM     16  H   UNL     1     -16.734  22.897  31.497  1.00  0.00     0.211 HD
ENDBRANCH  11  15
BRANCH  13  17
ATOM     17  O   UNL     1     -18.368  21.828  34.597  1.00  0.00    -0.387 OA
ATOM     18  H   UNL     1     -17.770  21.556  35.386  1.00  0.00     0.211 HD
ENDBRANCH  13  17
BRANCH  14  19
ATOM     19  O   UNL     1     -20.492  23.723  34.928  1.00  0.00    -0.385 OA
ATOM     20  H   UNL     1     -20.810  24.682  35.113  1.00  0.00     0.211 HD
ENDBRANCH  14  19
ENDBRANCH   7   8
ENDBRANCH   1   7
BRANCH   2  21
ATOM     21  O   UNL     1     -18.727  28.246  32.710  1.00  0.00    -0.387 OA
ATOM     22  H   UNL     1     -18.658  27.275  32.639  1.00  0.00     0.211 HD
ENDBRANCH   2  21
BRANCH   6  23
ATOM     23  O   UNL     1     -19.460  26.916  37.052  1.00  0.00    -0.462 OA
BRANCH  23  24
ATOM     24  C   UNL     1     -19.983  26.400  38.257  1.00  0.00     0.130 A 
ATOM     25  C   UNL     1     -20.539  27.190  39.313  1.00  0.00     0.093 A 
ATOM     26  C   UNL     1     -20.110  25.003  38.405  1.00  0.00     0.094 A 
ATOM     27  C   UNL     1     -21.181  26.480  40.359  1.00  0.00     0.133 A 
ATOM     28  C   UNL     1     -19.966  24.550  39.709  1.00  0.00     0.138 A 
ATOM     29  C   UNL     1     -20.799  25.143  40.630  1.00  0.00     0.102 A 
ATOM     30  O   UNL     1     -19.323  23.297  39.975  1.00  0.00    -0.484 OA
ATOM     31  C   UNL     1     -21.591  24.097  41.404  1.00  0.00     0.174 C 
ATOM     32  C   UNL     1     -20.154  22.207  40.299  1.00  0.00     0.211 C 
ATOM     33  O   UNL     1     -22.259  24.368  42.439  1.00  0.00    -0.294 OA
ATOM     34  C   UNL     1     -21.562  22.666  40.828  1.00  0.00     0.131 C 
BRANCH  27  35
ATOM     35  O   UNL     1     -22.343  26.986  41.004  1.00  0.00    -0.507 OA
ATOM     36  H   UNL     1     -23.025  26.266  41.378  1.00  0.00     0.293 HD
ENDBRANCH  27  35
BRANCH  32  37
ATOM     37  C   UNL     1     -19.524  21.183  41.210  1.00  0.00    -0.007 A 
ATOM     38  C   UNL     1     -20.354  20.537  42.167  1.00  0.00     0.011 A 
ATOM     39  C   UNL     1     -18.142  21.253  41.467  1.00  0.00     0.011 A 
ATOM     40  C   UNL     1     -19.806  20.140  43.353  1.00  0.00     0.046 A 
ATOM     41  C   UNL     1     -17.656  20.920  42.731  1.00  0.00     0.046 A 
ATOM     42  C   UNL     1     -18.496  20.433  43.682  1.00  0.00     0.115 A 
BRANCH  42  43
ATOM     43  O   UNL     1     -18.105  20.546  45.039  1.00  0.00    -0.508 OA
ATOM     44  H   UNL     1     -18.165  21.514  45.417  1.00  0.00     0.293 HD
ENDBRANCH  42  43
ENDBRANCH  32  37
ENDBRANCH  23  24
ENDBRANCH   6  23
BRANCH   3  45
ATOM     45  O   UNL     1     -17.276  29.094  34.880  1.00  0.00    -0.387 OA
ATOM     46  H   UNL     1     -16.752  29.931  34.886  1.00  0.00     0.211 HD
ENDBRANCH   3  45
BRANCH   4  47
ATOM     47  C   UNL     1     -19.416  31.160  36.673  1.00  0.00     0.191 C 
BRANCH  47  48
ATOM     48  O   UNL     1     -18.465  31.963  36.033  1.00  0.00    -0.394 OA
ATOM     49  H   UNL     1     -18.853  32.878  36.013  1.00  0.00     0.210 HD
ENDBRANCH  47  48
ENDBRANCH   4  47
TORSDOF 14
ENDMDL
MODEL 2
REMARK VINA RESULT:    -6.595      1.478      4.541
REMARK INTER + INTRA:         -12.360
REMARK INTER:                 -10.491
REMARK INTRA:                  -1.869
REMARK UNBOUND:                -1.910
REMARK SMILES C[C@H]1O[C@H](O[C@H]2[C@@H](Oc3cc(O)c4c(c3)O[C@@H](c3ccc(O)cc3)CC4=O)O[C@H](CO)[C@@H](O)[C@H]2O)[C@H](O)[C@@H](O)[C@H]1O
REMARK SMILES IDX 6 1 34 2 32 3 29 4 28 5 7 6 5 7 4 8 1 9 2 10 40 11 3 12
REMARK SMILES IDX 38 13 36 14 41 15 39 17 37 19 35 21 8 23 9 24 10 25 15 26
REMARK SMILES IDX 11 27 14 28 13 29 16 30 26 31 17 32 27 33 25 34 12 35 18 37
REMARK SMILES IDX 19 38 24 39 20 40 23 41 21 42 22 43 33 45 30 47 31 48
REMARK H PARENT 41 16 39 18 37 20 35 22 12 36 22 44 33 46 31 49
REMARK Flexibility Score: inf
ROOT
ATOM      1  C   UNL     1     -17.748  26.552  34.307  1.00  0.00     0.221 C 
ATOM      2  C   UNL     1     -17.495  25.815  33.001  1.00  0.00     0.181 C 
ATOM      3  C   UNL     1     -18.221  24.472  32.858  1.00  0.00     0.177 C 
ATOM      4  C   UNL     1     -18.274  23.683  34.170  1.00  0.00     0.179 C 
ATOM      5  O   UNL     1     -17.485  24.267  35.172  1.00  0.00    -0.332 OA
ATOM      6  C   UNL     1     -17.965  25.616  35.485  1.00  0.00     0.339 C 
ENDROOT
BRANCH   1   7
ATOM      7  O   UNL     1     -18.796  27.477  34.244  1.00  0.00    -0.337 OA
BRANCH   7   8
ATOM      8  C   UNL     1     -18.507  28.780  34.827  1.00  0.00     0.282 C 
ATOM      9  C   UNL     1     -17.137  30.578  31.908  1.00  0.00     0.041 C 
ATOM     10  C   UNL     1     -18.179  29.886  32.773  1.00  0.00     0.150 C 
ATOM     11  C   UNL     1     -19.396  30.840  32.957  1.00  0.00     0.174 C 
ATOM     12  O   UNL     1     -17.612  29.535  33.994  1.00  0.00    -0.344 OA
ATOM     13  C   UNL     1     -20.456  30.136  33.867  1.00  0.00     0.179 C 
ATOM     14  C   UNL     1     -19.789  29.643  35.131  1.00  0.00     0.202 C 
BRANCH  11  15
ATOM     15  O   UNL     1     -18.943  32.059  33.552  1.00  0.00    -0.388 OA
ATOM     16  H   UNL     1     -18.820  31.862  34.486  1.00  0.00     0.211 HD
ENDBRANCH  11  15
BRANCH  13  17
ATOM     17  O   UNL     1     -21.450  31.059  34.135  1.00  0.00    -0.387 OA
ATOM     18  H   UNL     1     -21.306  31.428  35.082  1.00  0.00     0.211 HD
ENDBRANCH  13  17
BRANCH  14  19
ATOM     19  O   UNL     1     -20.718  28.917  35.892  1.00  0.00    -0.385 OA
ATOM     20  H   UNL     1     -21.468  28.641  35.247  1.00  0.00     0.211 HD
ENDBRANCH  14  19
ENDBRANCH   7   8
ENDBRANCH   1   7
BRANCH   2  21
ATOM     21  O   UNL     1     -17.672  26.652  31.875  1.00  0.00    -0.387 OA
ATOM     22  H   UNL     1     -18.121  27.471  32.158  1.00  0.00     0.211 HD
ENDBRANCH   2  21
BRANCH   6  23
ATOM     23  O   UNL     1     -19.303  25.651  36.058  1.00  0.00    -0.462 OA
BRANCH  23  24
ATOM     24  C   UNL     1     -19.529  25.543  37.446  1.00  0.00     0.130 A 
ATOM     25  C   UNL     1     -19.544  26.642  38.362  1.00  0.00     0.093 A 
ATOM     26  C   UNL     1     -19.909  24.294  37.983  1.00  0.00     0.094 A 
ATOM     27  C   UNL     1     -19.973  26.356  39.683  1.00  0.00     0.133 A 
ATOM     28  C   UNL     1     -19.474  24.072  39.281  1.00  0.00     0.138 A 
ATOM     29  C   UNL     1     -19.830  25.041  40.192  1.00  0.00     0.102 A 
ATOM     30  O   UNL     1     -19.073  22.761  39.698  1.00  0.00    -0.484 OA
ATOM     31  C   UNL     1     -20.554  24.431  41.384  1.00  0.00     0.174 C 
ATOM     32  C   UNL     1     -19.982  22.036  40.493  1.00  0.00     0.211 C 
ATOM     33  O   UNL     1     -20.794  25.071  42.444  1.00  0.00    -0.294 OA
ATOM     34  C   UNL     1     -21.021  22.970  41.215  1.00  0.00     0.131 C 
BRANCH  27  35
ATOM     35  O   UNL     1     -20.738  27.285  40.440  1.00  0.00    -0.507 OA
ATOM     36  H   UNL     1     -21.675  26.943  40.797  1.00  0.00     0.293 HD
ENDBRANCH  27  35
BRANCH  32  37
ATOM     37  C   UNL     1     -19.344  21.065  41.454  1.00  0.00    -0.007 A 
ATOM     38  C   UNL     1     -20.147  20.532  42.500  1.00  0.00     0.011 A 
ATOM     39  C   UNL     1     -17.950  21.100  41.638  1.00  0.00     0.011 A 
ATOM     40  C   UNL     1     -19.554  20.212  43.688  1.00  0.00     0.046 A 
ATOM     41  C   UNL     1     -17.412  20.851  42.901  1.00  0.00     0.046 A 
ATOM     42  C   UNL     1     -18.220  20.477  43.928  1.00  0.00     0.115 A 
BRANCH  42  43
ATOM     43  O   UNL     1     -17.756  20.684  45.251  1.00  0.00    -0.508 OA
ATOM     44  H   UNL     1     -17.277  21.597  45.393  1.00  0.00     0.293 HD
ENDBRANCH  42  43
ENDBRANCH  32  37
ENDBRANCH  23  24
ENDBRANCH   6  23
BRANCH   3  45
ATOM     45  O   UNL     1     -19.559  24.732  32.408  1.00  0.00    -0.387 OA
ATOM     46  H   UNL     1     -19.654  24.137  31.625  1.00  0.00     0.211 HD
ENDBRANCH   3  45
BRANCH   4  47
ATOM     47  C   UNL     1     -17.852  22.188  34.044  1.00  0.00     0.191 C 
BRANCH  47  48
ATOM     48  O   UNL     1     -17.213  22.014  32.811  1.00  0.00    -0.394 OA
ATOM     49  H   UNL     1     -17.564  22.733  32.221  1.00  0.00     0.210 HD
ENDBRANCH  47  48
ENDBRANCH   4  47
TORSDOF 14
ENDMDL
MODEL 3
REMARK VINA RESULT:    -6.594      2.697      3.778
REMARK INTER + INTRA:         -12.358
REMARK INTER:                 -10.093
REMARK INTRA:                  -2.265
REMARK UNBOUND:                -1.910
REMARK SMILES C[C@H]1O[C@H](O[C@H]2[C@@H](Oc3cc(O)c4c(c3)O[C@@H](c3ccc(O)cc3)CC4=O)O[C@H](CO)[C@@H](O)[C@H]2O)[C@H](O)[C@@H](O)[C@H]1O
REMARK SMILES IDX 6 1 34 2 32 3 29 4 28 5 7 6 5 7 4 8 1 9 2 10 40 11 3 12
REMARK SMILES IDX 38 13 36 14 41 15 39 17 37 19 35 21 8 23 9 24 10 25 15 26
REMARK SMILES IDX 11 27 14 28 13 29 16 30 26 31 17 32 27 33 25 34 12 35 18 37
REMARK SMILES IDX 19 38 24 39 20 40 23 41 21 42 22 43 33 45 30 47 31 48
REMARK H PARENT 41 16 39 18 37 20 35 22 12 36 22 44 33 46 31 49
REMARK Flexibility Score: inf
ROOT
ATOM      1  C   UNL     1     -17.816  24.573  35.461  1.00  0.00     0.221 C 
ATOM      2  C   UNL     1     -17.471  25.053  34.060  1.00  0.00     0.181 C 
ATOM      3  C   UNL     1     -18.282  26.255  33.563  1.00  0.00     0.177 C 
ATOM      4  C   UNL     1     -19.749  26.203  34.001  1.00  0.00     0.179 C 
ATOM      5  O   UNL     1     -20.081  24.978  34.598  1.00  0.00    -0.332 OA
ATOM      6  C   UNL     1     -19.283  24.762  35.809  1.00  0.00     0.339 C 
ENDROOT
BRANCH   1   7
ATOM      7  O   UNL     1     -17.019  25.133  36.465  1.00  0.00    -0.337 OA
BRANCH   7   8
ATOM      8  C   UNL     1     -15.878  24.324  36.872  1.00  0.00     0.282 C 
ATOM      9  C   UNL     1     -13.092  26.672  36.275  1.00  0.00     0.041 C 
ATOM     10  C   UNL     1     -14.340  26.108  36.935  1.00  0.00     0.150 C 
ATOM     11  C   UNL     1     -14.092  25.995  38.469  1.00  0.00     0.174 C 
ATOM     12  O   UNL     1     -14.647  24.873  36.372  1.00  0.00    -0.344 OA
ATOM     13  C   UNL     1     -15.368  25.391  39.144  1.00  0.00     0.179 C 
ATOM     14  C   UNL     1     -15.763  24.118  38.429  1.00  0.00     0.202 C 
BRANCH  11  15
ATOM     15  O   UNL     1     -12.953  25.159  38.693  1.00  0.00    -0.388 OA
ATOM     16  H   UNL     1     -13.296  24.262  38.747  1.00  0.00     0.211 HD
ENDBRANCH  11  15
BRANCH  13  17
ATOM     17  O   UNL     1     -15.064  25.163  40.473  1.00  0.00    -0.387 OA
ATOM     18  H   UNL     1     -15.024  26.068  40.958  1.00  0.00     0.211 HD
ENDBRANCH  13  17
BRANCH  14  19
ATOM     19  O   UNL     1     -16.967  23.641  38.966  1.00  0.00    -0.385 OA
ATOM     20  H   UNL     1     -17.669  24.373  38.799  1.00  0.00     0.211 HD
ENDBRANCH  14  19
ENDBRANCH   7   8
ENDBRANCH   1   7
BRANCH   2  21
ATOM     21  O   UNL     1     -16.078  25.226  33.884  1.00  0.00    -0.387 OA
ATOM     22  H   UNL     1     -15.618  24.428  34.206  1.00  0.00     0.211 HD
ENDBRANCH   2  21
BRANCH   6  23
ATOM     23  O   UNL     1     -19.542  25.725  36.870  1.00  0.00    -0.462 OA
BRANCH  23  24
ATOM     24  C   UNL     1     -20.123  25.351  38.099  1.00  0.00     0.130 A 
ATOM     25  C   UNL     1     -20.713  26.257  39.037  1.00  0.00     0.093 A 
ATOM     26  C   UNL     1     -20.275  23.979  38.395  1.00  0.00     0.094 A 
ATOM     27  C   UNL     1     -21.409  25.673  40.125  1.00  0.00     0.133 A 
ATOM     28  C   UNL     1     -20.192  23.672  39.746  1.00  0.00     0.138 A 
ATOM     29  C   UNL     1     -21.056  24.370  40.559  1.00  0.00     0.102 A 
ATOM     30  O   UNL     1     -19.578  22.451  40.176  1.00  0.00    -0.484 OA
ATOM     31  C   UNL     1     -21.894  23.424  41.408  1.00  0.00     0.174 C 
ATOM     32  C   UNL     1     -20.437  21.411  40.582  1.00  0.00     0.211 C 
ATOM     33  O   UNL     1     -22.602  23.812  42.376  1.00  0.00    -0.294 OA
ATOM     34  C   UNL     1     -21.861  21.937  40.994  1.00  0.00     0.131 C 
BRANCH  27  35
ATOM     35  O   UNL     1     -22.590  26.256  40.659  1.00  0.00    -0.507 OA
ATOM     36  H   UNL     1     -23.000  27.070  40.118  1.00  0.00     0.293 HD
ENDBRANCH  27  35
BRANCH  32  37
ATOM     37  C   UNL     1     -19.860  20.488  41.626  1.00  0.00    -0.007 A 
ATOM     38  C   UNL     1     -20.544  20.370  42.867  1.00  0.00     0.011 A 
ATOM     39  C   UNL     1     -18.485  20.192  41.594  1.00  0.00     0.011 A 
ATOM     40  C   UNL     1     -19.821  20.117  43.997  1.00  0.00     0.046 A 
ATOM     41  C   UNL     1     -17.784  20.034  42.789  1.00  0.00     0.046 A 
ATOM     42  C   UNL     1     -18.440  20.065  43.979  1.00  0.00     0.115 A 
BRANCH  42  43
ATOM     43  O   UNL     1     -17.695  20.369  45.144  1.00  0.00    -0.508 OA
ATOM     44  H   UNL     1     -16.685  20.127  45.075  1.00  0.00     0.293 HD
ENDBRANCH  42  43
ENDBRANCH  32  37
ENDBRANCH  23  24
ENDBRANCH   6  23
BRANCH   3  45
ATOM     45  O   UNL     1     -17.676  27.449  34.081  1.00  0.00    -0.387 OA
ATOM     46  H   UNL     1     -17.933  28.137  33.421  1.00  0.00     0.211 HD
ENDBRANCH   3  45
BRANCH   4  47
ATOM     47  C   UNL     1     -20.776  26.468  32.859  1.00  0.00     0.191 C 
BRANCH  47  48
ATOM     48  O   UNL     1     -20.285  27.505  32.058  1.00  0.00    -0.394 OA
ATOM     49  H   UNL     1     -19.460  27.829  32.510  1.00  0.00     0.210 HD
ENDBRANCH  47  48
ENDBRANCH   4  47
TORSDOF 14
ENDMDL
MODEL 4
REMARK VINA RESULT:    -6.484      5.202      9.512
REMARK INTER + INTRA:         -12.184
REMARK INTER:                 -10.226
REMARK INTRA:                  -1.958
REMARK UNBOUND:                -1.910
REMARK SMILES C[C@H]1O[C@H](O[C@H]2[C@@H](Oc3cc(O)c4c(c3)O[C@@H](c3ccc(O)cc3)CC4=O)O[C@H](CO)[C@@H](O)[C@H]2O)[C@H](O)[C@@H](O)[C@H]1O
REMARK SMILES IDX 6 1 34 2 32 3 29 4 28 5 7 6 5 7 4 8 1 9 2 10 40 11 3 12
REMARK SMILES IDX 38 13 36 14 41 15 39 17 37 19 35 21 8 23 9 24 10 25 15 26
REMARK SMILES IDX 11 27 14 28 13 29 16 30 26 31 17 32 27 33 25 34 12 35 18 37
REMARK SMILES IDX 19 38 24 39 20 40 23 41 21 42 22 43 33 45 30 47 31 48
REMARK H PARENT 41 16 39 18 37 20 35 22 12 36 22 44 33 46 31 49
REMARK Flexibility Score: inf
ROOT
ATOM      1  C   UNL     1     -18.611  26.513  32.436  1.00  0.00     0.221 C 
ATOM      2  C   UNL     1     -19.916  25.955  32.983  1.00  0.00     0.181 C 
ATOM      3  C   UNL     1     -19.764  24.906  34.090  1.00  0.00     0.177 C 
ATOM      4  C   UNL     1     -18.581  23.961  33.854  1.00  0.00     0.179 C 
ATOM      5  O   UNL     1     -18.007  24.136  32.587  1.00  0.00    -0.332 OA
ATOM      6  C   UNL     1     -17.482  25.497  32.442  1.00  0.00     0.339 C 
ENDROOT
BRANCH   1   7
ATOM      7  O   UNL     1     -18.188  27.688  33.066  1.00  0.00    -0.337 OA
BRANCH   7   8
ATOM      8  C   UNL     1     -18.295  28.895  32.257  1.00  0.00     0.282 C 
ATOM      9  C   UNL     1     -20.692  30.876  34.249  1.00  0.00     0.041 C 
ATOM     10  C   UNL     1     -19.383  30.182  33.904  1.00  0.00     0.150 C 
ATOM     11  C   UNL     1     -18.218  31.206  34.044  1.00  0.00     0.174 C 
ATOM     12  O   UNL     1     -19.458  29.660  32.617  1.00  0.00    -0.344 OA
ATOM     13  C   UNL     1     -16.875  30.496  33.665  1.00  0.00     0.179 C 
ATOM     14  C   UNL     1     -17.022  29.822  32.320  1.00  0.00     0.202 C 
BRANCH  11  15
ATOM     15  O   UNL     1     -18.470  32.315  33.178  1.00  0.00    -0.388 OA
ATOM     16  H   UNL     1     -18.319  33.101  33.712  1.00  0.00     0.211 HD
ENDBRANCH  11  15
BRANCH  13  17
ATOM     17  O   UNL     1     -15.886  31.462  33.652  1.00  0.00    -0.387 OA
ATOM     18  H   UNL     1     -16.318  32.374  33.845  1.00  0.00     0.211 HD
ENDBRANCH  13  17
BRANCH  14  19
ATOM     19  O   UNL     1     -15.856  29.097  32.036  1.00  0.00    -0.385 OA
ATOM     20  H   UNL     1     -16.017  28.142  32.381  1.00  0.00     0.211 HD
ENDBRANCH  14  19
ENDBRANCH   7   8
ENDBRANCH   1   7
BRANCH   2  21
ATOM     21  O   UNL     1     -20.831  26.978  33.324  1.00  0.00    -0.387 OA
ATOM     22  H   UNL     1     -20.810  27.110  34.291  1.00  0.00     0.211 HD
ENDBRANCH   2  21
BRANCH   6  23
ATOM     23  O   UNL     1     -16.382  25.807  33.346  1.00  0.00    -0.462 OA
BRANCH  23  24
ATOM     24  C   UNL     1     -15.040  25.516  33.023  1.00  0.00     0.130 A 
ATOM     25  C   UNL     1     -14.227  26.287  32.133  1.00  0.00     0.093 A 
ATOM     26  C   UNL     1     -14.377  24.482  33.718  1.00  0.00     0.094 A 
ATOM     27  C   UNL     1     -12.852  25.945  32.081  1.00  0.00     0.133 A 
ATOM     28  C   UNL     1     -13.412  23.820  32.973  1.00  0.00     0.138 A 
ATOM     29  C   UNL     1     -12.448  24.628  32.413  1.00  0.00     0.102 A 
ATOM     30  O   UNL     1     -13.206  22.411  33.139  1.00  0.00    -0.484 OA
ATOM     31  C   UNL     1     -11.051  24.162  32.802  1.00  0.00     0.174 C 
ATOM     32  C   UNL     1     -12.081  22.012  33.885  1.00  0.00     0.211 C 
ATOM     33  O   UNL     1     -10.003  24.600  32.254  1.00  0.00    -0.294 OA
ATOM     34  C   UNL     1     -10.977  23.131  33.948  1.00  0.00     0.131 C 
BRANCH  27  35
ATOM     35  O   UNL     1     -11.841  26.932  31.919  1.00  0.00    -0.507 OA
ATOM     36  H   UNL     1     -11.882  27.507  31.031  1.00  0.00     0.293 HD
ENDBRANCH  27  35
BRANCH  32  37
ATOM     37  C   UNL     1     -11.499  20.679  33.485  1.00  0.00    -0.007 A 
ATOM     38  C   UNL     1     -10.894  19.882  34.495  1.00  0.00     0.011 A 
ATOM     39  C   UNL     1     -11.100  20.480  32.151  1.00  0.00     0.011 A 
ATOM     40  C   UNL     1      -9.856  19.063  34.153  1.00  0.00     0.046 A 
ATOM     41  C   UNL     1      -9.973  19.705  31.875  1.00  0.00     0.046 A 
ATOM     42  C   UNL     1      -9.322  19.060  32.879  1.00  0.00     0.115 A 
BRANCH  42  43
ATOM     43  O   UNL     1      -7.972  18.687  32.667  1.00  0.00    -0.508 OA
ATOM     44  H   UNL     1      -7.470  19.288  31.982  1.00  0.00     0.293 HD
ENDBRANCH  42  43
ENDBRANCH  32  37
ENDBRANCH  23  24
ENDBRANCH   6  23
BRANCH   3  45
ATOM     45  O   UNL     1     -19.580  25.593  35.336  1.00  0.00    -0.387 OA
ATOM     46  H   UNL     1     -20.504  25.792  35.623  1.00  0.00     0.211 HD
ENDBRANCH   3  45
BRANCH   4  47
ATOM     47  C   UNL     1     -18.917  22.448  34.019  1.00  0.00     0.191 C 
BRANCH  47  48
ATOM     48  O   UNL     1     -19.635  22.284  35.209  1.00  0.00    -0.394 OA
ATOM     49  H   UNL     1     -20.538  21.967  34.938  1.00  0.00     0.210 HD
ENDBRANCH  47  48
ENDBRANCH   4  47
TORSDOF 14
ENDMDL
MODEL 5
REMARK VINA RESULT:    -6.281      2.296      4.168
REMARK INTER + INTRA:         -11.863
REMARK INTER:                 -10.374
REMARK INTRA:                  -1.489
REMARK UNBOUND:                -1.910
REMARK SMILES C[C@H]1O[C@H](O[C@H]2[C@@H](Oc3cc(O)c4c(c3)O[C@@H](c3ccc(O)cc3)CC4=O)O[C@H](CO)[C@@H](O)[C@H]2O)[C@H](O)[C@@H](O)[C@H]1O
REMARK SMILES IDX 6 1 34 2 32 3 29 4 28 5 7 6 5 7 4 8 1 9 2 10 40 11 3 12
REMARK SMILES IDX 38 13 36 14 41 15 39 17 37 19 35 21 8 23 9 24 10 25 15 26
REMARK SMILES IDX 11 27 14 28 13 29 16 30 26 31 17 32 27 33 25 34 12 35 18 37
REMARK SMILES IDX 19 38 24 39 20 40 23 41 21 42 22 43 33 45 30 47 31 48
REMARK H PARENT 41 16 39 18 37 20 35 22 12 36 22 44 33 46 31 49
REMARK Flexibility Score: inf
ROOT
ATOM      1  C   UNL     1     -19.179  26.562  33.957  1.00  0.00     0.221 C 
ATOM      2  C   UNL     1     -18.842  27.931  33.386  1.00  0.00     0.181 C 
ATOM      3  C   UNL     1     -18.490  29.003  34.423  1.00  0.00     0.177 C 
ATOM      4  C   UNL     1     -19.345  28.905  35.691  1.00  0.00     0.179 C 
ATOM      5  O   UNL     1     -20.391  27.982  35.555  1.00  0.00    -0.332 OA
ATOM      6  C   UNL     1     -19.863  26.636  35.312  1.00  0.00     0.339 C 
ENDROOT
BRANCH   1   7
ATOM      7  O   UNL     1     -18.086  25.692  34.030  1.00  0.00    -0.337 OA
BRANCH   7   8
ATOM      8  C   UNL     1     -18.012  24.702  32.964  1.00  0.00     0.282 C 
ATOM      9  C   UNL     1     -14.418  23.858  33.026  1.00  0.00     0.041 C 
ATOM     10  C   UNL     1     -15.856  23.928  33.517  1.00  0.00     0.150 C 
ATOM     11  C   UNL     1     -16.336  22.492  33.881  1.00  0.00     0.174 C 
ATOM     12  O   UNL     1     -16.655  24.503  32.533  1.00  0.00    -0.344 OA
ATOM     13  C   UNL     1     -17.823  22.564  34.361  1.00  0.00     0.179 C 
ATOM     14  C   UNL     1     -18.649  23.311  33.339  1.00  0.00     0.202 C 
BRANCH  11  15
ATOM     15  O   UNL     1     -16.213  21.656  32.727  1.00  0.00    -0.388 OA
ATOM     16  H   UNL     1     -15.984  22.246  32.002  1.00  0.00     0.211 HD
ENDBRANCH  11  15
BRANCH  13  17
ATOM     17  O   UNL     1     -18.266  21.265  34.532  1.00  0.00    -0.387 OA
ATOM     18  H   UNL     1     -19.068  21.109  33.910  1.00  0.00     0.211 HD
ENDBRANCH  13  17
BRANCH  14  19
ATOM     19  O   UNL     1     -19.955  23.468  33.825  1.00  0.00    -0.385 OA
ATOM     20  H   UNL     1     -20.137  24.479  33.846  1.00  0.00     0.211 HD
ENDBRANCH  14  19
ENDBRANCH   7   8
ENDBRANCH   1   7
BRANCH   2  21
ATOM     21  O   UNL     1     -17.892  27.852  32.341  1.00  0.00    -0.387 OA
ATOM     22  H   UNL     1     -18.319  28.124  31.506  1.00  0.00     0.211 HD
ENDBRANCH   2  21
BRANCH   6  23
ATOM     23  O   UNL     1     -19.089  26.095  36.420  1.00  0.00    -0.462 OA
BRANCH  23  24
ATOM     24  C   UNL     1     -19.700  25.505  37.546  1.00  0.00     0.130 A 
ATOM     25  C   UNL     1     -20.177  24.157  37.607  1.00  0.00     0.093 A 
ATOM     26  C   UNL     1     -19.733  26.222  38.762  1.00  0.00     0.094 A 
ATOM     27  C   UNL     1     -20.589  23.692  38.882  1.00  0.00     0.133 A 
ATOM     28  C   UNL     1     -20.839  25.952  39.555  1.00  0.00     0.138 A 
ATOM     29  C   UNL     1     -21.037  24.623  39.851  1.00  0.00     0.102 A 
ATOM     30  O   UNL     1     -21.446  26.993  40.331  1.00  0.00    -0.484 OA
ATOM     31  C   UNL     1     -21.143  24.408  41.355  1.00  0.00     0.174 C 
ATOM     32  C   UNL     1     -21.177  27.002  41.713  1.00  0.00     0.211 C 
ATOM     33  O   UNL     1     -21.532  23.324  41.870  1.00  0.00    -0.294 OA
ATOM     34  C   UNL     1     -20.708  25.596  42.240  1.00  0.00     0.131 C 
BRANCH  27  35
ATOM     35  O   UNL     1     -20.365  22.351  39.298  1.00  0.00    -0.507 OA
ATOM     36  H   UNL     1     -19.957  22.220  40.267  1.00  0.00     0.293 HD
ENDBRANCH  27  35
BRANCH  32  37
ATOM     37  C   UNL     1     -22.279  27.577  42.567  1.00  0.00    -0.007 A 
ATOM     38  C   UNL     1     -22.351  28.990  42.706  1.00  0.00     0.011 A 
ATOM     39  C   UNL     1     -22.851  26.779  43.574  1.00  0.00     0.011 A 
ATOM     40  C   UNL     1     -22.839  29.514  43.869  1.00  0.00     0.046 A 
ATOM     41  C   UNL     1     -23.245  27.363  44.778  1.00  0.00     0.046 A 
ATOM     42  C   UNL     1     -23.174  28.711  44.942  1.00  0.00     0.115 A 
BRANCH  42  43
ATOM     43  O   UNL     1     -23.125  29.220  46.263  1.00  0.00    -0.508 OA
ATOM     44  H   UNL     1     -23.520  28.577  46.979  1.00  0.00     0.293 HD
ENDBRANCH  42  43
ENDBRANCH  32  37
ENDBRANCH  23  24
ENDBRANCH   6  23
BRANCH   3  45
ATOM     45  O   UNL     1     -17.106  28.850  34.773  1.00  0.00    -0.387 OA
ATOM     46  H   UNL     1     -17.111  28.937  35.757  1.00  0.00     0.211 HD
ENDBRANCH   3  45
BRANCH   4  47
ATOM     47  C   UNL     1     -19.963  30.257  36.161  1.00  0.00     0.191 C 
BRANCH  47  48
ATOM     48  O   UNL     1     -21.275  30.331  35.680  1.00  0.00    -0.394 OA
ATOM     49  H   UNL     1     -21.460  29.449  35.261  1.00  0.00     0.210 HD
ENDBRANCH  47  48
ENDBRANCH   4  47
TORSDOF 14
ENDMDL
MODEL 6
REMARK VINA RESULT:    -6.257      4.265      9.031
REMARK INTER + INTRA:         -11.824
REMARK INTER:                 -10.074
REMARK INTRA:                  -1.750
REMARK UNBOUND:                -1.910
REMARK SMILES C[C@H]1O[C@H](O[C@H]2[C@@H](Oc3cc(O)c4c(c3)O[C@@H](c3ccc(O)cc3)CC4=O)O[C@H](CO)[C@@H](O)[C@H]2O)[C@H](O)[C@@H](O)[C@H]1O
REMARK SMILES IDX 6 1 34 2 32 3 29 4 28 5 7 6 5 7 4 8 1 9 2 10 40 11 3 12
REMARK SMILES IDX 38 13 36 14 41 15 39 17 37 19 35 21 8 23 9 24 10 25 15 26
REMARK SMILES IDX 11 27 14 28 13 29 16 30 26 31 17 32 27 33 25 34 12 35 18 37
REMARK SMILES IDX 19 38 24 39 20 40 23 41 21 42 22 43 33 45 30 47 31 48
REMARK H PARENT 41 16 39 18 37 20 35 22 12 36 22 44 33 46 31 49
REMARK Flexibility Score: inf
ROOT
ATOM      1  C   UNL     1     -19.568  24.460  36.302  1.00  0.00     0.221 C 
ATOM      2  C   UNL     1     -20.239  23.625  35.222  1.00  0.00     0.181 C 
ATOM      3  C   UNL     1     -19.283  22.902  34.267  1.00  0.00     0.177 C 
ATOM      4  C   UNL     1     -18.051  23.741  33.913  1.00  0.00     0.179 C 
ATOM      5  O   UNL     1     -18.152  25.058  34.384  1.00  0.00    -0.332 OA
ATOM      6  C   UNL     1     -18.256  25.075  35.846  1.00  0.00     0.339 C 
ENDROOT
BRANCH   1   7
ATOM      7  O   UNL     1     -19.373  23.778  37.507  1.00  0.00    -0.337 OA
BRANCH   7   8
ATOM      8  C   UNL     1     -20.144  24.283  38.635  1.00  0.00     0.282 C 
ATOM      9  C   UNL     1     -22.683  21.628  39.009  1.00  0.00     0.041 C 
ATOM     10  C   UNL     1     -21.306  22.274  39.040  1.00  0.00     0.150 C 
ATOM     11  C   UNL     1     -20.680  22.058  40.451  1.00  0.00     0.174 C 
ATOM     12  O   UNL     1     -21.418  23.625  38.730  1.00  0.00    -0.344 OA
ATOM     13  C   UNL     1     -19.275  22.744  40.489  1.00  0.00     0.179 C 
ATOM     14  C   UNL     1     -19.398  24.176  40.019  1.00  0.00     0.202 C 
BRANCH  11  15
ATOM     15  O   UNL     1     -21.550  22.623  41.435  1.00  0.00    -0.388 OA
ATOM     16  H   UNL     1     -20.979  22.902  42.157  1.00  0.00     0.211 HD
ENDBRANCH  11  15
BRANCH  13  17
ATOM     17  O   UNL     1     -18.812  22.667  41.790  1.00  0.00    -0.387 OA
ATOM     18  H   UNL     1     -19.101  23.517  42.290  1.00  0.00     0.211 HD
ENDBRANCH  13  17
BRANCH  14  19
ATOM     19  O   UNL     1     -18.121  24.752  39.950  1.00  0.00    -0.385 OA
ATOM     20  H   UNL     1     -17.466  24.050  40.316  1.00  0.00     0.211 HD
ENDBRANCH  14  19
ENDBRANCH   7   8
ENDBRANCH   1   7
BRANCH   2  21
ATOM     21  O   UNL     1     -21.231  22.768  35.752  1.00  0.00    -0.387 OA
ATOM     22  H   UNL     1     -21.817  22.477  35.026  1.00  0.00     0.211 HD
ENDBRANCH   2  21
BRANCH   6  23
ATOM     23  O   UNL     1     -17.072  24.572  36.530  1.00  0.00    -0.462 OA
BRANCH  23  24
ATOM     24  C   UNL     1     -15.766  24.849  36.074  1.00  0.00     0.130 A 
ATOM     25  C   UNL     1     -15.257  26.156  35.793  1.00  0.00     0.093 A 
ATOM     26  C   UNL     1     -14.825  23.799  36.013  1.00  0.00     0.094 A 
ATOM     27  C   UNL     1     -13.867  26.247  35.525  1.00  0.00     0.133 A 
ATOM     28  C   UNL     1     -13.883  23.933  35.004  1.00  0.00     0.138 A 
ATOM     29  C   UNL     1     -13.183  25.118  35.010  1.00  0.00     0.102 A 
ATOM     30  O   UNL     1     -13.400  22.779  34.305  1.00  0.00    -0.484 OA
ATOM     31  C   UNL     1     -11.681  24.866  35.024  1.00  0.00     0.174 C 
ATOM     32  C   UNL     1     -12.117  22.310  34.651  1.00  0.00     0.211 C 
ATOM     33  O   UNL     1     -10.829  25.773  34.820  1.00  0.00    -0.294 OA
ATOM     34  C   UNL     1     -11.241  23.421  35.340  1.00  0.00     0.131 C 
BRANCH  27  35
ATOM     35  O   UNL     1     -13.092  27.357  35.957  1.00  0.00    -0.507 OA
ATOM     36  H   UNL     1     -12.211  27.134  36.502  1.00  0.00     0.293 HD
ENDBRANCH  27  35
BRANCH  32  37
ATOM     37  C   UNL     1     -11.371  21.628  33.532  1.00  0.00    -0.007 A 
ATOM     38  C   UNL     1     -11.884  20.398  33.036  1.00  0.00     0.011 A 
ATOM     39  C   UNL     1     -10.001  21.895  33.361  1.00  0.00     0.011 A 
ATOM     40  C   UNL     1     -11.011  19.469  32.549  1.00  0.00     0.046 A 
ATOM     41  C   UNL     1      -9.144  20.874  32.947  1.00  0.00     0.046 A 
ATOM     42  C   UNL     1      -9.643  19.655  32.610  1.00  0.00     0.115 A 
BRANCH  42  43
ATOM     43  O   UNL     1      -8.768  18.542  32.650  1.00  0.00    -0.508 OA
ATOM     44  H   UNL     1      -8.309  18.332  31.740  1.00  0.00     0.293 HD
ENDBRANCH  42  43
ENDBRANCH  32  37
ENDBRANCH  23  24
ENDBRANCH   6  23
BRANCH   3  45
ATOM     45  O   UNL     1     -18.861  21.682  34.894  1.00  0.00    -0.387 OA
ATOM     46  H   UNL     1     -18.007  21.931  35.321  1.00  0.00     0.211 HD
ENDBRANCH   3  45
BRANCH   4  47
ATOM     47  C   UNL     1     -17.726  23.805  32.390  1.00  0.00     0.191 C 
BRANCH  47  48
ATOM     48  O   UNL     1     -17.773  22.505  31.875  1.00  0.00    -0.394 OA
ATOM     49  H   UNL     1     -18.051  21.923  32.632  1.00  0.00     0.210 HD
ENDBRANCH  47  48
ENDBRANCH   4  47
TORSDOF 14
ENDMDL
MODEL 7
REMARK VINA RESULT:    -6.198      2.232      4.003
REMARK INTER + INTRA:         -11.731
REMARK INTER:                  -9.621
REMARK INTRA:                  -2.110
REMARK UNBOUND:                -1.910
REMARK SMILES C[C@H]1O[C@H](O[C@H]2[C@@H](Oc3cc(O)c4c(c3)O[C@@H](c3ccc(O)cc3)CC4=O)O[C@H](CO)[C@@H](O)[C@H]2O)[C@H](O)[C@@H](O)[C@H]1O
REMARK SMILES IDX 6 1 34 2 32 3 29 4 28 5 7 6 5 7 4 8 1 9 2 10 40 11 3 12
REMARK SMILES IDX 38 13 36 14 41 15 39 17 37 19 35 21 8 23 9 24 10 25 15 26
REMARK SMILES IDX 11 27 14 28 13 29 16 30 26 31 17 32 27 33 25 34 12 35 18 37
REMARK SMILES IDX 19 38 24 39 20 40 23 41 21 42 22 43 33 45 30 47 31 48
REMARK H PARENT 41 16 39 18 37 20 35 22 12 36 22 44 33 46 31 49
REMARK Flexibility Score: inf
ROOT
ATOM      1  C   UNL     1     -16.699  27.133  36.614  1.00  0.00     0.221 C 
ATOM      2  C   UNL     1     -15.443  26.293  36.436  1.00  0.00     0.181 C 
ATOM      3  C   UNL     1     -15.542  24.854  36.955  1.00  0.00     0.177 C 
ATOM      4  C   UNL     1     -16.342  24.747  38.257  1.00  0.00     0.179 C 
ATOM      5  O   UNL     1     -16.650  26.004  38.796  1.00  0.00    -0.332 OA
ATOM      6  C   UNL     1     -17.482  26.774  37.865  1.00  0.00     0.339 C 
ENDROOT
BRANCH   1   7
ATOM      7  O   UNL     1     -17.552  27.120  35.506  1.00  0.00    -0.337 OA
BRANCH   7   8
ATOM      8  C   UNL     1     -18.087  28.419  35.121  1.00  0.00     0.282 C 
ATOM      9  C   UNL     1     -16.107  29.134  32.087  1.00  0.00     0.041 C 
ATOM     10  C   UNL     1     -17.132  28.434  32.967  1.00  0.00     0.150 C 
ATOM     11  C   UNL     1     -18.504  28.421  32.230  1.00  0.00     0.174 C 
ATOM     12  O   UNL     1     -17.214  29.086  34.193  1.00  0.00    -0.344 OA
ATOM     13  C   UNL     1     -19.562  27.723  33.147  1.00  0.00     0.179 C 
ATOM     14  C   UNL     1     -19.541  28.360  34.518  1.00  0.00     0.202 C 
BRANCH  11  15
ATOM     15  O   UNL     1     -18.888  29.768  31.942  1.00  0.00    -0.388 OA
ATOM     16  H   UNL     1     -18.513  29.965  31.078  1.00  0.00     0.211 HD
ENDBRANCH  11  15
BRANCH  13  17
ATOM     17  O   UNL     1     -20.795  27.860  32.535  1.00  0.00    -0.387 OA
ATOM     18  H   UNL     1     -21.296  26.966  32.607  1.00  0.00     0.211 HD
ENDBRANCH  13  17
BRANCH  14  19
ATOM     19  O   UNL     1     -20.411  27.660  35.367  1.00  0.00    -0.385 OA
ATOM     20  H   UNL     1     -20.212  27.988  36.320  1.00  0.00     0.211 HD
ENDBRANCH  14  19
ENDBRANCH   7   8
ENDBRANCH   1   7
BRANCH   2  21
ATOM     21  O   UNL     1     -14.939  26.362  35.117  1.00  0.00    -0.387 OA
ATOM     22  H   UNL     1     -14.577  25.489  34.871  1.00  0.00     0.211 HD
ENDBRANCH   2  21
BRANCH   6  23
ATOM     23  O   UNL     1     -18.794  26.190  37.621  1.00  0.00    -0.462 OA
BRANCH  23  24
ATOM     24  C   UNL     1     -19.571  25.630  38.656  1.00  0.00     0.130 A 
ATOM     25  C   UNL     1     -20.420  26.373  39.536  1.00  0.00     0.093 A 
ATOM     26  C   UNL     1     -19.650  24.225  38.770  1.00  0.00     0.094 A 
ATOM     27  C   UNL     1     -21.262  25.614  40.388  1.00  0.00     0.133 A 
ATOM     28  C   UNL     1     -19.812  23.765  40.069  1.00  0.00     0.138 A 
ATOM     29  C   UNL     1     -20.883  24.297  40.750  1.00  0.00     0.102 A 
ATOM     30  O   UNL     1     -19.184  22.547  40.490  1.00  0.00    -0.484 OA
ATOM     31  C   UNL     1     -21.781  23.198  41.301  1.00  0.00     0.174 C 
ATOM     32  C   UNL     1     -20.005  21.408  40.597  1.00  0.00     0.211 C 
ATOM     33  O   UNL     1     -22.703  23.416  42.134  1.00  0.00    -0.294 OA
ATOM     34  C   UNL     1     -21.526  21.778  40.753  1.00  0.00     0.131 C 
BRANCH  27  35
ATOM     35  O   UNL     1     -22.576  26.044  40.719  1.00  0.00    -0.507 OA
ATOM     36  H   UNL     1     -22.742  27.091  40.726  1.00  0.00     0.293 HD
ENDBRANCH  27  35
BRANCH  32  37
ATOM     37  C   UNL     1     -19.566  20.409  41.639  1.00  0.00    -0.007 A 
ATOM     38  C   UNL     1     -20.198  20.447  42.911  1.00  0.00     0.011 A 
ATOM     39  C   UNL     1     -18.277  19.852  41.552  1.00  0.00     0.011 A 
ATOM     40  C   UNL     1     -19.482  20.078  44.014  1.00  0.00     0.046 A 
ATOM     41  C   UNL     1     -17.560  19.583  42.718  1.00  0.00     0.046 A 
ATOM     42  C   UNL     1     -18.140  19.760  43.935  1.00  0.00     0.115 A 
BRANCH  42  43
ATOM     43  O   UNL     1     -17.294  19.935  45.058  1.00  0.00    -0.508 OA
ATOM     44  H   UNL     1     -17.083  19.053  45.570  1.00  0.00     0.293 HD
ENDBRANCH  42  43
ENDBRANCH  32  37
ENDBRANCH  23  24
ENDBRANCH   6  23
BRANCH   3  45
ATOM     45  O   UNL     1     -16.174  24.055  35.944  1.00  0.00    -0.387 OA
ATOM     46  H   UNL     1     -15.420  23.779  35.370  1.00  0.00     0.211 HD
ENDBRANCH   3  45
BRANCH   4  47
ATOM     47  C   UNL     1     -15.652  23.908  39.375  1.00  0.00     0.191 C 
BRANCH  47  48
ATOM     48  O   UNL     1     -16.307  22.675  39.467  1.00  0.00    -0.394 OA
ATOM     49  H   UNL     1     -16.113  22.332  40.380  1.00  0.00     0.210 HD
ENDBRANCH  47  48
ENDBRANCH   4  47
TORSDOF 14
ENDMDL
MODEL 8
REMARK VINA RESULT:    -6.193     12.222     14.843
REMARK INTER + INTRA:         -11.723
REMARK INTER:                  -9.875
REMARK INTRA:                  -1.849
REMARK UNBOUND:                -1.910
REMARK SMILES C[C@H]1O[C@H](O[C@H]2[C@@H](Oc3cc(O)c4c(c3)O[C@@H](c3ccc(O)cc3)CC4=O)O[C@H](CO)[C@@H](O)[C@H]2O)[C@H](O)[C@@H](O)[C@H]1O
REMARK SMILES IDX 6 1 34 2 32 3 29 4 28 5 7 6 5 7 4 8 1 9 2 10 40 11 3 12
REMARK SMILES IDX 38 13 36 14 41 15 39 17 37 19 35 21 8 23 9 24 10 25 15 26
REMARK SMILES IDX 11 27 14 28 13 29 16 30 26 31 17 32 27 33 25 34 12 35 18 37
REMARK SMILES IDX 19 38 24 39 20 40 23 41 21 42 22 43 33 45 30 47 31 48
REMARK H PARENT 41 16 39 18 37 20 35 22 12 36 22 44 33 46 31 49
REMARK Flexibility Score: inf
ROOT
ATOM      1  C   UNL     1      -6.750  28.396  45.978  1.00  0.00     0.221 C 
ATOM      2  C   UNL     1      -5.499  27.601  46.319  1.00  0.00     0.181 C 
ATOM      3  C   UNL     1      -4.769  26.986  45.120  1.00  0.00     0.177 C 
ATOM      4  C   UNL     1      -5.729  26.457  44.049  1.00  0.00     0.179 C 
ATOM      5  O   UNL     1      -7.064  26.475  44.478  1.00  0.00    -0.332 OA
ATOM      6  C   UNL     1      -7.492  27.846  44.771  1.00  0.00     0.339 C 
ENDROOT
BRANCH   1   7
ATOM      7  O   UNL     1      -6.524  29.766  45.806  1.00  0.00    -0.337 OA
BRANCH   7   8
ATOM      8  C   UNL     1      -7.002  30.612  46.891  1.00  0.00     0.282 C 
ATOM      9  C   UNL     1      -3.987  32.618  47.610  1.00  0.00     0.041 C 
ATOM     10  C   UNL     1      -5.190  32.117  46.827  1.00  0.00     0.150 C 
ATOM     11  C   UNL     1      -6.065  33.337  46.410  1.00  0.00     0.174 C 
ATOM     12  O   UNL     1      -5.906  31.212  47.603  1.00  0.00    -0.344 OA
ATOM     13  C   UNL     1      -7.315  32.817  45.626  1.00  0.00     0.179 C 
ATOM     14  C   UNL     1      -8.003  31.738  46.431  1.00  0.00     0.202 C 
BRANCH  11  15
ATOM     15  O   UNL     1      -6.460  34.046  47.587  1.00  0.00    -0.388 OA
ATOM     16  H   UNL     1      -7.134  34.670  47.300  1.00  0.00     0.211 HD
ENDBRANCH  11  15
BRANCH  13  17
ATOM     17  O   UNL     1      -8.143  33.901  45.403  1.00  0.00    -0.387 OA
ATOM     18  H   UNL     1      -8.730  33.700  44.584  1.00  0.00     0.211 HD
ENDBRANCH  13  17
BRANCH  14  19
ATOM     19  O   UNL     1      -9.056  31.199  45.677  1.00  0.00    -0.385 OA
ATOM     20  H   UNL     1      -8.626  30.575  44.983  1.00  0.00     0.211 HD
ENDBRANCH  14  19
ENDBRANCH   7   8
ENDBRANCH   1   7
BRANCH   2  21
ATOM     21  O   UNL     1      -4.631  28.317  47.176  1.00  0.00    -0.387 OA
ATOM     22  H   UNL     1      -4.015  27.688  47.599  1.00  0.00     0.211 HD
ENDBRANCH   2  21
BRANCH   6  23
ATOM     23  O   UNL     1      -7.508  28.724  43.609  1.00  0.00    -0.462 OA
BRANCH  23  24
ATOM     24  C   UNL     1      -8.646  28.864  42.788  1.00  0.00     0.130 A 
ATOM     25  C   UNL     1      -9.226  30.112  42.398  1.00  0.00     0.093 A 
ATOM     26  C   UNL     1      -9.194  27.715  42.177  1.00  0.00     0.094 A 
ATOM     27  C   UNL     1     -10.252  30.052  41.420  1.00  0.00     0.133 A 
ATOM     28  C   UNL     1     -10.567  27.769  41.985  1.00  0.00     0.138 A 
ATOM     29  C   UNL     1     -11.019  28.867  41.288  1.00  0.00     0.102 A 
ATOM     30  O   UNL     1     -11.366  26.588  42.125  1.00  0.00    -0.484 OA
ATOM     31  C   UNL     1     -11.865  28.446  40.094  1.00  0.00     0.174 C 
ATOM     32  C   UNL     1     -11.805  25.968  40.939  1.00  0.00     0.211 C 
ATOM     33  O   UNL     1     -12.563  29.256  39.425  1.00  0.00    -0.294 OA
ATOM     34  C   UNL     1     -11.798  26.952  39.711  1.00  0.00     0.131 C 
BRANCH  27  35
ATOM     35  O   UNL     1     -10.397  31.055  40.424  1.00  0.00    -0.507 OA
ATOM     36  H   UNL     1      -9.801  30.946  39.555  1.00  0.00     0.293 HD
ENDBRANCH  27  35
BRANCH  32  37
ATOM     37  C   UNL     1     -13.119  25.237  41.058  1.00  0.00    -0.007 A 
ATOM     38  C   UNL     1     -13.088  23.846  41.352  1.00  0.00     0.011 A 
ATOM     39  C   UNL     1     -14.251  25.753  40.402  1.00  0.00     0.011 A 
ATOM     40  C   UNL     1     -14.081  23.047  40.863  1.00  0.00     0.046 A 
ATOM     41  C   UNL     1     -15.185  24.880  39.844  1.00  0.00     0.046 A 
ATOM     42  C   UNL     1     -15.059  23.538  40.019  1.00  0.00     0.115 A 
BRANCH  42  43
ATOM     43  O   UNL     1     -15.706  22.681  39.095  1.00  0.00    -0.508 OA
ATOM     44  H   UNL     1     -15.688  21.676  39.367  1.00  0.00     0.293 HD
ENDBRANCH  42  43
ENDBRANCH  32  37
ENDBRANCH  23  24
ENDBRANCH   6  23
BRANCH   3  45
ATOM     45  O   UNL     1      -3.926  27.994  44.543  1.00  0.00    -0.387 OA
ATOM     46  H   UNL     1      -3.033  27.572  44.549  1.00  0.00     0.211 HD
ENDBRANCH   3  45
BRANCH   4  47
ATOM     47  C   UNL     1      -5.411  25.015  43.549  1.00  0.00     0.191 C 
BRANCH  47  48
ATOM     48  O   UNL     1      -6.509  24.553  42.815  1.00  0.00    -0.394 OA
ATOM     49  H   UNL     1      -6.150  23.860  42.199  1.00  0.00     0.210 HD
ENDBRANCH  47  48
ENDBRANCH   4  47
TORSDOF 14
ENDMDL
MODEL 9
REMARK VINA RESULT:    -6.055     12.797     15.379
REMARK INTER + INTRA:         -11.504
REMARK INTER:                  -9.240
REMARK INTRA:                  -2.264
REMARK UNBOUND:                -1.910
REMARK SMILES C[C@H]1O[C@H](O[C@H]2[C@@H](Oc3cc(O)c4c(c3)O[C@@H](c3ccc(O)cc3)CC4=O)O[C@H](CO)[C@@H](O)[C@H]2O)[C@H](O)[C@@H](O)[C@H]1O
REMARK SMILES IDX 6 1 34 2 32 3 29 4 28 5 7 6 5 7 4 8 1 9 2 10 40 11 3 12
REMARK SMILES IDX 38 13 36 14 41 15 39 17 37 19 35 21 8 23 9 24 10 25 15 26
REMARK SMILES IDX 11 27 14 28 13 29 16 30 26 31 17 32 27 33 25 34 12 35 18 37
REMARK SMILES IDX 19 38 24 39 20 40 23 41 21 42 22 43 33 45 30 47 31 48
REMARK H PARENT 41 16 39 18 37 20 35 22 12 36 22 44 33 46 31 49
REMARK Flexibility Score: inf
ROOT
ATOM      1  C   UNL     1      -6.396  28.747  46.471  1.00  0.00     0.221 C 
ATOM      2  C   UNL     1      -4.985  28.177  46.488  1.00  0.00     0.181 C 
ATOM      3  C   UNL     1      -4.583  27.392  45.234  1.00  0.00     0.177 C 
ATOM      4  C   UNL     1      -5.729  26.548  44.669  1.00  0.00     0.179 C 
ATOM      5  O   UNL     1      -6.841  26.523  45.524  1.00  0.00    -0.332 OA
ATOM      6  C   UNL     1      -7.379  27.874  45.708  1.00  0.00     0.339 C 
ENDROOT
BRANCH   1   7
ATOM      7  O   UNL     1      -6.471  30.062  45.999  1.00  0.00    -0.337 OA
BRANCH   7   8
ATOM      8  C   UNL     1      -7.152  30.997  46.884  1.00  0.00     0.282 C 
ATOM      9  C   UNL     1      -4.387  33.276  47.774  1.00  0.00     0.041 C 
ATOM     10  C   UNL     1      -5.429  32.604  46.893  1.00  0.00     0.150 C 
ATOM     11  C   UNL     1      -6.288  33.703  46.200  1.00  0.00     0.174 C 
ATOM     12  O   UNL     1      -6.211  31.752  47.666  1.00  0.00    -0.344 OA
ATOM     13  C   UNL     1      -7.375  33.008  45.314  1.00  0.00     0.179 C 
ATOM     14  C   UNL     1      -8.125  31.988  46.141  1.00  0.00     0.202 C 
BRANCH  11  15
ATOM     15  O   UNL     1      -6.895  34.519  47.204  1.00  0.00    -0.388 OA
ATOM     16  H   UNL     1      -7.771  34.735  46.869  1.00  0.00     0.211 HD
ENDBRANCH  11  15
BRANCH  13  17
ATOM     17  O   UNL     1      -8.212  33.998  44.833  1.00  0.00    -0.387 OA
ATOM     18  H   UNL     1      -7.751  34.458  44.038  1.00  0.00     0.211 HD
ENDBRANCH  13  17
BRANCH  14  19
ATOM     19  O   UNL     1      -9.021  31.292  45.316  1.00  0.00    -0.385 OA
ATOM     20  H   UNL     1      -8.772  31.535  44.349  1.00  0.00     0.211 HD
ENDBRANCH  14  19
ENDBRANCH   7   8
ENDBRANCH   1   7
BRANCH   2  21
ATOM     21  O   UNL     1      -4.024  29.147  46.855  1.00  0.00    -0.387 OA
ATOM     22  H   UNL     1      -4.487  29.961  47.133  1.00  0.00     0.211 HD
ENDBRANCH   2  21
BRANCH   6  23
ATOM     23  O   UNL     1      -7.913  28.471  44.491  1.00  0.00    -0.462 OA
BRANCH  23  24
ATOM     24  C   UNL     1      -8.820  27.788  43.655  1.00  0.00     0.130 A 
ATOM     25  C   UNL     1     -10.239  27.764  43.833  1.00  0.00     0.093 A 
ATOM     26  C   UNL     1      -8.341  27.192  42.468  1.00  0.00     0.094 A 
ATOM     27  C   UNL     1     -10.996  27.181  42.786  1.00  0.00     0.133 A 
ATOM     28  C   UNL     1      -9.032  26.052  42.082  1.00  0.00     0.138 A 
ATOM     29  C   UNL     1     -10.393  26.209  41.949  1.00  0.00     0.102 A 
ATOM     30  O   UNL     1      -8.339  24.956  41.472  1.00  0.00    -0.484 OA
ATOM     31  C   UNL     1     -10.863  25.760  40.571  1.00  0.00     0.174 C 
ATOM     32  C   UNL     1      -8.472  24.811  40.078  1.00  0.00     0.211 C 
ATOM     33  O   UNL     1     -12.079  25.605  40.276  1.00  0.00    -0.294 OA
ATOM     34  C   UNL     1      -9.755  25.532  39.521  1.00  0.00     0.131 C 
BRANCH  27  35
ATOM     35  O   UNL     1     -12.268  27.690  42.407  1.00  0.00    -0.507 OA
ATOM     36  H   UNL     1     -12.267  28.546  41.783  1.00  0.00     0.293 HD
ENDBRANCH  27  35
BRANCH  32  37
ATOM     37  C   UNL     1      -8.372  23.391  39.579  1.00  0.00    -0.007 A 
ATOM     38  C   UNL     1      -9.420  22.894  38.757  1.00  0.00     0.011 A 
ATOM     39  C   UNL     1      -7.596  22.465  40.300  1.00  0.00     0.011 A 
ATOM     40  C   UNL     1      -9.725  21.563  38.810  1.00  0.00     0.046 A 
ATOM     41  C   UNL     1      -8.012  21.137  40.392  1.00  0.00     0.046 A 
ATOM     42  C   UNL     1      -9.105  20.712  39.705  1.00  0.00     0.115 A 
BRANCH  42  43
ATOM     43  O   UNL     1      -9.766  19.544  40.158  1.00  0.00    -0.508 OA
ATOM     44  H   UNL     1      -9.693  19.389  41.185  1.00  0.00     0.293 HD
ENDBRANCH  42  43
ENDBRANCH  32  37
ENDBRANCH  23  24
ENDBRANCH   6  23
BRANCH   3  45
ATOM     45  O   UNL     1      -4.151  28.331  44.237  1.00  0.00    -0.387 OA
ATOM     46  H   UNL     1      -4.995  28.606  43.805  1.00  0.00     0.211 HD
ENDBRANCH   3  45
BRANCH   4  47
ATOM     47  C   UNL     1      -5.348  25.072  44.344  1.00  0.00     0.191 C 
BRANCH  47  48
ATOM     48  O   UNL     1      -6.081  24.665  43.224  1.00  0.00    -0.394 OA
ATOM     49  H   UNL     1      -5.519  24.888  42.436  1.00  0.00     0.210 HD
ENDBRANCH  47  48
ENDBRANCH   4  47
TORSDOF 14
ENDMDL
