MODEL 1
REMARK VINA RESULT:    -5.071      0.000      0.000
REMARK INTER + INTRA:          -5.543
REMARK INTER:                  -5.516
REMARK INTRA:                  -0.027
REMARK UNBOUND:                -0.027
REMARK SMILES O=C([O-])c1ccc(O)cc1
REMARK SMILES IDX 4 1 5 2 10 3 6 4 9 5 7 6 2 7 1 8 3 9 8 10
REMARK H PARENT 8 11
REMARK Flexibility Score: inf
ROOT
ATOM      1  C   UNL     1      15.202  -5.204  15.787  1.00  0.00    -0.003 A 
ATOM      2  C   UNL     1      16.536  -4.848  16.053  1.00  0.00     0.014 A 
ATOM      3  C   UNL     1      14.167  -4.373  16.258  1.00  0.00     0.014 A 
ATOM      4  C   UNL     1      16.828  -3.686  16.773  1.00  0.00     0.047 A 
ATOM      5  C   UNL     1      14.464  -3.212  16.978  1.00  0.00     0.047 A 
ATOM      6  C   UNL     1      15.793  -2.865  17.238  1.00  0.00     0.115 A 
ENDROOT
BRANCH   1   7
ATOM      7  C   UNL     1      14.894  -6.434  15.025  1.00  0.00     0.071 C 
ATOM      8  O   UNL     1      14.883  -7.556  15.597  1.00  0.00    -0.545 OA
ATOM      9  O   UNL     1      14.612  -6.368  13.665  1.00  0.00    -0.545 OA
ENDBRANCH   1   7
BRANCH   6  10
ATOM     10  O   UNL     1      16.073  -1.704  17.956  1.00  0.00    -0.508 OA
ATOM     11  H   UNL     1      16.421  -0.870  17.499  1.00  0.00     0.293 HD
ENDBRANCH   6  10
TORSDOF 2
ENDMDL
MODEL 2
REMARK VINA RESULT:    -5.038      4.591      6.497
REMARK INTER + INTRA:          -5.507
REMARK INTER:                  -5.473
REMARK INTRA:                  -0.034
REMARK UNBOUND:                -0.027
REMARK SMILES O=C([O-])c1ccc(O)cc1
REMARK SMILES IDX 4 1 5 2 10 3 6 4 9 5 7 6 2 7 1 8 3 9 8 10
REMARK H PARENT 8 11
REMARK Flexibility Score: inf
ROOT
ATOM      1  C   UNL     1      16.149  -5.552  11.371  1.00  0.00    -0.003 A 
ATOM      2  C   UNL     1      14.890  -5.465  11.993  1.00  0.00     0.014 A 
ATOM      3  C   UNL     1      16.211  -5.637   9.967  1.00  0.00     0.014 A 
ATOM      4  C   UNL     1      13.721  -5.462  11.226  1.00  0.00     0.047 A 
ATOM      5  C   UNL     1      15.039  -5.633   9.205  1.00  0.00     0.047 A 
ATOM      6  C   UNL     1      13.792  -5.546   9.830  1.00  0.00     0.115 A 
ENDROOT
BRANCH   1   7
ATOM      7  C   UNL     1      17.386  -5.555  12.183  1.00  0.00     0.071 C 
ATOM      8  O   UNL     1      18.447  -6.059  11.730  1.00  0.00    -0.545 OA
ATOM      9  O   UNL     1      17.392  -5.002  13.458  1.00  0.00    -0.545 OA
ENDBRANCH   1   7
BRANCH   6  10
ATOM     10  O   UNL     1      12.633  -5.544   9.057  1.00  0.00    -0.508 OA
ATOM     11  H   UNL     1      12.083  -6.385   8.927  1.00  0.00     0.293 HD
ENDBRANCH   6  10
TORSDOF 2
ENDMDL
MODEL 3
REMARK VINA RESULT:    -5.009      3.817      5.048
REMARK INTER + INTRA:          -5.475
REMARK INTER:                  -5.446
REMARK INTRA:                  -0.029
REMARK UNBOUND:                -0.027
REMARK SMILES O=C([O-])c1ccc(O)cc1
REMARK SMILES IDX 4 1 5 2 10 3 6 4 9 5 7 6 2 7 1 8 3 9 8 10
REMARK H PARENT 8 11
REMARK Flexibility Score: inf
ROOT
ATOM      1  C   UNL     1      14.476  -5.777  11.528  1.00  0.00    -0.003 A 
ATOM      2  C   UNL     1      15.880  -5.706  11.549  1.00  0.00     0.014 A 
ATOM      3  C   UNL     1      13.803  -6.298  12.650  1.00  0.00     0.014 A 
ATOM      4  C   UNL     1      16.595  -6.147  12.667  1.00  0.00     0.047 A 
ATOM      5  C   UNL     1      14.522  -6.737  13.766  1.00  0.00     0.047 A 
ATOM      6  C   UNL     1      15.917  -6.664  13.778  1.00  0.00     0.115 A 
ENDROOT
BRANCH   1   7
ATOM      7  C   UNL     1      13.721  -5.310  10.345  1.00  0.00     0.071 C 
ATOM      8  O   UNL     1      12.831  -4.427  10.460  1.00  0.00    -0.545 OA
ATOM      9  O   UNL     1      13.984  -5.842   9.087  1.00  0.00    -0.545 OA
ENDBRANCH   1   7
BRANCH   6  10
ATOM     10  O   UNL     1      16.620  -7.106  14.898  1.00  0.00    -0.508 OA
ATOM     11  H   UNL     1      17.522  -6.715  15.144  1.00  0.00     0.293 HD
ENDBRANCH   6  10
TORSDOF 2
ENDMDL
MODEL 4
REMARK VINA RESULT:    -4.998      3.828      5.233
REMARK INTER + INTRA:          -5.464
REMARK INTER:                  -5.434
REMARK INTRA:                  -0.030
REMARK UNBOUND:                -0.027
REMARK SMILES O=C([O-])c1ccc(O)cc1
REMARK SMILES IDX 4 1 5 2 10 3 6 4 9 5 7 6 2 7 1 8 3 9 8 10
REMARK H PARENT 8 11
REMARK Flexibility Score: inf
ROOT
ATOM      1  C   UNL     1      14.477  -5.780  11.548  1.00  0.00    -0.003 A 
ATOM      2  C   UNL     1      13.804  -6.287  12.674  1.00  0.00     0.014 A 
ATOM      3  C   UNL     1      15.885  -5.735  11.559  1.00  0.00     0.014 A 
ATOM      4  C   UNL     1      14.522  -6.739  13.785  1.00  0.00     0.047 A 
ATOM      5  C   UNL     1      16.599  -6.188  12.672  1.00  0.00     0.047 A 
ATOM      6  C   UNL     1      15.922  -6.690  13.786  1.00  0.00     0.115 A 
ENDROOT
BRANCH   1   7
ATOM      7  C   UNL     1      13.716  -5.302  10.373  1.00  0.00     0.071 C 
ATOM      8  O   UNL     1      12.817  -4.430  10.504  1.00  0.00    -0.545 OA
ATOM      9  O   UNL     1      13.982  -5.810   9.107  1.00  0.00    -0.545 OA
ENDBRANCH   1   7
BRANCH   6  10
ATOM     10  O   UNL     1      16.648  -7.138  14.888  1.00  0.00    -0.508 OA
ATOM     11  H   UNL     1      17.495  -7.683  14.777  1.00  0.00     0.293 HD
ENDBRANCH   6  10
TORSDOF 2
ENDMDL
MODEL 5
REMARK VINA RESULT:    -4.952      3.328      5.352
REMARK INTER + INTRA:          -5.413
REMARK INTER:                  -5.382
REMARK INTRA:                  -0.032
REMARK UNBOUND:                -0.027
REMARK SMILES O=C([O-])c1ccc(O)cc1
REMARK SMILES IDX 4 1 5 2 10 3 6 4 9 5 7 6 2 7 1 8 3 9 8 10
REMARK H PARENT 8 11
REMARK Flexibility Score: inf
ROOT
ATOM      1  C   UNL     1      15.836  -6.143  13.230  1.00  0.00    -0.003 A 
ATOM      2  C   UNL     1      14.645  -5.815  12.557  1.00  0.00     0.014 A 
ATOM      3  C   UNL     1      17.051  -6.115  12.519  1.00  0.00     0.014 A 
ATOM      4  C   UNL     1      14.670  -5.467  11.203  1.00  0.00     0.047 A 
ATOM      5  C   UNL     1      17.070  -5.766  11.165  1.00  0.00     0.047 A 
ATOM      6  C   UNL     1      15.883  -5.442  10.504  1.00  0.00     0.115 A 
ENDROOT
BRANCH   1   7
ATOM      7  C   UNL     1      15.808  -6.511  14.663  1.00  0.00     0.071 C 
ATOM      8  O   UNL     1      14.904  -7.263  15.113  1.00  0.00    -0.545 OA
ATOM      9  O   UNL     1      16.781  -6.032  15.532  1.00  0.00    -0.545 OA
ENDBRANCH   1   7
BRANCH   6  10
ATOM     10  O   UNL     1      15.919  -5.096   9.155  1.00  0.00    -0.508 OA
ATOM     11  H   UNL     1      16.551  -5.554   8.508  1.00  0.00     0.293 HD
ENDBRANCH   6  10
TORSDOF 2
ENDMDL
MODEL 6
REMARK VINA RESULT:    -4.942      1.949      4.021
REMARK INTER + INTRA:          -5.403
REMARK INTER:                  -5.368
REMARK INTRA:                  -0.035
REMARK UNBOUND:                -0.027
REMARK SMILES O=C([O-])c1ccc(O)cc1
REMARK SMILES IDX 4 1 5 2 10 3 6 4 9 5 7 6 2 7 1 8 3 9 8 10
REMARK H PARENT 8 11
REMARK Flexibility Score: inf
ROOT
ATOM      1  C   UNL     1      16.543  -3.335  16.883  1.00  0.00    -0.003 A 
ATOM      2  C   UNL     1      16.677  -3.929  15.615  1.00  0.00     0.014 A 
ATOM      3  C   UNL     1      15.254  -3.036  17.363  1.00  0.00     0.014 A 
ATOM      4  C   UNL     1      15.546  -4.219  14.846  1.00  0.00     0.047 A 
ATOM      5  C   UNL     1      14.126  -3.329  16.591  1.00  0.00     0.047 A 
ATOM      6  C   UNL     1      14.267  -3.919  15.332  1.00  0.00     0.115 A 
ENDROOT
BRANCH   1   7
ATOM      7  C   UNL     1      17.741  -3.028  17.695  1.00  0.00     0.071 C 
ATOM      8  O   UNL     1      17.638  -2.815  18.932  1.00  0.00    -0.545 OA
ATOM      9  O   UNL     1      18.998  -2.972  17.104  1.00  0.00    -0.545 OA
ENDBRANCH   1   7
BRANCH   6  10
ATOM     10  O   UNL     1      13.133  -4.203  14.574  1.00  0.00    -0.508 OA
ATOM     11  H   UNL     1      12.947  -5.139  14.232  1.00  0.00     0.293 HD
ENDBRANCH   6  10
TORSDOF 2
ENDMDL
MODEL 7
REMARK VINA RESULT:    -4.939      1.484      4.474
REMARK INTER + INTRA:          -5.399
REMARK INTER:                  -5.368
REMARK INTRA:                  -0.031
REMARK UNBOUND:                -0.027
REMARK SMILES O=C([O-])c1ccc(O)cc1
REMARK SMILES IDX 4 1 5 2 10 3 6 4 9 5 7 6 2 7 1 8 3 9 8 10
REMARK H PARENT 8 11
REMARK Flexibility Score: inf
ROOT
ATOM      1  C   UNL     1      16.784  -4.175  16.650  1.00  0.00    -0.003 A 
ATOM      2  C   UNL     1      15.431  -3.830  16.480  1.00  0.00     0.014 A 
ATOM      3  C   UNL     1      17.238  -5.413  16.156  1.00  0.00     0.014 A 
ATOM      4  C   UNL     1      14.553  -4.702  15.830  1.00  0.00     0.047 A 
ATOM      5  C   UNL     1      16.357  -6.282  15.506  1.00  0.00     0.047 A 
ATOM      6  C   UNL     1      15.014  -5.931  15.342  1.00  0.00     0.115 A 
ENDROOT
BRANCH   1   7
ATOM      7  C   UNL     1      17.711  -3.251  17.338  1.00  0.00     0.071 C 
ATOM      8  O   UNL     1      18.827  -2.968  16.830  1.00  0.00    -0.545 OA
ATOM      9  O   UNL     1      17.362  -2.683  18.558  1.00  0.00    -0.545 OA
ENDBRANCH   1   7
BRANCH   6  10
ATOM     10  O   UNL     1      14.148  -6.809  14.692  1.00  0.00    -0.508 OA
ATOM     11  H   UNL     1      13.155  -6.816  14.892  1.00  0.00     0.293 HD
ENDBRANCH   6  10
TORSDOF 2
ENDMDL
MODEL 8
REMARK VINA RESULT:    -4.937      4.111      5.219
REMARK INTER + INTRA:          -5.397
REMARK INTER:                  -5.361
REMARK INTRA:                  -0.035
REMARK UNBOUND:                -0.027
REMARK SMILES O=C([O-])c1ccc(O)cc1
REMARK SMILES IDX 4 1 5 2 10 3 6 4 9 5 7 6 2 7 1 8 3 9 8 10
REMARK H PARENT 8 11
REMARK Flexibility Score: inf
ROOT
ATOM      1  C   UNL     1      15.176  -5.304  11.000  1.00  0.00    -0.003 A 
ATOM      2  C   UNL     1      16.472  -5.714  10.638  1.00  0.00     0.014 A 
ATOM      3  C   UNL     1      14.946  -4.852  12.314  1.00  0.00     0.014 A 
ATOM      4  C   UNL     1      17.514  -5.671  11.568  1.00  0.00     0.047 A 
ATOM      5  C   UNL     1      15.992  -4.810  13.241  1.00  0.00     0.047 A 
ATOM      6  C   UNL     1      17.276  -5.219  12.873  1.00  0.00     0.115 A 
ENDROOT
BRANCH   1   7
ATOM      7  C   UNL     1      14.074  -5.351  10.015  1.00  0.00     0.071 C 
ATOM      8  O   UNL     1      14.199  -6.002   8.944  1.00  0.00    -0.545 OA
ATOM      9  O   UNL     1      12.883  -4.674  10.256  1.00  0.00    -0.545 OA
ENDBRANCH   1   7
BRANCH   6  10
ATOM     10  O   UNL     1      18.308  -5.172  13.808  1.00  0.00    -0.508 OA
ATOM     11  H   UNL     1      18.521  -5.966  14.401  1.00  0.00     0.293 HD
ENDBRANCH   6  10
TORSDOF 2
ENDMDL
MODEL 9
REMARK VINA RESULT:    -4.832      2.450      4.341
REMARK INTER + INTRA:          -5.282
REMARK INTER:                  -5.254
REMARK INTRA:                  -0.028
REMARK UNBOUND:                -0.027
REMARK SMILES O=C([O-])c1ccc(O)cc1
REMARK SMILES IDX 4 1 5 2 10 3 6 4 9 5 7 6 2 7 1 8 3 9 8 10
REMARK H PARENT 8 11
REMARK Flexibility Score: inf
ROOT
ATOM      1  C   UNL     1      15.363  -5.021  14.138  1.00  0.00    -0.003 A 
ATOM      2  C   UNL     1      15.768  -6.069  13.292  1.00  0.00     0.014 A 
ATOM      3  C   UNL     1      14.906  -5.329  15.434  1.00  0.00     0.014 A 
ATOM      4  C   UNL     1      15.719  -7.395  13.733  1.00  0.00     0.047 A 
ATOM      5  C   UNL     1      14.859  -6.656  15.871  1.00  0.00     0.047 A 
ATOM      6  C   UNL     1      15.264  -7.691  15.024  1.00  0.00     0.115 A 
ENDROOT
BRANCH   1   7
ATOM      7  C   UNL     1      15.415  -3.619  13.669  1.00  0.00     0.071 C 
ATOM      8  O   UNL     1      16.216  -2.799  14.190  1.00  0.00    -0.545 OA
ATOM      9  O   UNL     1      14.579  -3.187  12.646  1.00  0.00    -0.545 OA
ENDBRANCH   1   7
BRANCH   6  10
ATOM     10  O   UNL     1      15.210  -9.009  15.474  1.00  0.00    -0.508 OA
ATOM     11  H   UNL     1      14.727  -9.256  16.330  1.00  0.00     0.293 HD
ENDBRANCH   6  10
TORSDOF 2
ENDMDL
