MODEL 1
REMARK VINA RESULT:    -4.104      0.000      0.000
REMARK INTER + INTRA:          -6.804
REMARK INTER:                  -6.023
REMARK INTRA:                  -0.780
REMARK UNBOUND:                -0.780
REMARK SMILES O=C([O-])CCCCCCCC(=O)[O-]
REMARK SMILES IDX 7 1 6 2 5 3 4 4 2 5 1 6 3 7 8 8 9 9 10 10 11 11 12 12 13 13
REMARK H PARENT
REMARK Flexibility Score: inf
ROOT
ATOM      1  C   UNL     1     -52.711  16.051 -27.404  1.00  0.00     0.000 C 
ENDROOT
BRANCH   1   2
ATOM      2  C   UNL     1     -53.014  17.560 -27.441  1.00  0.00     0.000 C 
BRANCH   2   3
ATOM      3  C   UNL     1     -54.046  17.938 -28.513  1.00  0.00     0.006 C 
BRANCH   3   4
ATOM      4  C   UNL     1     -53.435  18.878 -29.556  1.00  0.00     0.053 C 
BRANCH   4   5
ATOM      5  C   UNL     1     -52.531  18.121 -30.477  1.00  0.00     0.041 C 
ATOM      6  O   UNL     1     -51.281  18.223 -30.364  1.00  0.00    -0.550 OA
ATOM      7  O   UNL     1     -53.069  17.341 -31.494  1.00  0.00    -0.550 OA
ENDBRANCH   4   5
ENDBRANCH   3   4
ENDBRANCH   2   3
ENDBRANCH   1   2
BRANCH   1   8
ATOM      8  C   UNL     1     -53.468  15.211 -28.448  1.00  0.00     0.000 C 
BRANCH   8   9
ATOM      9  C   UNL     1     -52.530  14.430 -29.385  1.00  0.00     0.006 C 
BRANCH   9  10
ATOM     10  C   UNL     1     -51.067  14.500 -28.928  1.00  0.00     0.053 C 
BRANCH  10  11
ATOM     11  C   UNL     1     -50.123  14.503 -30.092  1.00  0.00     0.041 C 
ATOM     12  O   UNL     1     -49.077  13.802 -30.060  1.00  0.00    -0.550 OA
ATOM     13  O   UNL     1     -50.417  15.251 -31.225  1.00  0.00    -0.550 OA
ENDBRANCH  10  11
ENDBRANCH   9  10
ENDBRANCH   8   9
ENDBRANCH   1   8
TORSDOF 8
ENDMDL
MODEL 2
REMARK VINA RESULT:    -4.081      0.833      4.071
REMARK INTER + INTRA:          -6.770
REMARK INTER:                  -6.073
REMARK INTRA:                  -0.698
REMARK UNBOUND:                -0.780
REMARK SMILES O=C([O-])CCCCCCCC(=O)[O-]
REMARK SMILES IDX 7 1 6 2 5 3 4 4 2 5 1 6 3 7 8 8 9 9 10 10 11 11 12 12 13 13
REMARK H PARENT
REMARK Flexibility Score: inf
ROOT
ATOM      1  C   UNL     1     -52.687  16.325 -27.388  1.00  0.00     0.000 C 
ENDROOT
BRANCH   1   2
ATOM      2  C   UNL     1     -53.459  15.216 -28.125  1.00  0.00     0.000 C 
BRANCH   2   3
ATOM      3  C   UNL     1     -52.621  14.521 -29.208  1.00  0.00     0.006 C 
BRANCH   3   4
ATOM      4  C   UNL     1     -51.124  14.643 -28.907  1.00  0.00     0.053 C 
BRANCH   4   5
ATOM      5  C   UNL     1     -50.316  14.278 -30.111  1.00  0.00     0.041 C 
ATOM      6  O   UNL     1     -49.864  13.110 -30.242  1.00  0.00    -0.550 OA
ATOM      7  O   UNL     1     -50.021  15.241 -31.068  1.00  0.00    -0.550 OA
ENDBRANCH   4   5
ENDBRANCH   3   4
ENDBRANCH   2   3
ENDBRANCH   1   2
BRANCH   1   8
ATOM      8  C   UNL     1     -53.360  17.710 -27.409  1.00  0.00     0.000 C 
BRANCH   8   9
ATOM      9  C   UNL     1     -53.578  18.250 -28.832  1.00  0.00     0.006 C 
BRANCH   9  10
ATOM     10  C   UNL     1     -52.283  18.252 -29.655  1.00  0.00     0.053 C 
BRANCH  10  11
ATOM     11  C   UNL     1     -52.560  18.199 -31.126  1.00  0.00     0.041 C 
ATOM     12  O   UNL     1     -52.771  17.093 -31.691  1.00  0.00    -0.550 OA
ATOM     13  O   UNL     1     -52.623  19.373 -31.866  1.00  0.00    -0.550 OA
ENDBRANCH  10  11
ENDBRANCH   9  10
ENDBRANCH   8   9
ENDBRANCH   1   8
TORSDOF 8
ENDMDL
MODEL 3
REMARK VINA RESULT:    -4.079     13.711     15.174
REMARK INTER + INTRA:          -6.767
REMARK INTER:                  -6.099
REMARK INTRA:                  -0.668
REMARK UNBOUND:                -0.780
REMARK SMILES O=C([O-])CCCCCCCC(=O)[O-]
REMARK SMILES IDX 7 1 6 2 5 3 4 4 2 5 1 6 3 7 8 8 9 9 10 10 11 11 12 12 13 13
REMARK H PARENT
REMARK Flexibility Score: inf
ROOT
ATOM      1  C   UNL     1     -38.674  18.643 -30.326  1.00  0.00     0.000 C 
ENDROOT
BRANCH   1   2
ATOM      2  C   UNL     1     -39.631  18.927 -29.154  1.00  0.00     0.000 C 
BRANCH   2   3
ATOM      3  C   UNL     1     -39.692  20.414 -28.776  1.00  0.00     0.006 C 
BRANCH   3   4
ATOM      4  C   UNL     1     -38.500  21.178 -29.361  1.00  0.00     0.053 C 
BRANCH   4   5
ATOM      5  C   UNL     1     -38.185  22.377 -28.525  1.00  0.00     0.041 C 
ATOM      6  O   UNL     1     -39.114  23.089 -28.062  1.00  0.00    -0.550 OA
ATOM      7  O   UNL     1     -36.862  22.738 -28.296  1.00  0.00    -0.550 OA
ENDBRANCH   4   5
ENDBRANCH   3   4
ENDBRANCH   2   3
ENDBRANCH   1   2
BRANCH   1   8
ATOM      8  C   UNL     1     -38.125  17.205 -30.382  1.00  0.00     0.000 C 
BRANCH   8   9
ATOM      9  C   UNL     1     -36.634  17.118 -30.016  1.00  0.00     0.006 C 
BRANCH   9  10
ATOM     10  C   UNL     1     -36.009  18.502 -29.799  1.00  0.00     0.053 C 
BRANCH  10  11
ATOM     11  C   UNL     1     -35.632  18.723 -28.366  1.00  0.00     0.041 C 
ATOM     12  O   UNL     1     -36.507  18.652 -27.464  1.00  0.00    -0.550 OA
ATOM     13  O   UNL     1     -34.308  18.970 -28.024  1.00  0.00    -0.550 OA
ENDBRANCH  10  11
ENDBRANCH   9  10
ENDBRANCH   8   9
ENDBRANCH   1   8
TORSDOF 8
ENDMDL
MODEL 4
REMARK VINA RESULT:    -4.034     13.602     15.323
REMARK INTER + INTRA:          -6.702
REMARK INTER:                  -5.880
REMARK INTRA:                  -0.822
REMARK UNBOUND:                -0.780
REMARK SMILES O=C([O-])CCCCCCCC(=O)[O-]
REMARK SMILES IDX 7 1 6 2 5 3 4 4 2 5 1 6 3 7 8 8 9 9 10 10 11 11 12 12 13 13
REMARK H PARENT
REMARK Flexibility Score: inf
ROOT
ATOM      1  C   UNL     1     -36.341  17.816 -29.248  1.00  0.00     0.000 C 
ENDROOT
BRANCH   1   2
ATOM      2  C   UNL     1     -35.065  18.171 -30.032  1.00  0.00     0.000 C 
BRANCH   2   3
ATOM      3  C   UNL     1     -34.977  19.662 -30.390  1.00  0.00     0.006 C 
BRANCH   3   4
ATOM      4  C   UNL     1     -35.745  20.516 -29.376  1.00  0.00     0.053 C 
BRANCH   4   5
ATOM      5  C   UNL     1     -36.675  21.453 -30.079  1.00  0.00     0.041 C 
ATOM      6  O   UNL     1     -37.302  21.075 -31.103  1.00  0.00    -0.550 OA
ATOM      7  O   UNL     1     -36.813  22.762 -29.631  1.00  0.00    -0.550 OA
ENDBRANCH   4   5
ENDBRANCH   3   4
ENDBRANCH   2   3
ENDBRANCH   1   2
BRANCH   1   8
ATOM      8  C   UNL     1     -37.488  17.243 -30.099  1.00  0.00     0.000 C 
BRANCH   8   9
ATOM      9  C   UNL     1     -38.783  18.066 -29.992  1.00  0.00     0.006 C 
BRANCH   9  10
ATOM     10  C   UNL     1     -38.880  18.824 -28.661  1.00  0.00     0.053 C 
BRANCH  10  11
ATOM     11  C   UNL     1     -40.129  19.648 -28.582  1.00  0.00     0.041 C 
ATOM     12  O   UNL     1     -41.136  19.213 -27.965  1.00  0.00    -0.550 OA
ATOM     13  O   UNL     1     -40.166  20.913 -29.157  1.00  0.00    -0.550 OA
ENDBRANCH  10  11
ENDBRANCH   9  10
ENDBRANCH   8   9
ENDBRANCH   1   8
TORSDOF 8
ENDMDL
MODEL 5
REMARK VINA RESULT:    -4.016     13.629     15.315
REMARK INTER + INTRA:          -6.675
REMARK INTER:                  -5.845
REMARK INTRA:                  -0.830
REMARK UNBOUND:                -0.780
REMARK SMILES O=C([O-])CCCCCCCC(=O)[O-]
REMARK SMILES IDX 7 1 6 2 5 3 4 4 2 5 1 6 3 7 8 8 9 9 10 10 11 11 12 12 13 13
REMARK H PARENT
REMARK Flexibility Score: inf
ROOT
ATOM      1  C   UNL     1     -36.391  17.975 -29.228  1.00  0.00     0.000 C 
ENDROOT
BRANCH   1   2
ATOM      2  C   UNL     1     -37.537  17.345 -30.040  1.00  0.00     0.000 C 
BRANCH   2   3
ATOM      3  C   UNL     1     -38.856  18.123 -29.919  1.00  0.00     0.006 C 
BRANCH   3   4
ATOM      4  C   UNL     1     -38.885  18.958 -28.636  1.00  0.00     0.053 C 
BRANCH   4   5
ATOM      5  C   UNL     1     -40.118  19.803 -28.589  1.00  0.00     0.041 C 
ATOM      6  O   UNL     1     -41.162  19.370 -28.034  1.00  0.00    -0.550 OA
ATOM      7  O   UNL     1     -40.131  21.050 -29.202  1.00  0.00    -0.550 OA
ENDBRANCH   4   5
ENDBRANCH   3   4
ENDBRANCH   2   3
ENDBRANCH   1   2
BRANCH   1   8
ATOM      8  C   UNL     1     -35.103  18.249 -30.027  1.00  0.00     0.000 C 
BRANCH   8   9
ATOM      9  C   UNL     1     -34.923  19.734 -30.385  1.00  0.00     0.006 C 
BRANCH   9  10
ATOM     10  C   UNL     1     -35.672  20.658 -29.416  1.00  0.00     0.053 C 
BRANCH  10  11
ATOM     11  C   UNL     1     -36.657  21.532 -30.132  1.00  0.00     0.041 C 
ATOM     12  O   UNL     1     -36.890  22.697 -29.715  1.00  0.00    -0.550 OA
ATOM     13  O   UNL     1     -37.288  21.073 -31.281  1.00  0.00    -0.550 OA
ENDBRANCH  10  11
ENDBRANCH   9  10
ENDBRANCH   8   9
ENDBRANCH   1   8
TORSDOF 8
ENDMDL
MODEL 6
REMARK VINA RESULT:    -4.006     13.880     15.562
REMARK INTER + INTRA:          -6.661
REMARK INTER:                  -5.912
REMARK INTRA:                  -0.748
REMARK UNBOUND:                -0.780
REMARK SMILES O=C([O-])CCCCCCCC(=O)[O-]
REMARK SMILES IDX 7 1 6 2 5 3 4 4 2 5 1 6 3 7 8 8 9 9 10 10 11 11 12 12 13 13
REMARK H PARENT
REMARK Flexibility Score: inf
ROOT
ATOM      1  C   UNL     1     -39.506  18.328 -29.650  1.00  0.00     0.000 C 
ENDROOT
BRANCH   1   2
ATOM      2  C   UNL     1     -38.203  18.157 -30.451  1.00  0.00     0.000 C 
BRANCH   2   3
ATOM      3  C   UNL     1     -37.390  16.928 -30.018  1.00  0.00     0.006 C 
BRANCH   3   4
ATOM      4  C   UNL     1     -35.887  17.220 -30.067  1.00  0.00     0.053 C 
BRANCH   4   5
ATOM      5  C   UNL     1     -35.564  18.439 -29.263  1.00  0.00     0.041 C 
ATOM      6  O   UNL     1     -34.904  19.380 -29.775  1.00  0.00    -0.550 OA
ATOM      7  O   UNL     1     -35.950  18.515 -27.930  1.00  0.00    -0.550 OA
ENDBRANCH   4   5
ENDBRANCH   3   4
ENDBRANCH   2   3
ENDBRANCH   1   2
BRANCH   1   8
ATOM      8  C   UNL     1     -39.489  19.469 -28.617  1.00  0.00     0.000 C 
BRANCH   8   9
ATOM      9  C   UNL     1     -39.786  20.845 -29.238  1.00  0.00     0.006 C 
BRANCH   9  10
ATOM     10  C   UNL     1     -38.893  21.948 -28.655  1.00  0.00     0.053 C 
BRANCH  10  11
ATOM     11  C   UNL     1     -37.487  21.849 -29.161  1.00  0.00     0.041 C 
ATOM     12  O   UNL     1     -36.518  21.943 -28.362  1.00  0.00    -0.550 OA
ATOM     13  O   UNL     1     -37.247  21.614 -30.510  1.00  0.00    -0.550 OA
ENDBRANCH  10  11
ENDBRANCH   9  10
ENDBRANCH   8   9
ENDBRANCH   1   8
TORSDOF 8
ENDMDL
MODEL 7
REMARK VINA RESULT:    -3.966      2.173      3.477
REMARK INTER + INTRA:          -6.602
REMARK INTER:                  -5.874
REMARK INTRA:                  -0.728
REMARK UNBOUND:                -0.780
REMARK SMILES O=C([O-])CCCCCCCC(=O)[O-]
REMARK SMILES IDX 7 1 6 2 5 3 4 4 2 5 1 6 3 7 8 8 9 9 10 10 11 11 12 12 13 13
REMARK H PARENT
REMARK Flexibility Score: inf
ROOT
ATOM      1  C   UNL     1     -50.222  15.595 -30.767  1.00  0.00     0.000 C 
ENDROOT
BRANCH   1   2
ATOM      2  C   UNL     1     -51.349  15.797 -31.796  1.00  0.00     0.000 C 
BRANCH   2   3
ATOM      3  C   UNL     1     -52.283  16.963 -31.440  1.00  0.00     0.006 C 
BRANCH   3   4
ATOM      4  C   UNL     1     -51.663  17.854 -30.359  1.00  0.00     0.053 C 
BRANCH   4   5
ATOM      5  C   UNL     1     -52.678  18.197 -29.316  1.00  0.00     0.041 C 
ATOM      6  O   UNL     1     -53.796  18.670 -29.651  1.00  0.00    -0.550 OA
ATOM      7  O   UNL     1     -52.373  18.039 -27.970  1.00  0.00    -0.550 OA
ENDBRANCH   4   5
ENDBRANCH   3   4
ENDBRANCH   2   3
ENDBRANCH   1   2
BRANCH   1   8
ATOM      8  C   UNL     1     -49.905  14.127 -30.431  1.00  0.00     0.000 C 
BRANCH   8   9
ATOM      9  C   UNL     1     -50.463  13.689 -29.067  1.00  0.00     0.006 C 
BRANCH   9  10
ATOM     10  C   UNL     1     -51.462  14.705 -28.497  1.00  0.00     0.053 C 
BRANCH  10  11
ATOM     11  C   UNL     1     -52.879  14.261 -28.697  1.00  0.00     0.041 C 
ATOM     12  O   UNL     1     -53.830  14.963 -28.261  1.00  0.00    -0.550 OA
ATOM     13  O   UNL     1     -53.151  13.093 -29.399  1.00  0.00    -0.550 OA
ENDBRANCH  10  11
ENDBRANCH   9  10
ENDBRANCH   8   9
ENDBRANCH   1   8
TORSDOF 8
ENDMDL
MODEL 8
REMARK VINA RESULT:    -3.945      1.620      2.438
REMARK INTER + INTRA:          -6.570
REMARK INTER:                  -6.026
REMARK INTRA:                  -0.544
REMARK UNBOUND:                -0.780
REMARK SMILES O=C([O-])CCCCCCCC(=O)[O-]
REMARK SMILES IDX 7 1 6 2 5 3 4 4 2 5 1 6 3 7 8 8 9 9 10 10 11 11 12 12 13 13
REMARK H PARENT
REMARK Flexibility Score: inf
ROOT
ATOM      1  C   UNL     1     -52.798  14.452 -28.932  1.00  0.00     0.000 C 
ENDROOT
BRANCH   1   2
ATOM      2  C   UNL     1     -53.613  15.445 -28.084  1.00  0.00     0.000 C 
BRANCH   2   3
ATOM      3  C   UNL     1     -52.731  16.400 -27.267  1.00  0.00     0.006 C 
BRANCH   3   4
ATOM      4  C   UNL     1     -53.124  17.859 -27.518  1.00  0.00     0.053 C 
BRANCH   4   5
ATOM      5  C   UNL     1     -52.852  18.237 -28.940  1.00  0.00     0.041 C 
ATOM      6  O   UNL     1     -51.712  18.048 -29.440  1.00  0.00    -0.550 OA
ATOM      7  O   UNL     1     -53.845  18.843 -29.700  1.00  0.00    -0.550 OA
ENDBRANCH   4   5
ENDBRANCH   3   4
ENDBRANCH   2   3
ENDBRANCH   1   2
BRANCH   1   8
ATOM      8  C   UNL     1     -51.270  14.587 -28.800  1.00  0.00     0.000 C 
BRANCH   8   9
ATOM      9  C   UNL     1     -50.523  14.243 -30.100  1.00  0.00     0.006 C 
BRANCH   9  10
ATOM     10  C   UNL     1     -49.232  13.457 -29.835  1.00  0.00     0.053 C 
BRANCH  10  11
ATOM     11  C   UNL     1     -49.517  12.050 -29.407  1.00  0.00     0.041 C 
ATOM     12  O   UNL     1     -48.792  11.492 -28.542  1.00  0.00    -0.550 OA
ATOM     13  O   UNL     1     -50.607  11.369 -29.935  1.00  0.00    -0.550 OA
ENDBRANCH  10  11
ENDBRANCH   9  10
ENDBRANCH   8   9
ENDBRANCH   1   8
TORSDOF 8
ENDMDL
MODEL 9
REMARK VINA RESULT:    -3.926      2.328      5.224
REMARK INTER + INTRA:          -6.543
REMARK INTER:                  -6.009
REMARK INTRA:                  -0.534
REMARK UNBOUND:                -0.780
REMARK SMILES O=C([O-])CCCCCCCC(=O)[O-]
REMARK SMILES IDX 7 1 6 2 5 3 4 4 2 5 1 6 3 7 8 8 9 9 10 10 11 11 12 12 13 13
REMARK H PARENT
REMARK Flexibility Score: inf
ROOT
ATOM      1  C   UNL     1     -51.699  15.848 -31.440  1.00  0.00     0.000 C 
ENDROOT
BRANCH   1   2
ATOM      2  C   UNL     1     -50.365  15.555 -30.730  1.00  0.00     0.000 C 
BRANCH   2   3
ATOM      3  C   UNL     1     -50.483  14.459 -29.661  1.00  0.00     0.006 C 
BRANCH   3   4
ATOM      4  C   UNL     1     -49.621  13.245 -30.023  1.00  0.00     0.053 C 
BRANCH   4   5
ATOM      5  C   UNL     1     -50.484  12.062 -30.328  1.00  0.00     0.041 C 
ATOM      6  O   UNL     1     -50.101  11.194 -31.156  1.00  0.00    -0.550 OA
ATOM      7  O   UNL     1     -51.735  11.942 -29.735  1.00  0.00    -0.550 OA
ENDBRANCH   4   5
ENDBRANCH   3   4
ENDBRANCH   2   3
ENDBRANCH   1   2
BRANCH   1   8
ATOM      8  C   UNL     1     -52.288  17.243 -31.165  1.00  0.00     0.000 C 
BRANCH   8   9
ATOM      9  C   UNL     1     -51.745  17.882 -29.876  1.00  0.00     0.006 C 
BRANCH   9  10
ATOM     10  C   UNL     1     -52.850  18.125 -28.840  1.00  0.00     0.053 C 
BRANCH  10  11
ATOM     11  C   UNL     1     -52.822  17.099 -27.748  1.00  0.00     0.041 C 
ATOM     12  O   UNL     1     -52.375  17.399 -26.610  1.00  0.00    -0.550 OA
ATOM     13  O   UNL     1     -53.325  15.825 -27.977  1.00  0.00    -0.550 OA
ENDBRANCH  10  11
ENDBRANCH   9  10
ENDBRANCH   8   9
ENDBRANCH   1   8
TORSDOF 8
ENDMDL
