MODEL 1
REMARK VINA RESULT:    -3.282      0.000      0.000
REMARK INTER + INTRA:          -3.967
REMARK INTER:                  -3.857
REMARK INTRA:                  -0.110
REMARK UNBOUND:                -0.110
REMARK SMILES O=C([O-])CCC(=O)[O-]
REMARK SMILES IDX 4 1 2 2 1 3 3 4 5 5 6 6 7 7 8 8
REMARK H PARENT
REMARK Flexibility Score: inf
ROOT
ATOM      1  C   UNL     1       9.033   5.676   3.774  1.00  0.00     0.059 C 
ENDROOT
BRANCH   1   2
ATOM      2  C   UNL     1       9.403   6.443   2.545  1.00  0.00     0.042 C 
ATOM      3  O   UNL     1      10.109   7.481   2.635  1.00  0.00    -0.550 OA
ATOM      4  O   UNL     1       8.928   6.039   1.303  1.00  0.00    -0.550 OA
ENDBRANCH   1   2
BRANCH   1   5
ATOM      5  C   UNL     1       8.562   6.626   4.876  1.00  0.00     0.059 C 
BRANCH   5   6
ATOM      6  C   UNL     1       7.177   7.112   4.592  1.00  0.00     0.042 C 
ATOM      7  O   UNL     1       6.818   8.258   4.971  1.00  0.00    -0.550 OA
ATOM      8  O   UNL     1       6.296   6.319   3.867  1.00  0.00    -0.550 OA
ENDBRANCH   5   6
ENDBRANCH   1   5
TORSDOF 3
ENDMDL
MODEL 2
REMARK VINA RESULT:    -3.279      1.505      1.929
REMARK INTER + INTRA:          -3.964
REMARK INTER:                  -3.845
REMARK INTRA:                  -0.119
REMARK UNBOUND:                -0.110
REMARK SMILES O=C([O-])CCC(=O)[O-]
REMARK SMILES IDX 4 1 2 2 1 3 3 4 5 5 6 6 7 7 8 8
REMARK H PARENT
REMARK Flexibility Score: inf
ROOT
ATOM      1  C   UNL     1       7.610   6.163   3.927  1.00  0.00     0.059 C 
ENDROOT
BRANCH   1   2
ATOM      2  C   UNL     1       8.943   5.916   3.295  1.00  0.00     0.042 C 
ATOM      3  O   UNL     1       9.410   6.734   2.460  1.00  0.00    -0.550 OA
ATOM      4  O   UNL     1       9.649   4.757   3.592  1.00  0.00    -0.550 OA
ENDBRANCH   1   2
BRANCH   1   5
ATOM      5  C   UNL     1       7.768   6.985   5.206  1.00  0.00     0.059 C 
BRANCH   5   6
ATOM      6  C   UNL     1       7.553   8.438   4.925  1.00  0.00     0.042 C 
ATOM      7  O   UNL     1       6.410   8.948   5.066  1.00  0.00    -0.550 OA
ATOM      8  O   UNL     1       8.624   9.241   4.555  1.00  0.00    -0.550 OA
ENDBRANCH   5   6
ENDBRANCH   1   5
TORSDOF 3
ENDMDL
MODEL 3
REMARK VINA RESULT:    -3.262      0.067      3.256
REMARK INTER + INTRA:          -3.944
REMARK INTER:                  -3.840
REMARK INTRA:                  -0.105
REMARK UNBOUND:                -0.110
REMARK SMILES O=C([O-])CCC(=O)[O-]
REMARK SMILES IDX 4 1 2 2 1 3 3 4 5 5 6 6 7 7 8 8
REMARK H PARENT
REMARK Flexibility Score: inf
ROOT
ATOM      1  C   UNL     1       8.554   6.652   4.909  1.00  0.00     0.059 C 
ENDROOT
BRANCH   1   2
ATOM      2  C   UNL     1       7.174   7.110   4.562  1.00  0.00     0.042 C 
ATOM      3  O   UNL     1       6.768   8.241   4.938  1.00  0.00    -0.550 OA
ATOM      4  O   UNL     1       6.316   6.269   3.864  1.00  0.00    -0.550 OA
ENDBRANCH   1   2
BRANCH   1   5
ATOM      5  C   UNL     1       9.093   5.710   3.832  1.00  0.00     0.059 C 
BRANCH   5   6
ATOM      6  C   UNL     1       9.429   6.471   2.590  1.00  0.00     0.042 C 
ATOM      7  O   UNL     1      10.122   7.521   2.659  1.00  0.00    -0.550 OA
ATOM      8  O   UNL     1       9.018   5.997   1.351  1.00  0.00    -0.550 OA
ENDBRANCH   5   6
ENDBRANCH   1   5
TORSDOF 3
ENDMDL
MODEL 4
REMARK VINA RESULT:    -2.948      1.878      3.704
REMARK INTER + INTRA:          -3.575
REMARK INTER:                  -3.537
REMARK INTRA:                  -0.038
REMARK UNBOUND:                -0.110
REMARK SMILES O=C([O-])CCC(=O)[O-]
REMARK SMILES IDX 4 1 2 2 1 3 3 4 5 5 6 6 7 7 8 8
REMARK H PARENT
REMARK Flexibility Score: inf
ROOT
ATOM      1  C   UNL     1       8.402   6.399   4.692  1.00  0.00     0.059 C 
ENDROOT
BRANCH   1   2
ATOM      2  C   UNL     1       8.012   7.842   4.751  1.00  0.00     0.042 C 
ATOM      3  O   UNL     1       6.817   8.166   4.977  1.00  0.00    -0.550 OA
ATOM      4  O   UNL     1       8.958   8.829   4.506  1.00  0.00    -0.550 OA
ENDBRANCH   1   2
BRANCH   1   5
ATOM      5  C   UNL     1       9.082   6.082   3.360  1.00  0.00     0.059 C 
BRANCH   5   6
ATOM      6  C   UNL     1       9.737   4.739   3.413  1.00  0.00     0.042 C 
ATOM      7  O   UNL     1      10.125   4.266   4.514  1.00  0.00    -0.550 OA
ATOM      8  O   UNL     1       9.876   3.987   2.254  1.00  0.00    -0.550 OA
ENDBRANCH   5   6
ENDBRANCH   1   5
TORSDOF 3
ENDMDL
MODEL 5
REMARK VINA RESULT:    -2.698      1.678      2.447
REMARK INTER + INTRA:          -3.281
REMARK INTER:                  -3.232
REMARK INTRA:                  -0.050
REMARK UNBOUND:                -0.110
REMARK SMILES O=C([O-])CCC(=O)[O-]
REMARK SMILES IDX 4 1 2 2 1 3 3 4 5 5 6 6 7 7 8 8
REMARK H PARENT
REMARK Flexibility Score: inf
ROOT
ATOM      1  C   UNL     1       9.229   6.167   2.397  1.00  0.00     0.059 C 
ENDROOT
BRANCH   1   2
ATOM      2  C   UNL     1       9.514   4.789   1.890  1.00  0.00     0.042 C 
ATOM      3  O   UNL     1       9.160   4.455   0.729  1.00  0.00    -0.550 OA
ATOM      4  O   UNL     1      10.125   3.856   2.718  1.00  0.00    -0.550 OA
ENDBRANCH   1   2
BRANCH   1   5
ATOM      5  C   UNL     1       8.153   6.127   3.482  1.00  0.00     0.059 C 
BRANCH   5   6
ATOM      6  C   UNL     1       8.487   7.078   4.587  1.00  0.00     0.042 C 
ATOM      7  O   UNL     1       7.832   7.056   5.662  1.00  0.00    -0.550 OA
ATOM      8  O   UNL     1       9.554   7.957   4.449  1.00  0.00    -0.550 OA
ENDBRANCH   5   6
ENDBRANCH   1   5
TORSDOF 3
ENDMDL
MODEL 6
REMARK VINA RESULT:    -2.660     22.060     22.702
REMARK INTER + INTRA:          -3.236
REMARK INTER:                  -3.200
REMARK INTRA:                  -0.036
REMARK UNBOUND:                -0.110
REMARK SMILES O=C([O-])CCC(=O)[O-]
REMARK SMILES IDX 4 1 2 2 1 3 3 4 5 5 6 6 7 7 8 8
REMARK H PARENT
REMARK Flexibility Score: inf
ROOT
ATOM      1  C   UNL     1      -5.877  -5.892  -9.468  1.00  0.00     0.059 C 
ENDROOT
BRANCH   1   2
ATOM      2  C   UNL     1      -4.423  -6.220  -9.585  1.00  0.00     0.042 C 
ATOM      3  O   UNL     1      -3.574  -5.300  -9.709  1.00  0.00    -0.550 OA
ATOM      4  O   UNL     1      -4.009  -7.546  -9.606  1.00  0.00    -0.550 OA
ENDBRANCH   1   2
BRANCH   1   5
ATOM      5  C   UNL     1      -6.498  -6.626  -8.278  1.00  0.00     0.059 C 
BRANCH   5   6
ATOM      6  C   UNL     1      -7.479  -5.744  -7.573  1.00  0.00     0.042 C 
ATOM      7  O   UNL     1      -8.716  -5.945  -7.699  1.00  0.00    -0.550 OA
ATOM      8  O   UNL     1      -7.028  -4.731  -6.737  1.00  0.00    -0.550 OA
ENDBRANCH   5   6
ENDBRANCH   1   5
TORSDOF 3
ENDMDL
MODEL 7
REMARK VINA RESULT:    -2.654     22.104     23.015
REMARK INTER + INTRA:          -3.230
REMARK INTER:                  -3.193
REMARK INTRA:                  -0.037
REMARK UNBOUND:                -0.110
REMARK SMILES O=C([O-])CCC(=O)[O-]
REMARK SMILES IDX 4 1 2 2 1 3 3 4 5 5 6 6 7 7 8 8
REMARK H PARENT
REMARK Flexibility Score: inf
ROOT
ATOM      1  C   UNL     1      -6.464  -6.730  -8.345  1.00  0.00     0.059 C 
ENDROOT
BRANCH   1   2
ATOM      2  C   UNL     1      -7.502  -5.939  -7.614  1.00  0.00     0.042 C 
ATOM      3  O   UNL     1      -8.724  -6.174  -7.799  1.00  0.00    -0.550 OA
ATOM      4  O   UNL     1      -7.120  -4.908  -6.764  1.00  0.00    -0.550 OA
ENDBRANCH   1   2
BRANCH   1   5
ATOM      5  C   UNL     1      -5.846  -5.894  -9.467  1.00  0.00     0.059 C 
BRANCH   5   6
ATOM      6  C   UNL     1      -4.384  -6.184  -9.591  1.00  0.00     0.042 C 
ATOM      7  O   UNL     1      -3.558  -5.239  -9.690  1.00  0.00    -0.550 OA
ATOM      8  O   UNL     1      -3.929  -7.495  -9.548  1.00  0.00    -0.550 OA
ENDBRANCH   5   6
ENDBRANCH   1   5
TORSDOF 3
ENDMDL
MODEL 8
REMARK VINA RESULT:    -2.374     22.433     23.139
REMARK INTER + INTRA:          -2.901
REMARK INTER:                  -2.872
REMARK INTRA:                  -0.029
REMARK UNBOUND:                -0.110
REMARK SMILES O=C([O-])CCC(=O)[O-]
REMARK SMILES IDX 4 1 2 2 1 3 3 4 5 5 6 6 7 7 8 8
REMARK H PARENT
REMARK Flexibility Score: inf
ROOT
ATOM      1  C   UNL     1      -6.447  -5.950  -8.340  1.00  0.00     0.059 C 
ENDROOT
BRANCH   1   2
ATOM      2  C   UNL     1      -7.547  -5.686  -7.362  1.00  0.00     0.042 C 
ATOM      3  O   UNL     1      -7.394  -4.830  -6.452  1.00  0.00    -0.550 OA
ATOM      4  O   UNL     1      -8.724  -6.421  -7.424  1.00  0.00    -0.550 OA
ENDBRANCH   1   2
BRANCH   1   5
ATOM      5  C   UNL     1      -6.132  -7.446  -8.401  1.00  0.00     0.059 C 
BRANCH   5   6
ATOM      6  C   UNL     1      -4.660  -7.665  -8.551  1.00  0.00     0.042 C 
ATOM      7  O   UNL     1      -4.061  -8.477  -7.797  1.00  0.00    -0.550 OA
ATOM      8  O   UNL     1      -3.959  -7.011  -9.555  1.00  0.00    -0.550 OA
ENDBRANCH   5   6
ENDBRANCH   1   5
TORSDOF 3
ENDMDL
MODEL 9
REMARK VINA RESULT:    -2.299     22.287     22.834
REMARK INTER + INTRA:          -2.812
REMARK INTER:                  -2.765
REMARK INTRA:                  -0.047
REMARK UNBOUND:                -0.110
REMARK SMILES O=C([O-])CCC(=O)[O-]
REMARK SMILES IDX 4 1 2 2 1 3 3 4 5 5 6 6 7 7 8 8
REMARK H PARENT
REMARK Flexibility Score: inf
ROOT
ATOM      1  C   UNL     1      -4.103  -7.955  -8.616  1.00  0.00     0.059 C 
ENDROOT
BRANCH   1   2
ATOM      2  C   UNL     1      -3.939  -8.935  -7.498  1.00  0.00     0.042 C 
ATOM      3  O   UNL     1      -4.723  -9.914  -7.393  1.00  0.00    -0.550 OA
ATOM      4  O   UNL     1      -2.950  -8.740  -6.543  1.00  0.00    -0.550 OA
ENDBRANCH   1   2
BRANCH   1   5
ATOM      5  C   UNL     1      -5.584  -7.653  -8.850  1.00  0.00     0.059 C 
BRANCH   5   6
ATOM      6  C   UNL     1      -5.858  -6.195  -8.659  1.00  0.00     0.042 C 
ATOM      7  O   UNL     1      -6.765  -5.819  -7.871  1.00  0.00    -0.550 OA
ATOM      8  O   UNL     1      -5.080  -5.250  -9.315  1.00  0.00    -0.550 OA
ENDBRANCH   5   6
ENDBRANCH   1   5
TORSDOF 3
ENDMDL
