MODEL 1
REMARK VINA RESULT:    -3.368      0.000      0.000
REMARK INTER + INTRA:          -4.110
REMARK INTER:                  -4.058
REMARK INTRA:                  -0.052
REMARK UNBOUND:                -0.052
REMARK SMILES CC[C@@H](C)[C@H]([NH3+])C(=O)[O-]
REMARK SMILES IDX 3 1 4 2 5 3 6 4 7 8 8 9 9 10 2 11 1 12
REMARK H PARENT 6 5 6 6 6 7
REMARK Flexibility Score: inf
ROOT
ATOM      1  C   UNL     1      -9.751   9.950 -34.200  1.00  0.00     0.050 C 
ATOM      2  C   UNL     1      -8.879   9.133 -33.226  1.00  0.00     0.014 C 
ENDROOT
BRANCH   1   3
ATOM      3  C   UNL     1     -10.237  11.284 -33.544  1.00  0.00     0.230 C 
BRANCH   3   4
ATOM      4  N   UNL     1      -9.329  11.746 -32.482  1.00  0.00    -0.350 N 
ATOM      5  H   UNL     1      -9.607  11.343 -31.557  1.00  0.00     0.345 HD
ATOM      6  H   UNL     1      -8.344  11.474 -32.704  1.00  0.00     0.345 HD
ATOM      7  H   UNL     1      -9.350  12.789 -32.418  1.00  0.00     0.345 HD
ENDBRANCH   3   4
BRANCH   3   8
ATOM      8  C   UNL     1     -11.627  11.131 -32.977  1.00  0.00     0.099 C 
ATOM      9  O   UNL     1     -12.401  12.123 -32.910  1.00  0.00    -0.544 OA
ATOM     10  O   UNL     1     -12.062   9.891 -32.528  1.00  0.00    -0.544 OA
ENDBRANCH   3   8
ENDBRANCH   1   3
BRANCH   1  11
ATOM     11  C   UNL     1      -8.968  10.236 -35.511  1.00  0.00     0.006 C 
ATOM     12  C   UNL     1      -9.247  11.625 -36.091  1.00  0.00     0.004 C 
ENDBRANCH   1  11
TORSDOF 4
ENDMDL
MODEL 2
REMARK VINA RESULT:    -3.013      2.418      3.675
REMARK INTER + INTRA:          -3.682
REMARK INTER:                  -3.584
REMARK INTRA:                  -0.097
REMARK UNBOUND:                -0.052
REMARK SMILES CC[C@@H](C)[C@H]([NH3+])C(=O)[O-]
REMARK SMILES IDX 3 1 4 2 5 3 6 4 7 8 8 9 9 10 2 11 1 12
REMARK H PARENT 6 5 6 6 6 7
REMARK Flexibility Score: inf
ROOT
ATOM      1  C   UNL     1     -10.174  11.599 -33.263  1.00  0.00     0.050 C 
ATOM      2  C   UNL     1      -8.880  12.048 -32.554  1.00  0.00     0.014 C 
ENDROOT
BRANCH   1   3
ATOM      3  C   UNL     1      -9.938  10.306 -34.110  1.00  0.00     0.230 C 
BRANCH   3   4
ATOM      4  N   UNL     1      -8.875   9.458 -33.548  1.00  0.00    -0.350 N 
ATOM      5  H   UNL     1      -9.271   8.558 -33.190  1.00  0.00     0.345 HD
ATOM      6  H   UNL     1      -8.147   9.262 -34.272  1.00  0.00     0.345 HD
ATOM      7  H   UNL     1      -8.396   9.954 -32.761  1.00  0.00     0.345 HD
ENDBRANCH   3   4
BRANCH   3   8
ATOM      8  C   UNL     1      -9.594  10.652 -35.538  1.00  0.00     0.099 C 
ATOM      9  O   UNL     1      -8.875   9.880 -36.226  1.00  0.00    -0.544 OA
ATOM     10  O   UNL     1     -10.074  11.827 -36.105  1.00  0.00    -0.544 OA
ENDBRANCH   3   8
ENDBRANCH   1   3
BRANCH   1  11
ATOM     11  C   UNL     1     -11.306  11.376 -32.224  1.00  0.00     0.006 C 
ATOM     12  C   UNL     1     -12.165  10.144 -32.520  1.00  0.00     0.004 C 
ENDBRANCH   1  11
TORSDOF 4
ENDMDL
MODEL 3
REMARK VINA RESULT:    -2.175      2.438      3.584
REMARK INTER + INTRA:          -2.673
REMARK INTER:                  -2.615
REMARK INTRA:                  -0.058
REMARK UNBOUND:                -0.052
REMARK SMILES CC[C@@H](C)[C@H]([NH3+])C(=O)[O-]
REMARK SMILES IDX 3 1 4 2 5 3 6 4 7 8 8 9 9 10 2 11 1 12
REMARK H PARENT 6 5 6 6 6 7
REMARK Flexibility Score: inf
ROOT
ATOM      1  C   UNL     1     -11.047  10.798 -33.548  1.00  0.00     0.050 C 
ATOM      2  C   UNL     1     -11.407  11.952 -32.591  1.00  0.00     0.014 C 
ENDROOT
BRANCH   1   3
ATOM      3  C   UNL     1      -9.577  10.928 -34.066  1.00  0.00     0.230 C 
BRANCH   3   4
ATOM      4  N   UNL     1      -8.904  12.124 -33.537  1.00  0.00    -0.350 N 
ATOM      5  H   UNL     1      -9.298  12.992 -33.969  1.00  0.00     0.345 HD
ATOM      6  H   UNL     1      -9.007  12.169 -32.497  1.00  0.00     0.345 HD
ATOM      7  H   UNL     1      -7.878  12.080 -33.739  1.00  0.00     0.345 HD
ENDBRANCH   3   4
BRANCH   3   8
ATOM      8  C   UNL     1      -9.537  10.962 -35.574  1.00  0.00     0.099 C 
ATOM      9  O   UNL     1     -10.098  11.896 -36.206  1.00  0.00    -0.544 OA
ATOM     10  O   UNL     1      -8.875   9.961 -36.275  1.00  0.00    -0.544 OA
ENDBRANCH   3   8
ENDBRANCH   1   3
BRANCH   1  11
ATOM     11  C   UNL     1     -11.263   9.430 -32.845  1.00  0.00     0.006 C 
ATOM     12  C   UNL     1     -12.726   9.158 -32.488  1.00  0.00     0.004 C 
ENDBRANCH   1  11
TORSDOF 4
ENDMDL
MODEL 4
REMARK VINA RESULT:    -2.031      1.473      1.947
REMARK INTER + INTRA:          -2.498
REMARK INTER:                  -2.436
REMARK INTRA:                  -0.062
REMARK UNBOUND:                -0.052
REMARK SMILES CC[C@@H](C)[C@H]([NH3+])C(=O)[O-]
REMARK SMILES IDX 3 1 4 2 5 3 6 4 7 8 8 9 9 10 2 11 1 12
REMARK H PARENT 6 5 6 6 6 7
REMARK Flexibility Score: inf
ROOT
ATOM      1  C   UNL     1      -9.621  10.888 -33.496  1.00  0.00     0.050 C 
ATOM      2  C   UNL     1      -8.875  12.125 -32.956  1.00  0.00     0.014 C 
ENDROOT
BRANCH   1   3
ATOM      3  C   UNL     1     -11.165  11.022 -33.291  1.00  0.00     0.230 C 
BRANCH   3   4
ATOM      4  N   UNL     1     -11.508  12.050 -32.297  1.00  0.00    -0.350 N 
ATOM      5  H   UNL     1     -10.782  12.096 -31.545  1.00  0.00     0.345 HD
ATOM      6  H   UNL     1     -11.599  12.984 -32.758  1.00  0.00     0.345 HD
ATOM      7  H   UNL     1     -12.435  11.835 -31.861  1.00  0.00     0.345 HD
ENDBRANCH   3   4
BRANCH   3   8
ATOM      8  C   UNL     1     -11.770   9.704 -32.872  1.00  0.00     0.099 C 
ATOM      9  O   UNL     1     -11.103   8.639 -32.957  1.00  0.00    -0.544 OA
ATOM     10  O   UNL     1     -13.070   9.661 -32.383  1.00  0.00    -0.544 OA
ENDBRANCH   3   8
ENDBRANCH   1   3
BRANCH   1  11
ATOM     11  C   UNL     1      -9.282  10.669 -34.995  1.00  0.00     0.006 C 
ATOM     12  C   UNL     1      -9.675  11.852 -35.883  1.00  0.00     0.004 C 
ENDBRANCH   1  11
TORSDOF 4
ENDMDL
MODEL 5
REMARK VINA RESULT:    -1.602      2.193      3.346
REMARK INTER + INTRA:          -1.982
REMARK INTER:                  -2.057
REMARK INTRA:                   0.074
REMARK UNBOUND:                -0.052
REMARK SMILES CC[C@@H](C)[C@H]([NH3+])C(=O)[O-]
REMARK SMILES IDX 3 1 4 2 5 3 6 4 7 8 8 9 9 10 2 11 1 12
REMARK H PARENT 6 5 6 6 6 7
REMARK Flexibility Score: inf
ROOT
ATOM      1  C   UNL     1     -10.323  10.170 -32.756  1.00  0.00     0.050 C 
ATOM      2  C   UNL     1     -11.257   9.233 -33.549  1.00  0.00     0.014 C 
ENDROOT
BRANCH   1   3
ATOM      3  C   UNL     1      -9.157  10.700 -33.652  1.00  0.00     0.230 C 
BRANCH   3   4
ATOM      4  N   UNL     1      -8.875  12.125 -33.413  1.00  0.00    -0.350 N 
ATOM      5  H   UNL     1      -7.869  12.340 -33.605  1.00  0.00     0.345 HD
ATOM      6  H   UNL     1      -9.486  12.721 -34.018  1.00  0.00     0.345 HD
ATOM      7  H   UNL     1      -9.093  12.374 -32.421  1.00  0.00     0.345 HD
ENDBRANCH   3   4
BRANCH   3   8
ATOM      8  C   UNL     1      -9.462  10.493 -35.115  1.00  0.00     0.099 C 
ATOM      9  O   UNL     1      -8.911   9.560 -35.757  1.00  0.00    -0.544 OA
ATOM     10  O   UNL     1     -10.361  11.332 -35.763  1.00  0.00    -0.544 OA
ENDBRANCH   3   8
ENDBRANCH   1   3
BRANCH   1  11
ATOM     11  C   UNL     1     -11.133  11.350 -32.153  1.00  0.00     0.006 C 
ATOM     12  C   UNL     1     -12.459  11.605 -32.874  1.00  0.00     0.004 C 
ENDBRANCH   1  11
TORSDOF 4
ENDMDL
MODEL 6
REMARK VINA RESULT:    -1.246      1.825      2.005
REMARK INTER + INTRA:          -1.554
REMARK INTER:                  -1.775
REMARK INTRA:                   0.222
REMARK UNBOUND:                -0.052
REMARK SMILES CC[C@@H](C)[C@H]([NH3+])C(=O)[O-]
REMARK SMILES IDX 3 1 4 2 5 3 6 4 7 8 8 9 9 10 2 11 1 12
REMARK H PARENT 6 5 6 6 6 7
REMARK Flexibility Score: inf
ROOT
ATOM      1  C   UNL     1     -10.070   9.503 -33.383  1.00  0.00     0.050 C 
ATOM      2  C   UNL     1      -8.878  10.363 -32.915  1.00  0.00     0.014 C 
ENDROOT
BRANCH   1   3
ATOM      3  C   UNL     1     -11.335   9.757 -32.500  1.00  0.00     0.230 C 
BRANCH   3   4
ATOM      4  N   UNL     1     -12.491   8.962 -32.942  1.00  0.00    -0.350 N 
ATOM      5  H   UNL     1     -13.380   9.502 -32.822  1.00  0.00     0.345 HD
ATOM      6  H   UNL     1     -12.379   8.684 -33.944  1.00  0.00     0.345 HD
ATOM      7  H   UNL     1     -12.554   8.077 -32.386  1.00  0.00     0.345 HD
ENDBRANCH   3   4
BRANCH   3   8
ATOM      8  C   UNL     1     -11.709  11.219 -32.501  1.00  0.00     0.099 C 
ATOM      9  O   UNL     1     -12.686  11.628 -33.183  1.00  0.00    -0.544 OA
ATOM     10  O   UNL     1     -10.977  12.125 -31.743  1.00  0.00    -0.544 OA
ENDBRANCH   3   8
ENDBRANCH   1   3
BRANCH   1  11
ATOM     11  C   UNL     1     -10.379   9.782 -34.879  1.00  0.00     0.006 C 
ATOM     12  C   UNL     1      -9.628  10.994 -35.436  1.00  0.00     0.004 C 
ENDBRANCH   1  11
TORSDOF 4
ENDMDL
