MODEL 1
REMARK VINA RESULT:    -4.646      0.000      0.000
REMARK INTER + INTRA:          -9.636
REMARK INTER:                  -8.449
REMARK INTRA:                  -1.187
REMARK UNBOUND:                -1.187
REMARK SMILES CCCCCC=CCC=CCCCCCCCC(=O)[O-]
REMARK SMILES IDX 11 1 12 2 13 3 14 4 15 5 16 6 17 7 18 8 19 9 20 10 10 11
REMARK SMILES IDX 9 12 8 13 7 14 6 15 5 16 4 17 3 18 2 19 1 20
REMARK H PARENT
REMARK Flexibility Score: inf
ROOT
ATOM      1  C   UNL     1      20.315  31.500  21.786  1.00  0.00     0.027 C 
ENDROOT
BRANCH   1   2
ATOM      2  C   UNL     1      20.983  31.545  20.403  1.00  0.00     0.004 C 
BRANCH   2   3
ATOM      3  C   UNL     1      21.444  32.960  20.012  1.00  0.00     0.000 C 
BRANCH   3   4
ATOM      4  C   UNL     1      22.875  33.325  20.459  1.00  0.00     0.000 C 
BRANCH   4   5
ATOM      5  C   UNL     1      22.993  33.869  21.894  1.00  0.00     0.000 C 
BRANCH   5   6
ATOM      6  C   UNL     1      24.284  34.674  22.123  1.00  0.00     0.006 C 
BRANCH   6   7
ATOM      7  C   UNL     1      25.456  34.138  21.290  1.00  0.00     0.053 C 
BRANCH   7   8
ATOM      8  C   UNL     1      26.768  34.325  21.987  1.00  0.00     0.041 C 
ATOM      9  O   UNL     1      26.967  33.800  23.115  1.00  0.00    -0.550 OA
ATOM     10  O   UNL     1      27.763  35.102  21.406  1.00  0.00    -0.550 OA
ENDBRANCH   7   8
ENDBRANCH   6   7
ENDBRANCH   5   6
ENDBRANCH   4   5
ENDBRANCH   3   4
ENDBRANCH   2   3
ENDBRANCH   1   2
BRANCH   1  11
ATOM     11  C   UNL     1      20.972  30.463  22.661  1.00  0.00    -0.031 C 
ATOM     12  C   UNL     1      21.510  30.717  23.869  1.00  0.00    -0.027 C 
BRANCH  12  13
ATOM     13  C   UNL     1      21.477  32.060  24.553  1.00  0.00     0.054 C 
BRANCH  13  14
ATOM     14  C   UNL     1      21.688  31.922  26.035  1.00  0.00    -0.027 C 
ATOM     15  C   UNL     1      21.517  32.959  26.869  1.00  0.00    -0.031 C 
BRANCH  15  16
ATOM     16  C   UNL     1      21.739  32.824  28.349  1.00  0.00     0.027 C 
BRANCH  16  17
ATOM     17  C   UNL     1      21.228  31.472  28.866  1.00  0.00     0.004 C 
BRANCH  17  18
ATOM     18  C   UNL     1      19.845  31.571  29.533  1.00  0.00     0.000 C 
BRANCH  18  19
ATOM     19  C   UNL     1      19.433  33.015  29.888  1.00  0.00    -0.003 C 
ATOM     20  C   UNL     1      19.451  33.271  31.395  1.00  0.00     0.004 C 
ENDBRANCH  18  19
ENDBRANCH  17  18
ENDBRANCH  16  17
ENDBRANCH  15  16
ENDBRANCH  13  14
ENDBRANCH  12  13
ENDBRANCH   1  11
TORSDOF 14
ENDMDL
MODEL 2
REMARK VINA RESULT:    -4.630      5.232     10.097
REMARK INTER + INTRA:          -9.607
REMARK INTER:                  -8.763
REMARK INTRA:                  -0.844
REMARK UNBOUND:                -1.187
REMARK SMILES CCCCCC=CCC=CCCCCCCCC(=O)[O-]
REMARK SMILES IDX 11 1 12 2 13 3 14 4 15 5 16 6 17 7 18 8 19 9 20 10 10 11
REMARK SMILES IDX 9 12 8 13 7 14 6 15 5 16 4 17 3 18 2 19 1 20
REMARK H PARENT
REMARK Flexibility Score: inf
ROOT
ATOM      1  C   UNL     1      21.006  33.029  30.202  1.00  0.00     0.027 C 
ENDROOT
BRANCH   1   2
ATOM      2  C   UNL     1      22.229  33.413  31.047  1.00  0.00     0.004 C 
BRANCH   2   3
ATOM      3  C   UNL     1      22.776  32.235  31.872  1.00  0.00     0.000 C 
BRANCH   3   4
ATOM      4  C   UNL     1      24.008  32.562  32.740  1.00  0.00     0.000 C 
BRANCH   4   5
ATOM      5  C   UNL     1      23.848  32.259  34.241  1.00  0.00     0.000 C 
BRANCH   5   6
ATOM      6  C   UNL     1      25.054  31.506  34.830  1.00  0.00     0.006 C 
BRANCH   6   7
ATOM      7  C   UNL     1      24.634  30.229  35.570  1.00  0.00     0.053 C 
BRANCH   7   8
ATOM      8  C   UNL     1      24.385  29.094  34.626  1.00  0.00     0.041 C 
ATOM      9  O   UNL     1      25.287  28.722  33.829  1.00  0.00    -0.550 OA
ATOM     10  O   UNL     1      23.147  28.464  34.603  1.00  0.00    -0.550 OA
ENDBRANCH   7   8
ENDBRANCH   6   7
ENDBRANCH   5   6
ENDBRANCH   4   5
ENDBRANCH   3   4
ENDBRANCH   2   3
ENDBRANCH   1   2
BRANCH   1  11
ATOM     11  C   UNL     1      21.187  31.661  29.596  1.00  0.00    -0.031 C 
ATOM     12  C   UNL     1      21.327  31.424  28.277  1.00  0.00    -0.027 C 
BRANCH  12  13
ATOM     13  C   UNL     1      21.391  32.497  27.220  1.00  0.00     0.054 C 
BRANCH  13  14
ATOM     14  C   UNL     1      21.600  31.904  25.854  1.00  0.00    -0.027 C 
ATOM     15  C   UNL     1      21.542  32.657  24.745  1.00  0.00    -0.031 C 
BRANCH  15  16
ATOM     16  C   UNL     1      21.739  32.062  23.379  1.00  0.00     0.027 C 
BRANCH  16  17
ATOM     17  C   UNL     1      21.318  30.586  23.351  1.00  0.00     0.004 C 
BRANCH  17  18
ATOM     18  C   UNL     1      20.819  30.132  21.968  1.00  0.00     0.000 C 
BRANCH  18  19
ATOM     19  C   UNL     1      20.782  31.266  20.922  1.00  0.00    -0.003 C 
ATOM     20  C   UNL     1      20.055  30.853  19.643  1.00  0.00     0.004 C 
ENDBRANCH  18  19
ENDBRANCH  17  18
ENDBRANCH  16  17
ENDBRANCH  15  16
ENDBRANCH  13  14
ENDBRANCH  12  13
ENDBRANCH   1  11
TORSDOF 14
ENDMDL
MODEL 3
REMARK VINA RESULT:    -4.608      4.324      6.929
REMARK INTER + INTRA:          -9.566
REMARK INTER:                  -8.219
REMARK INTRA:                  -1.348
REMARK UNBOUND:                -1.187
REMARK SMILES CCCCCC=CCC=CCCCCCCCC(=O)[O-]
REMARK SMILES IDX 11 1 12 2 13 3 14 4 15 5 16 6 17 7 18 8 19 9 20 10 10 11
REMARK SMILES IDX 9 12 8 13 7 14 6 15 5 16 4 17 3 18 2 19 1 20
REMARK H PARENT
REMARK Flexibility Score: inf
ROOT
ATOM      1  C   UNL     1      19.172  33.121  29.401  1.00  0.00     0.027 C 
ENDROOT
BRANCH   1   2
ATOM      2  C   UNL     1      18.724  33.384  27.955  1.00  0.00     0.004 C 
BRANCH   2   3
ATOM      3  C   UNL     1      19.405  34.617  27.336  1.00  0.00     0.000 C 
BRANCH   3   4
ATOM      4  C   UNL     1      20.916  34.741  27.625  1.00  0.00     0.000 C 
BRANCH   4   5
ATOM      5  C   UNL     1      21.839  34.323  26.467  1.00  0.00     0.000 C 
BRANCH   5   6
ATOM      6  C   UNL     1      21.907  32.797  26.277  1.00  0.00     0.006 C 
BRANCH   6   7
ATOM      7  C   UNL     1      21.013  32.317  25.126  1.00  0.00     0.053 C 
BRANCH   7   8
ATOM      8  C   UNL     1      21.565  31.092  24.465  1.00  0.00     0.041 C 
ATOM      9  O   UNL     1      21.606  29.998  25.088  1.00  0.00    -0.550 OA
ATOM     10  O   UNL     1      22.062  31.164  23.169  1.00  0.00    -0.550 OA
ENDBRANCH   7   8
ENDBRANCH   6   7
ENDBRANCH   5   6
ENDBRANCH   4   5
ENDBRANCH   3   4
ENDBRANCH   2   3
ENDBRANCH   1   2
BRANCH   1  11
ATOM     11  C   UNL     1      20.051  31.899  29.472  1.00  0.00    -0.031 C 
ATOM     12  C   UNL     1      21.281  31.877  30.019  1.00  0.00    -0.027 C 
BRANCH  12  13
ATOM     13  C   UNL     1      21.934  33.053  30.701  1.00  0.00     0.054 C 
BRANCH  13  14
ATOM     14  C   UNL     1      22.270  32.736  32.131  1.00  0.00    -0.027 C 
ATOM     15  C   UNL     1      23.317  31.960  32.451  1.00  0.00    -0.031 C 
BRANCH  15  16
ATOM     16  C   UNL     1      23.646  31.633  33.881  1.00  0.00     0.027 C 
BRANCH  16  17
ATOM     17  C   UNL     1      24.535  30.385  33.974  1.00  0.00     0.004 C 
BRANCH  17  18
ATOM     18  C   UNL     1      24.331  29.602  35.283  1.00  0.00     0.000 C 
BRANCH  18  19
ATOM     19  C   UNL     1      24.235  28.075  35.080  1.00  0.00    -0.003 C 
ATOM     20  C   UNL     1      25.522  27.484  34.504  1.00  0.00     0.004 C 
ENDBRANCH  18  19
ENDBRANCH  17  18
ENDBRANCH  16  17
ENDBRANCH  15  16
ENDBRANCH  13  14
ENDBRANCH  12  13
ENDBRANCH   1  11
TORSDOF 14
ENDMDL
MODEL 4
REMARK VINA RESULT:    -4.597      4.708      9.120
REMARK INTER + INTRA:          -9.546
REMARK INTER:                  -8.032
REMARK INTRA:                  -1.515
REMARK UNBOUND:                -1.187
REMARK SMILES CCCCCC=CCC=CCCCCCCCC(=O)[O-]
REMARK SMILES IDX 11 1 12 2 13 3 14 4 15 5 16 6 17 7 18 8 19 9 20 10 10 11
REMARK SMILES IDX 9 12 8 13 7 14 6 15 5 16 4 17 3 18 2 19 1 20
REMARK H PARENT
REMARK Flexibility Score: inf
ROOT
ATOM      1  C   UNL     1      19.254  32.692  29.051  1.00  0.00     0.027 C 
ENDROOT
BRANCH   1   2
ATOM      2  C   UNL     1      19.095  32.972  30.553  1.00  0.00     0.004 C 
BRANCH   2   3
ATOM      3  C   UNL     1      19.843  34.239  31.004  1.00  0.00     0.000 C 
BRANCH   3   4
ATOM      4  C   UNL     1      20.952  34.003  32.050  1.00  0.00     0.000 C 
BRANCH   4   5
ATOM      5  C   UNL     1      22.321  33.603  31.472  1.00  0.00     0.000 C 
BRANCH   5   6
ATOM      6  C   UNL     1      22.666  32.125  31.722  1.00  0.00     0.006 C 
BRANCH   6   7
ATOM      7  C   UNL     1      23.981  31.960  32.497  1.00  0.00     0.053 C 
BRANCH   7   8
ATOM      8  C   UNL     1      23.812  31.087  33.702  1.00  0.00     0.041 C 
ATOM      9  O   UNL     1      23.070  31.452  34.651  1.00  0.00    -0.550 OA
ATOM     10  O   UNL     1      24.498  29.881  33.791  1.00  0.00    -0.550 OA
ENDBRANCH   7   8
ENDBRANCH   6   7
ENDBRANCH   5   6
ENDBRANCH   4   5
ENDBRANCH   3   4
ENDBRANCH   2   3
ENDBRANCH   1   2
BRANCH   1  11
ATOM     11  C   UNL     1      20.335  31.669  28.812  1.00  0.00    -0.031 C 
ATOM     12  C   UNL     1      21.486  31.915  28.158  1.00  0.00    -0.027 C 
BRANCH  12  13
ATOM     13  C   UNL     1      21.894  33.267  27.628  1.00  0.00     0.054 C 
BRANCH  13  14
ATOM     14  C   UNL     1      21.923  33.276  26.125  1.00  0.00    -0.027 C 
ATOM     15  C   UNL     1      21.390  32.275  25.406  1.00  0.00    -0.031 C 
BRANCH  15  16
ATOM     16  C   UNL     1      21.430  32.278  23.904  1.00  0.00     0.027 C 
BRANCH  16  17
ATOM     17  C   UNL     1      21.684  30.868  23.353  1.00  0.00     0.004 C 
BRANCH  17  18
ATOM     18  C   UNL     1      20.558  30.375  22.428  1.00  0.00     0.000 C 
BRANCH  18  19
ATOM     19  C   UNL     1      20.850  30.593  20.929  1.00  0.00    -0.003 C 
ATOM     20  C   UNL     1      19.912  29.786  20.031  1.00  0.00     0.004 C 
ENDBRANCH  18  19
ENDBRANCH  17  18
ENDBRANCH  16  17
ENDBRANCH  15  16
ENDBRANCH  13  14
ENDBRANCH  12  13
ENDBRANCH   1  11
TORSDOF 14
ENDMDL
MODEL 5
REMARK VINA RESULT:    -4.597      3.457      6.155
REMARK INTER + INTRA:          -9.546
REMARK INTER:                  -7.516
REMARK INTRA:                  -2.031
REMARK UNBOUND:                -1.187
REMARK SMILES CCCCCC=CCC=CCCCCCCCC(=O)[O-]
REMARK SMILES IDX 11 1 12 2 13 3 14 4 15 5 16 6 17 7 18 8 19 9 20 10 10 11
REMARK SMILES IDX 9 12 8 13 7 14 6 15 5 16 4 17 3 18 2 19 1 20
REMARK H PARENT
REMARK Flexibility Score: inf
ROOT
ATOM      1  C   UNL     1      18.352  33.288  27.996  1.00  0.00     0.027 C 
ENDROOT
BRANCH   1   2
ATOM      2  C   UNL     1      18.583  34.790  28.217  1.00  0.00     0.004 C 
BRANCH   2   3
ATOM      3  C   UNL     1      20.036  35.215  27.943  1.00  0.00     0.000 C 
BRANCH   3   4
ATOM      4  C   UNL     1      20.657  34.625  26.660  1.00  0.00     0.000 C 
BRANCH   4   5
ATOM      5  C   UNL     1      21.917  33.768  26.878  1.00  0.00     0.000 C 
BRANCH   5   6
ATOM      6  C   UNL     1      21.878  32.440  26.103  1.00  0.00     0.006 C 
BRANCH   6   7
ATOM      7  C   UNL     1      20.979  32.521  24.862  1.00  0.00     0.053 C 
BRANCH   7   8
ATOM      8  C   UNL     1      21.508  31.688  23.735  1.00  0.00     0.041 C 
ATOM      9  O   UNL     1      21.936  30.524  23.953  1.00  0.00    -0.550 OA
ATOM     10  O   UNL     1      21.557  32.207  22.447  1.00  0.00    -0.550 OA
ENDBRANCH   7   8
ENDBRANCH   6   7
ENDBRANCH   5   6
ENDBRANCH   4   5
ENDBRANCH   3   4
ENDBRANCH   2   3
ENDBRANCH   1   2
BRANCH   1  11
ATOM     11  C   UNL     1      18.204  32.572  29.314  1.00  0.00    -0.031 C 
ATOM     12  C   UNL     1      19.100  31.697  29.810  1.00  0.00    -0.027 C 
BRANCH  12  13
ATOM     13  C   UNL     1      20.413  31.355  29.153  1.00  0.00     0.054 C 
BRANCH  13  14
ATOM     14  C   UNL     1      21.576  31.831  29.979  1.00  0.00    -0.027 C 
ATOM     15  C   UNL     1      21.499  32.945  30.724  1.00  0.00    -0.031 C 
BRANCH  15  16
ATOM     16  C   UNL     1      22.665  33.427  31.541  1.00  0.00     0.027 C 
BRANCH  16  17
ATOM     17  C   UNL     1      22.731  32.703  32.893  1.00  0.00     0.004 C 
BRANCH  17  18
ATOM     18  C   UNL     1      24.086  32.015  33.136  1.00  0.00     0.000 C 
BRANCH  18  19
ATOM     19  C   UNL     1      23.981  30.725  33.977  1.00  0.00    -0.003 C 
ATOM     20  C   UNL     1      25.320  29.996  34.092  1.00  0.00     0.004 C 
ENDBRANCH  18  19
ENDBRANCH  17  18
ENDBRANCH  16  17
ENDBRANCH  15  16
ENDBRANCH  13  14
ENDBRANCH  12  13
ENDBRANCH   1  11
TORSDOF 14
ENDMDL
MODEL 6
REMARK VINA RESULT:    -4.545      3.914      6.376
REMARK INTER + INTRA:          -9.453
REMARK INTER:                  -8.089
REMARK INTRA:                  -1.363
REMARK UNBOUND:                -1.187
REMARK SMILES CCCCCC=CCC=CCCCCCCCC(=O)[O-]
REMARK SMILES IDX 11 1 12 2 13 3 14 4 15 5 16 6 17 7 18 8 19 9 20 10 10 11
REMARK SMILES IDX 9 12 8 13 7 14 6 15 5 16 4 17 3 18 2 19 1 20
REMARK H PARENT
REMARK Flexibility Score: inf
ROOT
ATOM      1  C   UNL     1      21.489  31.143  28.478  1.00  0.00     0.027 C 
ENDROOT
BRANCH   1   2
ATOM      2  C   UNL     1      21.412  31.708  27.052  1.00  0.00     0.004 C 
BRANCH   2   3
ATOM      3  C   UNL     1      21.888  33.168  26.965  1.00  0.00     0.000 C 
BRANCH   3   4
ATOM      4  C   UNL     1      20.809  34.182  26.533  1.00  0.00     0.000 C 
BRANCH   4   5
ATOM      5  C   UNL     1      19.771  33.645  25.532  1.00  0.00     0.000 C 
BRANCH   5   6
ATOM      6  C   UNL     1      20.258  33.709  24.073  1.00  0.00     0.006 C 
BRANCH   6   7
ATOM      7  C   UNL     1      20.261  32.328  23.403  1.00  0.00     0.053 C 
BRANCH   7   8
ATOM      8  C   UNL     1      21.649  31.786  23.248  1.00  0.00     0.041 C 
ATOM      9  O   UNL     1      21.948  30.662  23.730  1.00  0.00    -0.550 OA
ATOM     10  O   UNL     1      22.621  32.535  22.597  1.00  0.00    -0.550 OA
ENDBRANCH   7   8
ENDBRANCH   6   7
ENDBRANCH   5   6
ENDBRANCH   4   5
ENDBRANCH   3   4
ENDBRANCH   2   3
ENDBRANCH   1   2
BRANCH   1  11
ATOM     11  C   UNL     1      20.354  31.666  29.321  1.00  0.00    -0.031 C 
ATOM     12  C   UNL     1      20.476  32.639  30.244  1.00  0.00    -0.027 C 
BRANCH  12  13
ATOM     13  C   UNL     1      21.750  33.396  30.523  1.00  0.00     0.054 C 
BRANCH  13  14
ATOM     14  C   UNL     1      22.545  32.739  31.617  1.00  0.00    -0.027 C 
ATOM     15  C   UNL     1      22.309  33.003  32.912  1.00  0.00    -0.031 C 
BRANCH  15  16
ATOM     16  C   UNL     1      23.111  32.354  34.005  1.00  0.00     0.027 C 
BRANCH  16  17
ATOM     17  C   UNL     1      23.915  31.161  33.470  1.00  0.00     0.004 C 
BRANCH  17  18
ATOM     18  C   UNL     1      24.671  30.405  34.577  1.00  0.00     0.000 C 
BRANCH  18  19
ATOM     19  C   UNL     1      24.349  28.897  34.625  1.00  0.00    -0.003 C 
ATOM     20  C   UNL     1      25.570  28.031  34.315  1.00  0.00     0.004 C 
ENDBRANCH  18  19
ENDBRANCH  17  18
ENDBRANCH  16  17
ENDBRANCH  15  16
ENDBRANCH  13  14
ENDBRANCH  12  13
ENDBRANCH   1  11
TORSDOF 14
ENDMDL
MODEL 7
REMARK VINA RESULT:    -4.478      4.209      6.186
REMARK INTER + INTRA:          -9.331
REMARK INTER:                  -8.559
REMARK INTRA:                  -0.772
REMARK UNBOUND:                -1.187
REMARK SMILES CCCCCC=CCC=CCCCCCCCC(=O)[O-]
REMARK SMILES IDX 11 1 12 2 13 3 14 4 15 5 16 6 17 7 18 8 19 9 20 10 10 11
REMARK SMILES IDX 9 12 8 13 7 14 6 15 5 16 4 17 3 18 2 19 1 20
REMARK H PARENT
REMARK Flexibility Score: inf
ROOT
ATOM      1  C   UNL     1      21.778  33.352  28.002  1.00  0.00     0.027 C 
ENDROOT
BRANCH   1   2
ATOM      2  C   UNL     1      21.973  33.224  26.484  1.00  0.00     0.004 C 
BRANCH   2   3
ATOM      3  C   UNL     1      21.675  34.534  25.734  1.00  0.00     0.000 C 
BRANCH   3   4
ATOM      4  C   UNL     1      22.728  34.938  24.682  1.00  0.00     0.000 C 
BRANCH   4   5
ATOM      5  C   UNL     1      22.735  34.083  23.402  1.00  0.00     0.000 C 
BRANCH   5   6
ATOM      6  C   UNL     1      21.392  33.377  23.147  1.00  0.00     0.006 C 
BRANCH   6   7
ATOM      7  C   UNL     1      21.558  32.100  22.313  1.00  0.00     0.053 C 
BRANCH   7   8
ATOM      8  C   UNL     1      21.367  30.865  23.138  1.00  0.00     0.041 C 
ATOM      9  O   UNL     1      22.031  30.701  24.195  1.00  0.00    -0.550 OA
ATOM     10  O   UNL     1      20.477  29.882  22.726  1.00  0.00    -0.550 OA
ENDBRANCH   7   8
ENDBRANCH   6   7
ENDBRANCH   5   6
ENDBRANCH   4   5
ENDBRANCH   3   4
ENDBRANCH   2   3
ENDBRANCH   1   2
BRANCH   1  11
ATOM     11  C   UNL     1      21.515  32.003  28.621  1.00  0.00    -0.031 C 
ATOM     12  C   UNL     1      21.207  31.806  29.917  1.00  0.00    -0.027 C 
BRANCH  12  13
ATOM     13  C   UNL     1      21.014  32.911  30.925  1.00  0.00     0.054 C 
BRANCH  13  14
ATOM     14  C   UNL     1      22.186  33.004  31.862  1.00  0.00    -0.027 C 
ATOM     15  C   UNL     1      22.962  31.940  32.124  1.00  0.00    -0.031 C 
BRANCH  15  16
ATOM     16  C   UNL     1      24.127  32.029  33.070  1.00  0.00     0.027 C 
BRANCH  16  17
ATOM     17  C   UNL     1      23.734  31.564  34.479  1.00  0.00     0.004 C 
BRANCH  17  18
ATOM     18  C   UNL     1      24.525  30.328  34.942  1.00  0.00     0.000 C 
BRANCH  18  19
ATOM     19  C   UNL     1      23.833  28.990  34.606  1.00  0.00    -0.003 C 
ATOM     20  C   UNL     1      24.685  27.782  34.996  1.00  0.00     0.004 C 
ENDBRANCH  18  19
ENDBRANCH  17  18
ENDBRANCH  16  17
ENDBRANCH  15  16
ENDBRANCH  13  14
ENDBRANCH  12  13
ENDBRANCH   1  11
TORSDOF 14
ENDMDL
MODEL 8
REMARK VINA RESULT:    -4.476     14.714     17.865
REMARK INTER + INTRA:          -9.327
REMARK INTER:                  -8.463
REMARK INTRA:                  -0.864
REMARK UNBOUND:                -1.187
REMARK SMILES CCCCCC=CCC=CCCCCCCCC(=O)[O-]
REMARK SMILES IDX 11 1 12 2 13 3 14 4 15 5 16 6 17 7 18 8 19 9 20 10 10 11
REMARK SMILES IDX 9 12 8 13 7 14 6 15 5 16 4 17 3 18 2 19 1 20
REMARK H PARENT
REMARK Flexibility Score: inf
ROOT
ATOM      1  C   UNL     1      22.471  15.992  24.756  1.00  0.00     0.027 C 
ENDROOT
BRANCH   1   2
ATOM      2  C   UNL     1      21.631  16.355  25.989  1.00  0.00     0.004 C 
BRANCH   2   3
ATOM      3  C   UNL     1      21.994  17.733  26.570  1.00  0.00     0.000 C 
BRANCH   3   4
ATOM      4  C   UNL     1      21.139  18.180  27.773  1.00  0.00     0.000 C 
BRANCH   4   5
ATOM      5  C   UNL     1      19.651  17.792  27.698  1.00  0.00     0.000 C 
BRANCH   5   6
ATOM      6  C   UNL     1      18.872  18.162  28.972  1.00  0.00     0.006 C 
BRANCH   6   7
ATOM      7  C   UNL     1      18.935  19.665  29.274  1.00  0.00     0.053 C 
BRANCH   7   8
ATOM      8  C   UNL     1      19.703  19.952  30.527  1.00  0.00     0.041 C 
ATOM      9  O   UNL     1      19.170  19.766  31.653  1.00  0.00    -0.550 OA
ATOM     10  O   UNL     1      20.997  20.451  30.454  1.00  0.00    -0.550 OA
ENDBRANCH   7   8
ENDBRANCH   6   7
ENDBRANCH   5   6
ENDBRANCH   4   5
ENDBRANCH   3   4
ENDBRANCH   2   3
ENDBRANCH   1   2
BRANCH   1  11
ATOM     11  C   UNL     1      23.533  17.032  24.509  1.00  0.00    -0.031 C 
ATOM     12  C   UNL     1      24.320  17.073  23.417  1.00  0.00    -0.027 C 
BRANCH  12  13
ATOM     13  C   UNL     1      24.210  16.124  22.250  1.00  0.00     0.054 C 
BRANCH  13  14
ATOM     14  C   UNL     1      25.441  16.177  21.388  1.00  0.00    -0.027 C 
ATOM     15  C   UNL     1      26.633  16.539  21.887  1.00  0.00    -0.031 C 
BRANCH  15  16
ATOM     16  C   UNL     1      27.861  16.603  21.022  1.00  0.00     0.027 C 
BRANCH  16  17
ATOM     17  C   UNL     1      27.488  16.694  19.535  1.00  0.00     0.004 C 
BRANCH  17  18
ATOM     18  C   UNL     1      27.847  18.053  18.911  1.00  0.00     0.000 C 
BRANCH  18  19
ATOM     19  C   UNL     1      28.617  17.937  17.579  1.00  0.00    -0.003 C 
ATOM     20  C   UNL     1      29.881  17.088  17.710  1.00  0.00     0.004 C 
ENDBRANCH  18  19
ENDBRANCH  17  18
ENDBRANCH  16  17
ENDBRANCH  15  16
ENDBRANCH  13  14
ENDBRANCH  12  13
ENDBRANCH   1  11
TORSDOF 14
ENDMDL
MODEL 9
REMARK VINA RESULT:    -4.435      4.339      9.258
REMARK INTER + INTRA:          -9.252
REMARK INTER:                  -7.659
REMARK INTRA:                  -1.593
REMARK UNBOUND:                -1.187
REMARK SMILES CCCCCC=CCC=CCCCCCCCC(=O)[O-]
REMARK SMILES IDX 11 1 12 2 13 3 14 4 15 5 16 6 17 7 18 8 19 9 20 10 10 11
REMARK SMILES IDX 9 12 8 13 7 14 6 15 5 16 4 17 3 18 2 19 1 20
REMARK H PARENT
REMARK Flexibility Score: inf
ROOT
ATOM      1  C   UNL     1      19.223  32.401  29.454  1.00  0.00     0.027 C 
ENDROOT
BRANCH   1   2
ATOM      2  C   UNL     1      19.118  32.796  30.935  1.00  0.00     0.004 C 
BRANCH   2   3
ATOM      3  C   UNL     1      20.058  33.955  31.309  1.00  0.00     0.000 C 
BRANCH   3   4
ATOM      4  C   UNL     1      21.226  33.573  32.241  1.00  0.00     0.000 C 
BRANCH   4   5
ATOM      5  C   UNL     1      22.624  33.645  31.602  1.00  0.00     0.000 C 
BRANCH   5   6
ATOM      6  C   UNL     1      23.604  32.616  32.190  1.00  0.00     0.006 C 
BRANCH   6   7
ATOM      7  C   UNL     1      23.082  31.999  33.495  1.00  0.00     0.053 C 
BRANCH   7   8
ATOM      8  C   UNL     1      23.845  30.768  33.875  1.00  0.00     0.041 C 
ATOM      9  O   UNL     1      24.863  30.425  33.218  1.00  0.00    -0.550 OA
ATOM     10  O   UNL     1      23.416  29.982  34.938  1.00  0.00    -0.550 OA
ENDBRANCH   7   8
ENDBRANCH   6   7
ENDBRANCH   5   6
ENDBRANCH   4   5
ENDBRANCH   3   4
ENDBRANCH   2   3
ENDBRANCH   1   2
BRANCH   1  11
ATOM     11  C   UNL     1      20.371  31.447  29.238  1.00  0.00    -0.031 C 
ATOM     12  C   UNL     1      21.498  31.751  28.567  1.00  0.00    -0.027 C 
BRANCH  12  13
ATOM     13  C   UNL     1      21.807  33.109  27.989  1.00  0.00     0.054 C 
BRANCH  13  14
ATOM     14  C   UNL     1      21.840  33.067  26.486  1.00  0.00    -0.027 C 
ATOM     15  C   UNL     1      21.551  31.945  25.809  1.00  0.00    -0.031 C 
BRANCH  15  16
ATOM     16  C   UNL     1      21.595  31.900  24.307  1.00  0.00     0.027 C 
BRANCH  16  17
ATOM     17  C   UNL     1      21.077  33.210  23.697  1.00  0.00     0.004 C 
BRANCH  17  18
ATOM     18  C   UNL     1      21.518  33.404  22.236  1.00  0.00     0.000 C 
BRANCH  18  19
ATOM     19  C   UNL     1      23.015  33.745  22.082  1.00  0.00    -0.003 C 
ATOM     20  C   UNL     1      23.507  33.564  20.646  1.00  0.00     0.004 C 
ENDBRANCH  18  19
ENDBRANCH  17  18
ENDBRANCH  16  17
ENDBRANCH  15  16
ENDBRANCH  13  14
ENDBRANCH  12  13
ENDBRANCH   1  11
TORSDOF 14
ENDMDL
