MODEL 1
REMARK VINA RESULT:    -5.292      0.000      0.000
REMARK INTER + INTRA:          -6.788
REMARK INTER:                  -6.530
REMARK INTRA:                  -0.258
REMARK UNBOUND:                -0.258
REMARK SMILES CCOC(=O)c1ccc(O)c(O)c1
REMARK SMILES IDX 4 1 5 2 3 3 2 4 1 5 6 6 13 7 7 8 11 9 8 10 9 11 12 12 10 14
REMARK H PARENT 12 13 10 15
REMARK Flexibility Score: inf
ROOT
ATOM      1  C   UNL     1      19.656  -1.162 -19.320  1.00  0.00     0.338 C 
ATOM      2  O   UNL     1      19.816  -2.412 -19.249  1.00  0.00    -0.246 OA
ENDROOT
BRANCH   1   3
ATOM      3  O   UNL     1      18.738  -0.521 -18.478  1.00  0.00    -0.462 OA
BRANCH   3   4
ATOM      4  C   UNL     1      18.744  -0.657 -17.058  1.00  0.00     0.230 C 
ATOM      5  C   UNL     1      19.302   0.599 -16.401  1.00  0.00     0.049 C 
ENDBRANCH   3   4
ENDBRANCH   1   3
BRANCH   1   6
ATOM      6  C   UNL     1      20.436  -0.370 -20.297  1.00  0.00     0.064 A 
ATOM      7  C   UNL     1      20.920   0.908 -19.962  1.00  0.00     0.065 A 
ATOM      8  C   UNL     1      20.703  -0.886 -21.576  1.00  0.00     0.020 A 
ATOM      9  C   UNL     1      21.657   1.657 -20.887  1.00  0.00     0.158 A 
ATOM     10  C   UNL     1      21.437  -0.140 -22.501  1.00  0.00     0.051 A 
ATOM     11  C   UNL     1      21.918   1.131 -22.164  1.00  0.00     0.157 A 
BRANCH   9  12
ATOM     12  O   UNL     1      22.121   2.920 -20.520  1.00  0.00    -0.504 OA
ATOM     13  H   UNL     1      21.832   3.369 -19.659  1.00  0.00     0.293 HD
ENDBRANCH   9  12
BRANCH  11  14
ATOM     14  O   UNL     1      22.652   1.872 -23.089  1.00  0.00    -0.504 OA
ATOM     15  H   UNL     1      22.822   2.864 -22.959  1.00  0.00     0.293 HD
ENDBRANCH  11  14
ENDBRANCH   1   6
TORSDOF 5
ENDMDL
MODEL 2
REMARK VINA RESULT:    -5.064      1.805      5.372
REMARK INTER + INTRA:          -6.506
REMARK INTER:                  -6.388
REMARK INTRA:                  -0.118
REMARK UNBOUND:                -0.258
REMARK SMILES CCOC(=O)c1ccc(O)c(O)c1
REMARK SMILES IDX 4 1 5 2 3 3 2 4 1 5 6 6 13 7 7 8 11 9 8 10 9 11 12 12 10 14
REMARK H PARENT 12 13 10 15
REMARK Flexibility Score: inf
ROOT
ATOM      1  C   UNL     1      21.819   1.644 -21.809  1.00  0.00     0.338 C 
ATOM      2  O   UNL     1      22.209   0.858 -22.717  1.00  0.00    -0.246 OA
ENDROOT
BRANCH   1   3
ATOM      3  O   UNL     1      21.981   3.027 -21.959  1.00  0.00    -0.462 OA
BRANCH   3   4
ATOM      4  C   UNL     1      22.559   3.631 -23.115  1.00  0.00     0.230 C 
ATOM      5  C   UNL     1      23.032   5.045 -22.803  1.00  0.00     0.049 C 
ENDBRANCH   3   4
ENDBRANCH   1   3
BRANCH   1   6
ATOM      6  C   UNL     1      21.194   1.106 -20.580  1.00  0.00     0.064 A 
ATOM      7  C   UNL     1      20.019   0.335 -20.650  1.00  0.00     0.065 A 
ATOM      8  C   UNL     1      21.769   1.359 -19.324  1.00  0.00     0.020 A 
ATOM      9  C   UNL     1      19.429  -0.173 -19.487  1.00  0.00     0.158 A 
ATOM     10  C   UNL     1      21.181   0.854 -18.161  1.00  0.00     0.051 A 
ATOM     11  C   UNL     1      20.012   0.087 -18.235  1.00  0.00     0.157 A 
BRANCH   9  12
ATOM     12  O   UNL     1      18.264  -0.933 -19.596  1.00  0.00    -0.504 OA
ATOM     13  H   UNL     1      17.344  -0.530 -19.460  1.00  0.00     0.293 HD
ENDBRANCH   9  12
BRANCH  11  14
ATOM     14  O   UNL     1      19.428  -0.417 -17.074  1.00  0.00    -0.504 OA
ATOM     15  H   UNL     1      19.703  -1.314 -16.688  1.00  0.00     0.293 HD
ENDBRANCH  11  14
ENDBRANCH   1   6
TORSDOF 5
ENDMDL
MODEL 3
REMARK VINA RESULT:    -4.951      2.648      3.327
REMARK INTER + INTRA:          -6.367
REMARK INTER:                  -6.213
REMARK INTRA:                  -0.154
REMARK UNBOUND:                -0.258
REMARK SMILES CCOC(=O)c1ccc(O)c(O)c1
REMARK SMILES IDX 4 1 5 2 3 3 2 4 1 5 6 6 13 7 7 8 11 9 8 10 9 11 12 12 10 14
REMARK H PARENT 12 13 10 15
REMARK Flexibility Score: inf
ROOT
ATOM      1  C   UNL     1      21.317   0.975 -17.173  1.00  0.00     0.338 C 
ATOM      2  O   UNL     1      20.318   0.955 -16.402  1.00  0.00    -0.246 OA
ENDROOT
BRANCH   1   3
ATOM      3  O   UNL     1      22.554   1.440 -16.708  1.00  0.00    -0.462 OA
BRANCH   3   4
ATOM      4  C   UNL     1      23.037   1.208 -15.386  1.00  0.00     0.230 C 
ATOM      5  C   UNL     1      24.353   0.441 -15.421  1.00  0.00     0.049 C 
ENDBRANCH   3   4
ENDBRANCH   1   3
BRANCH   1   6
ATOM      6  C   UNL     1      21.184   0.511 -18.572  1.00  0.00     0.064 A 
ATOM      7  C   UNL     1      21.661   1.296 -19.637  1.00  0.00     0.065 A 
ATOM      8  C   UNL     1      20.577  -0.724 -18.854  1.00  0.00     0.020 A 
ATOM      9  C   UNL     1      21.534   0.857 -20.960  1.00  0.00     0.158 A 
ATOM     10  C   UNL     1      20.449  -1.164 -20.174  1.00  0.00     0.051 A 
ATOM     11  C   UNL     1      20.925  -0.380 -21.231  1.00  0.00     0.157 A 
BRANCH   9  12
ATOM     12  O   UNL     1      22.019   1.662 -21.991  1.00  0.00    -0.504 OA
ATOM     13  H   UNL     1      21.494   1.820 -22.843  1.00  0.00     0.293 HD
ENDBRANCH   9  12
BRANCH  11  14
ATOM     14  O   UNL     1      20.796  -0.823 -22.547  1.00  0.00    -0.504 OA
ATOM     15  H   UNL     1      21.535  -1.344 -23.006  1.00  0.00     0.293 HD
ENDBRANCH  11  14
ENDBRANCH   1   6
TORSDOF 5
ENDMDL
MODEL 4
REMARK VINA RESULT:    -4.903     15.787     18.420
REMARK INTER + INTRA:          -6.308
REMARK INTER:                  -6.001
REMARK INTRA:                  -0.307
REMARK UNBOUND:                -0.258
REMARK SMILES CCOC(=O)c1ccc(O)c(O)c1
REMARK SMILES IDX 4 1 5 2 3 3 2 4 1 5 6 6 13 7 7 8 11 9 8 10 9 11 12 12 10 14
REMARK H PARENT 12 13 10 15
REMARK Flexibility Score: inf
ROOT
ATOM      1  C   UNL     1       9.692  -7.429  -9.417  1.00  0.00     0.338 C 
ATOM      2  O   UNL     1       9.620  -8.684  -9.530  1.00  0.00    -0.246 OA
ENDROOT
BRANCH   1   3
ATOM      3  O   UNL     1      10.192  -6.656 -10.473  1.00  0.00    -0.462 OA
BRANCH   3   4
ATOM      4  C   UNL     1       9.587  -5.443 -10.917  1.00  0.00     0.230 C 
ATOM      5  C   UNL     1       8.242  -5.722 -11.576  1.00  0.00     0.049 C 
ENDBRANCH   3   4
ENDBRANCH   1   3
BRANCH   1   6
ATOM      6  C   UNL     1       9.253  -6.770  -8.167  1.00  0.00     0.064 A 
ATOM      7  C   UNL     1      10.161  -6.029  -7.389  1.00  0.00     0.065 A 
ATOM      8  C   UNL     1       7.919  -6.876  -7.741  1.00  0.00     0.020 A 
ATOM      9  C   UNL     1       9.745  -5.406  -6.206  1.00  0.00     0.158 A 
ATOM     10  C   UNL     1       7.501  -6.256  -6.561  1.00  0.00     0.051 A 
ATOM     11  C   UNL     1       8.408  -5.519  -5.789  1.00  0.00     0.157 A 
BRANCH   9  12
ATOM     12  O   UNL     1      10.674  -4.680  -5.461  1.00  0.00    -0.504 OA
ATOM     13  H   UNL     1      10.889  -4.911  -4.498  1.00  0.00     0.293 HD
ENDBRANCH   9  12
BRANCH  11  14
ATOM     14  O   UNL     1       7.989  -4.900  -4.612  1.00  0.00    -0.504 OA
ATOM     15  H   UNL     1       7.866  -3.895  -4.556  1.00  0.00     0.293 HD
ENDBRANCH  11  14
ENDBRANCH   1   6
TORSDOF 5
ENDMDL
MODEL 5
REMARK VINA RESULT:    -4.840      1.827      2.487
REMARK INTER + INTRA:          -6.230
REMARK INTER:                  -5.946
REMARK INTRA:                  -0.284
REMARK UNBOUND:                -0.258
REMARK SMILES CCOC(=O)c1ccc(O)c(O)c1
REMARK SMILES IDX 4 1 5 2 3 3 2 4 1 5 6 6 13 7 7 8 11 9 8 10 9 11 12 12 10 14
REMARK H PARENT 12 13 10 15
REMARK Flexibility Score: inf
ROOT
ATOM      1  C   UNL     1      20.635   0.669 -17.173  1.00  0.00     0.338 C 
ATOM      2  O   UNL     1      21.678   0.733 -16.464  1.00  0.00    -0.246 OA
ENDROOT
BRANCH   1   3
ATOM      3  O   UNL     1      19.385   0.964 -16.612  1.00  0.00    -0.462 OA
BRANCH   3   4
ATOM      4  C   UNL     1      18.847   0.277 -15.484  1.00  0.00     0.230 C 
ATOM      5  C   UNL     1      18.158  -1.011 -15.918  1.00  0.00     0.049 C 
ENDBRANCH   3   4
ENDBRANCH   1   3
BRANCH   1   6
ATOM      6  C   UNL     1      20.729   0.277 -18.596  1.00  0.00     0.064 A 
ATOM      7  C   UNL     1      21.361   1.116 -19.532  1.00  0.00     0.065 A 
ATOM      8  C   UNL     1      20.185  -0.943 -19.032  1.00  0.00     0.020 A 
ATOM      9  C   UNL     1      21.449   0.744 -20.879  1.00  0.00     0.158 A 
ATOM     10  C   UNL     1      20.271  -1.316 -20.376  1.00  0.00     0.051 A 
ATOM     11  C   UNL     1      20.901  -0.478 -21.305  1.00  0.00     0.157 A 
BRANCH   9  12
ATOM     12  O   UNL     1      22.083   1.602 -21.778  1.00  0.00    -0.504 OA
ATOM     13  H   UNL     1      22.295   2.564 -21.544  1.00  0.00     0.293 HD
ENDBRANCH   9  12
BRANCH  11  14
ATOM     14  O   UNL     1      20.986  -0.853 -22.645  1.00  0.00    -0.504 OA
ATOM     15  H   UNL     1      21.245  -1.795 -22.916  1.00  0.00     0.293 HD
ENDBRANCH  11  14
ENDBRANCH   1   6
TORSDOF 5
ENDMDL
MODEL 6
REMARK VINA RESULT:    -4.834      1.202      2.067
REMARK INTER + INTRA:          -6.223
REMARK INTER:                  -6.013
REMARK INTRA:                  -0.210
REMARK UNBOUND:                -0.258
REMARK SMILES CCOC(=O)c1ccc(O)c(O)c1
REMARK SMILES IDX 4 1 5 2 3 3 2 4 1 5 6 6 13 7 7 8 11 9 8 10 9 11 12 12 10 14
REMARK H PARENT 12 13 10 15
REMARK Flexibility Score: inf
ROOT
ATOM      1  C   UNL     1      19.767  -0.905 -18.450  1.00  0.00     0.338 C 
ATOM      2  O   UNL     1      19.006  -1.884 -18.683  1.00  0.00    -0.246 OA
ENDROOT
BRANCH   1   3
ATOM      3  O   UNL     1      19.943  -0.447 -17.138  1.00  0.00    -0.462 OA
BRANCH   3   4
ATOM      4  C   UNL     1      18.933   0.241 -16.402  1.00  0.00     0.230 C 
ATOM      5  C   UNL     1      19.560   1.193 -15.391  1.00  0.00     0.049 C 
ENDBRANCH   3   4
ENDBRANCH   1   3
BRANCH   1   6
ATOM      6  C   UNL     1      20.472  -0.232 -19.564  1.00  0.00     0.064 A 
ATOM      7  C   UNL     1      20.558  -0.839 -20.831  1.00  0.00     0.065 A 
ATOM      8  C   UNL     1      21.067   1.026 -19.370  1.00  0.00     0.020 A 
ATOM      9  C   UNL     1      21.225  -0.202 -21.883  1.00  0.00     0.158 A 
ATOM     10  C   UNL     1      21.734   1.663 -20.419  1.00  0.00     0.051 A 
ATOM     11  C   UNL     1      21.817   1.055 -21.678  1.00  0.00     0.157 A 
BRANCH   9  12
ATOM     12  O   UNL     1      21.290  -0.835 -23.125  1.00  0.00    -0.504 OA
ATOM     13  H   UNL     1      20.825  -1.717 -23.304  1.00  0.00     0.293 HD
ENDBRANCH   9  12
BRANCH  11  14
ATOM     14  O   UNL     1      22.482   1.694 -22.723  1.00  0.00    -0.504 OA
ATOM     15  H   UNL     1      22.086   2.503 -23.188  1.00  0.00     0.293 HD
ENDBRANCH  11  14
ENDBRANCH   1   6
TORSDOF 5
ENDMDL
MODEL 7
REMARK VINA RESULT:    -4.728      1.698      2.125
REMARK INTER + INTRA:          -6.092
REMARK INTER:                  -5.936
REMARK INTRA:                  -0.156
REMARK UNBOUND:                -0.258
REMARK SMILES CCOC(=O)c1ccc(O)c(O)c1
REMARK SMILES IDX 4 1 5 2 3 3 2 4 1 5 6 6 13 7 7 8 11 9 8 10 9 11 12 12 10 14
REMARK H PARENT 12 13 10 15
REMARK Flexibility Score: inf
ROOT
ATOM      1  C   UNL     1      19.113  -0.610 -17.345  1.00  0.00     0.338 C 
ATOM      2  O   UNL     1      18.799  -1.831 -17.397  1.00  0.00    -0.246 OA
ENDROOT
BRANCH   1   3
ATOM      3  O   UNL     1      18.696   0.177 -16.264  1.00  0.00    -0.462 OA
BRANCH   3   4
ATOM      4  C   UNL     1      18.105  -0.359 -15.081  1.00  0.00     0.230 C 
ATOM      5  C   UNL     1      16.586  -0.252 -15.144  1.00  0.00     0.049 C 
ENDBRANCH   3   4
ENDBRANCH   1   3
BRANCH   1   6
ATOM      6  C   UNL     1      19.919  -0.004 -18.428  1.00  0.00     0.064 A 
ATOM      7  C   UNL     1      21.064   0.758 -18.131  1.00  0.00     0.065 A 
ATOM      8  C   UNL     1      19.548  -0.182 -19.771  1.00  0.00     0.020 A 
ATOM      9  C   UNL     1      21.825   1.331 -19.157  1.00  0.00     0.158 A 
ATOM     10  C   UNL     1      20.306   0.390 -20.796  1.00  0.00     0.051 A 
ATOM     11  C   UNL     1      21.445   1.147 -20.497  1.00  0.00     0.157 A 
BRANCH   9  12
ATOM     12  O   UNL     1      22.954   2.080 -18.824  1.00  0.00    -0.504 OA
ATOM     13  H   UNL     1      22.923   2.824 -18.138  1.00  0.00     0.293 HD
ENDBRANCH   9  12
BRANCH  11  14
ATOM     14  O   UNL     1      22.200   1.715 -21.522  1.00  0.00    -0.504 OA
ATOM     15  H   UNL     1      22.099   1.413 -22.485  1.00  0.00     0.293 HD
ENDBRANCH  11  14
ENDBRANCH   1   6
TORSDOF 5
ENDMDL
MODEL 8
REMARK VINA RESULT:    -4.615     14.653     17.673
REMARK INTER + INTRA:          -5.952
REMARK INTER:                  -5.662
REMARK INTRA:                  -0.290
REMARK UNBOUND:                -0.258
REMARK SMILES CCOC(=O)c1ccc(O)c(O)c1
REMARK SMILES IDX 4 1 5 2 3 3 2 4 1 5 6 6 13 7 7 8 11 9 8 10 9 11 12 12 10 14
REMARK H PARENT 12 13 10 15
REMARK Flexibility Score: inf
ROOT
ATOM      1  C   UNL     1       9.813  -7.202 -10.600  1.00  0.00     0.338 C 
ATOM      2  O   UNL     1       9.251  -6.865 -11.679  1.00  0.00    -0.246 OA
ENDROOT
BRANCH   1   3
ATOM      3  O   UNL     1      10.937  -8.037 -10.625  1.00  0.00    -0.462 OA
BRANCH   3   4
ATOM      4  C   UNL     1      12.057  -7.826 -11.482  1.00  0.00     0.230 C 
ATOM      5  C   UNL     1      12.763  -6.521 -11.133  1.00  0.00     0.049 C 
ENDBRANCH   3   4
ENDBRANCH   1   3
BRANCH   1   6
ATOM      6  C   UNL     1       9.283  -6.719  -9.306  1.00  0.00     0.064 A 
ATOM      7  C   UNL     1      10.137  -6.135  -8.353  1.00  0.00     0.065 A 
ATOM      8  C   UNL     1       7.915  -6.839  -9.012  1.00  0.00     0.020 A 
ATOM      9  C   UNL     1       9.635  -5.679  -7.128  1.00  0.00     0.158 A 
ATOM     10  C   UNL     1       7.411  -6.386  -7.790  1.00  0.00     0.051 A 
ATOM     11  C   UNL     1       8.264  -5.805  -6.844  1.00  0.00     0.157 A 
BRANCH   9  12
ATOM     12  O   UNL     1      10.512  -5.106  -6.208  1.00  0.00    -0.504 OA
ATOM     13  H   UNL     1      10.292  -4.247  -5.718  1.00  0.00     0.293 HD
ENDBRANCH   9  12
BRANCH  11  14
ATOM     14  O   UNL     1       7.758  -5.352  -5.626  1.00  0.00    -0.504 OA
ATOM     15  H   UNL     1       7.787  -5.928  -4.793  1.00  0.00     0.293 HD
ENDBRANCH  11  14
ENDBRANCH   1   6
TORSDOF 5
ENDMDL
