MODEL 1
REMARK VINA RESULT:    -4.043      0.000      0.000
REMARK INTER + INTRA:          -4.791
REMARK INTER:                  -4.752
REMARK INTRA:                  -0.038
REMARK UNBOUND:                -0.038
REMARK SMILES O=C([O-])CCC(=O)[O-]
REMARK SMILES IDX 4 1 2 2 1 3 3 4 5 5 6 6 7 7 8 8
REMARK H PARENT
REMARK Flexibility Score: inf
ROOT
ATOM      1  C   UNL     1       6.645   5.165  -1.331  1.00  0.00     0.059 C 
ENDROOT
BRANCH   1   2
ATOM      2  C   UNL     1       6.692   4.871  -2.799  1.00  0.00     0.042 C 
ATOM      3  O   UNL     1       6.216   3.794  -3.246  1.00  0.00    -0.550 OA
ATOM      4  O   UNL     1       7.298   5.769  -3.669  1.00  0.00    -0.550 OA
ENDBRANCH   1   2
BRANCH   1   5
ATOM      5  C   UNL     1       6.422   3.891  -0.508  1.00  0.00     0.059 C 
BRANCH   5   6
ATOM      6  C   UNL     1       6.565   4.152   0.961  1.00  0.00     0.042 C 
ATOM      7  O   UNL     1       7.022   5.253   1.366  1.00  0.00    -0.550 OA
ATOM      8  O   UNL     1       6.158   3.196   1.882  1.00  0.00    -0.550 OA
ENDBRANCH   5   6
ENDBRANCH   1   5
TORSDOF 3
ENDMDL
MODEL 2
REMARK VINA RESULT:    -4.000      0.210      4.463
REMARK INTER + INTRA:          -4.739
REMARK INTER:                  -4.700
REMARK INTRA:                  -0.039
REMARK UNBOUND:                -0.038
REMARK SMILES O=C([O-])CCC(=O)[O-]
REMARK SMILES IDX 4 1 2 2 1 3 3 4 5 5 6 6 7 7 8 8
REMARK H PARENT
REMARK Flexibility Score: inf
ROOT
ATOM      1  C   UNL     1       6.409   4.034  -0.514  1.00  0.00     0.059 C 
ENDROOT
BRANCH   1   2
ATOM      2  C   UNL     1       6.607   4.399   0.925  1.00  0.00     0.042 C 
ATOM      3  O   UNL     1       7.075   5.527   1.235  1.00  0.00    -0.550 OA
ATOM      4  O   UNL     1       6.311   3.479   1.923  1.00  0.00    -0.550 OA
ENDBRANCH   1   2
BRANCH   1   5
ATOM      5  C   UNL     1       6.635   5.236  -1.437  1.00  0.00     0.059 C 
BRANCH   5   6
ATOM      6  C   UNL     1       6.716   4.820  -2.875  1.00  0.00     0.042 C 
ATOM      7  O   UNL     1       6.261   3.703  -3.236  1.00  0.00    -0.550 OA
ATOM      8  O   UNL     1       7.258   5.681  -3.820  1.00  0.00    -0.550 OA
ENDBRANCH   5   6
ENDBRANCH   1   5
TORSDOF 3
ENDMDL
MODEL 3
REMARK VINA RESULT:    -3.884      0.708      1.311
REMARK INTER + INTRA:          -4.603
REMARK INTER:                  -4.562
REMARK INTRA:                  -0.042
REMARK UNBOUND:                -0.038
REMARK SMILES O=C([O-])CCC(=O)[O-]
REMARK SMILES IDX 4 1 2 2 1 3 3 4 5 5 6 6 7 7 8 8
REMARK H PARENT
REMARK Flexibility Score: inf
ROOT
ATOM      1  C   UNL     1       6.720   5.569  -1.435  1.00  0.00     0.059 C 
ENDROOT
BRANCH   1   2
ATOM      2  C   UNL     1       7.049   5.479  -2.893  1.00  0.00     0.042 C 
ATOM      3  O   UNL     1       6.624   4.513  -3.581  1.00  0.00    -0.550 OA
ATOM      4  O   UNL     1       7.859   6.441  -3.484  1.00  0.00    -0.550 OA
ENDBRANCH   1   2
BRANCH   1   5
ATOM      5  C   UNL     1       6.113   4.262  -0.912  1.00  0.00     0.059 C 
BRANCH   5   6
ATOM      6  C   UNL     1       6.525   3.990   0.503  1.00  0.00     0.042 C 
ATOM      7  O   UNL     1       6.426   2.829   0.979  1.00  0.00    -0.550 OA
ATOM      8  O   UNL     1       7.055   5.010   1.283  1.00  0.00    -0.550 OA
ENDBRANCH   5   6
ENDBRANCH   1   5
TORSDOF 3
ENDMDL
MODEL 4
REMARK VINA RESULT:    -3.774      1.421      4.060
REMARK INTER + INTRA:          -4.474
REMARK INTER:                  -4.427
REMARK INTRA:                  -0.047
REMARK UNBOUND:                -0.038
REMARK SMILES O=C([O-])CCC(=O)[O-]
REMARK SMILES IDX 4 1 2 2 1 3 3 4 5 5 6 6 7 7 8 8
REMARK H PARENT
REMARK Flexibility Score: inf
ROOT
ATOM      1  C   UNL     1       6.278   4.733  -0.854  1.00  0.00     0.059 C 
ENDROOT
BRANCH   1   2
ATOM      2  C   UNL     1       6.587   4.068   0.452  1.00  0.00     0.042 C 
ATOM      3  O   UNL     1       6.531   2.814   0.554  1.00  0.00    -0.550 OA
ATOM      4  O   UNL     1       6.900   4.837   1.566  1.00  0.00    -0.550 OA
ENDBRANCH   1   2
BRANCH   1   5
ATOM      5  C   UNL     1       6.426   6.255  -0.762  1.00  0.00     0.059 C 
BRANCH   5   6
ATOM      6  C   UNL     1       6.975   6.834  -2.031  1.00  0.00     0.042 C 
ATOM      7  O   UNL     1       7.083   8.082  -2.162  1.00  0.00    -0.550 OA
ATOM      8  O   UNL     1       7.404   5.995  -3.051  1.00  0.00    -0.550 OA
ENDBRANCH   5   6
ENDBRANCH   1   5
TORSDOF 3
ENDMDL
MODEL 5
REMARK VINA RESULT:    -3.723      1.339      4.337
REMARK INTER + INTRA:          -4.414
REMARK INTER:                  -4.359
REMARK INTRA:                  -0.055
REMARK UNBOUND:                -0.038
REMARK SMILES O=C([O-])CCC(=O)[O-]
REMARK SMILES IDX 4 1 2 2 1 3 3 4 5 5 6 6 7 7 8 8
REMARK H PARENT
REMARK Flexibility Score: inf
ROOT
ATOM      1  C   UNL     1       6.320   4.723  -0.919  1.00  0.00     0.059 C 
ENDROOT
BRANCH   1   2
ATOM      2  C   UNL     1       6.634   4.163   0.433  1.00  0.00     0.042 C 
ATOM      3  O   UNL     1       7.050   4.918   1.352  1.00  0.00    -0.550 OA
ATOM      4  O   UNL     1       6.505   2.800   0.669  1.00  0.00    -0.550 OA
ENDBRANCH   1   2
BRANCH   1   5
ATOM      5  C   UNL     1       6.482   6.247  -0.951  1.00  0.00     0.059 C 
BRANCH   5   6
ATOM      6  C   UNL     1       7.065   6.713  -2.250  1.00  0.00     0.042 C 
ATOM      7  O   UNL     1       7.400   5.876  -3.129  1.00  0.00    -0.550 OA
ATOM      8  O   UNL     1       7.201   8.071  -2.506  1.00  0.00    -0.550 OA
ENDBRANCH   5   6
ENDBRANCH   1   5
TORSDOF 3
ENDMDL
MODEL 6
REMARK VINA RESULT:    -3.380      1.719      2.422
REMARK INTER + INTRA:          -4.011
REMARK INTER:                  -3.982
REMARK INTRA:                  -0.029
REMARK UNBOUND:                -0.038
REMARK SMILES O=C([O-])CCC(=O)[O-]
REMARK SMILES IDX 4 1 2 2 1 3 3 4 5 5 6 6 7 7 8 8
REMARK H PARENT
REMARK Flexibility Score: inf
ROOT
ATOM      1  C   UNL     1       7.151   5.671  -2.887  1.00  0.00     0.059 C 
ENDROOT
BRANCH   1   2
ATOM      2  C   UNL     1       7.733   6.769  -3.722  1.00  0.00     0.042 C 
ATOM      3  O   UNL     1       6.989   7.666  -4.200  1.00  0.00    -0.550 OA
ATOM      4  O   UNL     1       9.093   6.780  -4.006  1.00  0.00    -0.550 OA
ENDBRANCH   1   2
BRANCH   1   5
ATOM      5  C   UNL     1       6.730   6.178  -1.503  1.00  0.00     0.059 C 
BRANCH   5   6
ATOM      6  C   UNL     1       6.822   5.097  -0.469  1.00  0.00     0.042 C 
ATOM      7  O   UNL     1       7.062   5.390   0.732  1.00  0.00    -0.550 OA
ATOM      8  O   UNL     1       6.604   3.772  -0.824  1.00  0.00    -0.550 OA
ENDBRANCH   5   6
ENDBRANCH   1   5
TORSDOF 3
ENDMDL
MODEL 7
REMARK VINA RESULT:    -3.265      6.132      7.328
REMARK INTER + INTRA:          -3.876
REMARK INTER:                  -3.844
REMARK INTRA:                  -0.032
REMARK UNBOUND:                -0.038
REMARK SMILES O=C([O-])CCC(=O)[O-]
REMARK SMILES IDX 4 1 2 2 1 3 3 4 5 5 6 6 7 7 8 8
REMARK H PARENT
REMARK Flexibility Score: inf
ROOT
ATOM      1  C   UNL     1       8.857   4.308  -7.412  1.00  0.00     0.059 C 
ENDROOT
BRANCH   1   2
ATOM      2  C   UNL     1       8.630   3.735  -8.777  1.00  0.00     0.042 C 
ATOM      3  O   UNL     1       9.190   4.247  -9.782  1.00  0.00    -0.550 OA
ATOM      4  O   UNL     1       7.769   2.657  -8.944  1.00  0.00    -0.550 OA
ENDBRANCH   1   2
BRANCH   1   5
ATOM      5  C   UNL     1       9.181   5.805  -7.476  1.00  0.00     0.059 C 
BRANCH   5   6
ATOM      6  C   UNL     1       9.153   6.434  -6.116  1.00  0.00     0.042 C 
ATOM      7  O   UNL     1       8.054   6.653  -5.543  1.00  0.00    -0.550 OA
ATOM      8  O   UNL     1      10.341   6.741  -5.466  1.00  0.00    -0.550 OA
ENDBRANCH   5   6
ENDBRANCH   1   5
TORSDOF 3
ENDMDL
MODEL 8
REMARK VINA RESULT:    -3.220     15.236     16.685
REMARK INTER + INTRA:          -3.823
REMARK INTER:                  -3.785
REMARK INTRA:                  -0.038
REMARK UNBOUND:                -0.038
REMARK SMILES O=C([O-])CCC(=O)[O-]
REMARK SMILES IDX 4 1 2 2 1 3 3 4 5 5 6 6 7 7 8 8
REMARK H PARENT
REMARK Flexibility Score: inf
ROOT
ATOM      1  C   UNL     1      -4.708  -1.789   8.230  1.00  0.00     0.059 C 
ENDROOT
BRANCH   1   2
ATOM      2  C   UNL     1      -3.510  -2.687   8.242  1.00  0.00     0.042 C 
ATOM      3  O   UNL     1      -2.376  -2.227   8.541  1.00  0.00    -0.550 OA
ATOM      4  O   UNL     1      -3.638  -4.023   7.885  1.00  0.00    -0.550 OA
ENDBRANCH   1   2
BRANCH   1   5
ATOM      5  C   UNL     1      -6.014  -2.592   8.246  1.00  0.00     0.059 C 
BRANCH   5   6
ATOM      6  C   UNL     1      -7.135  -1.834   7.602  1.00  0.00     0.042 C 
ATOM      7  O   UNL     1      -7.209  -0.584   7.730  1.00  0.00    -0.550 OA
ATOM      8  O   UNL     1      -8.074  -2.503   6.827  1.00  0.00    -0.550 OA
ENDBRANCH   5   6
ENDBRANCH   1   5
TORSDOF 3
ENDMDL
MODEL 9
REMARK VINA RESULT:    -3.108      6.322      7.963
REMARK INTER + INTRA:          -3.692
REMARK INTER:                  -3.656
REMARK INTRA:                  -0.035
REMARK UNBOUND:                -0.038
REMARK SMILES O=C([O-])CCC(=O)[O-]
REMARK SMILES IDX 4 1 2 2 1 3 3 4 5 5 6 6 7 7 8 8
REMARK H PARENT
REMARK Flexibility Score: inf
ROOT
ATOM      1  C   UNL     1       9.286   5.951  -7.622  1.00  0.00     0.059 C 
ENDROOT
BRANCH   1   2
ATOM      2  C   UNL     1       8.897   6.870  -6.506  1.00  0.00     0.042 C 
ATOM      3  O   UNL     1       8.838   6.441  -5.323  1.00  0.00    -0.550 OA
ATOM      4  O   UNL     1       8.563   8.191  -6.776  1.00  0.00    -0.550 OA
ENDBRANCH   1   2
BRANCH   1   5
ATOM      5  C   UNL     1       8.883   4.502  -7.327  1.00  0.00     0.059 C 
BRANCH   5   6
ATOM      6  C   UNL     1       8.707   3.711  -8.588  1.00  0.00     0.042 C 
ATOM      7  O   UNL     1       8.112   2.602  -8.561  1.00  0.00    -0.550 OA
ATOM      8  O   UNL     1       9.166   4.217  -9.798  1.00  0.00    -0.550 OA
ENDBRANCH   5   6
ENDBRANCH   1   5
TORSDOF 3
ENDMDL
