MODEL 1
REMARK VINA RESULT:    -3.378      0.000      0.000
REMARK INTER + INTRA:          -4.280
REMARK INTER:                  -4.168
REMARK INTRA:                  -0.112
REMARK UNBOUND:                -0.112
REMARK SMILES CCCCCC(=O)[O-]
REMARK SMILES IDX 4 1 5 2 6 3 7 4 8 5 3 6 2 7 1 8
REMARK H PARENT
REMARK Flexibility Score: inf
ROOT
ATOM      1  C   UNL     1      17.011 -44.274  26.715  1.00  0.00     0.006 C 
ENDROOT
BRANCH   1   2
ATOM      2  C   UNL     1      17.230 -45.550  27.539  1.00  0.00     0.053 C 
BRANCH   2   3
ATOM      3  C   UNL     1      17.097 -45.293  29.009  1.00  0.00     0.041 C 
ATOM      4  O   UNL     1      18.123 -45.095  29.712  1.00  0.00    -0.550 OA
ATOM      5  O   UNL     1      15.843 -45.305  29.608  1.00  0.00    -0.550 OA
ENDBRANCH   2   3
ENDBRANCH   1   2
BRANCH   1   6
ATOM      6  C   UNL     1      17.872 -44.248  25.444  1.00  0.00     0.000 C 
BRANCH   6   7
ATOM      7  C   UNL     1      18.664 -42.939  25.344  1.00  0.00    -0.003 C 
ATOM      8  C   UNL     1      18.425 -42.055  26.564  1.00  0.00     0.004 C 
ENDBRANCH   6   7
ENDBRANCH   1   6
TORSDOF 4
ENDMDL
MODEL 2
REMARK VINA RESULT:    -3.318      1.026      1.555
REMARK INTER + INTRA:          -4.206
REMARK INTER:                  -4.115
REMARK INTRA:                  -0.091
REMARK UNBOUND:                -0.112
REMARK SMILES CCCCCC(=O)[O-]
REMARK SMILES IDX 4 1 5 2 6 3 7 4 8 5 3 6 2 7 1 8
REMARK H PARENT
REMARK Flexibility Score: inf
ROOT
ATOM      1  C   UNL     1      17.119 -45.510  27.576  1.00  0.00     0.006 C 
ENDROOT
BRANCH   1   2
ATOM      2  C   UNL     1      17.470 -45.345  29.061  1.00  0.00     0.053 C 
BRANCH   2   3
ATOM      3  C   UNL     1      16.250 -45.113  29.898  1.00  0.00     0.041 C 
ATOM      4  O   UNL     1      16.360 -44.640  31.060  1.00  0.00    -0.550 OA
ATOM      5  O   UNL     1      14.994 -45.452  29.409  1.00  0.00    -0.550 OA
ENDBRANCH   2   3
ENDBRANCH   1   2
BRANCH   1   6
ATOM      6  C   UNL     1      17.063 -44.165  26.838  1.00  0.00     0.000 C 
BRANCH   6   7
ATOM      7  C   UNL     1      17.883 -44.212  25.544  1.00  0.00    -0.003 C 
ATOM      8  C   UNL     1      18.663 -42.917  25.336  1.00  0.00     0.004 C 
ENDBRANCH   6   7
ENDBRANCH   1   6
TORSDOF 4
ENDMDL
MODEL 3
REMARK VINA RESULT:    -3.271      2.088      2.892
REMARK INTER + INTRA:          -4.149
REMARK INTER:                  -4.057
REMARK INTRA:                  -0.092
REMARK UNBOUND:                -0.112
REMARK SMILES CCCCCC(=O)[O-]
REMARK SMILES IDX 4 1 5 2 6 3 7 4 8 5 3 6 2 7 1 8
REMARK H PARENT
REMARK Flexibility Score: inf
ROOT
ATOM      1  C   UNL     1      18.813 -42.794  25.652  1.00  0.00     0.006 C 
ENDROOT
BRANCH   1   2
ATOM      2  C   UNL     1      17.926 -44.034  25.477  1.00  0.00     0.053 C 
BRANCH   2   3
ATOM      3  C   UNL     1      17.111 -44.312  26.703  1.00  0.00     0.041 C 
ATOM      4  O   UNL     1      16.257 -43.475  27.100  1.00  0.00    -0.550 OA
ATOM      5  O   UNL     1      17.317 -45.480  27.427  1.00  0.00    -0.550 OA
ENDBRANCH   2   3
ENDBRANCH   1   2
BRANCH   1   6
ATOM      6  C   UNL     1      18.386 -41.638  24.736  1.00  0.00     0.000 C 
BRANCH   6   7
ATOM      7  C   UNL     1      18.343 -40.314  25.505  1.00  0.00    -0.003 C 
ATOM      8  C   UNL     1      18.571 -39.127  24.573  1.00  0.00     0.004 C 
ENDBRANCH   6   7
ENDBRANCH   1   6
TORSDOF 4
ENDMDL
MODEL 4
REMARK VINA RESULT:    -3.241      3.017      4.431
REMARK INTER + INTRA:          -4.111
REMARK INTER:                  -3.991
REMARK INTRA:                  -0.120
REMARK UNBOUND:                -0.112
REMARK SMILES CCCCCC(=O)[O-]
REMARK SMILES IDX 4 1 5 2 6 3 7 4 8 5 3 6 2 7 1 8
REMARK H PARENT
REMARK Flexibility Score: inf
ROOT
ATOM      1  C   UNL     1      17.882 -44.090  25.521  1.00  0.00     0.006 C 
ENDROOT
BRANCH   1   2
ATOM      2  C   UNL     1      18.809 -42.888  25.294  1.00  0.00     0.053 C 
BRANCH   2   3
ATOM      3  C   UNL     1      18.085 -41.587  25.459  1.00  0.00     0.041 C 
ATOM      4  O   UNL     1      17.165 -41.269  24.660  1.00  0.00    -0.550 OA
ATOM      5  O   UNL     1      18.449 -40.711  26.474  1.00  0.00    -0.550 OA
ENDBRANCH   2   3
ENDBRANCH   1   2
BRANCH   1   6
ATOM      6  C   UNL     1      17.204 -44.049  26.899  1.00  0.00     0.000 C 
BRANCH   6   7
ATOM      7  C   UNL     1      17.123 -45.451  27.513  1.00  0.00    -0.003 C 
ATOM      8  C   UNL     1      17.493 -45.427  28.993  1.00  0.00     0.004 C 
ENDBRANCH   6   7
ENDBRANCH   1   6
TORSDOF 4
ENDMDL
MODEL 5
REMARK VINA RESULT:    -3.214      3.738      5.106
REMARK INTER + INTRA:          -4.078
REMARK INTER:                  -3.964
REMARK INTRA:                  -0.114
REMARK UNBOUND:                -0.112
REMARK SMILES CCCCCC(=O)[O-]
REMARK SMILES IDX 4 1 5 2 6 3 7 4 8 5 3 6 2 7 1 8
REMARK H PARENT
REMARK Flexibility Score: inf
ROOT
ATOM      1  C   UNL     1      18.922 -42.528  25.199  1.00  0.00     0.006 C 
ENDROOT
BRANCH   1   2
ATOM      2  C   UNL     1      18.455 -41.425  24.239  1.00  0.00     0.053 C 
BRANCH   2   3
ATOM      3  C   UNL     1      17.924 -40.234  24.976  1.00  0.00     0.041 C 
ATOM      4  O   UNL     1      16.757 -39.817  24.748  1.00  0.00    -0.550 OA
ATOM      5  O   UNL     1      18.728 -39.564  25.890  1.00  0.00    -0.550 OA
ENDBRANCH   2   3
ENDBRANCH   1   2
BRANCH   1   6
ATOM      6  C   UNL     1      17.782 -43.045  26.088  1.00  0.00     0.000 C 
BRANCH   6   7
ATOM      7  C   UNL     1      17.507 -44.530  25.822  1.00  0.00    -0.003 C 
ATOM      8  C   UNL     1      17.194 -45.274  27.116  1.00  0.00     0.004 C 
ENDBRANCH   6   7
ENDBRANCH   1   6
TORSDOF 4
ENDMDL
MODEL 6
REMARK VINA RESULT:    -3.152      1.958      3.067
REMARK INTER + INTRA:          -4.002
REMARK INTER:                  -3.944
REMARK INTRA:                  -0.058
REMARK UNBOUND:                -0.112
REMARK SMILES CCCCCC(=O)[O-]
REMARK SMILES IDX 4 1 5 2 6 3 7 4 8 5 3 6 2 7 1 8
REMARK H PARENT
REMARK Flexibility Score: inf
ROOT
ATOM      1  C   UNL     1      16.560 -45.142  29.169  1.00  0.00     0.006 C 
ENDROOT
BRANCH   1   2
ATOM      2  C   UNL     1      15.049 -45.407  29.219  1.00  0.00     0.053 C 
BRANCH   2   3
ATOM      3  C   UNL     1      14.456 -45.005  30.535  1.00  0.00     0.041 C 
ATOM      4  O   UNL     1      13.465 -44.229  30.573  1.00  0.00    -0.550 OA
ATOM      5  O   UNL     1      15.020 -45.461  31.721  1.00  0.00    -0.550 OA
ENDBRANCH   2   3
ENDBRANCH   1   2
BRANCH   1   6
ATOM      6  C   UNL     1      17.172 -45.520  27.813  1.00  0.00     0.000 C 
BRANCH   6   7
ATOM      7  C   UNL     1      17.110 -44.343  26.834  1.00  0.00    -0.003 C 
ATOM      8  C   UNL     1      17.745 -44.704  25.495  1.00  0.00     0.004 C 
ENDBRANCH   6   7
ENDBRANCH   1   6
TORSDOF 4
ENDMDL
MODEL 7
REMARK VINA RESULT:    -3.086      2.049      2.944
REMARK INTER + INTRA:          -3.920
REMARK INTER:                  -3.803
REMARK INTRA:                  -0.117
REMARK UNBOUND:                -0.112
REMARK SMILES CCCCCC(=O)[O-]
REMARK SMILES IDX 4 1 5 2 6 3 7 4 8 5 3 6 2 7 1 8
REMARK H PARENT
REMARK Flexibility Score: inf
ROOT
ATOM      1  C   UNL     1      17.596 -45.372  29.299  1.00  0.00     0.006 C 
ENDROOT
BRANCH   1   2
ATOM      2  C   UNL     1      17.951 -43.908  29.590  1.00  0.00     0.053 C 
BRANCH   2   3
ATOM      3  C   UNL     1      18.884 -43.782  30.756  1.00  0.00     0.041 C 
ATOM      4  O   UNL     1      20.003 -44.360  30.736  1.00  0.00    -0.550 OA
ATOM      5  O   UNL     1      18.504 -43.056  31.878  1.00  0.00    -0.550 OA
ENDBRANCH   2   3
ENDBRANCH   1   2
BRANCH   1   6
ATOM      6  C   UNL     1      17.132 -45.582  27.850  1.00  0.00     0.000 C 
BRANCH   6   7
ATOM      7  C   UNL     1      17.274 -44.291  27.037  1.00  0.00    -0.003 C 
ATOM      8  C   UNL     1      17.640 -44.590  25.586  1.00  0.00     0.004 C 
ENDBRANCH   6   7
ENDBRANCH   1   6
TORSDOF 4
ENDMDL
MODEL 8
REMARK VINA RESULT:    -3.012      2.687      4.811
REMARK INTER + INTRA:          -3.829
REMARK INTER:                  -3.740
REMARK INTRA:                  -0.088
REMARK UNBOUND:                -0.112
REMARK SMILES CCCCCC(=O)[O-]
REMARK SMILES IDX 4 1 5 2 6 3 7 4 8 5 3 6 2 7 1 8
REMARK H PARENT
REMARK Flexibility Score: inf
ROOT
ATOM      1  C   UNL     1      14.703 -45.521  29.184  1.00  0.00     0.006 C 
ENDROOT
BRANCH   1   2
ATOM      2  C   UNL     1      15.628 -44.491  28.522  1.00  0.00     0.053 C 
BRANCH   2   3
ATOM      3  C   UNL     1      16.917 -45.107  28.072  1.00  0.00     0.041 C 
ATOM      4  O   UNL     1      17.638 -45.735  28.892  1.00  0.00    -0.550 OA
ATOM      5  O   UNL     1      17.339 -44.959  26.757  1.00  0.00    -0.550 OA
ENDBRANCH   2   3
ENDBRANCH   1   2
BRANCH   1   6
ATOM      6  C   UNL     1      14.350 -45.142  30.629  1.00  0.00     0.000 C 
BRANCH   6   7
ATOM      7  C   UNL     1      15.603 -45.114  31.511  1.00  0.00    -0.003 C 
ATOM      8  C   UNL     1      15.272 -45.491  32.952  1.00  0.00     0.004 C 
ENDBRANCH   6   7
ENDBRANCH   1   6
TORSDOF 4
ENDMDL
MODEL 9
REMARK VINA RESULT:    -2.999      4.373      5.491
REMARK INTER + INTRA:          -3.813
REMARK INTER:                  -3.702
REMARK INTRA:                  -0.111
REMARK UNBOUND:                -0.112
REMARK SMILES CCCCCC(=O)[O-]
REMARK SMILES IDX 4 1 5 2 6 3 7 4 8 5 3 6 2 7 1 8
REMARK H PARENT
REMARK Flexibility Score: inf
ROOT
ATOM      1  C   UNL     1      18.206 -39.152  26.195  1.00  0.00     0.006 C 
ENDROOT
BRANCH   1   2
ATOM      2  C   UNL     1      18.644 -39.708  27.557  1.00  0.00     0.053 C 
BRANCH   2   3
ATOM      3  C   UNL     1      18.824 -38.619  28.570  1.00  0.00     0.041 C 
ATOM      4  O   UNL     1      19.834 -37.868  28.519  1.00  0.00    -0.550 OA
ATOM      5  O   UNL     1      17.895 -38.456  29.590  1.00  0.00    -0.550 OA
ENDBRANCH   2   3
ENDBRANCH   1   2
BRANCH   1   6
ATOM      6  C   UNL     1      18.308 -40.201  25.078  1.00  0.00     0.000 C 
BRANCH   6   7
ATOM      7  C   UNL     1      17.969 -41.600  25.606  1.00  0.00    -0.003 C 
ATOM      8  C   UNL     1      18.994 -42.629  25.139  1.00  0.00     0.004 C 
ENDBRANCH   6   7
ENDBRANCH   1   6
TORSDOF 4
ENDMDL
