MODEL 1
REMARK VINA RESULT:    13.187      0.000      0.000
REMARK INTER + INTRA:          27.587
REMARK INTER:                  28.605
REMARK INTRA:                  -1.018
REMARK UNBOUND:                -1.018
REMARK SMILES CCCCCCCCCCCCCCCCCCCCCC(=O)[O-]
REMARK SMILES IDX 12 1 11 2 10 3 9 4 8 5 7 6 6 7 5 8 4 9 3 10 2 11 1 12 13 13
REMARK SMILES IDX 14 14 15 15 16 16 17 17 18 18 19 19 20 20 21 21 22 22 23 23
REMARK SMILES IDX 24 24
REMARK H PARENT
REMARK Flexibility Score: inf
ROOT
ATOM      1  C   UNL     1     -27.623  19.919 -13.412  1.00  0.00     0.000 C 
ENDROOT
BRANCH   1   2
ATOM      2  C   UNL     1     -28.589  19.360 -12.353  1.00  0.00     0.000 C 
BRANCH   2   3
ATOM      3  C   UNL     1     -28.860  17.855 -12.531  1.00  0.00     0.000 C 
BRANCH   3   4
ATOM      4  C   UNL     1     -29.007  17.062 -11.217  1.00  0.00    -0.000 C 
BRANCH   4   5
ATOM      5  C   UNL     1     -30.324  16.272 -11.072  1.00  0.00    -0.000 C 
BRANCH   5   6
ATOM      6  C   UNL     1     -31.481  17.054 -10.426  1.00  0.00    -0.000 C 
BRANCH   6   7
ATOM      7  C   UNL     1     -31.232  18.570 -10.401  1.00  0.00    -0.000 C 
BRANCH   7   8
ATOM      8  C   UNL     1     -32.552  19.348 -10.520  1.00  0.00    -0.000 C 
BRANCH   8   9
ATOM      9  C   UNL     1     -32.428  20.789  -9.978  1.00  0.00    -0.000 C 
BRANCH   9  10
ATOM     10  C   UNL     1     -31.241  21.569 -10.570  1.00  0.00    -0.000 C 
BRANCH  10  11
ATOM     11  C   UNL     1     -31.282  23.066 -10.233  1.00  0.00    -0.003 C 
ATOM     12  C   UNL     1     -32.710  23.530  -9.960  1.00  0.00     0.004 C 
ENDBRANCH  10  11
ENDBRANCH   9  10
ENDBRANCH   8   9
ENDBRANCH   7   8
ENDBRANCH   6   7
ENDBRANCH   5   6
ENDBRANCH   4   5
ENDBRANCH   3   4
ENDBRANCH   2   3
ENDBRANCH   1   2
BRANCH   1  13
ATOM     13  C   UNL     1     -27.501  21.450 -13.352  1.00  0.00     0.000 C 
BRANCH  13  14
ATOM     14  C   UNL     1     -26.355  21.913 -12.436  1.00  0.00     0.000 C 
BRANCH  14  15
ATOM     15  C   UNL     1     -26.228  23.444 -12.366  1.00  0.00     0.000 C 
BRANCH  15  16
ATOM     16  C   UNL     1     -25.331  23.936 -11.211  1.00  0.00     0.000 C 
BRANCH  16  17
ATOM     17  C   UNL     1     -24.810  22.774 -10.347  1.00  0.00     0.000 C 
BRANCH  17  18
ATOM     18  C   UNL     1     -25.612  22.594  -9.048  1.00  0.00     0.000 C 
BRANCH  18  19
ATOM     19  C   UNL     1     -25.220  21.318  -8.283  1.00  0.00     0.000 C 
BRANCH  19  20
ATOM     20  C   UNL     1     -24.345  21.610  -7.051  1.00  0.00     0.006 C 
BRANCH  20  21
ATOM     21  C   UNL     1     -22.860  21.835  -7.374  1.00  0.00     0.053 C 
BRANCH  21  22
ATOM     22  C   UNL     1     -22.140  22.521  -6.253  1.00  0.00     0.041 C 
ATOM     23  O   UNL     1     -21.131  21.983  -5.724  1.00  0.00    -0.550 OA
ATOM     24  O   UNL     1     -22.589  23.750  -5.787  1.00  0.00    -0.550 OA
ENDBRANCH  21  22
ENDBRANCH  20  21
ENDBRANCH  19  20
ENDBRANCH  18  19
ENDBRANCH  17  18
ENDBRANCH  16  17
ENDBRANCH  15  16
ENDBRANCH  14  15
ENDBRANCH  13  14
ENDBRANCH   1  13
TORSDOF 20
ENDMDL
MODEL 2
REMARK VINA RESULT:    13.221      3.152      8.098
REMARK INTER + INTRA:          27.660
REMARK INTER:                  28.989
REMARK INTRA:                  -1.329
REMARK UNBOUND:                -1.018
REMARK SMILES CCCCCCCCCCCCCCCCCCCCCC(=O)[O-]
REMARK SMILES IDX 12 1 11 2 10 3 9 4 8 5 7 6 6 7 5 8 4 9 3 10 2 11 1 12 13 13
REMARK SMILES IDX 14 14 15 15 16 16 17 17 18 18 19 19 20 20 21 21 22 22 23 23
REMARK SMILES IDX 24 24
REMARK H PARENT
REMARK Flexibility Score: inf
ROOT
ATOM      1  C   UNL     1     -28.930  19.692 -11.425  1.00  0.00     0.000 C 
ENDROOT
BRANCH   1   2
ATOM      2  C   UNL     1     -28.435  21.145 -11.529  1.00  0.00     0.000 C 
BRANCH   2   3
ATOM      3  C   UNL     1     -27.732  21.440 -12.867  1.00  0.00     0.000 C 
BRANCH   3   4
ATOM      4  C   UNL     1     -26.326  22.060 -12.739  1.00  0.00    -0.000 C 
BRANCH   4   5
ATOM      5  C   UNL     1     -26.298  23.530 -12.275  1.00  0.00    -0.000 C 
BRANCH   5   6
ATOM      6  C   UNL     1     -25.265  23.845 -11.179  1.00  0.00    -0.000 C 
BRANCH   6   7
ATOM      7  C   UNL     1     -24.840  22.599 -10.388  1.00  0.00    -0.000 C 
BRANCH   7   8
ATOM      8  C   UNL     1     -25.081  22.791  -8.883  1.00  0.00    -0.000 C 
BRANCH   8   9
ATOM      9  C   UNL     1     -25.348  21.452  -8.161  1.00  0.00    -0.000 C 
BRANCH   9  10
ATOM     10  C   UNL     1     -24.188  20.996  -7.260  1.00  0.00    -0.000 C 
BRANCH  10  11
ATOM     11  C   UNL     1     -22.939  21.876  -7.403  1.00  0.00    -0.003 C 
ATOM     12  C   UNL     1     -22.643  22.628  -6.108  1.00  0.00     0.004 C 
ENDBRANCH  10  11
ENDBRANCH   9  10
ENDBRANCH   8   9
ENDBRANCH   7   8
ENDBRANCH   6   7
ENDBRANCH   5   6
ENDBRANCH   4   5
ENDBRANCH   3   4
ENDBRANCH   2   3
ENDBRANCH   1   2
BRANCH   1  13
ATOM     13  C   UNL     1     -28.553  18.850 -12.654  1.00  0.00     0.000 C 
BRANCH  13  14
ATOM     14  C   UNL     1     -28.972  17.377 -12.507  1.00  0.00     0.000 C 
BRANCH  14  15
ATOM     15  C   UNL     1     -29.308  16.993 -11.056  1.00  0.00     0.000 C 
BRANCH  15  16
ATOM     16  C   UNL     1     -30.667  16.278 -10.906  1.00  0.00     0.000 C 
BRANCH  16  17
ATOM     17  C   UNL     1     -31.728  17.184 -10.254  1.00  0.00     0.000 C 
BRANCH  17  18
ATOM     18  C   UNL     1     -31.290  18.655 -10.187  1.00  0.00     0.000 C 
BRANCH  18  19
ATOM     19  C   UNL     1     -32.410  19.625 -10.603  1.00  0.00     0.000 C 
BRANCH  19  20
ATOM     20  C   UNL     1     -32.363  20.954  -9.828  1.00  0.00     0.006 C 
BRANCH  20  21
ATOM     21  C   UNL     1     -32.099  22.186 -10.707  1.00  0.00     0.053 C 
BRANCH  21  22
ATOM     22  C   UNL     1     -32.418  23.464  -9.992  1.00  0.00     0.041 C 
ATOM     23  O   UNL     1     -33.554  23.994 -10.117  1.00  0.00    -0.550 OA
ATOM     24  O   UNL     1     -31.457  24.074  -9.196  1.00  0.00    -0.550 OA
ENDBRANCH  21  22
ENDBRANCH  20  21
ENDBRANCH  19  20
ENDBRANCH  18  19
ENDBRANCH  17  18
ENDBRANCH  16  17
ENDBRANCH  15  16
ENDBRANCH  14  15
ENDBRANCH  13  14
ENDBRANCH   1  13
TORSDOF 20
ENDMDL
MODEL 3
REMARK VINA RESULT:    13.333      3.274      8.154
REMARK INTER + INTRA:          27.905
REMARK INTER:                  28.676
REMARK INTRA:                  -0.771
REMARK UNBOUND:                -1.018
REMARK SMILES CCCCCCCCCCCCCCCCCCCCCC(=O)[O-]
REMARK SMILES IDX 12 1 11 2 10 3 9 4 8 5 7 6 6 7 5 8 4 9 3 10 2 11 1 12 13 13
REMARK SMILES IDX 14 14 15 15 16 16 17 17 18 18 19 19 20 20 21 21 22 22 23 23
REMARK SMILES IDX 24 24
REMARK H PARENT
REMARK Flexibility Score: inf
ROOT
ATOM      1  C   UNL     1     -28.241  21.144 -11.761  1.00  0.00     0.000 C 
ENDROOT
BRANCH   1   2
ATOM      2  C   UNL     1     -27.915  22.275 -12.752  1.00  0.00     0.000 C 
BRANCH   2   3
ATOM      3  C   UNL     1     -26.418  22.635 -12.771  1.00  0.00     0.000 C 
BRANCH   3   4
ATOM      4  C   UNL     1     -26.068  23.991 -12.126  1.00  0.00    -0.000 C 
BRANCH   4   5
ATOM      5  C   UNL     1     -24.857  23.969 -11.172  1.00  0.00    -0.000 C 
BRANCH   5   6
ATOM      6  C   UNL     1     -25.184  23.588  -9.718  1.00  0.00    -0.000 C 
BRANCH   6   7
ATOM      7  C   UNL     1     -25.513  22.097  -9.553  1.00  0.00    -0.000 C 
BRANCH   7   8
ATOM      8  C   UNL     1     -25.450  21.677  -8.076  1.00  0.00    -0.000 C 
BRANCH   8   9
ATOM      9  C   UNL     1     -24.032  21.231  -7.658  1.00  0.00    -0.000 C 
BRANCH   9  10
ATOM     10  C   UNL     1     -23.530  21.904  -6.369  1.00  0.00    -0.000 C 
BRANCH  10  11
ATOM     11  C   UNL     1     -22.250  22.723  -6.582  1.00  0.00    -0.003 C 
ATOM     12  C   UNL     1     -22.104  23.804  -5.514  1.00  0.00     0.004 C 
ENDBRANCH  10  11
ENDBRANCH   9  10
ENDBRANCH   8   9
ENDBRANCH   7   8
ENDBRANCH   6   7
ENDBRANCH   5   6
ENDBRANCH   4   5
ENDBRANCH   3   4
ENDBRANCH   2   3
ENDBRANCH   1   2
BRANCH   1  13
ATOM     13  C   UNL     1     -29.176  21.600 -10.629  1.00  0.00     0.000 C 
BRANCH  13  14
ATOM     14  C   UNL     1     -30.410  22.354 -11.154  1.00  0.00     0.000 C 
BRANCH  14  15
ATOM     15  C   UNL     1     -31.383  22.758 -10.034  1.00  0.00     0.000 C 
BRANCH  15  16
ATOM     16  C   UNL     1     -32.365  21.636  -9.635  1.00  0.00     0.000 C 
BRANCH  16  17
ATOM     17  C   UNL     1     -32.557  20.607 -10.764  1.00  0.00     0.000 C 
BRANCH  17  18
ATOM     18  C   UNL     1     -32.617  19.162 -10.245  1.00  0.00     0.000 C 
BRANCH  18  19
ATOM     19  C   UNL     1     -31.305  18.393 -10.486  1.00  0.00     0.000 C 
BRANCH  19  20
ATOM     20  C   UNL     1     -31.486  16.867 -10.383  1.00  0.00     0.006 C 
BRANCH  20  21
ATOM     21  C   UNL     1     -30.327  16.056 -10.983  1.00  0.00     0.053 C 
BRANCH  21  22
ATOM     22  C   UNL     1     -29.279  16.939 -11.589  1.00  0.00     0.041 C 
ATOM     23  O   UNL     1     -28.840  17.933 -10.951  1.00  0.00    -0.550 OA
ATOM     24  O   UNL     1     -28.794  16.670 -12.862  1.00  0.00    -0.550 OA
ENDBRANCH  21  22
ENDBRANCH  20  21
ENDBRANCH  19  20
ENDBRANCH  18  19
ENDBRANCH  17  18
ENDBRANCH  16  17
ENDBRANCH  15  16
ENDBRANCH  14  15
ENDBRANCH  13  14
ENDBRANCH   1  13
TORSDOF 20
ENDMDL
MODEL 4
REMARK VINA RESULT:    13.738      1.008      1.802
REMARK INTER + INTRA:          28.783
REMARK INTER:                  30.614
REMARK INTRA:                  -1.831
REMARK UNBOUND:                -1.018
REMARK SMILES CCCCCCCCCCCCCCCCCCCCCC(=O)[O-]
REMARK SMILES IDX 12 1 11 2 10 3 9 4 8 5 7 6 6 7 5 8 4 9 3 10 2 11 1 12 13 13
REMARK SMILES IDX 14 14 15 15 16 16 17 17 18 18 19 19 20 20 21 21 22 22 23 23
REMARK SMILES IDX 24 24
REMARK H PARENT
REMARK Flexibility Score: inf
ROOT
ATOM      1  C   UNL     1     -28.512  18.795 -12.385  1.00  0.00     0.000 C 
ENDROOT
BRANCH   1   2
ATOM      2  C   UNL     1     -29.056  18.286 -11.039  1.00  0.00     0.000 C 
BRANCH   2   3
ATOM      3  C   UNL     1     -29.606  16.851 -11.125  1.00  0.00     0.000 C 
BRANCH   3   4
ATOM      4  C   UNL     1     -31.079  16.693 -10.695  1.00  0.00    -0.000 C 
BRANCH   4   5
ATOM      5  C   UNL     1     -31.673  17.899  -9.941  1.00  0.00    -0.000 C 
BRANCH   5   6
ATOM      6  C   UNL     1     -32.656  18.755 -10.760  1.00  0.00    -0.000 C 
BRANCH   6   7
ATOM      7  C   UNL     1     -32.657  20.230 -10.334  1.00  0.00    -0.000 C 
BRANCH   7   8
ATOM      8  C   UNL     1     -31.250  20.686  -9.915  1.00  0.00    -0.000 C 
BRANCH   8   9
ATOM      9  C   UNL     1     -30.739  21.861 -10.778  1.00  0.00    -0.000 C 
BRANCH   9  10
ATOM     10  C   UNL     1     -31.746  23.018 -10.900  1.00  0.00    -0.000 C 
BRANCH  10  11
ATOM     11  C   UNL     1     -32.041  23.698  -9.556  1.00  0.00    -0.003 C 
ATOM     12  C   UNL     1     -33.536  23.952  -9.384  1.00  0.00     0.004 C 
ENDBRANCH  10  11
ENDBRANCH   9  10
ENDBRANCH   8   9
ENDBRANCH   7   8
ENDBRANCH   6   7
ENDBRANCH   5   6
ENDBRANCH   4   5
ENDBRANCH   3   4
ENDBRANCH   2   3
ENDBRANCH   1   2
BRANCH   1  13
ATOM     13  C   UNL     1     -28.158  20.290 -12.353  1.00  0.00     0.000 C 
BRANCH  13  14
ATOM     14  C   UNL     1     -27.419  20.747 -13.622  1.00  0.00     0.000 C 
BRANCH  14  15
ATOM     15  C   UNL     1     -26.674  22.079 -13.432  1.00  0.00     0.000 C 
BRANCH  15  16
ATOM     16  C   UNL     1     -26.747  22.627 -11.991  1.00  0.00     0.000 C 
BRANCH  16  17
ATOM     17  C   UNL     1     -25.529  23.502 -11.642  1.00  0.00     0.000 C 
BRANCH  17  18
ATOM     18  C   UNL     1     -25.064  23.318 -10.189  1.00  0.00     0.000 C 
BRANCH  18  19
ATOM     19  C   UNL     1     -25.713  22.099  -9.510  1.00  0.00     0.000 C 
BRANCH  19  20
ATOM     20  C   UNL     1     -25.244  21.910  -8.057  1.00  0.00     0.006 C 
BRANCH  20  21
ATOM     21  C   UNL     1     -23.764  21.520  -7.920  1.00  0.00     0.053 C 
BRANCH  21  22
ATOM     22  C   UNL     1     -23.225  21.834  -6.557  1.00  0.00     0.041 C 
ATOM     23  O   UNL     1     -23.710  21.272  -5.539  1.00  0.00    -0.550 OA
ATOM     24  O   UNL     1     -22.195  22.753  -6.411  1.00  0.00    -0.550 OA
ENDBRANCH  21  22
ENDBRANCH  20  21
ENDBRANCH  19  20
ENDBRANCH  18  19
ENDBRANCH  17  18
ENDBRANCH  16  17
ENDBRANCH  15  16
ENDBRANCH  14  15
ENDBRANCH  13  14
ENDBRANCH   1  13
TORSDOF 20
ENDMDL
MODEL 5
REMARK VINA RESULT:    13.758      1.025      3.524
REMARK INTER + INTRA:          28.826
REMARK INTER:                  29.876
REMARK INTRA:                  -1.051
REMARK UNBOUND:                -1.018
REMARK SMILES CCCCCCCCCCCCCCCCCCCCCC(=O)[O-]
REMARK SMILES IDX 12 1 11 2 10 3 9 4 8 5 7 6 6 7 5 8 4 9 3 10 2 11 1 12 13 13
REMARK SMILES IDX 14 14 15 15 16 16 17 17 18 18 19 19 20 20 21 21 22 22 23 23
REMARK SMILES IDX 24 24
REMARK H PARENT
REMARK Flexibility Score: inf
ROOT
ATOM      1  C   UNL     1     -28.212  21.172 -11.059  1.00  0.00     0.000 C 
ENDROOT
BRANCH   1   2
ATOM      2  C   UNL     1     -29.645  21.052 -10.510  1.00  0.00     0.000 C 
BRANCH   2   3
ATOM      3  C   UNL     1     -30.503  22.294 -10.810  1.00  0.00     0.000 C 
BRANCH   3   4
ATOM      4  C   UNL     1     -32.025  22.051 -10.796  1.00  0.00    -0.000 C 
BRANCH   4   5
ATOM      5  C   UNL     1     -32.497  20.903  -9.882  1.00  0.00    -0.000 C 
BRANCH   5   6
ATOM      6  C   UNL     1     -32.555  19.520 -10.555  1.00  0.00    -0.000 C 
BRANCH   6   7
ATOM      7  C   UNL     1     -31.261  18.714 -10.369  1.00  0.00    -0.000 C 
BRANCH   7   8
ATOM      8  C   UNL     1     -31.551  17.206 -10.326  1.00  0.00    -0.000 C 
BRANCH   8   9
ATOM      9  C   UNL     1     -30.459  16.383 -11.045  1.00  0.00    -0.000 C 
BRANCH   9  10
ATOM     10  C   UNL     1     -29.138  17.148 -11.238  1.00  0.00    -0.000 C 
BRANCH  10  11
ATOM     11  C   UNL     1     -28.833  17.452 -12.711  1.00  0.00    -0.003 C 
ATOM     12  C   UNL     1     -29.022  16.211 -13.579  1.00  0.00     0.004 C 
ENDBRANCH  10  11
ENDBRANCH   9  10
ENDBRANCH   8   9
ENDBRANCH   7   8
ENDBRANCH   6   7
ENDBRANCH   5   6
ENDBRANCH   4   5
ENDBRANCH   3   4
ENDBRANCH   2   3
ENDBRANCH   1   2
BRANCH   1  13
ATOM     13  C   UNL     1     -28.149  21.954 -12.380  1.00  0.00     0.000 C 
BRANCH  13  14
ATOM     14  C   UNL     1     -26.707  22.298 -12.791  1.00  0.00     0.000 C 
BRANCH  14  15
ATOM     15  C   UNL     1     -26.313  23.741 -12.434  1.00  0.00     0.000 C 
BRANCH  15  16
ATOM     16  C   UNL     1     -25.043  23.837 -11.562  1.00  0.00     0.000 C 
BRANCH  16  17
ATOM     17  C   UNL     1     -25.337  23.550 -10.079  1.00  0.00     0.000 C 
BRANCH  17  18
ATOM     18  C   UNL     1     -24.751  22.211  -9.606  1.00  0.00     0.000 C 
BRANCH  18  19
ATOM     19  C   UNL     1     -25.242  21.813  -8.203  1.00  0.00     0.000 C 
BRANCH  19  20
ATOM     20  C   UNL     1     -24.166  21.075  -7.386  1.00  0.00     0.006 C 
BRANCH  20  21
ATOM     21  C   UNL     1     -23.728  21.813  -6.111  1.00  0.00     0.053 C 
BRANCH  21  22
ATOM     22  C   UNL     1     -22.464  22.591  -6.320  1.00  0.00     0.041 C 
ATOM     23  O   UNL     1     -21.638  22.233  -7.201  1.00  0.00    -0.550 OA
ATOM     24  O   UNL     1     -22.195  23.705  -5.536  1.00  0.00    -0.550 OA
ENDBRANCH  21  22
ENDBRANCH  20  21
ENDBRANCH  19  20
ENDBRANCH  18  19
ENDBRANCH  17  18
ENDBRANCH  16  17
ENDBRANCH  15  16
ENDBRANCH  14  15
ENDBRANCH  13  14
ENDBRANCH   1  13
TORSDOF 20
ENDMDL
MODEL 6
REMARK VINA RESULT:    14.618      3.521      8.212
REMARK INTER + INTRA:          30.692
REMARK INTER:                  31.100
REMARK INTRA:                  -0.407
REMARK UNBOUND:                -1.018
REMARK SMILES CCCCCCCCCCCCCCCCCCCCCC(=O)[O-]
REMARK SMILES IDX 12 1 11 2 10 3 9 4 8 5 7 6 6 7 5 8 4 9 3 10 2 11 1 12 13 13
REMARK SMILES IDX 14 14 15 15 16 16 17 17 18 18 19 19 20 20 21 21 22 22 23 23
REMARK SMILES IDX 24 24
REMARK H PARENT
REMARK Flexibility Score: inf
ROOT
ATOM      1  C   UNL     1     -30.943  23.771 -10.225  1.00  0.00     0.000 C 
ENDROOT
BRANCH   1   2
ATOM      2  C   UNL     1     -30.863  22.666 -11.292  1.00  0.00     0.000 C 
BRANCH   2   3
ATOM      3  C   UNL     1     -29.425  22.169 -11.527  1.00  0.00     0.000 C 
BRANCH   3   4
ATOM      4  C   UNL     1     -28.949  21.074 -10.550  1.00  0.00    -0.000 C 
BRANCH   4   5
ATOM      5  C   UNL     1     -27.789  21.484  -9.621  1.00  0.00    -0.000 C 
BRANCH   5   6
ATOM      6  C   UNL     1     -26.603  22.164 -10.327  1.00  0.00    -0.000 C 
BRANCH   6   7
ATOM      7  C   UNL     1     -25.463  22.523  -9.362  1.00  0.00    -0.000 C 
BRANCH   7   8
ATOM      8  C   UNL     1     -25.488  21.621  -8.118  1.00  0.00    -0.000 C 
BRANCH   8   9
ATOM      9  C   UNL     1     -24.069  21.201  -7.676  1.00  0.00    -0.000 C 
BRANCH   9  10
ATOM     10  C   UNL     1     -23.595  21.895  -6.387  1.00  0.00    -0.000 C 
BRANCH  10  11
ATOM     11  C   UNL     1     -22.222  22.564  -6.538  1.00  0.00    -0.003 C 
ATOM     12  C   UNL     1     -22.081  23.752  -5.590  1.00  0.00     0.004 C 
ENDBRANCH  10  11
ENDBRANCH   9  10
ENDBRANCH   8   9
ENDBRANCH   7   8
ENDBRANCH   6   7
ENDBRANCH   5   6
ENDBRANCH   4   5
ENDBRANCH   3   4
ENDBRANCH   2   3
ENDBRANCH   1   2
BRANCH   1  13
ATOM     13  C   UNL     1     -32.382  24.039  -9.757  1.00  0.00     0.000 C 
BRANCH  13  14
ATOM     14  C   UNL     1     -33.197  22.745  -9.594  1.00  0.00     0.000 C 
BRANCH  14  15
ATOM     15  C   UNL     1     -32.314  21.487  -9.530  1.00  0.00     0.000 C 
BRANCH  15  16
ATOM     16  C   UNL     1     -33.060  20.189  -9.904  1.00  0.00     0.000 C 
BRANCH  16  17
ATOM     17  C   UNL     1     -32.308  19.378 -10.975  1.00  0.00     0.000 C 
BRANCH  17  18
ATOM     18  C   UNL     1     -31.161  18.541 -10.386  1.00  0.00     0.000 C 
BRANCH  18  19
ATOM     19  C   UNL     1     -31.502  17.042 -10.309  1.00  0.00     0.000 C 
BRANCH  19  20
ATOM     20  C   UNL     1     -30.490  16.164 -11.067  1.00  0.00     0.006 C 
BRANCH  20  21
ATOM     21  C   UNL     1     -29.098  16.798 -11.220  1.00  0.00     0.053 C 
BRANCH  21  22
ATOM     22  C   UNL     1     -28.854  17.282 -12.616  1.00  0.00     0.041 C 
ATOM     23  O   UNL     1     -28.578  18.493 -12.829  1.00  0.00    -0.550 OA
ATOM     24  O   UNL     1     -28.940  16.398 -13.684  1.00  0.00    -0.550 OA
ENDBRANCH  21  22
ENDBRANCH  20  21
ENDBRANCH  19  20
ENDBRANCH  18  19
ENDBRANCH  17  18
ENDBRANCH  16  17
ENDBRANCH  15  16
ENDBRANCH  14  15
ENDBRANCH  13  14
ENDBRANCH   1  13
TORSDOF 20
ENDMDL
MODEL 7
REMARK VINA RESULT:    15.575      6.677      9.124
REMARK INTER + INTRA:          32.768
REMARK INTER:                  33.038
REMARK INTRA:                  -0.271
REMARK UNBOUND:                -1.018
REMARK SMILES CCCCCCCCCCCCCCCCCCCCCC(=O)[O-]
REMARK SMILES IDX 12 1 11 2 10 3 9 4 8 5 7 6 6 7 5 8 4 9 3 10 2 11 1 12 13 13
REMARK SMILES IDX 14 14 15 15 16 16 17 17 18 18 19 19 20 20 21 21 22 22 23 23
REMARK SMILES IDX 24 24
REMARK H PARENT
REMARK Flexibility Score: inf
ROOT
ATOM      1  C   UNL     1     -28.987  17.427 -13.073  1.00  0.00     0.000 C 
ENDROOT
BRANCH   1   2
ATOM      2  C   UNL     1     -28.824  16.605 -11.782  1.00  0.00     0.000 C 
BRANCH   2   3
ATOM      3  C   UNL     1     -30.064  15.753 -11.458  1.00  0.00     0.000 C 
BRANCH   3   4
ATOM      4  C   UNL     1     -31.028  16.375 -10.427  1.00  0.00    -0.000 C 
BRANCH   4   5
ATOM      5  C   UNL     1     -31.243  17.895 -10.566  1.00  0.00    -0.000 C 
BRANCH   5   6
ATOM      6  C   UNL     1     -32.567  18.418  -9.981  1.00  0.00    -0.000 C 
BRANCH   6   7
ATOM      7  C   UNL     1     -32.806  19.904 -10.287  1.00  0.00    -0.000 C 
BRANCH   7   8
ATOM      8  C   UNL     1     -31.476  20.647 -10.489  1.00  0.00    -0.000 C 
BRANCH   8   9
ATOM      9  C   UNL     1     -31.690  22.115 -10.919  1.00  0.00    -0.000 C 
BRANCH   9  10
ATOM     10  C   UNL     1     -31.186  23.139  -9.886  1.00  0.00    -0.000 C 
BRANCH  10  11
ATOM     11  C   UNL     1     -32.307  24.023  -9.324  1.00  0.00    -0.003 C 
ATOM     12  C   UNL     1     -33.484  24.103 -10.294  1.00  0.00     0.004 C 
ENDBRANCH  10  11
ENDBRANCH   9  10
ENDBRANCH   8   9
ENDBRANCH   7   8
ENDBRANCH   6   7
ENDBRANCH   5   6
ENDBRANCH   4   5
ENDBRANCH   3   4
ENDBRANCH   2   3
ENDBRANCH   1   2
BRANCH   1  13
ATOM     13  C   UNL     1     -28.779  16.584 -14.341  1.00  0.00     0.000 C 
BRANCH  13  14
ATOM     14  C   UNL     1     -28.533  15.099 -14.026  1.00  0.00     0.000 C 
BRANCH  14  15
ATOM     15  C   UNL     1     -27.784  14.366 -15.152  1.00  0.00     0.000 C 
BRANCH  15  16
ATOM     16  C   UNL     1     -26.927  13.183 -14.654  1.00  0.00     0.000 C 
BRANCH  16  17
ATOM     17  C   UNL     1     -25.426  13.404 -14.920  1.00  0.00     0.000 C 
BRANCH  17  18
ATOM     18  C   UNL     1     -24.905  12.573 -16.103  1.00  0.00     0.000 C 
BRANCH  18  19
ATOM     19  C   UNL     1     -23.826  11.559 -15.684  1.00  0.00     0.000 C 
BRANCH  19  20
ATOM     20  C   UNL     1     -23.917  10.238 -16.469  1.00  0.00     0.006 C 
BRANCH  20  21
ATOM     21  C   UNL     1     -22.556   9.662 -16.889  1.00  0.00     0.053 C 
BRANCH  21  22
ATOM     22  C   UNL     1     -21.503   9.896 -15.848  1.00  0.00     0.041 C 
ATOM     23  O   UNL     1     -20.383  10.370 -16.175  1.00  0.00    -0.550 OA
ATOM     24  O   UNL     1     -21.756   9.580 -14.520  1.00  0.00    -0.550 OA
ENDBRANCH  21  22
ENDBRANCH  20  21
ENDBRANCH  19  20
ENDBRANCH  18  19
ENDBRANCH  17  18
ENDBRANCH  16  17
ENDBRANCH  15  16
ENDBRANCH  14  15
ENDBRANCH  13  14
ENDBRANCH   1  13
TORSDOF 20
ENDMDL
MODEL 8
REMARK VINA RESULT:    15.925      7.185     10.780
REMARK INTER + INTRA:          33.527
REMARK INTER:                  33.352
REMARK INTRA:                   0.175
REMARK UNBOUND:                -1.018
REMARK SMILES CCCCCCCCCCCCCCCCCCCCCC(=O)[O-]
REMARK SMILES IDX 12 1 11 2 10 3 9 4 8 5 7 6 6 7 5 8 4 9 3 10 2 11 1 12 13 13
REMARK SMILES IDX 14 14 15 15 16 16 17 17 18 18 19 19 20 20 21 21 22 22 23 23
REMARK SMILES IDX 24 24
REMARK H PARENT
REMARK Flexibility Score: inf
ROOT
ATOM      1  C   UNL     1     -28.434  15.029 -13.971  1.00  0.00     0.000 C 
ENDROOT
BRANCH   1   2
ATOM      2  C   UNL     1     -27.923  14.296 -15.224  1.00  0.00     0.000 C 
BRANCH   2   3
ATOM      3  C   UNL     1     -26.920  13.177 -14.891  1.00  0.00     0.000 C 
BRANCH   3   4
ATOM      4  C   UNL     1     -25.452  13.496 -15.238  1.00  0.00    -0.000 C 
BRANCH   4   5
ATOM      5  C   UNL     1     -24.453  12.350 -14.977  1.00  0.00    -0.000 C 
BRANCH   5   6
ATOM      6  C   UNL     1     -23.810  11.751 -16.239  1.00  0.00    -0.000 C 
BRANCH   6   7
ATOM      7  C   UNL     1     -22.432  11.131 -15.967  1.00  0.00    -0.000 C 
BRANCH   7   8
ATOM      8  C   UNL     1     -22.457   9.610 -16.186  1.00  0.00    -0.000 C 
BRANCH   8   9
ATOM      9  C   UNL     1     -23.852   9.108 -16.621  1.00  0.00    -0.000 C 
BRANCH   9  10
ATOM     10  C   UNL     1     -23.953   8.797 -18.124  1.00  0.00    -0.000 C 
BRANCH  10  11
ATOM     11  C   UNL     1     -22.944   9.587 -18.968  1.00  0.00    -0.003 C 
ATOM     12  C   UNL     1     -23.648  10.618 -19.847  1.00  0.00     0.004 C 
ENDBRANCH  10  11
ENDBRANCH   9  10
ENDBRANCH   8   9
ENDBRANCH   7   8
ENDBRANCH   6   7
ENDBRANCH   5   6
ENDBRANCH   4   5
ENDBRANCH   3   4
ENDBRANCH   2   3
ENDBRANCH   1   2
BRANCH   1  13
ATOM     13  C   UNL     1     -28.909  16.459 -14.275  1.00  0.00     0.000 C 
BRANCH  13  14
ATOM     14  C   UNL     1     -28.818  17.382 -13.048  1.00  0.00     0.000 C 
BRANCH  14  15
ATOM     15  C   UNL     1     -29.145  16.658 -11.731  1.00  0.00     0.000 C 
BRANCH  15  16
ATOM     16  C   UNL     1     -29.889  17.544 -10.709  1.00  0.00     0.000 C 
BRANCH  16  17
ATOM     17  C   UNL     1     -31.316  17.036 -10.434  1.00  0.00     0.000 C 
BRANCH  17  18
ATOM     18  C   UNL     1     -32.296  18.172 -10.100  1.00  0.00     0.000 C 
BRANCH  18  19
ATOM     19  C   UNL     1     -32.031  19.443 -10.926  1.00  0.00     0.000 C 
BRANCH  19  20
ATOM     20  C   UNL     1     -30.733  20.159 -10.513  1.00  0.00     0.006 C 
BRANCH  20  21
ATOM     21  C   UNL     1     -30.803  21.692 -10.607  1.00  0.00     0.053 C 
BRANCH  21  22
ATOM     22  C   UNL     1     -32.068  22.233 -10.015  1.00  0.00     0.041 C 
ATOM     23  O   UNL     1     -32.665  21.597  -9.105  1.00  0.00    -0.550 OA
ATOM     24  O   UNL     1     -32.594  23.433 -10.474  1.00  0.00    -0.550 OA
ENDBRANCH  21  22
ENDBRANCH  20  21
ENDBRANCH  19  20
ENDBRANCH  18  19
ENDBRANCH  17  18
ENDBRANCH  16  17
ENDBRANCH  15  16
ENDBRANCH  14  15
ENDBRANCH  13  14
ENDBRANCH   1  13
TORSDOF 20
ENDMDL
