MODEL 1
REMARK VINA RESULT:    -6.254      0.000      0.000
REMARK INTER + INTRA:          -6.254
REMARK INTER:                  -6.254
REMARK INTRA:                   0.000
REMARK UNBOUND:                 0.000
REMARK SMILES C=C1CCC[C@@]2(C)CC(=O)C(=C(C)C)C[C@@H]12
REMARK SMILES IDX 13 1 12 2 11 3 15 4 16 5 2 6 1 7 3 8 4 9 5 10 6 11 8 12 9 13
REMARK SMILES IDX 10 14 7 15 14 16
REMARK H PARENT
REMARK Flexibility Score: inf
ROOT
ATOM      1  C   UNL     1     -12.215  13.943 -32.695  1.00  0.00     0.039 C 
ATOM      2  C   UNL     1     -13.321  14.255 -31.715  1.00  0.00    -0.070 C 
ATOM      3  C   UNL     1     -13.954  13.270 -31.011  1.00  0.00    -0.006 C 
ATOM      4  C   UNL     1     -15.109  13.581 -30.074  1.00  0.00     0.047 C 
ATOM      5  C   UNL     1     -16.155  12.437 -29.990  1.00  0.00     0.025 C 
ATOM      6  C   UNL     1     -17.114  12.336 -31.182  1.00  0.00    -0.073 C 
ATOM      7  C   UNL     1     -17.054  13.127 -32.271  1.00  0.00     0.008 C 
ATOM      8  C   UNL     1     -18.163  11.248 -31.153  1.00  0.00     0.031 C 
ATOM      9  C   UNL     1     -18.033  10.370 -29.905  1.00  0.00     0.005 C 
ATOM     10  C   UNL     1     -16.587   9.883 -29.720  1.00  0.00     0.008 C 
ATOM     11  C   UNL     1     -15.506  11.033 -29.719  1.00  0.00    -0.018 C 
ATOM     12  C   UNL     1     -14.464  10.738 -30.831  1.00  0.00     0.088 C 
ATOM     13  C   UNL     1     -13.483  11.859 -31.019  1.00  0.00     0.159 C 
ATOM     14  O   UNL     1     -12.264  11.578 -31.171  1.00  0.00    -0.295 OA
ATOM     15  C   UNL     1     -14.798  11.028 -28.340  1.00  0.00     0.012 C 
ATOM     16  C   UNL     1     -13.725  15.705 -31.571  1.00  0.00     0.039 C 
ENDROOT
TORSDOF 0
ENDMDL
MODEL 2
REMARK VINA RESULT:    -5.713      1.880      4.971
REMARK INTER + INTRA:          -5.713
REMARK INTER:                  -5.713
REMARK INTRA:                   0.000
REMARK UNBOUND:                 0.000
REMARK SMILES C=C1CCC[C@@]2(C)CC(=O)C(=C(C)C)C[C@@H]12
REMARK SMILES IDX 13 1 12 2 11 3 15 4 16 5 2 6 1 7 3 8 4 9 5 10 6 11 8 12 9 13
REMARK SMILES IDX 10 14 7 15 14 16
REMARK H PARENT
REMARK Flexibility Score: inf
ROOT
ATOM      1  C   UNL     1     -18.246  11.849 -30.907  1.00  0.00     0.039 C 
ATOM      2  C   UNL     1     -17.033  12.362 -30.166  1.00  0.00    -0.070 C 
ATOM      3  C   UNL     1     -15.939  12.843 -30.827  1.00  0.00    -0.006 C 
ATOM      4  C   UNL     1     -14.696  13.298 -30.079  1.00  0.00     0.047 C 
ATOM      5  C   UNL     1     -13.384  13.063 -30.874  1.00  0.00     0.025 C 
ATOM      6  C   UNL     1     -12.878  11.615 -30.890  1.00  0.00    -0.073 C 
ATOM      7  C   UNL     1     -13.522  10.581 -30.317  1.00  0.00     0.008 C 
ATOM      8  C   UNL     1     -11.596  11.325 -31.638  1.00  0.00     0.031 C 
ATOM      9  C   UNL     1     -11.043  12.579 -32.321  1.00  0.00     0.005 C 
ATOM     10  C   UNL     1     -12.131  13.285 -33.146  1.00  0.00     0.008 C 
ATOM     11  C   UNL     1     -13.451  13.611 -32.343  1.00  0.00    -0.018 C 
ATOM     12  C   UNL     1     -14.653  12.952 -33.071  1.00  0.00     0.088 C 
ATOM     13  C   UNL     1     -15.934  13.069 -32.297  1.00  0.00     0.159 C 
ATOM     14  O   UNL     1     -16.991  13.369 -32.915  1.00  0.00    -0.295 OA
ATOM     15  C   UNL     1     -13.640  15.150 -32.332  1.00  0.00     0.012 C 
ATOM     16  C   UNL     1     -17.066  12.284 -28.656  1.00  0.00     0.039 C 
ENDROOT
TORSDOF 0
ENDMDL
MODEL 3
REMARK VINA RESULT:    -5.606      1.437      4.719
REMARK INTER + INTRA:          -5.606
REMARK INTER:                  -5.606
REMARK INTRA:                   0.000
REMARK UNBOUND:                 0.000
REMARK SMILES C=C1CCC[C@@]2(C)CC(=O)C(=C(C)C)C[C@@H]12
REMARK SMILES IDX 13 1 12 2 11 3 15 4 16 5 2 6 1 7 3 8 4 9 5 10 6 11 8 12 9 13
REMARK SMILES IDX 10 14 7 15 14 16
REMARK H PARENT
REMARK Flexibility Score: inf
ROOT
ATOM      1  C   UNL     1     -17.179   9.878 -29.459  1.00  0.00     0.039 C 
ATOM      2  C   UNL     1     -17.471  11.020 -30.403  1.00  0.00    -0.070 C 
ATOM      3  C   UNL     1     -16.479  11.633 -31.115  1.00  0.00    -0.006 C 
ATOM      4  C   UNL     1     -16.766  12.823 -32.016  1.00  0.00     0.047 C 
ATOM      5  C   UNL     1     -15.584  13.825 -32.102  1.00  0.00     0.025 C 
ATOM      6  C   UNL     1     -15.418  14.748 -30.888  1.00  0.00    -0.073 C 
ATOM      7  C   UNL     1     -16.184  14.691 -29.783  1.00  0.00     0.008 C 
ATOM      8  C   UNL     1     -14.290  15.755 -30.919  1.00  0.00     0.031 C 
ATOM      9  C   UNL     1     -13.448  15.624 -32.191  1.00  0.00     0.005 C 
ATOM     10  C   UNL     1     -13.023  14.166 -32.425  1.00  0.00     0.008 C 
ATOM     11  C   UNL     1     -14.214  13.130 -32.424  1.00  0.00    -0.018 C 
ATOM     12  C   UNL     1     -13.934  12.049 -31.345  1.00  0.00     0.088 C 
ATOM     13  C   UNL     1     -15.088  11.108 -31.155  1.00  0.00     0.159 C 
ATOM     14  O   UNL     1     -14.852   9.875 -31.039  1.00  0.00    -0.295 OA
ATOM     15  C   UNL     1     -14.270  12.458 -33.820  1.00  0.00     0.012 C 
ATOM     16  C   UNL     1     -18.907  11.484 -30.500  1.00  0.00     0.039 C 
ENDROOT
TORSDOF 0
ENDMDL
MODEL 4
REMARK VINA RESULT:    -5.533      1.599      3.197
REMARK INTER + INTRA:          -5.533
REMARK INTER:                  -5.533
REMARK INTRA:                   0.000
REMARK UNBOUND:                 0.000
REMARK SMILES C=C1CCC[C@@]2(C)CC(=O)C(=C(C)C)C[C@@H]12
REMARK SMILES IDX 13 1 12 2 11 3 15 4 16 5 2 6 1 7 3 8 4 9 5 10 6 11 8 12 9 13
REMARK SMILES IDX 10 14 7 15 14 16
REMARK H PARENT
REMARK Flexibility Score: inf
ROOT
ATOM      1  C   UNL     1     -11.421  14.719 -32.627  1.00  0.00     0.039 C 
ATOM      2  C   UNL     1     -12.277  13.542 -33.033  1.00  0.00    -0.070 C 
ATOM      3  C   UNL     1     -13.543  13.376 -32.548  1.00  0.00    -0.006 C 
ATOM      4  C   UNL     1     -14.378  12.158 -32.908  1.00  0.00     0.047 C 
ATOM      5  C   UNL     1     -15.346  11.722 -31.776  1.00  0.00     0.025 C 
ATOM      6  C   UNL     1     -14.695  10.964 -30.612  1.00  0.00    -0.073 C 
ATOM      7  C   UNL     1     -13.374  10.722 -30.512  1.00  0.00     0.008 C 
ATOM      8  C   UNL     1     -15.589  10.503 -29.484  1.00  0.00     0.031 C 
ATOM      9  C   UNL     1     -17.039  10.946 -29.693  1.00  0.00     0.005 C 
ATOM     10  C   UNL     1     -17.118  12.448 -30.011  1.00  0.00     0.008 C 
ATOM     11  C   UNL     1     -16.205  12.909 -31.213  1.00  0.00    -0.018 C 
ATOM     12  C   UNL     1     -15.250  14.027 -30.713  1.00  0.00     0.088 C 
ATOM     13  C   UNL     1     -14.230  14.420 -31.741  1.00  0.00     0.159 C 
ATOM     14  O   UNL     1     -13.979  15.644 -31.909  1.00  0.00    -0.295 OA
ATOM     15  C   UNL     1     -17.123  13.479 -32.325  1.00  0.00     0.012 C 
ATOM     16  C   UNL     1     -11.659  12.534 -33.974  1.00  0.00     0.039 C 
ENDROOT
TORSDOF 0
ENDMDL
MODEL 5
REMARK VINA RESULT:    -5.401      1.844      5.041
REMARK INTER + INTRA:          -5.401
REMARK INTER:                  -5.401
REMARK INTRA:                   0.000
REMARK UNBOUND:                 0.000
REMARK SMILES C=C1CCC[C@@]2(C)CC(=O)C(=C(C)C)C[C@@H]12
REMARK SMILES IDX 13 1 12 2 11 3 15 4 16 5 2 6 1 7 3 8 4 9 5 10 6 11 8 12 9 13
REMARK SMILES IDX 10 14 7 15 14 16
REMARK H PARENT
REMARK Flexibility Score: inf
ROOT
ATOM      1  C   UNL     1     -18.288  10.240 -29.680  1.00  0.00     0.039 C 
ATOM      2  C   UNL     1     -17.068  10.912 -29.093  1.00  0.00    -0.070 C 
ATOM      3  C   UNL     1     -16.385  11.878 -29.774  1.00  0.00    -0.006 C 
ATOM      4  C   UNL     1     -15.122  12.506 -29.208  1.00  0.00     0.047 C 
ATOM      5  C   UNL     1     -14.103  12.926 -30.301  1.00  0.00     0.025 C 
ATOM      6  C   UNL     1     -13.291  11.780 -30.916  1.00  0.00    -0.073 C 
ATOM      7  C   UNL     1     -13.454  10.482 -30.600  1.00  0.00     0.008 C 
ATOM      8  C   UNL     1     -12.274  12.129 -31.979  1.00  0.00     0.031 C 
ATOM      9  C   UNL     1     -12.282  13.626 -32.301  1.00  0.00     0.005 C 
ATOM     10  C   UNL     1     -13.709  14.124 -32.580  1.00  0.00     0.008 C 
ATOM     11  C   UNL     1     -14.753  13.782 -31.446  1.00  0.00    -0.018 C 
ATOM     12  C   UNL     1     -15.923  12.976 -32.073  1.00  0.00     0.088 C 
ATOM     13  C   UNL     1     -16.889  12.464 -31.045  1.00  0.00     0.159 C 
ATOM     14  O   UNL     1     -18.125  12.550 -31.279  1.00  0.00    -0.295 OA
ATOM     15  C   UNL     1     -15.298  15.116 -30.875  1.00  0.00     0.012 C 
ATOM     16  C   UNL     1     -16.613  10.442 -27.730  1.00  0.00     0.039 C 
ENDROOT
TORSDOF 0
ENDMDL
MODEL 6
REMARK VINA RESULT:    -5.167      2.197      4.265
REMARK INTER + INTRA:          -5.167
REMARK INTER:                  -5.167
REMARK INTRA:                   0.000
REMARK UNBOUND:                 0.000
REMARK SMILES C=C1CCC[C@@]2(C)CC(=O)C(=C(C)C)C[C@@H]12
REMARK SMILES IDX 13 1 12 2 11 3 15 4 16 5 2 6 1 7 3 8 4 9 5 10 6 11 8 12 9 13
REMARK SMILES IDX 10 14 7 15 14 16
REMARK H PARENT
REMARK Flexibility Score: inf
ROOT
ATOM      1  C   UNL     1     -14.297   9.875 -26.534  1.00  0.00     0.039 C 
ATOM      2  C   UNL     1     -13.987  11.154 -27.277  1.00  0.00    -0.070 C 
ATOM      3  C   UNL     1     -14.832  11.653 -28.226  1.00  0.00    -0.006 C 
ATOM      4  C   UNL     1     -14.487  12.905 -29.017  1.00  0.00     0.047 C 
ATOM      5  C   UNL     1     -15.057  12.894 -30.461  1.00  0.00     0.025 C 
ATOM      6  C   UNL     1     -14.293  12.019 -31.461  1.00  0.00    -0.073 C 
ATOM      7  C   UNL     1     -13.232  11.254 -31.142  1.00  0.00     0.008 C 
ATOM      8  C   UNL     1     -14.794  11.976 -32.887  1.00  0.00     0.031 C 
ATOM      9  C   UNL     1     -16.065  12.811 -33.065  1.00  0.00     0.005 C 
ATOM     10  C   UNL     1     -17.113  12.458 -31.998  1.00  0.00     0.008 C 
ATOM     11  C   UNL     1     -16.585  12.538 -30.512  1.00  0.00    -0.018 C 
ATOM     12  C   UNL     1     -16.804  11.161 -29.830  1.00  0.00     0.088 C 
ATOM     13  C   UNL     1     -16.186  11.086 -28.464  1.00  0.00     0.159 C 
ATOM     14  O   UNL     1     -16.841  10.546 -27.532  1.00  0.00    -0.295 OA
ATOM     15  C   UNL     1     -17.412  13.617 -29.765  1.00  0.00     0.012 C 
ATOM     16  C   UNL     1     -12.680  11.840 -26.950  1.00  0.00     0.039 C 
ENDROOT
TORSDOF 0
ENDMDL
MODEL 7
REMARK VINA RESULT:    -4.844      1.650      4.630
REMARK INTER + INTRA:          -4.844
REMARK INTER:                  -4.844
REMARK INTRA:                   0.000
REMARK UNBOUND:                 0.000
REMARK SMILES C=C1CCC[C@@]2(C)CC(=O)C(=C(C)C)C[C@@H]12
REMARK SMILES IDX 13 1 12 2 11 3 15 4 16 5 2 6 1 7 3 8 4 9 5 10 6 11 8 12 9 13
REMARK SMILES IDX 10 14 7 15 14 16
REMARK H PARENT
REMARK Flexibility Score: inf
ROOT
ATOM      1  C   UNL     1     -16.606   9.875 -26.792  1.00  0.00     0.039 C 
ATOM      2  C   UNL     1     -16.886  10.203 -28.240  1.00  0.00    -0.070 C 
ATOM      3  C   UNL     1     -15.948  10.795 -29.035  1.00  0.00    -0.006 C 
ATOM      4  C   UNL     1     -16.254  11.181 -30.473  1.00  0.00     0.047 C 
ATOM      5  C   UNL     1     -15.483  12.442 -30.946  1.00  0.00     0.025 C 
ATOM      6  C   UNL     1     -16.039  13.779 -30.440  1.00  0.00    -0.073 C 
ATOM      7  C   UNL     1     -17.085  13.894 -29.600  1.00  0.00     0.008 C 
ATOM      8  C   UNL     1     -15.337  15.045 -30.877  1.00  0.00     0.031 C 
ATOM      9  C   UNL     1     -14.109  14.742 -31.740  1.00  0.00     0.005 C 
ATOM     10  C   UNL     1     -13.204  13.698 -31.067  1.00  0.00     0.008 C 
ATOM     11  C   UNL     1     -13.944  12.368 -30.646  1.00  0.00    -0.018 C 
ATOM     12  C   UNL     1     -13.739  12.144 -29.124  1.00  0.00     0.088 C 
ATOM     13  C   UNL     1     -14.540  10.989 -28.595  1.00  0.00     0.159 C 
ATOM     14  O   UNL     1     -13.993  10.193 -27.785  1.00  0.00    -0.295 OA
ATOM     15  C   UNL     1     -13.303  11.192 -31.428  1.00  0.00     0.012 C 
ATOM     16  C   UNL     1     -18.267   9.879 -28.764  1.00  0.00     0.039 C 
ENDROOT
TORSDOF 0
ENDMDL
MODEL 8
REMARK VINA RESULT:    -4.343      9.323     11.365
REMARK INTER + INTRA:          -4.343
REMARK INTER:                  -4.343
REMARK INTRA:                   0.000
REMARK UNBOUND:                 0.000
REMARK SMILES C=C1CCC[C@@]2(C)CC(=O)C(=C(C)C)C[C@@H]12
REMARK SMILES IDX 13 1 12 2 11 3 15 4 16 5 2 6 1 7 3 8 4 9 5 10 6 11 8 12 9 13
REMARK SMILES IDX 10 14 7 15 14 16
REMARK H PARENT
REMARK Flexibility Score: inf
ROOT
ATOM      1  C   UNL     1     -23.764  14.766 -31.562  1.00  0.00     0.039 C 
ATOM      2  C   UNL     1     -24.871  14.820 -30.535  1.00  0.00    -0.070 C 
ATOM      3  C   UNL     1     -25.385  13.685 -29.974  1.00  0.00    -0.006 C 
ATOM      4  C   UNL     1     -26.540  13.740 -28.989  1.00  0.00     0.047 C 
ATOM      5  C   UNL     1     -27.465  12.495 -29.060  1.00  0.00     0.025 C 
ATOM      6  C   UNL     1     -28.439  12.469 -30.244  1.00  0.00    -0.073 C 
ATOM      7  C   UNL     1     -28.487  13.409 -31.206  1.00  0.00     0.008 C 
ATOM      8  C   UNL     1     -29.375  11.286 -30.360  1.00  0.00     0.031 C 
ATOM      9  C   UNL     1     -29.127  10.257 -29.254  1.00  0.00     0.005 C 
ATOM     10  C   UNL     1     -27.635   9.898 -29.157  1.00  0.00     0.008 C 
ATOM     11  C   UNL     1     -26.674  11.140 -29.002  1.00  0.00    -0.018 C 
ATOM     12  C   UNL     1     -25.636  11.115 -30.157  1.00  0.00     0.088 C 
ATOM     13  C   UNL     1     -24.777  12.345 -30.191  1.00  0.00     0.159 C 
ATOM     14  O   UNL     1     -23.540  12.215 -30.397  1.00  0.00    -0.295 OA
ATOM     15  C   UNL     1     -25.933  11.010 -27.646  1.00  0.00     0.012 C 
ATOM     16  C   UNL     1     -25.413  16.185 -30.178  1.00  0.00     0.039 C 
ENDROOT
TORSDOF 0
ENDMDL
