MODEL 1
REMARK VINA RESULT:    -2.763      0.000      0.000
REMARK INTER + INTRA:          -3.105
REMARK INTER:                  -3.086
REMARK INTRA:                  -0.019
REMARK UNBOUND:                -0.019
REMARK SMILES CCCC(=O)[O-]
REMARK SMILES IDX 3 1 4 2 5 3 6 4 2 5 1 6
REMARK H PARENT
REMARK Flexibility Score: inf
ROOT
ATOM      1  C   UNL     1       8.361 -21.251 -15.708  1.00  0.00     0.052 C 
ENDROOT
BRANCH   1   2
ATOM      2  C   UNL     1       6.929 -20.876 -15.940  1.00  0.00     0.041 C 
ATOM      3  O   UNL     1       6.473 -19.796 -15.480  1.00  0.00    -0.550 OA
ATOM      4  O   UNL     1       6.089 -21.736 -16.636  1.00  0.00    -0.550 OA
ENDBRANCH   1   2
BRANCH   1   5
ATOM      5  C   UNL     1       8.932 -20.565 -14.460  1.00  0.00     0.003 C 
ATOM      6  C   UNL     1      10.418 -20.239 -14.605  1.00  0.00     0.004 C 
ENDBRANCH   1   5
TORSDOF 2
ENDMDL
MODEL 2
REMARK VINA RESULT:    -2.724      0.234      1.318
REMARK INTER + INTRA:          -3.061
REMARK INTER:                  -3.048
REMARK INTRA:                  -0.013
REMARK UNBOUND:                -0.019
REMARK SMILES CCCC(=O)[O-]
REMARK SMILES IDX 3 1 4 2 5 3 6 4 2 5 1 6
REMARK H PARENT
REMARK Flexibility Score: inf
ROOT
ATOM      1  C   UNL     1       8.476 -21.265 -15.791  1.00  0.00     0.052 C 
ENDROOT
BRANCH   1   2
ATOM      2  C   UNL     1       7.026 -21.004 -16.062  1.00  0.00     0.041 C 
ATOM      3  O   UNL     1       6.410 -21.679 -16.929  1.00  0.00    -0.550 OA
ATOM      4  O   UNL     1       6.363 -19.990 -15.381  1.00  0.00    -0.550 OA
ENDBRANCH   1   2
BRANCH   1   5
ATOM      5  C   UNL     1       8.943 -20.584 -14.498  1.00  0.00     0.003 C 
ATOM      6  C   UNL     1      10.443 -20.293 -14.504  1.00  0.00     0.004 C 
ENDBRANCH   1   5
TORSDOF 2
ENDMDL
MODEL 3
REMARK VINA RESULT:    -2.656      1.414      1.491
REMARK INTER + INTRA:          -2.985
REMARK INTER:                  -2.962
REMARK INTRA:                  -0.023
REMARK UNBOUND:                -0.019
REMARK SMILES CCCC(=O)[O-]
REMARK SMILES IDX 3 1 4 2 5 3 6 4 2 5 1 6
REMARK H PARENT
REMARK Flexibility Score: inf
ROOT
ATOM      1  C   UNL     1       7.908 -20.465 -15.254  1.00  0.00     0.052 C 
ENDROOT
BRANCH   1   2
ATOM      2  C   UNL     1       7.605 -21.579 -16.209  1.00  0.00     0.041 C 
ATOM      3  O   UNL     1       7.464 -21.342 -17.438  1.00  0.00    -0.550 OA
ATOM      4  O   UNL     1       7.445 -22.875 -15.735  1.00  0.00    -0.550 OA
ENDBRANCH   1   2
BRANCH   1   5
ATOM      5  C   UNL     1       8.996 -20.860 -14.248  1.00  0.00     0.003 C 
ATOM      6  C   UNL     1      10.346 -20.219 -14.570  1.00  0.00     0.004 C 
ENDBRANCH   1   5
TORSDOF 2
ENDMDL
MODEL 4
REMARK VINA RESULT:    -2.530      1.267      1.563
REMARK INTER + INTRA:          -2.844
REMARK INTER:                  -2.837
REMARK INTRA:                  -0.007
REMARK UNBOUND:                -0.019
REMARK SMILES CCCC(=O)[O-]
REMARK SMILES IDX 3 1 4 2 5 3 6 4 2 5 1 6
REMARK H PARENT
REMARK Flexibility Score: inf
ROOT
ATOM      1  C   UNL     1       6.990 -20.590 -15.630  1.00  0.00     0.052 C 
ENDROOT
BRANCH   1   2
ATOM      2  C   UNL     1       6.125 -21.547 -16.392  1.00  0.00     0.041 C 
ATOM      3  O   UNL     1       4.936 -21.753 -16.032  1.00  0.00    -0.550 OA
ATOM      4  O   UNL     1       6.645 -22.238 -17.480  1.00  0.00    -0.550 OA
ENDBRANCH   1   2
BRANCH   1   5
ATOM      5  C   UNL     1       8.450 -21.056 -15.586  1.00  0.00     0.003 C 
ATOM      6  C   UNL     1       9.219 -20.450 -14.412  1.00  0.00     0.004 C 
ENDBRANCH   1   5
TORSDOF 2
ENDMDL
MODEL 5
REMARK VINA RESULT:    -2.379     14.939     15.958
REMARK INTER + INTRA:          -2.676
REMARK INTER:                  -2.606
REMARK INTRA:                  -0.070
REMARK UNBOUND:                -0.019
REMARK SMILES CCCC(=O)[O-]
REMARK SMILES IDX 3 1 4 2 5 3 6 4 2 5 1 6
REMARK H PARENT
REMARK Flexibility Score: inf
ROOT
ATOM      1  C   UNL     1      -8.476 -22.165 -15.441  1.00  0.00     0.052 C 
ENDROOT
BRANCH   1   2
ATOM      2  C   UNL     1      -8.112 -21.201 -14.353  1.00  0.00     0.041 C 
ATOM      3  O   UNL     1      -7.343 -21.556 -13.421  1.00  0.00    -0.550 OA
ATOM      4  O   UNL     1      -8.650 -19.920 -14.351  1.00  0.00    -0.550 OA
ENDBRANCH   1   2
BRANCH   1   5
ATOM      5  C   UNL     1      -8.064 -21.642 -16.823  1.00  0.00     0.003 C 
ATOM      6  C   UNL     1      -6.575 -21.306 -16.898  1.00  0.00     0.004 C 
ENDBRANCH   1   5
TORSDOF 2
ENDMDL
MODEL 6
REMARK VINA RESULT:    -2.290     15.634     16.293
REMARK INTER + INTRA:          -2.577
REMARK INTER:                  -2.572
REMARK INTRA:                  -0.005
REMARK UNBOUND:                -0.019
REMARK SMILES CCCC(=O)[O-]
REMARK SMILES IDX 3 1 4 2 5 3 6 4 2 5 1 6
REMARK H PARENT
REMARK Flexibility Score: inf
ROOT
ATOM      1  C   UNL     1      -8.058 -21.070 -14.379  1.00  0.00     0.052 C 
ENDROOT
BRANCH   1   2
ATOM      2  C   UNL     1      -7.973 -21.359 -15.847  1.00  0.00     0.041 C 
ATOM      3  O   UNL     1      -8.904 -21.978 -16.427  1.00  0.00    -0.550 OA
ATOM      4  O   UNL     1      -6.848 -20.975 -16.567  1.00  0.00    -0.550 OA
ENDBRANCH   1   2
BRANCH   1   5
ATOM      5  C   UNL     1      -8.860 -19.793 -14.099  1.00  0.00     0.003 C 
ATOM      6  C   UNL     1      -8.739 -19.338 -12.645  1.00  0.00     0.004 C 
ENDBRANCH   1   5
TORSDOF 2
ENDMDL
MODEL 7
REMARK VINA RESULT:    -2.243      2.062      3.540
REMARK INTER + INTRA:          -2.524
REMARK INTER:                  -2.486
REMARK INTRA:                  -0.038
REMARK UNBOUND:                -0.019
REMARK SMILES CCCC(=O)[O-]
REMARK SMILES IDX 3 1 4 2 5 3 6 4 2 5 1 6
REMARK H PARENT
REMARK Flexibility Score: inf
ROOT
ATOM      1  C   UNL     1       7.120 -20.478 -15.319  1.00  0.00     0.052 C 
ENDROOT
BRANCH   1   2
ATOM      2  C   UNL     1       8.569 -20.860 -15.299  1.00  0.00     0.041 C 
ATOM      3  O   UNL     1       9.079 -21.467 -16.278  1.00  0.00    -0.550 OA
ATOM      4  O   UNL     1       9.347 -20.576 -14.184  1.00  0.00    -0.550 OA
ENDBRANCH   1   2
BRANCH   1   5
ATOM      5  C   UNL     1       6.436 -20.917 -16.620  1.00  0.00     0.003 C 
ATOM      6  C   UNL     1       5.562 -22.156 -16.428  1.00  0.00     0.004 C 
ENDBRANCH   1   5
TORSDOF 2
ENDMDL
MODEL 8
REMARK VINA RESULT:    -2.204      1.840      3.163
REMARK INTER + INTRA:          -2.480
REMARK INTER:                  -2.443
REMARK INTRA:                  -0.037
REMARK UNBOUND:                -0.019
REMARK SMILES CCCC(=O)[O-]
REMARK SMILES IDX 3 1 4 2 5 3 6 4 2 5 1 6
REMARK H PARENT
REMARK Flexibility Score: inf
ROOT
ATOM      1  C   UNL     1       8.023 -21.815 -16.490  1.00  0.00     0.052 C 
ENDROOT
BRANCH   1   2
ATOM      2  C   UNL     1       7.866 -20.804 -15.395  1.00  0.00     0.041 C 
ATOM      3  O   UNL     1       8.730 -20.717 -14.482  1.00  0.00    -0.550 OA
ATOM      4  O   UNL     1       6.747 -19.982 -15.364  1.00  0.00    -0.550 OA
ENDBRANCH   1   2
BRANCH   1   5
ATOM      5  C   UNL     1       7.283 -23.119 -16.169  1.00  0.00     0.003 C 
ATOM      6  C   UNL     1       5.854 -23.125 -16.712  1.00  0.00     0.004 C 
ENDBRANCH   1   5
TORSDOF 2
ENDMDL
