MODEL 1
REMARK VINA RESULT:    -3.999      0.000      0.000
REMARK INTER + INTRA:          -4.631
REMARK INTER:                  -4.584
REMARK INTRA:                  -0.047
REMARK UNBOUND:                -0.047
REMARK SMILES CC(C)[C@@H]([NH3+])C(=O)[O-]
REMARK SMILES IDX 4 1 5 2 6 6 7 7 8 8 2 9 1 10 3 11
REMARK H PARENT 5 3 5 4 5 5
REMARK Flexibility Score: inf
ROOT
ATOM      1  C   UNL     1      10.190  15.099  20.710  1.00  0.00     0.230 C 
ENDROOT
BRANCH   1   2
ATOM      2  N   UNL     1       9.758  16.504  20.663  1.00  0.00    -0.350 N 
ATOM      3  H   UNL     1      10.525  17.130  20.331  1.00  0.00     0.345 HD
ATOM      4  H   UNL     1       9.437  16.819  21.606  1.00  0.00     0.345 HD
ATOM      5  H   UNL     1       8.948  16.596  20.007  1.00  0.00     0.345 HD
ENDBRANCH   1   2
BRANCH   1   6
ATOM      6  C   UNL     1      10.827  14.692  19.403  1.00  0.00     0.099 C 
ATOM      7  O   UNL     1      11.304  15.569  18.636  1.00  0.00    -0.544 OA
ATOM      8  O   UNL     1      10.853  13.358  19.012  1.00  0.00    -0.544 OA
ENDBRANCH   1   6
BRANCH   1   9
ATOM      9  C   UNL     1      11.138  14.792  21.909  1.00  0.00     0.047 C 
ATOM     10  C   UNL     1      11.197  15.921  22.951  1.00  0.00     0.014 C 
ATOM     11  C   UNL     1      10.787  13.461  22.590  1.00  0.00     0.014 C 
ENDBRANCH   1   9
TORSDOF 3
ENDMDL
MODEL 2
REMARK VINA RESULT:    -3.940      1.722      2.206
REMARK INTER + INTRA:          -4.562
REMARK INTER:                  -4.496
REMARK INTRA:                  -0.066
REMARK UNBOUND:                -0.047
REMARK SMILES CC(C)[C@@H]([NH3+])C(=O)[O-]
REMARK SMILES IDX 4 1 5 2 6 6 7 7 8 8 2 9 1 10 3 11
REMARK H PARENT 5 3 5 4 5 5
REMARK Flexibility Score: inf
ROOT
ATOM      1  C   UNL     1      10.972  14.909  21.062  1.00  0.00     0.230 C 
ENDROOT
BRANCH   1   2
ATOM      2  N   UNL     1      10.776  13.501  21.439  1.00  0.00    -0.350 N 
ATOM      3  H   UNL     1       9.799  13.186  21.248  1.00  0.00     0.345 HD
ATOM      4  H   UNL     1      10.995  13.361  22.451  1.00  0.00     0.345 HD
ATOM      5  H   UNL     1      11.432  12.900  20.888  1.00  0.00     0.345 HD
ENDBRANCH   1   2
BRANCH   1   6
ATOM      6  C   UNL     1      10.329  15.200  19.727  1.00  0.00     0.099 C 
ATOM      7  O   UNL     1      11.023  15.179  18.677  1.00  0.00    -0.544 OA
ATOM      8  O   UNL     1       8.982  15.538  19.648  1.00  0.00    -0.544 OA
ENDBRANCH   1   6
BRANCH   1   9
ATOM      9  C   UNL     1      10.471  15.908  22.149  1.00  0.00     0.047 C 
ATOM     10  C   UNL     1      10.778  15.456  23.587  1.00  0.00     0.014 C 
ATOM     11  C   UNL     1      11.009  17.327  21.914  1.00  0.00     0.014 C 
ENDBRANCH   1   9
TORSDOF 3
ENDMDL
MODEL 3
REMARK VINA RESULT:    -3.933      1.769      2.198
REMARK INTER + INTRA:          -4.555
REMARK INTER:                  -4.501
REMARK INTRA:                  -0.054
REMARK UNBOUND:                -0.047
REMARK SMILES CC(C)[C@@H]([NH3+])C(=O)[O-]
REMARK SMILES IDX 4 1 5 2 6 6 7 7 8 8 2 9 1 10 3 11
REMARK H PARENT 5 3 5 4 5 5
REMARK Flexibility Score: inf
ROOT
ATOM      1  C   UNL     1      10.841  14.615  21.092  1.00  0.00     0.230 C 
ENDROOT
BRANCH   1   2
ATOM      2  N   UNL     1      10.569  13.175  21.222  1.00  0.00    -0.350 N 
ATOM      3  H   UNL     1      10.165  12.945  22.158  1.00  0.00     0.345 HD
ATOM      4  H   UNL     1      11.444  12.624  21.077  1.00  0.00     0.345 HD
ATOM      5  H   UNL     1       9.886  12.883  20.486  1.00  0.00     0.345 HD
ENDBRANCH   1   2
BRANCH   1   6
ATOM      6  C   UNL     1      10.242  15.159  19.817  1.00  0.00     0.099 C 
ATOM      7  O   UNL     1       9.038  15.527  19.795  1.00  0.00    -0.544 OA
ATOM      8  O   UNL     1      10.993  15.215  18.648  1.00  0.00    -0.544 OA
ENDBRANCH   1   6
BRANCH   1   9
ATOM      9  C   UNL     1      10.365  15.440  22.325  1.00  0.00     0.047 C 
ATOM     10  C   UNL     1      10.562  14.712  23.666  1.00  0.00     0.014 C 
ATOM     11  C   UNL     1      11.022  16.827  22.374  1.00  0.00     0.014 C 
ENDBRANCH   1   9
TORSDOF 3
ENDMDL
MODEL 4
REMARK VINA RESULT:    -3.867      1.204      1.690
REMARK INTER + INTRA:          -4.479
REMARK INTER:                  -4.438
REMARK INTRA:                  -0.042
REMARK UNBOUND:                -0.047
REMARK SMILES CC(C)[C@@H]([NH3+])C(=O)[O-]
REMARK SMILES IDX 4 1 5 2 6 6 7 7 8 8 2 9 1 10 3 11
REMARK H PARENT 5 3 5 4 5 5
REMARK Flexibility Score: inf
ROOT
ATOM      1  C   UNL     1       9.860  15.477  20.685  1.00  0.00     0.230 C 
ENDROOT
BRANCH   1   2
ATOM      2  N   UNL     1      10.565  16.747  20.914  1.00  0.00    -0.350 N 
ATOM      3  H   UNL     1      10.605  16.985  21.931  1.00  0.00     0.345 HD
ATOM      4  H   UNL     1      10.097  17.523  20.394  1.00  0.00     0.345 HD
ATOM      5  H   UNL     1      11.544  16.670  20.554  1.00  0.00     0.345 HD
ENDBRANCH   1   2
BRANCH   1   6
ATOM      6  C   UNL     1      10.493  14.711  19.548  1.00  0.00     0.099 C 
ATOM      7  O   UNL     1      10.413  13.455  19.516  1.00  0.00    -0.544 OA
ATOM      8  O   UNL     1      11.208  15.374  18.557  1.00  0.00    -0.544 OA
ENDBRANCH   1   6
BRANCH   1   9
ATOM      9  C   UNL     1       9.763  14.592  21.965  1.00  0.00     0.047 C 
ATOM     10  C   UNL     1      11.082  14.506  22.753  1.00  0.00     0.014 C 
ATOM     11  C   UNL     1       8.623  15.043  22.888  1.00  0.00     0.014 C 
ENDBRANCH   1   9
TORSDOF 3
ENDMDL
MODEL 5
REMARK VINA RESULT:    -3.585      2.687      3.368
REMARK INTER + INTRA:          -4.156
REMARK INTER:                  -4.091
REMARK INTRA:                  -0.065
REMARK UNBOUND:                -0.047
REMARK SMILES CC(C)[C@@H]([NH3+])C(=O)[O-]
REMARK SMILES IDX 4 1 5 2 6 6 7 7 8 8 2 9 1 10 3 11
REMARK H PARENT 5 3 5 4 5 5
REMARK Flexibility Score: inf
ROOT
ATOM      1  C   UNL     1      10.424  14.929  21.909  1.00  0.00     0.230 C 
ENDROOT
BRANCH   1   2
ATOM      2  N   UNL     1      11.687  14.368  22.412  1.00  0.00    -0.350 N 
ATOM      3  H   UNL     1      11.603  13.344  22.602  1.00  0.00     0.345 HD
ATOM      4  H   UNL     1      11.984  14.860  23.283  1.00  0.00     0.345 HD
ATOM      5  H   UNL     1      12.438  14.510  21.697  1.00  0.00     0.345 HD
ENDBRANCH   1   2
BRANCH   1   6
ATOM      6  C   UNL     1      10.353  16.413  22.178  1.00  0.00     0.099 C 
ATOM      7  O   UNL     1       9.320  17.060  21.861  1.00  0.00    -0.544 OA
ATOM      8  O   UNL     1      11.437  17.087  22.729  1.00  0.00    -0.544 OA
ENDBRANCH   1   6
BRANCH   1   9
ATOM      9  C   UNL     1      10.178  14.625  20.400  1.00  0.00     0.047 C 
ATOM     10  C   UNL     1      11.173  15.330  19.462  1.00  0.00     0.014 C 
ATOM     11  C   UNL     1      10.159  13.117  20.115  1.00  0.00     0.014 C 
ENDBRANCH   1   9
TORSDOF 3
ENDMDL
MODEL 6
REMARK VINA RESULT:    -3.488      3.073      3.797
REMARK INTER + INTRA:          -4.045
REMARK INTER:                  -3.996
REMARK INTRA:                  -0.050
REMARK UNBOUND:                -0.047
REMARK SMILES CC(C)[C@@H]([NH3+])C(=O)[O-]
REMARK SMILES IDX 4 1 5 2 6 6 7 7 8 8 2 9 1 10 3 11
REMARK H PARENT 5 3 5 4 5 5
REMARK Flexibility Score: inf
ROOT
ATOM      1  C   UNL     1      10.502  13.675  21.975  1.00  0.00     0.230 C 
ENDROOT
BRANCH   1   2
ATOM      2  N   UNL     1      11.876  14.026  22.367  1.00  0.00    -0.350 N 
ATOM      3  H   UNL     1      11.886  14.683  23.179  1.00  0.00     0.345 HD
ATOM      4  H   UNL     1      12.386  14.457  21.565  1.00  0.00     0.345 HD
ATOM      5  H   UNL     1      12.391  13.157  22.639  1.00  0.00     0.345 HD
ENDBRANCH   1   2
BRANCH   1   6
ATOM      6  C   UNL     1       9.807  12.916  23.080  1.00  0.00     0.099 C 
ATOM      7  O   UNL     1       9.119  11.898  22.806  1.00  0.00    -0.544 OA
ATOM      8  O   UNL     1       9.879  13.357  24.397  1.00  0.00    -0.544 OA
ENDBRANCH   1   6
BRANCH   1   9
ATOM      9  C   UNL     1       9.659  14.910  21.534  1.00  0.00     0.047 C 
ATOM     10  C   UNL     1      10.126  16.231  22.168  1.00  0.00     0.014 C 
ATOM     11  C   UNL     1       9.601  15.047  20.006  1.00  0.00     0.014 C 
ENDBRANCH   1   9
TORSDOF 3
ENDMDL
MODEL 7
REMARK VINA RESULT:    -3.390      2.774      3.378
REMARK INTER + INTRA:          -3.932
REMARK INTER:                  -3.887
REMARK INTRA:                  -0.046
REMARK UNBOUND:                -0.047
REMARK SMILES CC(C)[C@@H]([NH3+])C(=O)[O-]
REMARK SMILES IDX 4 1 5 2 6 6 7 7 8 8 2 9 1 10 3 11
REMARK H PARENT 5 3 5 4 5 5
REMARK Flexibility Score: inf
ROOT
ATOM      1  C   UNL     1      10.072  13.722  20.930  1.00  0.00     0.230 C 
ENDROOT
BRANCH   1   2
ATOM      2  N   UNL     1      10.495  12.860  19.816  1.00  0.00    -0.350 N 
ATOM      3  H   UNL     1      10.134  13.212  18.901  1.00  0.00     0.345 HD
ATOM      4  H   UNL     1      10.163  11.881  19.966  1.00  0.00     0.345 HD
ATOM      5  H   UNL     1      11.539  12.836  19.772  1.00  0.00     0.345 HD
ENDBRANCH   1   2
BRANCH   1   6
ATOM      6  C   UNL     1      10.263  13.019  22.253  1.00  0.00     0.099 C 
ATOM      7  O   UNL     1      11.223  13.340  23.002  1.00  0.00    -0.544 OA
ATOM      8  O   UNL     1       9.416  11.984  22.635  1.00  0.00    -0.544 OA
ENDBRANCH   1   6
BRANCH   1   9
ATOM      9  C   UNL     1      10.782  15.109  20.932  1.00  0.00     0.047 C 
ATOM     10  C   UNL     1      11.296  15.538  19.547  1.00  0.00     0.014 C 
ATOM     11  C   UNL     1       9.892  16.208  21.529  1.00  0.00     0.014 C 
ENDBRANCH   1   9
TORSDOF 3
ENDMDL
MODEL 8
REMARK VINA RESULT:    -3.347      1.899      2.371
REMARK INTER + INTRA:          -3.883
REMARK INTER:                  -3.852
REMARK INTRA:                  -0.031
REMARK UNBOUND:                -0.047
REMARK SMILES CC(C)[C@@H]([NH3+])C(=O)[O-]
REMARK SMILES IDX 4 1 5 2 6 6 7 7 8 8 2 9 1 10 3 11
REMARK H PARENT 5 3 5 4 5 5
REMARK Flexibility Score: inf
ROOT
ATOM      1  C   UNL     1       9.677  14.420  21.583  1.00  0.00     0.230 C 
ENDROOT
BRANCH   1   2
ATOM      2  N   UNL     1       9.064  14.978  20.369  1.00  0.00    -0.350 N 
ATOM      3  H   UNL     1       9.526  15.870  20.081  1.00  0.00     0.345 HD
ATOM      4  H   UNL     1       8.045  15.149  20.520  1.00  0.00     0.345 HD
ATOM      5  H   UNL     1       9.156  14.290  19.586  1.00  0.00     0.345 HD
ENDBRANCH   1   2
BRANCH   1   6
ATOM      6  C   UNL     1      10.164  13.012  21.338  1.00  0.00     0.099 C 
ATOM      7  O   UNL     1      10.245  12.571  20.162  1.00  0.00    -0.544 OA
ATOM      8  O   UNL     1      10.481  12.176  22.403  1.00  0.00    -0.544 OA
ENDBRANCH   1   6
BRANCH   1   9
ATOM      9  C   UNL     1      10.822  15.311  22.154  1.00  0.00     0.047 C 
ATOM     10  C   UNL     1      10.864  16.723  21.543  1.00  0.00     0.014 C 
ATOM     11  C   UNL     1      10.770  15.399  23.686  1.00  0.00     0.014 C 
ENDBRANCH   1   9
TORSDOF 3
ENDMDL
MODEL 9
REMARK VINA RESULT:    -3.257     14.953     15.597
REMARK INTER + INTRA:          -3.780
REMARK INTER:                  -3.757
REMARK INTRA:                  -0.022
REMARK UNBOUND:                -0.047
REMARK SMILES CC(C)[C@@H]([NH3+])C(=O)[O-]
REMARK SMILES IDX 4 1 5 2 6 6 7 7 8 8 2 9 1 10 3 11
REMARK H PARENT 5 3 5 4 5 5
REMARK Flexibility Score: inf
ROOT
ATOM      1  C   UNL     1      25.408  20.192  22.603  1.00  0.00     0.230 C 
ENDROOT
BRANCH   1   2
ATOM      2  N   UNL     1      25.816  20.066  21.196  1.00  0.00    -0.350 N 
ATOM      3  H   UNL     1      26.755  20.493  21.030  1.00  0.00     0.345 HD
ATOM      4  H   UNL     1      25.113  20.519  20.570  1.00  0.00     0.345 HD
ATOM      5  H   UNL     1      25.863  19.054  20.938  1.00  0.00     0.345 HD
ENDBRANCH   1   2
BRANCH   1   6
ATOM      6  C   UNL     1      23.965  19.786  22.781  1.00  0.00     0.099 C 
ATOM      7  O   UNL     1      23.590  18.635  22.435  1.00  0.00    -0.544 OA
ATOM      8  O   UNL     1      23.031  20.686  23.281  1.00  0.00    -0.544 OA
ENDBRANCH   1   6
BRANCH   1   9
ATOM      9  C   UNL     1      26.331  19.402  23.580  1.00  0.00     0.047 C 
ATOM     10  C   UNL     1      27.764  19.957  23.656  1.00  0.00     0.014 C 
ATOM     11  C   UNL     1      25.726  19.305  24.988  1.00  0.00     0.014 C 
ENDBRANCH   1   9
TORSDOF 3
ENDMDL
