MODEL 1
REMARK VINA RESULT:    -3.184      0.000      0.000
REMARK INTER + INTRA:          -6.408
REMARK INTER:                  -7.557
REMARK INTRA:                   1.149
REMARK UNBOUND:                 1.149
REMARK SMILES O=C(OC[C@@H]1O[C@@H](OC(=O)c2cc(O)c(O)c(O)c2)[C@@H](OC(=O)c2cc(O)c(O)c(O)c2)[C@H](OC(=O)c2cc(O)c(O)c(O)c2)[C@@H]1OC(=O)c1cc(O)c(O)c(O)c1)c1cc(O)c(O)c(O)c1
REMARK SMILES IDX 5 1 46 2 33 3 20 4 7 5 6 6 4 7 3 8 2 9 1 10 59 11 60 12
REMARK SMILES IDX 61 13 67 14 63 15 65 16 62 17 64 19 66 21 47 23 48 24 49 25
REMARK SMILES IDX 50 26 58 27 51 28 56 29 52 30 54 31 57 32 53 34 55 36 34 38
REMARK SMILES IDX 35 39 36 40 37 41 45 42 38 43 43 44 39 45 41 46 44 47 40 49
REMARK SMILES IDX 42 51 8 53 9 54 10 55 11 56 19 57 12 58 17 59 13 60 15 61
REMARK SMILES IDX 18 62 14 64 16 66 21 68 22 69 23 70 24 71 32 72 25 73 30 74
REMARK SMILES IDX 26 75 28 76 31 77 27 79 29 81
REMARK H PARENT 62 18 64 20 66 22 57 33 53 35 55 37 44 48 40 50 42 52 18 63
REMARK H PARENT 14 65 16 67 31 78 27 80 29 82
REMARK Flexibility Score: inf
ROOT
ATOM      1  C   UNL     1     -16.563   8.840  -7.510  1.00  0.00     0.205 C 
ATOM      2  C   UNL     1     -16.000   7.978  -6.358  1.00  0.00     0.254 C 
ATOM      3  C   UNL     1     -14.613   7.439  -6.762  1.00  0.00     0.267 C 
ATOM      4  C   UNL     1     -14.696   6.736  -8.129  1.00  0.00     0.290 C 
ATOM      5  C   UNL     1     -15.385   7.653  -9.156  1.00  0.00     0.357 C 
ATOM      6  O   UNL     1     -16.661   8.073  -8.701  1.00  0.00    -0.329 OA
ENDROOT
BRANCH   1   7
ATOM      7  C   UNL     1     -17.951   9.401  -7.154  1.00  0.00     0.269 C 
BRANCH   7   8
ATOM      8  O   UNL     1     -17.840  10.440  -6.183  1.00  0.00    -0.459 OA
BRANCH   8   9
ATOM      9  C   UNL     1     -17.358  11.725  -6.459  1.00  0.00     0.338 C 
ATOM     10  O   UNL     1     -18.124  12.723  -6.368  1.00  0.00    -0.246 OA
BRANCH   9  11
ATOM     11  C   UNL     1     -15.937  11.910  -6.826  1.00  0.00     0.067 A 
ATOM     12  C   UNL     1     -15.488  13.148  -7.302  1.00  0.00     0.066 A 
ATOM     13  C   UNL     1     -14.153  13.332  -7.668  1.00  0.00     0.162 A 
ATOM     14  C   UNL     1     -15.024  10.852  -6.709  1.00  0.00     0.066 A 
ATOM     15  C   UNL     1     -13.239  12.268  -7.562  1.00  0.00     0.200 A 
ATOM     16  C   UNL     1     -13.682  11.015  -7.068  1.00  0.00     0.162 A 
BRANCH  13  17
ATOM     17  O   UNL     1     -13.753  14.578  -8.154  1.00  0.00    -0.504 OA
ATOM     18  H   UNL     1     -13.673  14.774  -9.145  1.00  0.00     0.293 HD
ENDBRANCH  13  17
BRANCH  15  19
ATOM     19  O   UNL     1     -11.916  12.486  -7.958  1.00  0.00    -0.502 OA
ATOM     20  H   UNL     1     -11.341  13.241  -7.616  1.00  0.00     0.293 HD
ENDBRANCH  15  19
BRANCH  16  21
ATOM     21  O   UNL     1     -12.828   9.920  -6.911  1.00  0.00    -0.504 OA
ATOM     22  H   UNL     1     -13.137   8.984  -6.702  1.00  0.00     0.293 HD
ENDBRANCH  16  21
ENDBRANCH   9  11
ENDBRANCH   8   9
ENDBRANCH   7   8
ENDBRANCH   1   7
BRANCH   2  23
ATOM     23  O   UNL     1     -16.887   6.889  -6.102  1.00  0.00    -0.452 OA
BRANCH  23  24
ATOM     24  C   UNL     1     -16.821   6.077  -4.962  1.00  0.00     0.338 C 
ATOM     25  O   UNL     1     -16.752   6.595  -3.813  1.00  0.00    -0.246 OA
BRANCH  24  26
ATOM     26  C   UNL     1     -16.837   4.608  -5.112  1.00  0.00     0.067 A 
ATOM     27  C   UNL     1     -17.079   4.018  -6.365  1.00  0.00     0.066 A 
ATOM     28  C   UNL     1     -16.600   3.784  -4.002  1.00  0.00     0.066 A 
ATOM     29  C   UNL     1     -17.084   2.627  -6.509  1.00  0.00     0.162 A 
ATOM     30  C   UNL     1     -16.611   2.392  -4.134  1.00  0.00     0.162 A 
ATOM     31  C   UNL     1     -16.855   1.808  -5.390  1.00  0.00     0.200 A 
BRANCH  29  32
ATOM     32  O   UNL     1     -17.300   2.077  -7.773  1.00  0.00    -0.504 OA
ATOM     33  H   UNL     1     -18.227   2.003  -8.173  1.00  0.00     0.293 HD
ENDBRANCH  29  32
BRANCH  30  34
ATOM     34  O   UNL     1     -16.385   1.582  -3.020  1.00  0.00    -0.504 OA
ATOM     35  H   UNL     1     -17.157   1.191  -2.489  1.00  0.00     0.293 HD
ENDBRANCH  30  34
BRANCH  31  36
ATOM     36  O   UNL     1     -16.863   0.420  -5.539  1.00  0.00    -0.502 OA
ATOM     37  H   UNL     1     -17.347  -0.192  -4.889  1.00  0.00     0.293 HD
ENDBRANCH  31  36
ENDBRANCH  24  26
ENDBRANCH  23  24
ENDBRANCH   2  23
BRANCH   3  38
ATOM     38  O   UNL     1     -14.128   6.512  -5.791  1.00  0.00    -0.450 OA
BRANCH  38  39
ATOM     39  C   UNL     1     -13.605   6.871  -4.544  1.00  0.00     0.338 C 
ATOM     40  O   UNL     1     -13.043   6.004  -3.820  1.00  0.00    -0.246 OA
BRANCH  39  41
ATOM     41  C   UNL     1     -13.723   8.272  -4.078  1.00  0.00     0.067 A 
ATOM     42  C   UNL     1     -14.961   8.805  -3.678  1.00  0.00     0.066 A 
ATOM     43  C   UNL     1     -12.586   9.095  -4.039  1.00  0.00     0.066 A 
ATOM     44  C   UNL     1     -15.069  10.144  -3.277  1.00  0.00     0.162 A 
ATOM     45  C   UNL     1     -12.684  10.431  -3.644  1.00  0.00     0.162 A 
ATOM     46  C   UNL     1     -13.928  10.963  -3.266  1.00  0.00     0.200 A 
BRANCH  44  47
ATOM     47  O   UNL     1     -16.308  10.666  -2.892  1.00  0.00    -0.504 OA
ATOM     48  H   UNL     1     -17.113  10.070  -2.732  1.00  0.00     0.293 HD
ENDBRANCH  44  47
BRANCH  45  49
ATOM     49  O   UNL     1     -11.533  11.219  -3.626  1.00  0.00    -0.504 OA
ATOM     50  H   UNL     1     -10.834  11.132  -2.900  1.00  0.00     0.293 HD
ENDBRANCH  45  49
BRANCH  46  51
ATOM     51  O   UNL     1     -14.013  12.301  -2.880  1.00  0.00    -0.502 OA
ATOM     52  H   UNL     1     -14.894  12.744  -2.640  1.00  0.00     0.293 HD
ENDBRANCH  46  51
ENDBRANCH  39  41
ENDBRANCH  38  39
ENDBRANCH   3  38
BRANCH   5  53
ATOM     53  O   UNL     1     -14.562   8.781  -9.463  1.00  0.00    -0.428 OA
BRANCH  53  54
ATOM     54  C   UNL     1     -15.052   9.957 -10.045  1.00  0.00     0.340 C 
ATOM     55  O   UNL     1     -16.249  10.307  -9.854  1.00  0.00    -0.246 OA
BRANCH  54  56
ATOM     56  C   UNL     1     -14.164  10.767 -10.908  1.00  0.00     0.067 A 
ATOM     57  C   UNL     1     -14.532  11.044 -12.235  1.00  0.00     0.066 A 
ATOM     58  C   UNL     1     -12.954  11.277 -10.409  1.00  0.00     0.066 A 
ATOM     59  C   UNL     1     -13.697  11.813 -13.059  1.00  0.00     0.162 A 
ATOM     60  C   UNL     1     -12.120  12.053 -11.225  1.00  0.00     0.162 A 
ATOM     61  C   UNL     1     -12.486  12.317 -12.555  1.00  0.00     0.200 A 
BRANCH  59  62
ATOM     62  O   UNL     1     -14.066  12.079 -14.375  1.00  0.00    -0.504 OA
ATOM     63  H   UNL     1     -14.383  11.345 -14.998  1.00  0.00     0.293 HD
ENDBRANCH  59  62
BRANCH  60  64
ATOM     64  O   UNL     1     -10.922  12.546 -10.709  1.00  0.00    -0.504 OA
ATOM     65  H   UNL     1     -10.070  11.997 -10.717  1.00  0.00     0.293 HD
ENDBRANCH  60  64
BRANCH  61  66
ATOM     66  O   UNL     1     -11.638  13.081 -13.360  1.00  0.00    -0.502 OA
ATOM     67  H   UNL     1     -11.327  14.012 -13.083  1.00  0.00     0.293 HD
ENDBRANCH  61  66
ENDBRANCH  54  56
ENDBRANCH  53  54
ENDBRANCH   5  53
BRANCH   4  68
ATOM     68  O   UNL     1     -13.385   6.402  -8.595  1.00  0.00    -0.448 OA
BRANCH  68  69
ATOM     69  C   UNL     1     -12.769   5.164  -8.356  1.00  0.00     0.339 C 
ATOM     70  O   UNL     1     -13.136   4.455  -7.381  1.00  0.00    -0.246 OA
BRANCH  69  71
ATOM     71  C   UNL     1     -11.718   4.672  -9.271  1.00  0.00     0.067 A 
ATOM     72  C   UNL     1     -10.548   4.078  -8.762  1.00  0.00     0.066 A 
ATOM     73  C   UNL     1     -11.875   4.787 -10.661  1.00  0.00     0.066 A 
ATOM     74  C   UNL     1      -9.568   3.577  -9.631  1.00  0.00     0.162 A 
ATOM     75  C   UNL     1     -10.896   4.305 -11.540  1.00  0.00     0.162 A 
ATOM     76  C   UNL     1      -9.738   3.676 -11.019  1.00  0.00     0.200 A 
BRANCH  74  77
ATOM     77  O   UNL     1      -8.423   2.965  -9.122  1.00  0.00    -0.504 OA
ATOM     78  H   UNL     1      -7.605   2.820  -9.694  1.00  0.00     0.293 HD
ENDBRANCH  74  77
BRANCH  75  79
ATOM     79  O   UNL     1     -11.112   4.484 -12.910  1.00  0.00    -0.504 OA
ATOM     80  H   UNL     1     -10.390   4.416 -13.610  1.00  0.00     0.293 HD
ENDBRANCH  75  79
BRANCH  76  81
ATOM     81  O   UNL     1      -8.751   3.131 -11.844  1.00  0.00    -0.502 OA
ATOM     82  H   UNL     1      -8.933   2.424 -12.534  1.00  0.00     0.293 HD
ENDBRANCH  76  81
ENDBRANCH  69  71
ENDBRANCH  68  69
ENDBRANCH   4  68
TORSDOF 31
ENDMDL
MODEL 2
REMARK VINA RESULT:    -3.125      1.421      7.699
REMARK INTER + INTRA:          -6.270
REMARK INTER:                  -4.170
REMARK INTRA:                  -2.099
REMARK UNBOUND:                 1.149
REMARK SMILES O=C(OC[C@@H]1O[C@@H](OC(=O)c2cc(O)c(O)c(O)c2)[C@@H](OC(=O)c2cc(O)c(O)c(O)c2)[C@H](OC(=O)c2cc(O)c(O)c(O)c2)[C@@H]1OC(=O)c1cc(O)c(O)c(O)c1)c1cc(O)c(O)c(O)c1
REMARK SMILES IDX 5 1 46 2 33 3 20 4 7 5 6 6 4 7 3 8 2 9 1 10 59 11 60 12
REMARK SMILES IDX 61 13 67 14 63 15 65 16 62 17 64 19 66 21 47 23 48 24 49 25
REMARK SMILES IDX 50 26 58 27 51 28 56 29 52 30 54 31 57 32 53 34 55 36 34 38
REMARK SMILES IDX 35 39 36 40 37 41 45 42 38 43 43 44 39 45 41 46 44 47 40 49
REMARK SMILES IDX 42 51 8 53 9 54 10 55 11 56 19 57 12 58 17 59 13 60 15 61
REMARK SMILES IDX 18 62 14 64 16 66 21 68 22 69 23 70 24 71 32 72 25 73 30 74
REMARK SMILES IDX 26 75 28 76 31 77 27 79 29 81
REMARK H PARENT 62 18 64 20 66 22 57 33 53 35 55 37 44 48 40 50 42 52 18 63
REMARK H PARENT 14 65 16 67 31 78 27 80 29 82
REMARK Flexibility Score: inf
ROOT
ATOM      1  C   UNL     1     -13.310   8.814  -7.832  1.00  0.00     0.205 C 
ATOM      2  C   UNL     1     -14.805   9.198  -7.785  1.00  0.00     0.254 C 
ATOM      3  C   UNL     1     -15.657   7.912  -7.769  1.00  0.00     0.267 C 
ATOM      4  C   UNL     1     -15.250   6.994  -8.936  1.00  0.00     0.290 C 
ATOM      5  C   UNL     1     -13.725   6.789  -8.943  1.00  0.00     0.357 C 
ATOM      6  O   UNL     1     -13.035   8.029  -8.982  1.00  0.00    -0.329 OA
ENDROOT
BRANCH   1   7
ATOM      7  C   UNL     1     -12.418  10.067  -7.851  1.00  0.00     0.269 C 
BRANCH   7   8
ATOM      8  O   UNL     1     -12.011  10.415  -6.528  1.00  0.00    -0.459 OA
BRANCH   8   9
ATOM      9  C   UNL     1     -12.851  10.365  -5.410  1.00  0.00     0.338 C 
ATOM     10  O   UNL     1     -13.412  11.413  -4.990  1.00  0.00    -0.246 OA
BRANCH   9  11
ATOM     11  C   UNL     1     -13.103   9.069  -4.743  1.00  0.00     0.067 A 
ATOM     12  C   UNL     1     -12.111   8.080  -4.726  1.00  0.00     0.066 A 
ATOM     13  C   UNL     1     -12.342   6.846  -4.115  1.00  0.00     0.162 A 
ATOM     14  C   UNL     1     -14.337   8.808  -4.127  1.00  0.00     0.066 A 
ATOM     15  C   UNL     1     -13.582   6.580  -3.507  1.00  0.00     0.200 A 
ATOM     16  C   UNL     1     -14.588   7.579  -3.508  1.00  0.00     0.162 A 
BRANCH  13  17
ATOM     17  O   UNL     1     -11.330   5.883  -4.136  1.00  0.00    -0.504 OA
ATOM     18  H   UNL     1     -11.201   5.215  -3.386  1.00  0.00     0.293 HD
ENDBRANCH  13  17
BRANCH  15  19
ATOM     19  O   UNL     1     -13.782   5.324  -2.925  1.00  0.00    -0.502 OA
ATOM     20  H   UNL     1     -14.037   4.496  -3.440  1.00  0.00     0.293 HD
ENDBRANCH  15  19
BRANCH  16  21
ATOM     21  O   UNL     1     -15.835   7.398  -2.904  1.00  0.00    -0.504 OA
ATOM     22  H   UNL     1     -16.617   6.940  -3.343  1.00  0.00     0.293 HD
ENDBRANCH  16  21
ENDBRANCH   9  11
ENDBRANCH   8   9
ENDBRANCH   7   8
ENDBRANCH   1   7
BRANCH   2  23
ATOM     23  O   UNL     1     -15.132   9.981  -8.934  1.00  0.00    -0.452 OA
BRANCH  23  24
ATOM     24  C   UNL     1     -14.692  11.297  -9.136  1.00  0.00     0.338 C 
ATOM     25  O   UNL     1     -14.881  12.174  -8.249  1.00  0.00    -0.246 OA
BRANCH  24  26
ATOM     26  C   UNL     1     -14.003  11.649 -10.393  1.00  0.00     0.067 A 
ATOM     27  C   UNL     1     -14.484  11.184 -11.630  1.00  0.00     0.066 A 
ATOM     28  C   UNL     1     -12.861  12.463 -10.366  1.00  0.00     0.066 A 
ATOM     29  C   UNL     1     -13.836  11.526 -12.820  1.00  0.00     0.162 A 
ATOM     30  C   UNL     1     -12.202  12.805 -11.550  1.00  0.00     0.162 A 
ATOM     31  C   UNL     1     -12.687  12.336 -12.784  1.00  0.00     0.200 A 
BRANCH  29  32
ATOM     32  O   UNL     1     -14.358  11.070 -14.031  1.00  0.00    -0.504 OA
ATOM     33  H   UNL     1     -14.559  10.090 -14.192  1.00  0.00     0.293 HD
ENDBRANCH  29  32
BRANCH  30  34
ATOM     34  O   UNL     1     -11.060  13.607 -11.509  1.00  0.00    -0.504 OA
ATOM     35  H   UNL     1     -11.079  14.527 -11.082  1.00  0.00     0.293 HD
ENDBRANCH  30  34
BRANCH  31  36
ATOM     36  O   UNL     1     -12.044  12.672 -13.976  1.00  0.00    -0.502 OA
ATOM     37  H   UNL     1     -12.471  12.515 -14.884  1.00  0.00     0.293 HD
ENDBRANCH  31  36
ENDBRANCH  24  26
ENDBRANCH  23  24
ENDBRANCH   2  23
BRANCH   3  38
ATOM     38  O   UNL     1     -17.045   8.223  -7.884  1.00  0.00    -0.450 OA
BRANCH  38  39
ATOM     39  C   UNL     1     -17.569   9.520  -7.902  1.00  0.00     0.338 C 
ATOM     40  O   UNL     1     -17.879  10.062  -8.998  1.00  0.00    -0.246 OA
BRANCH  39  41
ATOM     41  C   UNL     1     -17.746  10.254  -6.627  1.00  0.00     0.067 A 
ATOM     42  C   UNL     1     -17.877  11.653  -6.604  1.00  0.00     0.066 A 
ATOM     43  C   UNL     1     -17.778   9.549  -5.413  1.00  0.00     0.066 A 
ATOM     44  C   UNL     1     -18.003  12.342  -5.389  1.00  0.00     0.162 A 
ATOM     45  C   UNL     1     -17.901  10.226  -4.197  1.00  0.00     0.162 A 
ATOM     46  C   UNL     1     -18.009  11.626  -4.179  1.00  0.00     0.200 A 
BRANCH  44  47
ATOM     47  O   UNL     1     -18.122  13.735  -5.378  1.00  0.00    -0.504 OA
ATOM     48  H   UNL     1     -17.316  14.341  -5.492  1.00  0.00     0.293 HD
ENDBRANCH  44  47
BRANCH  45  49
ATOM     49  O   UNL     1     -17.920   9.491  -3.011  1.00  0.00    -0.504 OA
ATOM     50  H   UNL     1     -17.508   9.842  -2.156  1.00  0.00     0.293 HD
ENDBRANCH  45  49
BRANCH  46  51
ATOM     51  O   UNL     1     -18.125  12.291  -2.959  1.00  0.00    -0.502 OA
ATOM     52  H   UNL     1     -18.563  11.868  -2.147  1.00  0.00     0.293 HD
ENDBRANCH  46  51
ENDBRANCH  39  41
ENDBRANCH  38  39
ENDBRANCH   3  38
BRANCH   5  53
ATOM     53  O   UNL     1     -13.310   6.017  -7.814  1.00  0.00    -0.428 OA
BRANCH  53  54
ATOM     54  C   UNL     1     -12.811   4.712  -7.913  1.00  0.00     0.340 C 
ATOM     55  O   UNL     1     -13.247   3.808  -7.149  1.00  0.00    -0.246 OA
BRANCH  54  56
ATOM     56  C   UNL     1     -11.750   4.411  -8.900  1.00  0.00     0.067 A 
ATOM     57  C   UNL     1     -11.955   4.688 -10.261  1.00  0.00     0.066 A 
ATOM     58  C   UNL     1     -10.526   3.860  -8.487  1.00  0.00     0.066 A 
ATOM     59  C   UNL     1     -10.954   4.409 -11.203  1.00  0.00     0.162 A 
ATOM     60  C   UNL     1      -9.519   3.586  -9.422  1.00  0.00     0.162 A 
ATOM     61  C   UNL     1      -9.733   3.852 -10.784  1.00  0.00     0.200 A 
BRANCH  59  62
ATOM     62  O   UNL     1     -11.166   4.681 -12.552  1.00  0.00    -0.504 OA
ATOM     63  H   UNL     1     -10.462   5.139 -13.119  1.00  0.00     0.293 HD
ENDBRANCH  59  62
BRANCH  60  64
ATOM     64  O   UNL     1      -8.314   3.034  -8.989  1.00  0.00    -0.504 OA
ATOM     65  H   UNL     1      -8.283   2.225  -8.379  1.00  0.00     0.293 HD
ENDBRANCH  60  64
BRANCH  61  66
ATOM     66  O   UNL     1      -8.724   3.562 -11.706  1.00  0.00    -0.502 OA
ATOM     67  H   UNL     1      -8.147   4.294 -12.119  1.00  0.00     0.293 HD
ENDBRANCH  61  66
ENDBRANCH  54  56
ENDBRANCH  53  54
ENDBRANCH   5  53
BRANCH   4  68
ATOM     68  O   UNL     1     -15.899   5.725  -8.817  1.00  0.00    -0.448 OA
BRANCH  68  69
ATOM     69  C   UNL     1     -17.006   5.495  -7.986  1.00  0.00     0.339 C 
ATOM     70  O   UNL     1     -18.112   6.042  -8.241  1.00  0.00    -0.246 OA
BRANCH  69  71
ATOM     71  C   UNL     1     -16.887   4.578  -6.832  1.00  0.00     0.067 A 
ATOM     72  C   UNL     1     -16.823   3.186  -7.028  1.00  0.00     0.066 A 
ATOM     73  C   UNL     1     -16.832   5.086  -5.525  1.00  0.00     0.066 A 
ATOM     74  C   UNL     1     -16.673   2.320  -5.936  1.00  0.00     0.162 A 
ATOM     75  C   UNL     1     -16.698   4.230  -4.423  1.00  0.00     0.162 A 
ATOM     76  C   UNL     1     -16.598   2.832  -4.633  1.00  0.00     0.200 A 
BRANCH  74  77
ATOM     77  O   UNL     1     -16.584   0.942  -6.137  1.00  0.00    -0.504 OA
ATOM     78  H   UNL     1     -15.958   0.370  -5.592  1.00  0.00     0.293 HD
ENDBRANCH  74  77
BRANCH  75  79
ATOM     79  O   UNL     1     -16.680   4.811  -3.151  1.00  0.00    -0.504 OA
ATOM     80  H   UNL     1     -17.476   4.845  -2.534  1.00  0.00     0.293 HD
ENDBRANCH  75  79
BRANCH  76  81
ATOM     81  O   UNL     1     -16.413   1.932  -3.581  1.00  0.00    -0.502 OA
ATOM     82  H   UNL     1     -15.799   2.105  -2.805  1.00  0.00     0.293 HD
ENDBRANCH  76  81
ENDBRANCH  69  71
ENDBRANCH  68  69
ENDBRANCH   4  68
TORSDOF 31
ENDMDL
MODEL 3
REMARK VINA RESULT:    -2.936      1.498      8.047
REMARK INTER + INTRA:          -5.819
REMARK INTER:                  -5.158
REMARK INTRA:                  -0.661
REMARK UNBOUND:                 1.149
REMARK SMILES O=C(OC[C@@H]1O[C@@H](OC(=O)c2cc(O)c(O)c(O)c2)[C@@H](OC(=O)c2cc(O)c(O)c(O)c2)[C@H](OC(=O)c2cc(O)c(O)c(O)c2)[C@@H]1OC(=O)c1cc(O)c(O)c(O)c1)c1cc(O)c(O)c(O)c1
REMARK SMILES IDX 5 1 46 2 33 3 20 4 7 5 6 6 4 7 3 8 2 9 1 10 59 11 60 12
REMARK SMILES IDX 61 13 67 14 63 15 65 16 62 17 64 19 66 21 47 23 48 24 49 25
REMARK SMILES IDX 50 26 58 27 51 28 56 29 52 30 54 31 57 32 53 34 55 36 34 38
REMARK SMILES IDX 35 39 36 40 37 41 45 42 38 43 43 44 39 45 41 46 44 47 40 49
REMARK SMILES IDX 42 51 8 53 9 54 10 55 11 56 19 57 12 58 17 59 13 60 15 61
REMARK SMILES IDX 18 62 14 64 16 66 21 68 22 69 23 70 24 71 32 72 25 73 30 74
REMARK SMILES IDX 26 75 28 76 31 77 27 79 29 81
REMARK H PARENT 62 18 64 20 66 22 57 33 53 35 55 37 44 48 40 50 42 52 18 63
REMARK H PARENT 14 65 16 67 31 78 27 80 29 82
REMARK Flexibility Score: inf
ROOT
ATOM      1  C   UNL     1     -13.321   5.912  -8.595  1.00  0.00     0.205 C 
ATOM      2  C   UNL     1     -14.570   5.302  -7.921  1.00  0.00     0.254 C 
ATOM      3  C   UNL     1     -15.743   6.295  -8.039  1.00  0.00     0.267 C 
ATOM      4  C   UNL     1     -15.320   7.678  -7.510  1.00  0.00     0.290 C 
ATOM      5  C   UNL     1     -14.001   8.117  -8.169  1.00  0.00     0.357 C 
ATOM      6  O   UNL     1     -12.981   7.148  -7.984  1.00  0.00    -0.329 OA
ENDROOT
BRANCH   1   7
ATOM      7  C   UNL     1     -12.119   4.955  -8.502  1.00  0.00     0.269 C 
BRANCH   7   8
ATOM      8  O   UNL     1     -11.166   5.244  -9.523  1.00  0.00    -0.459 OA
BRANCH   8   9
ATOM      9  C   UNL     1     -10.712   4.309 -10.460  1.00  0.00     0.338 C 
ATOM     10  O   UNL     1     -11.455   3.955 -11.415  1.00  0.00    -0.246 OA
BRANCH   9  11
ATOM     11  C   UNL     1      -9.341   3.765 -10.344  1.00  0.00     0.067 A 
ATOM     12  C   UNL     1      -8.399   4.397  -9.523  1.00  0.00     0.066 A 
ATOM     13  C   UNL     1      -7.097   3.904  -9.417  1.00  0.00     0.162 A 
ATOM     14  C   UNL     1      -8.963   2.617 -11.057  1.00  0.00     0.066 A 
ATOM     15  C   UNL     1      -6.714   2.759 -10.140  1.00  0.00     0.200 A 
ATOM     16  C   UNL     1      -7.665   2.105 -10.963  1.00  0.00     0.162 A 
BRANCH  13  17
ATOM     17  O   UNL     1      -6.186   4.576  -8.599  1.00  0.00    -0.504 OA
ATOM     18  H   UNL     1      -5.525   4.087  -8.007  1.00  0.00     0.293 HD
ENDBRANCH  13  17
BRANCH  15  19
ATOM     19  O   UNL     1      -5.396   2.309 -10.024  1.00  0.00    -0.502 OA
ATOM     20  H   UNL     1      -4.796   2.513  -9.239  1.00  0.00     0.293 HD
ENDBRANCH  15  19
BRANCH  16  21
ATOM     21  O   UNL     1      -7.367   0.951 -11.692  1.00  0.00    -0.504 OA
ATOM     22  H   UNL     1      -7.008   0.950 -12.633  1.00  0.00     0.293 HD
ENDBRANCH  16  21
ENDBRANCH   9  11
ENDBRANCH   8   9
ENDBRANCH   7   8
ENDBRANCH   1   7
BRANCH   2  23
ATOM     23  O   UNL     1     -14.290   5.044  -6.545  1.00  0.00    -0.452 OA
BRANCH  23  24
ATOM     24  C   UNL     1     -13.323   5.734  -5.800  1.00  0.00     0.338 C 
ATOM     25  O   UNL     1     -12.127   5.334  -5.782  1.00  0.00    -0.246 OA
BRANCH  24  26
ATOM     26  C   UNL     1     -13.715   6.936  -5.036  1.00  0.00     0.067 A 
ATOM     27  C   UNL     1     -12.794   7.975  -4.812  1.00  0.00     0.066 A 
ATOM     28  C   UNL     1     -15.018   7.057  -4.532  1.00  0.00     0.066 A 
ATOM     29  C   UNL     1     -13.168   9.116  -4.098  1.00  0.00     0.162 A 
ATOM     30  C   UNL     1     -15.399   8.191  -3.811  1.00  0.00     0.162 A 
ATOM     31  C   UNL     1     -14.474   9.226  -3.589  1.00  0.00     0.200 A 
BRANCH  29  32
ATOM     32  O   UNL     1     -12.236  10.140  -3.920  1.00  0.00    -0.504 OA
ATOM     33  H   UNL     1     -12.518  11.108  -3.817  1.00  0.00     0.293 HD
ENDBRANCH  29  32
BRANCH  30  34
ATOM     34  O   UNL     1     -16.696   8.295  -3.304  1.00  0.00    -0.504 OA
ATOM     35  H   UNL     1     -17.505   8.133  -3.895  1.00  0.00     0.293 HD
ENDBRANCH  30  34
BRANCH  31  36
ATOM     36  O   UNL     1     -14.840  10.368  -2.875  1.00  0.00    -0.502 OA
ATOM     37  H   UNL     1     -14.215  11.162  -2.765  1.00  0.00     0.293 HD
ENDBRANCH  31  36
ENDBRANCH  24  26
ENDBRANCH  23  24
ENDBRANCH   2  23
BRANCH   3  38
ATOM     38  O   UNL     1     -16.871   5.838  -7.293  1.00  0.00    -0.450 OA
BRANCH  38  39
ATOM     39  C   UNL     1     -17.465   4.580  -7.446  1.00  0.00     0.338 C 
ATOM     40  O   UNL     1     -18.125   4.315  -8.489  1.00  0.00    -0.246 OA
BRANCH  39  41
ATOM     41  C   UNL     1     -17.322   3.569  -6.373  1.00  0.00     0.067 A 
ATOM     42  C   UNL     1     -16.799   3.911  -5.115  1.00  0.00     0.066 A 
ATOM     43  C   UNL     1     -17.705   2.240  -6.610  1.00  0.00     0.066 A 
ATOM     44  C   UNL     1     -16.629   2.938  -4.120  1.00  0.00     0.162 A 
ATOM     45  C   UNL     1     -17.539   1.262  -5.626  1.00  0.00     0.162 A 
ATOM     46  C   UNL     1     -16.994   1.605  -4.378  1.00  0.00     0.200 A 
BRANCH  44  47
ATOM     47  O   UNL     1     -16.097   3.288  -2.875  1.00  0.00    -0.504 OA
ATOM     48  H   UNL     1     -16.441   2.879  -2.012  1.00  0.00     0.293 HD
ENDBRANCH  44  47
BRANCH  45  49
ATOM     49  O   UNL     1     -17.924  -0.051  -5.902  1.00  0.00    -0.504 OA
ATOM     50  H   UNL     1     -18.095  -0.725  -5.168  1.00  0.00     0.293 HD
ENDBRANCH  45  49
BRANCH  46  51
ATOM     51  O   UNL     1     -16.827   0.619  -3.407  1.00  0.00    -0.502 OA
ATOM     52  H   UNL     1     -16.862  -0.371  -3.623  1.00  0.00     0.293 HD
ENDBRANCH  46  51
ENDBRANCH  39  41
ENDBRANCH  38  39
ENDBRANCH   3  38
BRANCH   5  53
ATOM     53  O   UNL     1     -14.192   8.388  -9.560  1.00  0.00    -0.428 OA
BRANCH  53  54
ATOM     54  C   UNL     1     -14.707   9.596 -10.046  1.00  0.00     0.340 C 
ATOM     55  O   UNL     1     -15.954   9.771 -10.117  1.00  0.00    -0.246 OA
BRANCH  54  56
ATOM     56  C   UNL     1     -13.776  10.653 -10.503  1.00  0.00     0.067 A 
ATOM     57  C   UNL     1     -13.795  11.077 -11.842  1.00  0.00     0.066 A 
ATOM     58  C   UNL     1     -12.877  11.250  -9.605  1.00  0.00     0.066 A 
ATOM     59  C   UNL     1     -12.918  12.080 -12.283  1.00  0.00     0.162 A 
ATOM     60  C   UNL     1     -12.004  12.258 -10.037  1.00  0.00     0.162 A 
ATOM     61  C   UNL     1     -12.017  12.670 -11.379  1.00  0.00     0.200 A 
BRANCH  59  62
ATOM     62  O   UNL     1     -12.938  12.492 -13.612  1.00  0.00    -0.504 OA
ATOM     63  H   UNL     1     -12.143  12.953 -14.039  1.00  0.00     0.293 HD
ENDBRANCH  59  62
BRANCH  60  64
ATOM     64  O   UNL     1     -11.117  12.833  -9.128  1.00  0.00    -0.504 OA
ATOM     65  H   UNL     1     -11.129  13.826  -8.924  1.00  0.00     0.293 HD
ENDBRANCH  60  64
BRANCH  61  66
ATOM     66  O   UNL     1     -11.133  13.667 -11.799  1.00  0.00    -0.502 OA
ATOM     67  H   UNL     1     -10.122  13.537 -11.768  1.00  0.00     0.293 HD
ENDBRANCH  61  66
ENDBRANCH  54  56
ENDBRANCH  53  54
ENDBRANCH   5  53
BRANCH   4  68
ATOM     68  O   UNL     1     -16.336   8.647  -7.790  1.00  0.00    -0.448 OA
BRANCH  68  69
ATOM     69  C   UNL     1     -16.888   9.494  -6.817  1.00  0.00     0.339 C 
ATOM     70  O   UNL     1     -17.885   9.117  -6.144  1.00  0.00    -0.246 OA
BRANCH  69  71
ATOM     71  C   UNL     1     -16.276  10.813  -6.551  1.00  0.00     0.067 A 
ATOM     72  C   UNL     1     -14.888  10.932  -6.359  1.00  0.00     0.066 A 
ATOM     73  C   UNL     1     -17.075  11.966  -6.490  1.00  0.00     0.066 A 
ATOM     74  C   UNL     1     -14.304  12.189  -6.143  1.00  0.00     0.162 A 
ATOM     75  C   UNL     1     -16.506  13.226  -6.260  1.00  0.00     0.162 A 
ATOM     76  C   UNL     1     -15.102  13.341  -6.104  1.00  0.00     0.200 A 
BRANCH  74  77
ATOM     77  O   UNL     1     -12.924  12.305  -5.980  1.00  0.00    -0.504 OA
ATOM     78  H   UNL     1     -12.405  13.061  -6.402  1.00  0.00     0.293 HD
ENDBRANCH  74  77
BRANCH  75  79
ATOM     79  O   UNL     1     -17.371  14.322  -6.184  1.00  0.00    -0.504 OA
ATOM     80  H   UNL     1     -17.731  14.814  -6.986  1.00  0.00     0.293 HD
ENDBRANCH  75  79
BRANCH  76  81
ATOM     81  O   UNL     1     -14.471  14.574  -5.922  1.00  0.00    -0.502 OA
ATOM     82  H   UNL     1     -14.558  15.341  -6.565  1.00  0.00     0.293 HD
ENDBRANCH  76  81
ENDBRANCH  69  71
ENDBRANCH  68  69
ENDBRANCH   4  68
TORSDOF 31
ENDMDL
MODEL 4
REMARK VINA RESULT:    -2.889      1.485      8.105
REMARK INTER + INTRA:          -5.708
REMARK INTER:                  -4.639
REMARK INTRA:                  -1.069
REMARK UNBOUND:                 1.149
REMARK SMILES O=C(OC[C@@H]1O[C@@H](OC(=O)c2cc(O)c(O)c(O)c2)[C@@H](OC(=O)c2cc(O)c(O)c(O)c2)[C@H](OC(=O)c2cc(O)c(O)c(O)c2)[C@@H]1OC(=O)c1cc(O)c(O)c(O)c1)c1cc(O)c(O)c(O)c1
REMARK SMILES IDX 5 1 46 2 33 3 20 4 7 5 6 6 4 7 3 8 2 9 1 10 59 11 60 12
REMARK SMILES IDX 61 13 67 14 63 15 65 16 62 17 64 19 66 21 47 23 48 24 49 25
REMARK SMILES IDX 50 26 58 27 51 28 56 29 52 30 54 31 57 32 53 34 55 36 34 38
REMARK SMILES IDX 35 39 36 40 37 41 45 42 38 43 43 44 39 45 41 46 44 47 40 49
REMARK SMILES IDX 42 51 8 53 9 54 10 55 11 56 19 57 12 58 17 59 13 60 15 61
REMARK SMILES IDX 18 62 14 64 16 66 21 68 22 69 23 70 24 71 32 72 25 73 30 74
REMARK SMILES IDX 26 75 28 76 31 77 27 79 29 81
REMARK H PARENT 62 18 64 20 66 22 57 33 53 35 55 37 44 48 40 50 42 52 18 63
REMARK H PARENT 14 65 16 67 31 78 27 80 29 82
REMARK Flexibility Score: inf
ROOT
ATOM      1  C   UNL     1     -13.269   5.963  -8.633  1.00  0.00     0.205 C 
ATOM      2  C   UNL     1     -14.485   5.350  -7.904  1.00  0.00     0.254 C 
ATOM      3  C   UNL     1     -15.682   6.315  -8.018  1.00  0.00     0.267 C 
ATOM      4  C   UNL     1     -15.274   7.722  -7.545  1.00  0.00     0.290 C 
ATOM      5  C   UNL     1     -13.983   8.166  -8.257  1.00  0.00     0.357 C 
ATOM      6  O   UNL     1     -12.939   7.224  -8.072  1.00  0.00    -0.329 OA
ENDROOT
BRANCH   1   7
ATOM      7  C   UNL     1     -12.046   5.035  -8.547  1.00  0.00     0.269 C 
BRANCH   7   8
ATOM      8  O   UNL     1     -11.156   5.271  -9.637  1.00  0.00    -0.459 OA
BRANCH   8   9
ATOM      9  C   UNL     1     -10.712   4.278 -10.517  1.00  0.00     0.338 C 
ATOM     10  O   UNL     1     -11.471   3.854 -11.430  1.00  0.00    -0.246 OA
BRANCH   9  11
ATOM     11  C   UNL     1      -9.335   3.753 -10.392  1.00  0.00     0.067 A 
ATOM     12  C   UNL     1      -8.411   4.390  -9.553  1.00  0.00     0.066 A 
ATOM     13  C   UNL     1      -7.103   3.915  -9.439  1.00  0.00     0.162 A 
ATOM     14  C   UNL     1      -8.932   2.619 -11.113  1.00  0.00     0.066 A 
ATOM     15  C   UNL     1      -6.696   2.785 -10.170  1.00  0.00     0.200 A 
ATOM     16  C   UNL     1      -7.627   2.126 -11.011  1.00  0.00     0.162 A 
BRANCH  13  17
ATOM     17  O   UNL     1      -6.212   4.592  -8.604  1.00  0.00    -0.504 OA
ATOM     18  H   UNL     1      -6.415   5.508  -8.222  1.00  0.00     0.293 HD
ENDBRANCH  13  17
BRANCH  15  19
ATOM     19  O   UNL     1      -5.372   2.354 -10.044  1.00  0.00    -0.502 OA
ATOM     20  H   UNL     1      -4.613   2.942  -9.736  1.00  0.00     0.293 HD
ENDBRANCH  15  19
BRANCH  16  21
ATOM     21  O   UNL     1      -7.303   0.984 -11.749  1.00  0.00    -0.504 OA
ATOM     22  H   UNL     1      -7.017   0.108 -11.344  1.00  0.00     0.293 HD
ENDBRANCH  16  21
ENDBRANCH   9  11
ENDBRANCH   8   9
ENDBRANCH   7   8
ENDBRANCH   1   7
BRANCH   2  23
ATOM     23  O   UNL     1     -14.159   5.141  -6.530  1.00  0.00    -0.452 OA
BRANCH  23  24
ATOM     24  C   UNL     1     -13.202   5.888  -5.830  1.00  0.00     0.338 C 
ATOM     25  O   UNL     1     -11.987   5.548  -5.852  1.00  0.00    -0.246 OA
BRANCH  24  26
ATOM     26  C   UNL     1     -13.623   7.081  -5.067  1.00  0.00     0.067 A 
ATOM     27  C   UNL     1     -14.895   7.138  -4.470  1.00  0.00     0.066 A 
ATOM     28  C   UNL     1     -12.751   8.169  -4.922  1.00  0.00     0.066 A 
ATOM     29  C   UNL     1     -15.290   8.262  -3.740  1.00  0.00     0.162 A 
ATOM     30  C   UNL     1     -13.139   9.301  -4.201  1.00  0.00     0.162 A 
ATOM     31  C   UNL     1     -14.412   9.353  -3.607  1.00  0.00     0.200 A 
BRANCH  29  32
ATOM     32  O   UNL     1     -16.548   8.272  -3.138  1.00  0.00    -0.504 OA
ATOM     33  H   UNL     1     -16.912   9.095  -2.672  1.00  0.00     0.293 HD
ENDBRANCH  29  32
BRANCH  30  34
ATOM     34  O   UNL     1     -12.265  10.383  -4.073  1.00  0.00    -0.504 OA
ATOM     35  H   UNL     1     -11.265  10.242  -3.976  1.00  0.00     0.293 HD
ENDBRANCH  30  34
BRANCH  31  36
ATOM     36  O   UNL     1     -14.813  10.474  -2.878  1.00  0.00    -0.502 OA
ATOM     37  H   UNL     1     -15.630  11.021  -3.133  1.00  0.00     0.293 HD
ENDBRANCH  31  36
ENDBRANCH  24  26
ENDBRANCH  23  24
ENDBRANCH   2  23
BRANCH   3  38
ATOM     38  O   UNL     1     -16.778   5.858  -7.225  1.00  0.00    -0.450 OA
BRANCH  38  39
ATOM     39  C   UNL     1     -17.411   4.621  -7.385  1.00  0.00     0.338 C 
ATOM     40  O   UNL     1     -18.125   4.402  -8.402  1.00  0.00    -0.246 OA
BRANCH  39  41
ATOM     41  C   UNL     1     -17.243   3.575  -6.349  1.00  0.00     0.067 A 
ATOM     42  C   UNL     1     -17.647   2.249  -6.581  1.00  0.00     0.066 A 
ATOM     43  C   UNL     1     -16.680   3.905  -5.107  1.00  0.00     0.066 A 
ATOM     44  C   UNL     1     -17.523   1.276  -5.579  1.00  0.00     0.162 A 
ATOM     45  C   UNL     1     -16.553   2.944  -4.101  1.00  0.00     0.162 A 
ATOM     46  C   UNL     1     -16.979   1.625  -4.331  1.00  0.00     0.200 A 
BRANCH  44  47
ATOM     47  O   UNL     1     -17.938  -0.038  -5.817  1.00  0.00    -0.504 OA
ATOM     48  H   UNL     1     -18.918  -0.299  -5.806  1.00  0.00     0.293 HD
ENDBRANCH  44  47
BRANCH  45  49
ATOM     49  O   UNL     1     -15.995   3.313  -2.876  1.00  0.00    -0.504 OA
ATOM     50  H   UNL     1     -16.563   3.627  -2.101  1.00  0.00     0.293 HD
ENDBRANCH  45  49
BRANCH  46  51
ATOM     51  O   UNL     1     -16.853   0.676  -3.317  1.00  0.00    -0.502 OA
ATOM     52  H   UNL     1     -16.377   0.872  -2.443  1.00  0.00     0.293 HD
ENDBRANCH  46  51
ENDBRANCH  39  41
ENDBRANCH  38  39
ENDBRANCH   3  38
BRANCH   5  53
ATOM     53  O   UNL     1     -14.221   8.389  -9.649  1.00  0.00    -0.428 OA
BRANCH  53  54
ATOM     54  C   UNL     1     -14.736   9.587 -10.161  1.00  0.00     0.340 C 
ATOM     55  O   UNL     1     -15.982   9.732 -10.300  1.00  0.00    -0.246 OA
BRANCH  54  56
ATOM     56  C   UNL     1     -13.807  10.666 -10.563  1.00  0.00     0.067 A 
ATOM     57  C   UNL     1     -12.956  11.254  -9.613  1.00  0.00     0.066 A 
ATOM     58  C   UNL     1     -13.757  11.105 -11.897  1.00  0.00     0.066 A 
ATOM     59  C   UNL     1     -12.071  12.276  -9.987  1.00  0.00     0.162 A 
ATOM     60  C   UNL     1     -12.869  12.120 -12.277  1.00  0.00     0.162 A 
ATOM     61  C   UNL     1     -12.029  12.714 -11.322  1.00  0.00     0.200 A 
BRANCH  59  62
ATOM     62  O   UNL     1     -11.234  12.858  -9.039  1.00  0.00    -0.504 OA
ATOM     63  H   UNL     1     -10.644  12.298  -8.434  1.00  0.00     0.293 HD
ENDBRANCH  59  62
BRANCH  60  64
ATOM     64  O   UNL     1     -12.840  12.542 -13.606  1.00  0.00    -0.504 OA
ATOM     65  H   UNL     1     -12.826  11.883 -14.377  1.00  0.00     0.293 HD
ENDBRANCH  60  64
BRANCH  61  66
ATOM     66  O   UNL     1     -11.158  13.733 -11.714  1.00  0.00    -0.502 OA
ATOM     67  H   UNL     1     -11.132  14.079 -12.673  1.00  0.00     0.293 HD
ENDBRANCH  61  66
ENDBRANCH  54  56
ENDBRANCH  53  54
ENDBRANCH   5  53
BRANCH   4  68
ATOM     68  O   UNL     1     -16.317   8.661  -7.824  1.00  0.00    -0.448 OA
BRANCH  68  69
ATOM     69  C   UNL     1     -16.872   9.513  -6.858  1.00  0.00     0.339 C 
ATOM     70  O   UNL     1     -17.855   9.130  -6.168  1.00  0.00    -0.246 OA
BRANCH  69  71
ATOM     71  C   UNL     1     -16.279  10.845  -6.618  1.00  0.00     0.067 A 
ATOM     72  C   UNL     1     -14.883  11.008  -6.559  1.00  0.00     0.066 A 
ATOM     73  C   UNL     1     -17.104  11.969  -6.450  1.00  0.00     0.066 A 
ATOM     74  C   UNL     1     -14.321  12.278  -6.369  1.00  0.00     0.162 A 
ATOM     75  C   UNL     1     -16.556  13.242  -6.243  1.00  0.00     0.162 A 
ATOM     76  C   UNL     1     -15.147  13.401  -6.222  1.00  0.00     0.200 A 
BRANCH  74  77
ATOM     77  O   UNL     1     -12.936  12.437  -6.338  1.00  0.00    -0.504 OA
ATOM     78  H   UNL     1     -12.485  12.996  -5.629  1.00  0.00     0.293 HD
ENDBRANCH  74  77
BRANCH  75  79
ATOM     79  O   UNL     1     -17.443  14.306  -6.055  1.00  0.00    -0.504 OA
ATOM     80  H   UNL     1     -18.444  14.204  -6.000  1.00  0.00     0.293 HD
ENDBRANCH  75  79
BRANCH  76  81
ATOM     81  O   UNL     1     -14.541  14.650  -6.070  1.00  0.00    -0.502 OA
ATOM     82  H   UNL     1     -14.936  15.505  -6.420  1.00  0.00     0.293 HD
ENDBRANCH  76  81
ENDBRANCH  69  71
ENDBRANCH  68  69
ENDBRANCH   4  68
TORSDOF 31
ENDMDL
MODEL 5
REMARK VINA RESULT:    -2.737      2.278      9.341
REMARK INTER + INTRA:          -5.349
REMARK INTER:                  -8.042
REMARK INTRA:                   2.693
REMARK UNBOUND:                 1.149
REMARK SMILES O=C(OC[C@@H]1O[C@@H](OC(=O)c2cc(O)c(O)c(O)c2)[C@@H](OC(=O)c2cc(O)c(O)c(O)c2)[C@H](OC(=O)c2cc(O)c(O)c(O)c2)[C@@H]1OC(=O)c1cc(O)c(O)c(O)c1)c1cc(O)c(O)c(O)c1
REMARK SMILES IDX 5 1 46 2 33 3 20 4 7 5 6 6 4 7 3 8 2 9 1 10 59 11 60 12
REMARK SMILES IDX 61 13 67 14 63 15 65 16 62 17 64 19 66 21 47 23 48 24 49 25
REMARK SMILES IDX 50 26 58 27 51 28 56 29 52 30 54 31 57 32 53 34 55 36 34 38
REMARK SMILES IDX 35 39 36 40 37 41 45 42 38 43 43 44 39 45 41 46 44 47 40 49
REMARK SMILES IDX 42 51 8 53 9 54 10 55 11 56 19 57 12 58 17 59 13 60 15 61
REMARK SMILES IDX 18 62 14 64 16 66 21 68 22 69 23 70 24 71 32 72 25 73 30 74
REMARK SMILES IDX 26 75 28 76 31 77 27 79 29 81
REMARK H PARENT 62 18 64 20 66 22 57 33 53 35 55 37 44 48 40 50 42 52 18 63
REMARK H PARENT 14 65 16 67 31 78 27 80 29 82
REMARK Flexibility Score: inf
ROOT
ATOM      1  C   UNL     1     -14.117   8.470  -9.049  1.00  0.00     0.205 C 
ATOM      2  C   UNL     1     -13.725   9.919  -9.414  1.00  0.00     0.254 C 
ATOM      3  C   UNL     1     -14.616  10.898  -8.623  1.00  0.00     0.267 C 
ATOM      4  C   UNL     1     -16.100  10.547  -8.832  1.00  0.00     0.290 C 
ATOM      5  C   UNL     1     -16.336   9.052  -8.554  1.00  0.00     0.357 C 
ATOM      6  O   UNL     1     -15.486   8.238  -9.346  1.00  0.00    -0.329 OA
ENDROOT
BRANCH   1   7
ATOM      7  C   UNL     1     -13.254   7.454  -9.815  1.00  0.00     0.269 C 
BRANCH   7   8
ATOM      8  O   UNL     1     -12.918   6.347  -8.980  1.00  0.00    -0.459 OA
BRANCH   8   9
ATOM      9  C   UNL     1     -13.585   6.031  -7.790  1.00  0.00     0.338 C 
ATOM     10  O   UNL     1     -14.617   5.308  -7.815  1.00  0.00    -0.246 OA
BRANCH   9  11
ATOM     11  C   UNL     1     -13.050   6.520  -6.501  1.00  0.00     0.067 A 
ATOM     12  C   UNL     1     -12.744   7.877  -6.334  1.00  0.00     0.066 A 
ATOM     13  C   UNL     1     -12.224   8.350  -5.127  1.00  0.00     0.162 A 
ATOM     14  C   UNL     1     -12.837   5.637  -5.432  1.00  0.00     0.066 A 
ATOM     15  C   UNL     1     -11.999   7.463  -4.060  1.00  0.00     0.200 A 
ATOM     16  C   UNL     1     -12.318   6.090  -4.214  1.00  0.00     0.162 A 
BRANCH  13  17
ATOM     17  O   UNL     1     -11.917   9.707  -5.012  1.00  0.00    -0.504 OA
ATOM     18  H   UNL     1     -11.569  10.114  -4.152  1.00  0.00     0.293 HD
ENDBRANCH  13  17
BRANCH  15  19
ATOM     19  O   UNL     1     -11.457   7.971  -2.875  1.00  0.00    -0.502 OA
ATOM     20  H   UNL     1     -10.768   8.706  -2.839  1.00  0.00     0.293 HD
ENDBRANCH  15  19
BRANCH  16  21
ATOM     21  O   UNL     1     -12.146   5.154  -3.192  1.00  0.00    -0.504 OA
ATOM     22  H   UNL     1     -11.689   4.264  -3.307  1.00  0.00     0.293 HD
ENDBRANCH  16  21
ENDBRANCH   9  11
ENDBRANCH   8   9
ENDBRANCH   7   8
ENDBRANCH   1   7
BRANCH   2  23
ATOM     23  O   UNL     1     -13.906  10.122 -10.815  1.00  0.00    -0.452 OA
BRANCH  23  24
ATOM     24  C   UNL     1     -12.889  10.544 -11.683  1.00  0.00     0.338 C 
ATOM     25  O   UNL     1     -11.681  10.496 -11.321  1.00  0.00    -0.246 OA
BRANCH  24  26
ATOM     26  C   UNL     1     -13.240  11.041 -13.029  1.00  0.00     0.067 A 
ATOM     27  C   UNL     1     -13.974  12.230 -13.185  1.00  0.00     0.066 A 
ATOM     28  C   UNL     1     -12.835  10.332 -14.169  1.00  0.00     0.066 A 
ATOM     29  C   UNL     1     -14.297  12.705 -14.459  1.00  0.00     0.162 A 
ATOM     30  C   UNL     1     -13.160  10.795 -15.447  1.00  0.00     0.162 A 
ATOM     31  C   UNL     1     -13.895  11.984 -15.597  1.00  0.00     0.200 A 
BRANCH  29  32
ATOM     32  O   UNL     1     -15.002  13.904 -14.577  1.00  0.00    -0.504 OA
ATOM     33  H   UNL     1     -15.724  14.167 -13.918  1.00  0.00     0.293 HD
ENDBRANCH  29  32
BRANCH  30  34
ATOM     34  O   UNL     1     -12.761  10.075 -16.575  1.00  0.00    -0.504 OA
ATOM     35  H   UNL     1     -13.394   9.923 -17.353  1.00  0.00     0.293 HD
ENDBRANCH  30  34
BRANCH  31  36
ATOM     36  O   UNL     1     -14.223  12.463 -16.867  1.00  0.00    -0.502 OA
ATOM     37  H   UNL     1     -13.856  13.340 -17.226  1.00  0.00     0.293 HD
ENDBRANCH  31  36
ENDBRANCH  24  26
ENDBRANCH  23  24
ENDBRANCH   2  23
BRANCH   3  38
ATOM     38  O   UNL     1     -14.392  12.243  -9.048  1.00  0.00    -0.450 OA
BRANCH  38  39
ATOM     39  C   UNL     1     -13.275  13.009  -8.698  1.00  0.00     0.338 C 
ATOM     40  O   UNL     1     -13.093  13.349  -7.497  1.00  0.00    -0.246 OA
BRANCH  39  41
ATOM     41  C   UNL     1     -12.316  13.424  -9.747  1.00  0.00     0.067 A 
ATOM     42  C   UNL     1     -12.757  14.006 -10.948  1.00  0.00     0.066 A 
ATOM     43  C   UNL     1     -10.939  13.231  -9.553  1.00  0.00     0.066 A 
ATOM     44  C   UNL     1     -11.844  14.359 -11.953  1.00  0.00     0.162 A 
ATOM     45  C   UNL     1     -10.021  13.576 -10.548  1.00  0.00     0.162 A 
ATOM     46  C   UNL     1     -10.470  14.137 -11.755  1.00  0.00     0.200 A 
BRANCH  44  47
ATOM     47  O   UNL     1     -12.294  14.926 -13.148  1.00  0.00    -0.504 OA
ATOM     48  H   UNL     1     -12.166  15.912 -13.354  1.00  0.00     0.293 HD
ENDBRANCH  44  47
BRANCH  45  49
ATOM     49  O   UNL     1      -8.661  13.361 -10.320  1.00  0.00    -0.504 OA
ATOM     50  H   UNL     1      -7.949  13.944 -10.737  1.00  0.00     0.293 HD
ENDBRANCH  45  49
BRANCH  46  51
ATOM     51  O   UNL     1      -9.544  14.471 -12.742  1.00  0.00    -0.502 OA
ATOM     52  H   UNL     1      -9.239  13.811 -13.450  1.00  0.00     0.293 HD
ENDBRANCH  46  51
ENDBRANCH  39  41
ENDBRANCH  38  39
ENDBRANCH   3  38
BRANCH   5  53
ATOM     53  O   UNL     1     -16.165   8.759  -7.166  1.00  0.00    -0.428 OA
BRANCH  53  54
ATOM     54  C   UNL     1     -17.117   8.075  -6.399  1.00  0.00     0.340 C 
ATOM     55  O   UNL     1     -18.125   8.686  -5.949  1.00  0.00    -0.246 OA
BRANCH  54  56
ATOM     56  C   UNL     1     -16.914   6.641  -6.096  1.00  0.00     0.067 A 
ATOM     57  C   UNL     1     -16.231   6.257  -4.929  1.00  0.00     0.066 A 
ATOM     58  C   UNL     1     -17.410   5.651  -6.959  1.00  0.00     0.066 A 
ATOM     59  C   UNL     1     -16.037   4.900  -4.633  1.00  0.00     0.162 A 
ATOM     60  C   UNL     1     -17.226   4.294  -6.665  1.00  0.00     0.162 A 
ATOM     61  C   UNL     1     -16.532   3.914  -5.505  1.00  0.00     0.200 A 
BRANCH  59  62
ATOM     62  O   UNL     1     -15.356   4.526  -3.478  1.00  0.00    -0.504 OA
ATOM     63  H   UNL     1     -14.343   4.530  -3.433  1.00  0.00     0.293 HD
ENDBRANCH  59  62
BRANCH  60  64
ATOM     64  O   UNL     1     -17.724   3.329  -7.540  1.00  0.00    -0.504 OA
ATOM     65  H   UNL     1     -17.228   2.464  -7.723  1.00  0.00     0.293 HD
ENDBRANCH  60  64
BRANCH  61  66
ATOM     66  O   UNL     1     -16.346   2.557  -5.230  1.00  0.00    -0.502 OA
ATOM     67  H   UNL     1     -17.129   1.939  -5.020  1.00  0.00     0.293 HD
ENDBRANCH  61  66
ENDBRANCH  54  56
ENDBRANCH  53  54
ENDBRANCH   5  53
BRANCH   4  68
ATOM     68  O   UNL     1     -16.922  11.327  -7.957  1.00  0.00    -0.448 OA
BRANCH  68  69
ATOM     69  C   UNL     1     -17.045  11.077  -6.582  1.00  0.00     0.339 C 
ATOM     70  O   UNL     1     -18.112  10.585  -6.124  1.00  0.00    -0.246 OA
BRANCH  69  71
ATOM     71  C   UNL     1     -15.912  11.352  -5.674  1.00  0.00     0.067 A 
ATOM     72  C   UNL     1     -15.551  10.426  -4.679  1.00  0.00     0.066 A 
ATOM     73  C   UNL     1     -15.177  12.542  -5.797  1.00  0.00     0.066 A 
ATOM     74  C   UNL     1     -14.453  10.670  -3.843  1.00  0.00     0.162 A 
ATOM     75  C   UNL     1     -14.086  12.807  -4.958  1.00  0.00     0.162 A 
ATOM     76  C   UNL     1     -13.708  11.851  -3.982  1.00  0.00     0.200 A 
BRANCH  74  77
ATOM     77  O   UNL     1     -14.082   9.737  -2.875  1.00  0.00    -0.504 OA
ATOM     78  H   UNL     1     -14.708   9.476  -2.128  1.00  0.00     0.293 HD
ENDBRANCH  74  77
BRANCH  75  79
ATOM     79  O   UNL     1     -13.424  14.027  -5.123  1.00  0.00    -0.504 OA
ATOM     80  H   UNL     1     -13.592  14.662  -5.886  1.00  0.00     0.293 HD
ENDBRANCH  75  79
BRANCH  76  81
ATOM     81  O   UNL     1     -12.602  12.034  -3.149  1.00  0.00    -0.502 OA
ATOM     82  H   UNL     1     -12.546  12.756  -2.452  1.00  0.00     0.293 HD
ENDBRANCH  76  81
ENDBRANCH  69  71
ENDBRANCH  68  69
ENDBRANCH   4  68
TORSDOF 31
ENDMDL
MODEL 6
REMARK VINA RESULT:    -2.542      2.453      5.409
REMARK INTER + INTRA:          -4.884
REMARK INTER:                  -5.810
REMARK INTRA:                   0.926
REMARK UNBOUND:                 1.149
REMARK SMILES O=C(OC[C@@H]1O[C@@H](OC(=O)c2cc(O)c(O)c(O)c2)[C@@H](OC(=O)c2cc(O)c(O)c(O)c2)[C@H](OC(=O)c2cc(O)c(O)c(O)c2)[C@@H]1OC(=O)c1cc(O)c(O)c(O)c1)c1cc(O)c(O)c(O)c1
REMARK SMILES IDX 5 1 46 2 33 3 20 4 7 5 6 6 4 7 3 8 2 9 1 10 59 11 60 12
REMARK SMILES IDX 61 13 67 14 63 15 65 16 62 17 64 19 66 21 47 23 48 24 49 25
REMARK SMILES IDX 50 26 58 27 51 28 56 29 52 30 54 31 57 32 53 34 55 36 34 38
REMARK SMILES IDX 35 39 36 40 37 41 45 42 38 43 43 44 39 45 41 46 44 47 40 49
REMARK SMILES IDX 42 51 8 53 9 54 10 55 11 56 19 57 12 58 17 59 13 60 15 61
REMARK SMILES IDX 18 62 14 64 16 66 21 68 22 69 23 70 24 71 32 72 25 73 30 74
REMARK SMILES IDX 26 75 28 76 31 77 27 79 29 81
REMARK H PARENT 62 18 64 20 66 22 57 33 53 35 55 37 44 48 40 50 42 52 18 63
REMARK H PARENT 14 65 16 67 31 78 27 80 29 82
REMARK Flexibility Score: inf
ROOT
ATOM      1  C   UNL     1     -16.975   8.266  -7.984  1.00  0.00     0.205 C 
ATOM      2  C   UNL     1     -17.511   8.386  -6.540  1.00  0.00     0.254 C 
ATOM      3  C   UNL     1     -17.736   9.874  -6.206  1.00  0.00     0.267 C 
ATOM      4  C   UNL     1     -16.458  10.681  -6.501  1.00  0.00     0.290 C 
ATOM      5  C   UNL     1     -15.959  10.381  -7.926  1.00  0.00     0.357 C 
ATOM      6  O   UNL     1     -15.761   8.990  -8.123  1.00  0.00    -0.329 OA
ENDROOT
BRANCH   1   7
ATOM      7  C   UNL     1     -16.734   6.796  -8.364  1.00  0.00     0.269 C 
BRANCH   7   8
ATOM      8  O   UNL     1     -15.338   6.498  -8.362  1.00  0.00    -0.459 OA
BRANCH   8   9
ATOM      9  C   UNL     1     -14.738   5.556  -7.518  1.00  0.00     0.338 C 
ATOM     10  O   UNL     1     -14.998   4.329  -7.651  1.00  0.00    -0.246 OA
BRANCH   9  11
ATOM     11  C   UNL     1     -13.771   6.004  -6.493  1.00  0.00     0.067 A 
ATOM     12  C   UNL     1     -13.128   7.242  -6.624  1.00  0.00     0.066 A 
ATOM     13  C   UNL     1     -12.201   7.671  -5.672  1.00  0.00     0.162 A 
ATOM     14  C   UNL     1     -13.479   5.199  -5.382  1.00  0.00     0.066 A 
ATOM     15  C   UNL     1     -11.899   6.858  -4.564  1.00  0.00     0.200 A 
ATOM     16  C   UNL     1     -12.555   5.610  -4.416  1.00  0.00     0.162 A 
BRANCH  13  17
ATOM     17  O   UNL     1     -11.572   8.904  -5.852  1.00  0.00    -0.504 OA
ATOM     18  H   UNL     1     -12.077   9.735  -6.137  1.00  0.00     0.293 HD
ENDBRANCH  13  17
BRANCH  15  19
ATOM     19  O   UNL     1     -10.949   7.313  -3.645  1.00  0.00    -0.502 OA
ATOM     20  H   UNL     1      -9.962   7.120  -3.710  1.00  0.00     0.293 HD
ENDBRANCH  15  19
BRANCH  16  21
ATOM     21  O   UNL     1     -12.325   4.760  -3.331  1.00  0.00    -0.504 OA
ATOM     22  H   UNL     1     -11.474   4.243  -3.184  1.00  0.00     0.293 HD
ENDBRANCH  16  21
ENDBRANCH   9  11
ENDBRANCH   8   9
ENDBRANCH   7   8
ENDBRANCH   1   7
BRANCH   2  23
ATOM     23  O   UNL     1     -16.564   7.823  -5.633  1.00  0.00    -0.452 OA
BRANCH  23  24
ATOM     24  C   UNL     1     -16.901   6.950  -4.589  1.00  0.00     0.338 C 
ATOM     25  O   UNL     1     -17.058   7.389  -3.417  1.00  0.00    -0.246 OA
BRANCH  24  26
ATOM     26  C   UNL     1     -17.075   5.511  -4.872  1.00  0.00     0.067 A 
ATOM     27  C   UNL     1     -17.537   5.077  -6.127  1.00  0.00     0.066 A 
ATOM     28  C   UNL     1     -16.770   4.559  -3.888  1.00  0.00     0.066 A 
ATOM     29  C   UNL     1     -17.691   3.715  -6.396  1.00  0.00     0.162 A 
ATOM     30  C   UNL     1     -16.929   3.194  -4.146  1.00  0.00     0.162 A 
ATOM     31  C   UNL     1     -17.393   2.766  -5.402  1.00  0.00     0.200 A 
BRANCH  29  32
ATOM     32  O   UNL     1     -18.125   3.319  -7.663  1.00  0.00    -0.504 OA
ATOM     33  H   UNL     1     -17.638   2.609  -8.197  1.00  0.00     0.293 HD
ENDBRANCH  29  32
BRANCH  30  34
ATOM     34  O   UNL     1     -16.633   2.256  -3.155  1.00  0.00    -0.504 OA
ATOM     35  H   UNL     1     -17.285   2.066  -2.400  1.00  0.00     0.293 HD
ENDBRANCH  30  34
BRANCH  31  36
ATOM     36  O   UNL     1     -17.551   1.407  -5.678  1.00  0.00    -0.502 OA
ATOM     37  H   UNL     1     -18.096   1.075  -6.468  1.00  0.00     0.293 HD
ENDBRANCH  31  36
ENDBRANCH  24  26
ENDBRANCH  23  24
ENDBRANCH   2  23
BRANCH   3  38
ATOM     38  O   UNL     1     -18.082  10.038  -4.831  1.00  0.00    -0.450 OA
BRANCH  38  39
ATOM     39  C   UNL     1     -17.404  10.875  -3.938  1.00  0.00     0.338 C 
ATOM     40  O   UNL     1     -18.004  11.849  -3.404  1.00  0.00    -0.246 OA
BRANCH  39  41
ATOM     41  C   UNL     1     -15.978  10.616  -3.631  1.00  0.00     0.067 A 
ATOM     42  C   UNL     1     -15.037  11.660  -3.604  1.00  0.00     0.066 A 
ATOM     43  C   UNL     1     -15.546   9.306  -3.371  1.00  0.00     0.066 A 
ATOM     44  C   UNL     1     -13.683  11.398  -3.353  1.00  0.00     0.162 A 
ATOM     45  C   UNL     1     -14.198   9.034  -3.122  1.00  0.00     0.162 A 
ATOM     46  C   UNL     1     -13.259  10.079  -3.118  1.00  0.00     0.200 A 
BRANCH  44  47
ATOM     47  O   UNL     1     -12.754  12.443  -3.339  1.00  0.00    -0.504 OA
ATOM     48  H   UNL     1     -12.659  13.064  -2.542  1.00  0.00     0.293 HD
ENDBRANCH  44  47
BRANCH  45  49
ATOM     49  O   UNL     1     -13.806   7.718  -2.875  1.00  0.00    -0.504 OA
ATOM     50  H   UNL     1     -13.291   7.175  -3.555  1.00  0.00     0.293 HD
ENDBRANCH  45  49
BRANCH  46  51
ATOM     51  O   UNL     1     -11.916   9.793  -2.875  1.00  0.00    -0.502 OA
ATOM     52  H   UNL     1     -11.402   9.098  -3.405  1.00  0.00     0.293 HD
ENDBRANCH  46  51
ENDBRANCH  39  41
ENDBRANCH  38  39
ENDBRANCH   3  38
BRANCH   5  53
ATOM     53  O   UNL     1     -16.861  10.906  -8.902  1.00  0.00    -0.428 OA
BRANCH  53  54
ATOM     54  C   UNL     1     -16.751  10.642 -10.274  1.00  0.00     0.340 C 
ATOM     55  O   UNL     1     -17.727  10.152 -10.905  1.00  0.00    -0.246 OA
BRANCH  54  56
ATOM     56  C   UNL     1     -15.473  10.917 -10.968  1.00  0.00     0.067 A 
ATOM     57  C   UNL     1     -14.284  10.321 -10.516  1.00  0.00     0.066 A 
ATOM     58  C   UNL     1     -15.436  11.761 -12.089  1.00  0.00     0.066 A 
ATOM     59  C   UNL     1     -13.069  10.573 -11.169  1.00  0.00     0.162 A 
ATOM     60  C   UNL     1     -14.226  12.011 -12.751  1.00  0.00     0.162 A 
ATOM     61  C   UNL     1     -13.038  11.423 -12.288  1.00  0.00     0.200 A 
BRANCH  59  62
ATOM     62  O   UNL     1     -11.893   9.983 -10.713  1.00  0.00    -0.504 OA
ATOM     63  H   UNL     1     -11.686   9.007 -10.887  1.00  0.00     0.293 HD
ENDBRANCH  59  62
BRANCH  60  64
ATOM     64  O   UNL     1     -14.214  12.856 -13.860  1.00  0.00    -0.504 OA
ATOM     65  H   UNL     1     -15.034  12.992 -14.440  1.00  0.00     0.293 HD
ENDBRANCH  60  64
BRANCH  61  66
ATOM     66  O   UNL     1     -11.838  11.691 -12.951  1.00  0.00    -0.502 OA
ATOM     67  H   UNL     1     -11.740  11.564 -13.958  1.00  0.00     0.293 HD
ENDBRANCH  61  66
ENDBRANCH  54  56
ENDBRANCH  53  54
ENDBRANCH   5  53
BRANCH   4  68
ATOM     68  O   UNL     1     -16.717  12.083  -6.375  1.00  0.00    -0.448 OA
BRANCH  68  69
ATOM     69  C   UNL     1     -15.707  13.055  -6.312  1.00  0.00     0.339 C 
ATOM     70  O   UNL     1     -15.825  14.039  -5.533  1.00  0.00    -0.246 OA
BRANCH  69  71
ATOM     71  C   UNL     1     -14.484  12.905  -7.129  1.00  0.00     0.067 A 
ATOM     72  C   UNL     1     -14.026  13.965  -7.932  1.00  0.00     0.066 A 
ATOM     73  C   UNL     1     -13.760  11.702  -7.110  1.00  0.00     0.066 A 
ATOM     74  C   UNL     1     -12.846  13.836  -8.677  1.00  0.00     0.162 A 
ATOM     75  C   UNL     1     -12.588  11.554  -7.862  1.00  0.00     0.162 A 
ATOM     76  C   UNL     1     -12.114  12.640  -8.640  1.00  0.00     0.200 A 
BRANCH  74  77
ATOM     77  O   UNL     1     -12.382  14.900  -9.451  1.00  0.00    -0.504 OA
ATOM     78  H   UNL     1     -11.778  15.609  -9.064  1.00  0.00     0.293 HD
ENDBRANCH  74  77
BRANCH  75  79
ATOM     79  O   UNL     1     -11.940  10.316  -7.814  1.00  0.00    -0.504 OA
ATOM     80  H   UNL     1     -11.978   9.689  -7.026  1.00  0.00     0.293 HD
ENDBRANCH  75  79
BRANCH  76  81
ATOM     81  O   UNL     1     -10.927  12.571  -9.372  1.00  0.00    -0.502 OA
ATOM     82  H   UNL     1     -10.725  11.843 -10.034  1.00  0.00     0.293 HD
ENDBRANCH  76  81
ENDBRANCH  69  71
ENDBRANCH  68  69
ENDBRANCH   4  68
TORSDOF 31
ENDMDL
MODEL 7
REMARK VINA RESULT:    -2.199      2.241      9.319
REMARK INTER + INTRA:          -4.071
REMARK INTER:                  -8.852
REMARK INTRA:                   4.781
REMARK UNBOUND:                 1.149
REMARK SMILES O=C(OC[C@@H]1O[C@@H](OC(=O)c2cc(O)c(O)c(O)c2)[C@@H](OC(=O)c2cc(O)c(O)c(O)c2)[C@H](OC(=O)c2cc(O)c(O)c(O)c2)[C@@H]1OC(=O)c1cc(O)c(O)c(O)c1)c1cc(O)c(O)c(O)c1
REMARK SMILES IDX 5 1 46 2 33 3 20 4 7 5 6 6 4 7 3 8 2 9 1 10 59 11 60 12
REMARK SMILES IDX 61 13 67 14 63 15 65 16 62 17 64 19 66 21 47 23 48 24 49 25
REMARK SMILES IDX 50 26 58 27 51 28 56 29 52 30 54 31 57 32 53 34 55 36 34 38
REMARK SMILES IDX 35 39 36 40 37 41 45 42 38 43 43 44 39 45 41 46 44 47 40 49
REMARK SMILES IDX 42 51 8 53 9 54 10 55 11 56 19 57 12 58 17 59 13 60 15 61
REMARK SMILES IDX 18 62 14 64 16 66 21 68 22 69 23 70 24 71 32 72 25 73 30 74
REMARK SMILES IDX 26 75 28 76 31 77 27 79 29 81
REMARK H PARENT 62 18 64 20 66 22 57 33 53 35 55 37 44 48 40 50 42 52 18 63
REMARK H PARENT 14 65 16 67 31 78 27 80 29 82
REMARK Flexibility Score: inf
ROOT
ATOM      1  C   UNL     1     -14.007   8.156  -8.907  1.00  0.00     0.205 C 
ATOM      2  C   UNL     1     -13.606   9.585  -9.335  1.00  0.00     0.254 C 
ATOM      3  C   UNL     1     -14.545  10.600  -8.653  1.00  0.00     0.267 C 
ATOM      4  C   UNL     1     -16.014  10.223  -8.918  1.00  0.00     0.290 C 
ATOM      5  C   UNL     1     -16.253   8.744  -8.566  1.00  0.00     0.357 C 
ATOM      6  O   UNL     1     -15.357   7.893  -9.262  1.00  0.00    -0.329 OA
ENDROOT
BRANCH   1   7
ATOM      7  C   UNL     1     -13.098   7.105  -9.565  1.00  0.00     0.269 C 
BRANCH   7   8
ATOM      8  O   UNL     1     -13.082   5.902  -8.798  1.00  0.00    -0.459 OA
BRANCH   8   9
ATOM      9  C   UNL     1     -13.753   5.738  -7.581  1.00  0.00     0.338 C 
ATOM     10  O   UNL     1     -14.831   5.087  -7.533  1.00  0.00    -0.246 OA
BRANCH   9  11
ATOM     11  C   UNL     1     -13.171   6.304  -6.344  1.00  0.00     0.067 A 
ATOM     12  C   UNL     1     -12.831   7.662  -6.282  1.00  0.00     0.066 A 
ATOM     13  C   UNL     1     -12.266   8.205  -5.127  1.00  0.00     0.162 A 
ATOM     14  C   UNL     1     -12.947   5.493  -5.221  1.00  0.00     0.066 A 
ATOM     15  C   UNL     1     -12.030   7.390  -4.005  1.00  0.00     0.200 A 
ATOM     16  C   UNL     1     -12.384   6.019  -4.054  1.00  0.00     0.162 A 
BRANCH  13  17
ATOM     17  O   UNL     1     -11.926   9.560  -5.116  1.00  0.00    -0.504 OA
ATOM     18  H   UNL     1     -11.600  10.031  -4.281  1.00  0.00     0.293 HD
ENDBRANCH  13  17
BRANCH  15  19
ATOM     19  O   UNL     1     -11.443   7.968  -2.875  1.00  0.00    -0.502 OA
ATOM     20  H   UNL     1     -11.059   7.441  -2.106  1.00  0.00     0.293 HD
ENDBRANCH  15  19
BRANCH  16  21
ATOM     21  O   UNL     1     -12.203   5.152  -2.972  1.00  0.00    -0.504 OA
ATOM     22  H   UNL     1     -11.433   5.204  -2.325  1.00  0.00     0.293 HD
ENDBRANCH  16  21
ENDBRANCH   9  11
ENDBRANCH   8   9
ENDBRANCH   7   8
ENDBRANCH   1   7
BRANCH   2  23
ATOM     23  O   UNL     1     -13.713   9.704 -10.754  1.00  0.00    -0.452 OA
BRANCH  23  24
ATOM     24  C   UNL     1     -12.771  10.359 -11.559  1.00  0.00     0.338 C 
ATOM     25  O   UNL     1     -11.584  10.510 -11.156  1.00  0.00    -0.246 OA
BRANCH  24  26
ATOM     26  C   UNL     1     -13.174  10.869 -12.885  1.00  0.00     0.067 A 
ATOM     27  C   UNL     1     -12.804  10.189 -14.058  1.00  0.00     0.066 A 
ATOM     28  C   UNL     1     -13.943  12.038 -12.985  1.00  0.00     0.066 A 
ATOM     29  C   UNL     1     -13.195  10.668 -15.312  1.00  0.00     0.162 A 
ATOM     30  C   UNL     1     -14.333  12.528 -14.234  1.00  0.00     0.162 A 
ATOM     31  C   UNL     1     -13.958  11.845 -15.405  1.00  0.00     0.200 A 
BRANCH  29  32
ATOM     32  O   UNL     1     -12.833   9.951 -16.453  1.00  0.00    -0.504 OA
ATOM     33  H   UNL     1     -12.024   9.342 -16.469  1.00  0.00     0.293 HD
ENDBRANCH  29  32
BRANCH  30  34
ATOM     34  O   UNL     1     -15.088  13.699 -14.322  1.00  0.00    -0.504 OA
ATOM     35  H   UNL     1     -15.182  14.199 -15.200  1.00  0.00     0.293 HD
ENDBRANCH  30  34
BRANCH  31  36
ATOM     36  O   UNL     1     -14.344  12.318 -16.660  1.00  0.00    -0.502 OA
ATOM     37  H   UNL     1     -14.823  13.205 -16.780  1.00  0.00     0.293 HD
ENDBRANCH  31  36
ENDBRANCH  24  26
ENDBRANCH  23  24
ENDBRANCH   2  23
BRANCH   3  38
ATOM     38  O   UNL     1     -14.308  11.919  -9.144  1.00  0.00    -0.450 OA
BRANCH  38  39
ATOM     39  C   UNL     1     -13.233  12.727  -8.758  1.00  0.00     0.338 C 
ATOM     40  O   UNL     1     -13.087  13.052  -7.548  1.00  0.00    -0.246 OA
BRANCH  39  41
ATOM     41  C   UNL     1     -12.273  13.205  -9.782  1.00  0.00     0.067 A 
ATOM     42  C   UNL     1     -10.886  13.143  -9.565  1.00  0.00     0.066 A 
ATOM     43  C   UNL     1     -12.748  13.737 -10.990  1.00  0.00     0.066 A 
ATOM     44  C   UNL     1      -9.988  13.636 -10.522  1.00  0.00     0.162 A 
ATOM     45  C   UNL     1     -11.862  14.233 -11.951  1.00  0.00     0.162 A 
ATOM     46  C   UNL     1     -10.478  14.189 -11.718  1.00  0.00     0.200 A 
BRANCH  44  47
ATOM     47  O   UNL     1      -8.611  13.580 -10.291  1.00  0.00    -0.504 OA
ATOM     48  H   UNL     1      -8.168  14.127  -9.561  1.00  0.00     0.293 HD
ENDBRANCH  44  47
BRANCH  45  49
ATOM     49  O   UNL     1     -12.373  14.762 -13.136  1.00  0.00    -0.504 OA
ATOM     50  H   UNL     1     -11.888  14.667 -14.019  1.00  0.00     0.293 HD
ENDBRANCH  45  49
BRANCH  46  51
ATOM     51  O   UNL     1      -9.604  14.693 -12.681  1.00  0.00    -0.502 OA
ATOM     52  H   UNL     1      -8.812  14.163 -13.030  1.00  0.00     0.293 HD
ENDBRANCH  46  51
ENDBRANCH  39  41
ENDBRANCH  38  39
ENDBRANCH   3  38
BRANCH   5  53
ATOM     53  O   UNL     1     -16.155   8.535  -7.155  1.00  0.00    -0.428 OA
BRANCH  53  54
ATOM     54  C   UNL     1     -17.159   7.923  -6.394  1.00  0.00     0.340 C 
ATOM     55  O   UNL     1     -18.125   8.605  -5.955  1.00  0.00    -0.246 OA
BRANCH  54  56
ATOM     56  C   UNL     1     -17.061   6.479  -6.086  1.00  0.00     0.067 A 
ATOM     57  C   UNL     1     -17.555   5.529  -6.995  1.00  0.00     0.066 A 
ATOM     58  C   UNL     1     -16.464   6.042  -4.892  1.00  0.00     0.066 A 
ATOM     59  C   UNL     1     -17.464   4.159  -6.712  1.00  0.00     0.162 A 
ATOM     60  C   UNL     1     -16.363   4.674  -4.607  1.00  0.00     0.162 A 
ATOM     61  C   UNL     1     -16.870   3.728  -5.513  1.00  0.00     0.200 A 
BRANCH  59  62
ATOM     62  O   UNL     1     -17.961   3.223  -7.616  1.00  0.00    -0.504 OA
ATOM     63  H   UNL     1     -18.291   2.314  -7.313  1.00  0.00     0.293 HD
ENDBRANCH  59  62
BRANCH  60  64
ATOM     64  O   UNL     1     -15.770   4.264  -3.413  1.00  0.00    -0.504 OA
ATOM     65  H   UNL     1     -15.719   4.873  -2.604  1.00  0.00     0.293 HD
ENDBRANCH  60  64
BRANCH  61  66
ATOM     66  O   UNL     1     -16.773   2.368  -5.210  1.00  0.00    -0.502 OA
ATOM     67  H   UNL     1     -15.891   1.941  -4.930  1.00  0.00     0.293 HD
ENDBRANCH  61  66
ENDBRANCH  54  56
ENDBRANCH  53  54
ENDBRANCH   5  53
BRANCH   4  68
ATOM     68  O   UNL     1     -16.886  11.045  -8.136  1.00  0.00    -0.448 OA
BRANCH  68  69
ATOM     69  C   UNL     1     -17.035  10.914  -6.747  1.00  0.00     0.339 C 
ATOM     70  O   UNL     1     -18.106  10.454  -6.268  1.00  0.00    -0.246 OA
BRANCH  69  71
ATOM     71  C   UNL     1     -15.921  11.277  -5.845  1.00  0.00     0.067 A 
ATOM     72  C   UNL     1     -15.249  12.503  -5.997  1.00  0.00     0.066 A 
ATOM     73  C   UNL     1     -15.523  10.404  -4.821  1.00  0.00     0.066 A 
ATOM     74  C   UNL     1     -14.218  12.864  -5.118  1.00  0.00     0.162 A 
ATOM     75  C   UNL     1     -14.484  10.744  -3.945  1.00  0.00     0.162 A 
ATOM     76  C   UNL     1     -13.837  11.998  -4.083  1.00  0.00     0.200 A 
BRANCH  74  77
ATOM     77  O   UNL     1     -13.572  14.093  -5.256  1.00  0.00    -0.504 OA
ATOM     78  H   UNL     1     -12.725  14.302  -4.751  1.00  0.00     0.293 HD
ENDBRANCH  74  77
BRANCH  75  79
ATOM     79  O   UNL     1     -14.127   9.808  -2.970  1.00  0.00    -0.504 OA
ATOM     80  H   UNL     1     -14.356   8.828  -3.016  1.00  0.00     0.293 HD
ENDBRANCH  75  79
BRANCH  76  81
ATOM     81  O   UNL     1     -12.828  12.416  -3.212  1.00  0.00    -0.502 OA
ATOM     82  H   UNL     1     -11.870  12.124  -3.292  1.00  0.00     0.293 HD
ENDBRANCH  76  81
ENDBRANCH  69  71
ENDBRANCH  68  69
ENDBRANCH   4  68
TORSDOF 31
ENDMDL
MODEL 8
REMARK VINA RESULT:    -1.602      1.503      6.410
REMARK INTER + INTRA:          -2.654
REMARK INTER:                  -6.916
REMARK INTRA:                   4.262
REMARK UNBOUND:                 1.149
REMARK SMILES O=C(OC[C@@H]1O[C@@H](OC(=O)c2cc(O)c(O)c(O)c2)[C@@H](OC(=O)c2cc(O)c(O)c(O)c2)[C@H](OC(=O)c2cc(O)c(O)c(O)c2)[C@@H]1OC(=O)c1cc(O)c(O)c(O)c1)c1cc(O)c(O)c(O)c1
REMARK SMILES IDX 5 1 46 2 33 3 20 4 7 5 6 6 4 7 3 8 2 9 1 10 59 11 60 12
REMARK SMILES IDX 61 13 67 14 63 15 65 16 62 17 64 19 66 21 47 23 48 24 49 25
REMARK SMILES IDX 50 26 58 27 51 28 56 29 52 30 54 31 57 32 53 34 55 36 34 38
REMARK SMILES IDX 35 39 36 40 37 41 45 42 38 43 43 44 39 45 41 46 44 47 40 49
REMARK SMILES IDX 42 51 8 53 9 54 10 55 11 56 19 57 12 58 17 59 13 60 15 61
REMARK SMILES IDX 18 62 14 64 16 66 21 68 22 69 23 70 24 71 32 72 25 73 30 74
REMARK SMILES IDX 26 75 28 76 31 77 27 79 29 81
REMARK H PARENT 62 18 64 20 66 22 57 33 53 35 55 37 44 48 40 50 42 52 18 63
REMARK H PARENT 14 65 16 67 31 78 27 80 29 82
REMARK Flexibility Score: inf
ROOT
ATOM      1  C   UNL     1     -13.140   8.837  -9.289  1.00  0.00     0.205 C 
ATOM      2  C   UNL     1     -13.247   9.431  -7.867  1.00  0.00     0.254 C 
ATOM      3  C   UNL     1     -12.941   8.327  -6.834  1.00  0.00     0.267 C 
ATOM      4  C   UNL     1     -13.825   7.095  -7.100  1.00  0.00     0.290 C 
ATOM      5  C   UNL     1     -13.724   6.678  -8.578  1.00  0.00     0.357 C 
ATOM      6  O   UNL     1     -14.047   7.754  -9.444  1.00  0.00    -0.329 OA
ENDROOT
BRANCH   1   7
ATOM      7  C   UNL     1     -13.439   9.902 -10.358  1.00  0.00     0.269 C 
BRANCH   7   8
ATOM      8  O   UNL     1     -12.353  10.820 -10.470  1.00  0.00    -0.459 OA
BRANCH   8   9
ATOM      9  C   UNL     1     -12.507  12.201 -10.638  1.00  0.00     0.338 C 
ATOM     10  O   UNL     1     -12.699  12.945  -9.638  1.00  0.00    -0.246 OA
BRANCH   9  11
ATOM     11  C   UNL     1     -12.409  12.788 -11.993  1.00  0.00     0.067 A 
ATOM     12  C   UNL     1     -11.557  13.875 -12.230  1.00  0.00     0.066 A 
ATOM     13  C   UNL     1     -11.468  14.448 -13.500  1.00  0.00     0.162 A 
ATOM     14  C   UNL     1     -13.168  12.272 -13.054  1.00  0.00     0.066 A 
ATOM     15  C   UNL     1     -12.237  13.938 -14.562  1.00  0.00     0.200 A 
ATOM     16  C   UNL     1     -13.091  12.830 -14.334  1.00  0.00     0.162 A 
BRANCH  13  17
ATOM     17  O   UNL     1     -10.619  15.541 -13.687  1.00  0.00    -0.504 OA
ATOM     18  H   UNL     1      -9.619  15.436 -13.816  1.00  0.00     0.293 HD
ENDBRANCH  13  17
BRANCH  15  19
ATOM     19  O   UNL     1     -12.135  14.554 -15.813  1.00  0.00    -0.502 OA
ATOM     20  H   UNL     1     -11.573  15.371 -15.996  1.00  0.00     0.293 HD
ENDBRANCH  15  19
BRANCH  16  21
ATOM     21  O   UNL     1     -13.867  12.254 -15.343  1.00  0.00    -0.504 OA
ATOM     22  H   UNL     1     -14.117  12.716 -16.202  1.00  0.00     0.293 HD
ENDBRANCH  16  21
ENDBRANCH   9  11
ENDBRANCH   8   9
ENDBRANCH   7   8
ENDBRANCH   1   7
BRANCH   2  23
ATOM     23  O   UNL     1     -14.566   9.935  -7.660  1.00  0.00    -0.452 OA
BRANCH  23  24
ATOM     24  C   UNL     1     -15.726   9.323  -8.155  1.00  0.00     0.338 C 
ATOM     25  O   UNL     1     -16.230   9.702  -9.248  1.00  0.00    -0.246 OA
BRANCH  24  26
ATOM     26  C   UNL     1     -16.354   8.227  -7.390  1.00  0.00     0.067 A 
ATOM     27  C   UNL     1     -16.884   7.104  -8.049  1.00  0.00     0.066 A 
ATOM     28  C   UNL     1     -16.418   8.293  -5.990  1.00  0.00     0.066 A 
ATOM     29  C   UNL     1     -17.469   6.063  -7.323  1.00  0.00     0.162 A 
ATOM     30  C   UNL     1     -17.008   7.260  -5.256  1.00  0.00     0.162 A 
ATOM     31  C   UNL     1     -17.538   6.140  -5.921  1.00  0.00     0.200 A 
BRANCH  29  32
ATOM     32  O   UNL     1     -17.959   4.951  -8.008  1.00  0.00    -0.504 OA
ATOM     33  H   UNL     1     -18.855   4.535  -7.782  1.00  0.00     0.293 HD
ENDBRANCH  29  32
BRANCH  30  34
ATOM     34  O   UNL     1     -17.076   7.342  -3.864  1.00  0.00    -0.504 OA
ATOM     35  H   UNL     1     -17.287   8.220  -3.399  1.00  0.00     0.293 HD
ENDBRANCH  30  34
BRANCH  31  36
ATOM     36  O   UNL     1     -18.125   5.097  -5.202  1.00  0.00    -0.502 OA
ATOM     37  H   UNL     1     -17.575   4.355  -4.778  1.00  0.00     0.293 HD
ENDBRANCH  31  36
ENDBRANCH  24  26
ENDBRANCH  23  24
ENDBRANCH   2  23
BRANCH   3  38
ATOM     38  O   UNL     1     -13.182   8.795  -5.507  1.00  0.00    -0.450 OA
BRANCH  38  39
ATOM     39  C   UNL     1     -12.995  10.116  -5.086  1.00  0.00     0.338 C 
ATOM     40  O   UNL     1     -11.955  10.435  -4.447  1.00  0.00    -0.246 OA
BRANCH  39  41
ATOM     41  C   UNL     1     -14.030  11.132  -5.388  1.00  0.00     0.067 A 
ATOM     42  C   UNL     1     -15.344  10.998  -4.908  1.00  0.00     0.066 A 
ATOM     43  C   UNL     1     -13.705  12.249  -6.174  1.00  0.00     0.066 A 
ATOM     44  C   UNL     1     -16.326  11.945  -5.234  1.00  0.00     0.162 A 
ATOM     45  C   UNL     1     -14.676  13.197  -6.506  1.00  0.00     0.162 A 
ATOM     46  C   UNL     1     -15.993  13.045  -6.042  1.00  0.00     0.200 A 
BRANCH  44  47
ATOM     47  O   UNL     1     -17.633  11.796  -4.760  1.00  0.00    -0.504 OA
ATOM     48  H   UNL     1     -18.369  11.399  -5.335  1.00  0.00     0.293 HD
ENDBRANCH  44  47
BRANCH  45  49
ATOM     49  O   UNL     1     -14.316  14.289  -7.296  1.00  0.00    -0.504 OA
ATOM     50  H   UNL     1     -14.584  15.235  -7.057  1.00  0.00     0.293 HD
ENDBRANCH  45  49
BRANCH  46  51
ATOM     51  O   UNL     1     -16.956  13.995  -6.386  1.00  0.00    -0.502 OA
ATOM     52  H   UNL     1     -16.723  14.963  -6.577  1.00  0.00     0.293 HD
ENDBRANCH  46  51
ENDBRANCH  39  41
ENDBRANCH  38  39
ENDBRANCH   3  38
BRANCH   5  53
ATOM     53  O   UNL     1     -12.422   6.165  -8.874  1.00  0.00    -0.428 OA
BRANCH  53  54
ATOM     54  C   UNL     1     -12.066   4.822  -8.704  1.00  0.00     0.340 C 
ATOM     55  O   UNL     1     -12.629   4.124  -7.817  1.00  0.00    -0.246 OA
BRANCH  54  56
ATOM     56  C   UNL     1     -11.004   4.237  -9.554  1.00  0.00     0.067 A 
ATOM     57  C   UNL     1      -9.735   3.971  -9.013  1.00  0.00     0.066 A 
ATOM     58  C   UNL     1     -11.255   3.931 -10.901  1.00  0.00     0.066 A 
ATOM     59  C   UNL     1      -8.724   3.415  -9.810  1.00  0.00     0.162 A 
ATOM     60  C   UNL     1     -10.251   3.368 -11.701  1.00  0.00     0.162 A 
ATOM     61  C   UNL     1      -8.980   3.116 -11.159  1.00  0.00     0.200 A 
BRANCH  59  62
ATOM     62  O   UNL     1      -7.467   3.159  -9.268  1.00  0.00    -0.504 OA
ATOM     63  H   UNL     1      -7.345   2.943  -8.286  1.00  0.00     0.293 HD
ENDBRANCH  59  62
BRANCH  60  64
ATOM     64  O   UNL     1     -10.522   3.077 -13.037  1.00  0.00    -0.504 OA
ATOM     65  H   UNL     1      -9.828   3.203 -13.765  1.00  0.00     0.293 HD
ENDBRANCH  60  64
BRANCH  61  66
ATOM     66  O   UNL     1      -7.986   2.566 -11.972  1.00  0.00    -0.502 OA
ATOM     67  H   UNL     1      -7.919   1.561 -12.134  1.00  0.00     0.293 HD
ENDBRANCH  61  66
ENDBRANCH  54  56
ENDBRANCH  53  54
ENDBRANCH   5  53
BRANCH   4  68
ATOM     68  O   UNL     1     -13.416   6.004  -6.269  1.00  0.00    -0.448 OA
BRANCH  68  69
ATOM     69  C   UNL     1     -14.127   5.585  -5.135  1.00  0.00     0.339 C 
ATOM     70  O   UNL     1     -14.043   6.238  -4.060  1.00  0.00    -0.246 OA
BRANCH  69  71
ATOM     71  C   UNL     1     -15.007   4.399  -5.208  1.00  0.00     0.067 A 
ATOM     72  C   UNL     1     -15.381   3.862  -6.453  1.00  0.00     0.066 A 
ATOM     73  C   UNL     1     -15.478   3.791  -4.034  1.00  0.00     0.066 A 
ATOM     74  C   UNL     1     -16.184   2.715  -6.522  1.00  0.00     0.162 A 
ATOM     75  C   UNL     1     -16.296   2.654  -4.088  1.00  0.00     0.162 A 
ATOM     76  C   UNL     1     -16.637   2.098  -5.346  1.00  0.00     0.200 A 
BRANCH  74  77
ATOM     77  O   UNL     1     -16.530   2.170  -7.758  1.00  0.00    -0.504 OA
ATOM     78  H   UNL     1     -17.333   2.499  -8.273  1.00  0.00     0.293 HD
ENDBRANCH  74  77
BRANCH  75  79
ATOM     79  O   UNL     1     -16.749   2.124  -2.876  1.00  0.00    -0.504 OA
ATOM     80  H   UNL     1     -17.447   1.403  -2.800  1.00  0.00     0.293 HD
ENDBRANCH  75  79
BRANCH  76  81
ATOM     81  O   UNL     1     -17.406   0.939  -5.465  1.00  0.00    -0.502 OA
ATOM     82  H   UNL     1     -18.227   0.759  -4.914  1.00  0.00     0.293 HD
ENDBRANCH  76  81
ENDBRANCH  69  71
ENDBRANCH  68  69
ENDBRANCH   4  68
TORSDOF 31
ENDMDL
MODEL 9
REMARK VINA RESULT:    -1.551      1.770      6.991
REMARK INTER + INTRA:          -2.533
REMARK INTER:                  -1.286
REMARK INTRA:                  -1.247
REMARK UNBOUND:                 1.149
REMARK SMILES O=C(OC[C@@H]1O[C@@H](OC(=O)c2cc(O)c(O)c(O)c2)[C@@H](OC(=O)c2cc(O)c(O)c(O)c2)[C@H](OC(=O)c2cc(O)c(O)c(O)c2)[C@@H]1OC(=O)c1cc(O)c(O)c(O)c1)c1cc(O)c(O)c(O)c1
REMARK SMILES IDX 5 1 46 2 33 3 20 4 7 5 6 6 4 7 3 8 2 9 1 10 59 11 60 12
REMARK SMILES IDX 61 13 67 14 63 15 65 16 62 17 64 19 66 21 47 23 48 24 49 25
REMARK SMILES IDX 50 26 58 27 51 28 56 29 52 30 54 31 57 32 53 34 55 36 34 38
REMARK SMILES IDX 35 39 36 40 37 41 45 42 38 43 43 44 39 45 41 46 44 47 40 49
REMARK SMILES IDX 42 51 8 53 9 54 10 55 11 56 19 57 12 58 17 59 13 60 15 61
REMARK SMILES IDX 18 62 14 64 16 66 21 68 22 69 23 70 24 71 32 72 25 73 30 74
REMARK SMILES IDX 26 75 28 76 31 77 27 79 29 81
REMARK H PARENT 62 18 64 20 66 22 57 33 53 35 55 37 44 48 40 50 42 52 18 63
REMARK H PARENT 14 65 16 67 31 78 27 80 29 82
REMARK Flexibility Score: inf
ROOT
ATOM      1  C   UNL     1     -12.527   7.259  -9.881  1.00  0.00     0.205 C 
ATOM      2  C   UNL     1     -13.747   6.532  -9.273  1.00  0.00     0.254 C 
ATOM      3  C   UNL     1     -15.017   7.364  -9.542  1.00  0.00     0.267 C 
ATOM      4  C   UNL     1     -14.810   8.813  -9.066  1.00  0.00     0.290 C 
ATOM      5  C   UNL     1     -13.501   9.380  -9.643  1.00  0.00     0.357 C 
ATOM      6  O   UNL     1     -12.392   8.556  -9.320  1.00  0.00    -0.329 OA
ENDROOT
BRANCH   1   7
ATOM      7  C   UNL     1     -11.232   6.466  -9.636  1.00  0.00     0.269 C 
BRANCH   7   8
ATOM      8  O   UNL     1     -11.416   5.089  -9.959  1.00  0.00    -0.459 OA
BRANCH   8   9
ATOM      9  C   UNL     1     -10.710   4.416 -10.963  1.00  0.00     0.338 C 
ATOM     10  O   UNL     1     -11.173   4.356 -12.134  1.00  0.00    -0.246 OA
BRANCH   9  11
ATOM     11  C   UNL     1      -9.399   3.805 -10.650  1.00  0.00     0.067 A 
ATOM     12  C   UNL     1      -8.515   4.445  -9.770  1.00  0.00     0.066 A 
ATOM     13  C   UNL     1      -7.269   3.888  -9.479  1.00  0.00     0.162 A 
ATOM     14  C   UNL     1      -9.020   2.586 -11.231  1.00  0.00     0.066 A 
ATOM     15  C   UNL     1      -6.883   2.671 -10.071  1.00  0.00     0.200 A 
ATOM     16  C   UNL     1      -7.776   2.010 -10.951  1.00  0.00     0.162 A 
BRANCH  13  17
ATOM     17  O   UNL     1      -6.413   4.568  -8.610  1.00  0.00    -0.504 OA
ATOM     18  H   UNL     1      -6.690   4.830  -7.672  1.00  0.00     0.293 HD
ENDBRANCH  13  17
BRANCH  15  19
ATOM     19  O   UNL     1      -5.618   2.157  -9.770  1.00  0.00    -0.502 OA
ATOM     20  H   UNL     1      -5.245   1.308 -10.165  1.00  0.00     0.293 HD
ENDBRANCH  15  19
BRANCH  16  21
ATOM     21  O   UNL     1      -7.474   0.788 -11.558  1.00  0.00    -0.504 OA
ATOM     22  H   UNL     1      -6.778   0.666 -12.275  1.00  0.00     0.293 HD
ENDBRANCH  16  21
ENDBRANCH   9  11
ENDBRANCH   8   9
ENDBRANCH   7   8
ENDBRANCH   1   7
BRANCH   2  23
ATOM     23  O   UNL     1     -13.557   6.380  -7.866  1.00  0.00    -0.452 OA
BRANCH  23  24
ATOM     24  C   UNL     1     -13.529   5.142  -7.209  1.00  0.00     0.338 C 
ATOM     25  O   UNL     1     -12.521   4.390  -7.309  1.00  0.00    -0.246 OA
BRANCH  24  26
ATOM     26  C   UNL     1     -14.688   4.725  -6.393  1.00  0.00     0.067 A 
ATOM     27  C   UNL     1     -15.763   4.032  -6.977  1.00  0.00     0.066 A 
ATOM     28  C   UNL     1     -14.721   5.008  -5.020  1.00  0.00     0.066 A 
ATOM     29  C   UNL     1     -16.855   3.629  -6.203  1.00  0.00     0.162 A 
ATOM     30  C   UNL     1     -15.812   4.615  -4.239  1.00  0.00     0.162 A 
ATOM     31  C   UNL     1     -16.885   3.925  -4.829  1.00  0.00     0.200 A 
BRANCH  29  32
ATOM     32  O   UNL     1     -17.891   2.918  -6.810  1.00  0.00    -0.504 OA
ATOM     33  H   UNL     1     -18.842   2.959  -6.464  1.00  0.00     0.293 HD
ENDBRANCH  29  32
BRANCH  30  34
ATOM     34  O   UNL     1     -15.839   4.914  -2.876  1.00  0.00    -0.504 OA
ATOM     35  H   UNL     1     -16.308   5.745  -2.529  1.00  0.00     0.293 HD
ENDBRANCH  30  34
BRANCH  31  36
ATOM     36  O   UNL     1     -17.979   3.520  -4.062  1.00  0.00    -0.502 OA
ATOM     37  H   UNL     1     -18.904   3.392  -4.463  1.00  0.00     0.293 HD
ENDBRANCH  31  36
ENDBRANCH  24  26
ENDBRANCH  23  24
ENDBRANCH   2  23
BRANCH   3  38
ATOM     38  O   UNL     1     -16.142   6.807  -8.862  1.00  0.00    -0.450 OA
BRANCH  38  39
ATOM     39  C   UNL     1     -16.954   7.510  -7.966  1.00  0.00     0.338 C 
ATOM     40  O   UNL     1     -18.124   7.841  -8.299  1.00  0.00    -0.246 OA
BRANCH  39  41
ATOM     41  C   UNL     1     -16.426   7.868  -6.629  1.00  0.00     0.067 A 
ATOM     42  C   UNL     1     -17.257   7.871  -5.495  1.00  0.00     0.066 A 
ATOM     43  C   UNL     1     -15.076   8.221  -6.482  1.00  0.00     0.066 A 
ATOM     44  C   UNL     1     -16.757   8.252  -4.241  1.00  0.00     0.162 A 
ATOM     45  C   UNL     1     -14.568   8.604  -5.237  1.00  0.00     0.162 A 
ATOM     46  C   UNL     1     -15.409   8.627  -4.112  1.00  0.00     0.200 A 
BRANCH  44  47
ATOM     47  O   UNL     1     -17.595   8.262  -3.122  1.00  0.00    -0.504 OA
ATOM     48  H   UNL     1     -18.392   8.887  -3.056  1.00  0.00     0.293 HD
ENDBRANCH  44  47
BRANCH  45  49
ATOM     49  O   UNL     1     -13.222   8.956  -5.133  1.00  0.00    -0.504 OA
ATOM     50  H   UNL     1     -12.898   9.647  -4.469  1.00  0.00     0.293 HD
ENDBRANCH  45  49
BRANCH  46  51
ATOM     51  O   UNL     1     -14.892   9.018  -2.877  1.00  0.00    -0.502 OA
ATOM     52  H   UNL     1     -15.320   9.743  -2.312  1.00  0.00     0.293 HD
ENDBRANCH  46  51
ENDBRANCH  39  41
ENDBRANCH  38  39
ENDBRANCH   3  38
BRANCH   5  53
ATOM     53  O   UNL     1     -13.603   9.556 -11.058  1.00  0.00    -0.428 OA
BRANCH  53  54
ATOM     54  C   UNL     1     -13.946  10.773 -11.661  1.00  0.00     0.340 C 
ATOM     55  O   UNL     1     -15.101  10.939 -12.141  1.00  0.00    -0.246 OA
BRANCH  54  56
ATOM     56  C   UNL     1     -12.934  11.849 -11.757  1.00  0.00     0.067 A 
ATOM     57  C   UNL     1     -12.801  12.587 -12.944  1.00  0.00     0.066 A 
ATOM     58  C   UNL     1     -12.108  12.151 -10.662  1.00  0.00     0.066 A 
ATOM     59  C   UNL     1     -11.847  13.610 -13.042  1.00  0.00     0.162 A 
ATOM     60  C   UNL     1     -11.158  13.177 -10.752  1.00  0.00     0.162 A 
ATOM     61  C   UNL     1     -11.019  13.905 -11.945  1.00  0.00     0.200 A 
BRANCH  59  62
ATOM     62  O   UNL     1     -11.717  14.335 -14.224  1.00  0.00    -0.504 OA
ATOM     63  H   UNL     1     -11.319  13.924 -15.060  1.00  0.00     0.293 HD
ENDBRANCH  59  62
BRANCH  60  64
ATOM     64  O   UNL     1     -10.346  13.457  -9.653  1.00  0.00    -0.504 OA
ATOM     65  H   UNL     1     -10.660  14.047  -8.891  1.00  0.00     0.293 HD
ENDBRANCH  60  64
BRANCH  61  66
ATOM     66  O   UNL     1     -10.059  14.917 -12.023  1.00  0.00    -0.502 OA
ATOM     67  H   UNL     1     -10.319  15.899 -12.106  1.00  0.00     0.293 HD
ENDBRANCH  61  66
ENDBRANCH  54  56
ENDBRANCH  53  54
ENDBRANCH   5  53
BRANCH   4  68
ATOM     68  O   UNL     1     -15.907   9.633  -9.482  1.00  0.00    -0.448 OA
BRANCH  68  69
ATOM     69  C   UNL     1     -16.524  10.582  -8.653  1.00  0.00     0.339 C 
ATOM     70  O   UNL     1     -17.781  10.672  -8.623  1.00  0.00    -0.246 OA
BRANCH  69  71
ATOM     71  C   UNL     1     -15.702  11.451  -7.784  1.00  0.00     0.067 A 
ATOM     72  C   UNL     1     -14.788  12.362  -8.342  1.00  0.00     0.066 A 
ATOM     73  C   UNL     1     -15.828  11.380  -6.388  1.00  0.00     0.066 A 
ATOM     74  C   UNL     1     -14.036  13.213  -7.519  1.00  0.00     0.162 A 
ATOM     75  C   UNL     1     -15.071  12.212  -5.552  1.00  0.00     0.162 A 
ATOM     76  C   UNL     1     -14.179  13.153  -6.125  1.00  0.00     0.200 A 
BRANCH  74  77
ATOM     77  O   UNL     1     -13.151  14.133  -8.078  1.00  0.00    -0.504 OA
ATOM     78  H   UNL     1     -12.654  13.934  -8.934  1.00  0.00     0.293 HD
ENDBRANCH  74  77
BRANCH  75  79
ATOM     79  O   UNL     1     -15.231  12.061  -4.171  1.00  0.00    -0.504 OA
ATOM     80  H   UNL     1     -15.016  11.215  -3.667  1.00  0.00     0.293 HD
ENDBRANCH  75  79
BRANCH  76  81
ATOM     81  O   UNL     1     -13.435  14.043  -5.348  1.00  0.00    -0.502 OA
ATOM     82  H   UNL     1     -13.494  15.043  -5.440  1.00  0.00     0.293 HD
ENDBRANCH  76  81
ENDBRANCH  69  71
ENDBRANCH  68  69
ENDBRANCH   4  68
TORSDOF 31
ENDMDL
