MODEL 1
REMARK VINA RESULT:    -0.302      0.000      0.000
REMARK INTER + INTRA:           0.021
REMARK INTER:                  -0.372
REMARK INTRA:                   0.393
REMARK UNBOUND:                 0.393
REMARK SMILES Oc1cc(O)c2cc(O)c(-c3cc(O)c(O)c(O)c3)[o+]c2c1
REMARK SMILES IDX 10 1 20 2 21 3 22 4 2 5 3 6 4 7 6 8 7 9 8 10 11 11 12 12
REMARK SMILES IDX 13 13 19 14 15 15 17 16 14 17 16 19 18 21 9 23 1 25 5 27
REMARK H PARENT 14 18 16 20 18 22 9 24 1 26 5 28
REMARK Flexibility Score: inf
ROOT
ATOM      1  C   UNL     1      -1.689  -0.955   8.013  1.00  0.00     0.402 A 
ATOM      2  O   UNL     1      -0.568  -1.671   8.030  1.00  0.00    -0.202 OA
ATOM      3  C   UNL     1      -0.551  -3.000   8.050  1.00  0.00     0.368 A 
ATOM      4  C   UNL     1       0.678  -3.664   8.070  1.00  0.00     0.162 A 
ATOM      5  C   UNL     1       0.726  -5.058   8.094  1.00  0.00     0.128 A 
ATOM      6  C   UNL     1      -0.463  -5.796   8.099  1.00  0.00     0.093 A 
ATOM      7  C   UNL     1      -1.708  -5.155   8.080  1.00  0.00     0.136 A 
ATOM      8  C   UNL     1      -1.761  -3.736   8.053  1.00  0.00     0.125 A 
ATOM      9  C   UNL     1      -2.962  -3.009   8.019  1.00  0.00     0.078 A 
ATOM     10  C   UNL     1      -2.934  -1.611   7.989  1.00  0.00     0.223 A 
ENDROOT
BRANCH   1  11
ATOM     11  C   UNL     1      -1.578   0.521   8.002  1.00  0.00     0.091 A 
ATOM     12  C   UNL     1      -0.309   1.117   8.063  1.00  0.00     0.068 A 
ATOM     13  C   UNL     1      -0.167   2.511   8.075  1.00  0.00     0.162 A 
ATOM     14  C   UNL     1      -2.716   1.341   7.989  1.00  0.00     0.068 A 
ATOM     15  C   UNL     1      -1.319   3.331   8.039  1.00  0.00     0.200 A 
ATOM     16  C   UNL     1      -2.589   2.736   8.002  1.00  0.00     0.162 A 
BRANCH  13  17
ATOM     17  O   UNL     1       1.129   3.031   8.124  1.00  0.00    -0.504 OA
ATOM     18  H   UNL     1       1.365   3.921   8.537  1.00  0.00     0.293 HD
ENDBRANCH  13  17
BRANCH  15  19
ATOM     19  O   UNL     1      -1.248   4.726   8.042  1.00  0.00    -0.502 OA
ATOM     20  H   UNL     1      -1.155   5.289   7.209  1.00  0.00     0.293 HD
ENDBRANCH  15  19
BRANCH  16  21
ATOM     21  O   UNL     1      -3.725   3.543   7.982  1.00  0.00    -0.504 OA
ATOM     22  H   UNL     1      -3.833   4.325   8.617  1.00  0.00     0.293 HD
ENDBRANCH  16  21
ENDBRANCH   1  11
BRANCH  10  23
ATOM     23  O   UNL     1      -4.124  -0.889   7.904  1.00  0.00    -0.500 OA
ATOM     24  H   UNL     1      -4.372  -0.188   8.594  1.00  0.00     0.294 HD
ENDBRANCH  10  23
BRANCH   5  25
ATOM     25  O   UNL     1       1.961  -5.702   8.113  1.00  0.00    -0.507 OA
ATOM     26  H   UNL     1       2.504  -5.781   8.965  1.00  0.00     0.293 HD
ENDBRANCH   5  25
BRANCH   7  27
ATOM     27  O   UNL     1      -2.848  -5.962   8.090  1.00  0.00    -0.507 OA
ATOM     28  H   UNL     1      -3.786  -5.627   7.925  1.00  0.00     0.293 HD
ENDBRANCH   7  27
TORSDOF 7
ENDMDL
MODEL 2
REMARK VINA RESULT:    -0.237      1.292      7.251
REMARK INTER + INTRA:           0.101
REMARK INTER:                  -0.359
REMARK INTRA:                   0.460
REMARK UNBOUND:                 0.393
REMARK SMILES Oc1cc(O)c2cc(O)c(-c3cc(O)c(O)c(O)c3)[o+]c2c1
REMARK SMILES IDX 10 1 20 2 21 3 22 4 2 5 3 6 4 7 6 8 7 9 8 10 11 11 12 12
REMARK SMILES IDX 13 13 19 14 15 15 17 16 14 17 16 19 18 21 9 23 1 25 5 27
REMARK H PARENT 14 18 16 20 18 22 9 24 1 26 5 28
REMARK Flexibility Score: inf
ROOT
ATOM      1  C   UNL     1      -1.700  -2.954   7.963  1.00  0.00     0.402 A 
ATOM      2  O   UNL     1      -0.803  -1.972   7.993  1.00  0.00    -0.202 OA
ATOM      3  C   UNL     1      -1.131  -0.685   8.033  1.00  0.00     0.368 A 
ATOM      4  C   UNL     1      -0.116   0.275   8.059  1.00  0.00     0.162 A 
ATOM      5  C   UNL     1      -0.432   1.633   8.099  1.00  0.00     0.128 A 
ATOM      6  C   UNL     1      -1.772   2.038   8.112  1.00  0.00     0.093 A 
ATOM      7  C   UNL     1      -2.807   1.096   8.086  1.00  0.00     0.136 A 
ATOM      8  C   UNL     1      -2.490  -0.288   8.048  1.00  0.00     0.125 A 
ATOM      9  C   UNL     1      -3.461  -1.302   8.034  1.00  0.00     0.078 A 
ATOM     10  C   UNL     1      -3.072  -2.645   8.001  1.00  0.00     0.223 A 
ENDROOT
BRANCH   1  11
ATOM     11  C   UNL     1      -1.209  -4.350   7.909  1.00  0.00     0.091 A 
ATOM     12  C   UNL     1      -2.130  -5.401   7.790  1.00  0.00     0.068 A 
ATOM     13  C   UNL     1      -1.703  -6.735   7.756  1.00  0.00     0.162 A 
ATOM     14  C   UNL     1       0.156  -4.651   8.031  1.00  0.00     0.068 A 
ATOM     15  C   UNL     1      -0.323  -7.028   7.856  1.00  0.00     0.200 A 
ATOM     16  C   UNL     1       0.598  -5.980   7.999  1.00  0.00     0.162 A 
BRANCH  13  17
ATOM     17  O   UNL     1      -2.678  -7.726   7.623  1.00  0.00    -0.504 OA
ATOM     18  H   UNL     1      -2.550  -8.687   7.904  1.00  0.00     0.293 HD
ENDBRANCH  13  17
BRANCH  15  19
ATOM     19  O   UNL     1       0.171  -8.335   7.822  1.00  0.00    -0.502 OA
ATOM     20  H   UNL     1      -0.264  -9.116   8.292  1.00  0.00     0.293 HD
ENDBRANCH  15  19
BRANCH  16  21
ATOM     21  O   UNL     1       1.956  -6.269   8.113  1.00  0.00    -0.504 OA
ATOM     22  H   UNL     1       2.334  -7.167   7.834  1.00  0.00     0.293 HD
ENDBRANCH  16  21
ENDBRANCH   1  11
BRANCH  10  23
ATOM     23  O   UNL     1      -4.035  -3.654   8.037  1.00  0.00    -0.500 OA
ATOM     24  H   UNL     1      -3.801  -4.620   7.837  1.00  0.00     0.294 HD
ENDBRANCH  10  23
BRANCH   5  25
ATOM     25  O   UNL     1       0.594   2.575   8.125  1.00  0.00    -0.507 OA
ATOM     26  H   UNL     1       0.425   3.536   8.399  1.00  0.00     0.293 HD
ENDBRANCH   5  25
BRANCH   7  27
ATOM     27  O   UNL     1      -4.118   1.579   8.097  1.00  0.00    -0.507 OA
ATOM     28  H   UNL     1      -4.740   1.560   7.302  1.00  0.00     0.293 HD
ENDBRANCH   7  27
TORSDOF 7
ENDMDL
MODEL 3
REMARK VINA RESULT:     0.011      0.154      1.801
REMARK INTER + INTRA:           0.407
REMARK INTER:                  -0.054
REMARK INTRA:                   0.460
REMARK UNBOUND:                 0.393
REMARK SMILES Oc1cc(O)c2cc(O)c(-c3cc(O)c(O)c(O)c3)[o+]c2c1
REMARK SMILES IDX 10 1 20 2 21 3 22 4 2 5 3 6 4 7 6 8 7 9 8 10 11 11 12 12
REMARK SMILES IDX 13 13 19 14 15 15 17 16 14 17 16 19 18 21 9 23 1 25 5 27
REMARK H PARENT 14 18 16 20 18 22 9 24 1 26 5 28
REMARK Flexibility Score: inf
ROOT
ATOM      1  C   UNL     1      -1.686  -0.953   7.996  1.00  0.00     0.402 A 
ATOM      2  O   UNL     1      -0.558  -1.657   8.015  1.00  0.00    -0.202 OA
ATOM      3  C   UNL     1      -0.527  -2.985   8.045  1.00  0.00     0.368 A 
ATOM      4  C   UNL     1       0.709  -3.637   8.066  1.00  0.00     0.162 A 
ATOM      5  C   UNL     1       0.771  -5.030   8.100  1.00  0.00     0.128 A 
ATOM      6  C   UNL     1      -0.410  -5.780   8.114  1.00  0.00     0.093 A 
ATOM      7  C   UNL     1      -1.661  -5.152   8.094  1.00  0.00     0.136 A 
ATOM      8  C   UNL     1      -1.729  -3.734   8.057  1.00  0.00     0.125 A 
ATOM      9  C   UNL     1      -2.937  -3.019   8.021  1.00  0.00     0.078 A 
ATOM     10  C   UNL     1      -2.924  -1.622   7.981  1.00  0.00     0.223 A 
ENDROOT
BRANCH   1  11
ATOM     11  C   UNL     1      -1.589   0.525   7.975  1.00  0.00     0.091 A 
ATOM     12  C   UNL     1      -2.752   1.289   7.803  1.00  0.00     0.068 A 
ATOM     13  C   UNL     1      -2.696   2.688   7.757  1.00  0.00     0.162 A 
ATOM     14  C   UNL     1      -0.351   1.178   8.065  1.00  0.00     0.068 A 
ATOM     15  C   UNL     1      -1.445   3.341   7.872  1.00  0.00     0.200 A 
ATOM     16  C   UNL     1      -0.279   2.576   8.020  1.00  0.00     0.162 A 
BRANCH  13  17
ATOM     17  O   UNL     1      -3.897   3.382   7.597  1.00  0.00    -0.504 OA
ATOM     18  H   UNL     1      -4.809   2.950   7.634  1.00  0.00     0.293 HD
ENDBRANCH  13  17
BRANCH  15  19
ATOM     19  O   UNL     1      -1.319   4.732   7.841  1.00  0.00    -0.502 OA
ATOM     20  H   UNL     1      -0.690   5.255   8.432  1.00  0.00     0.293 HD
ENDBRANCH  15  19
BRANCH  16  21
ATOM     21  O   UNL     1       0.955   3.218   8.117  1.00  0.00    -0.504 OA
ATOM     22  H   UNL     1       1.063   4.087   8.626  1.00  0.00     0.293 HD
ENDBRANCH  16  21
ENDBRANCH   1  11
BRANCH  10  23
ATOM     23  O   UNL     1      -4.122  -0.912   7.895  1.00  0.00    -0.500 OA
ATOM     24  H   UNL     1      -4.346  -0.343   7.087  1.00  0.00     0.294 HD
ENDBRANCH  10  23
BRANCH   5  25
ATOM     25  O   UNL     1       2.013  -5.661   8.120  1.00  0.00    -0.507 OA
ATOM     26  H   UNL     1       2.710  -5.438   8.821  1.00  0.00     0.293 HD
ENDBRANCH   5  25
BRANCH   7  27
ATOM     27  O   UNL     1      -2.794  -5.970   8.113  1.00  0.00    -0.507 OA
ATOM     28  H   UNL     1      -3.470  -6.026   7.366  1.00  0.00     0.293 HD
ENDBRANCH   7  27
TORSDOF 7
ENDMDL
MODEL 4
REMARK VINA RESULT:     2.658      1.744      2.779
REMARK INTER + INTRA:           3.673
REMARK INTER:                   3.289
REMARK INTRA:                   0.384
REMARK UNBOUND:                 0.393
REMARK SMILES Oc1cc(O)c2cc(O)c(-c3cc(O)c(O)c(O)c3)[o+]c2c1
REMARK SMILES IDX 10 1 20 2 21 3 22 4 2 5 3 6 4 7 6 8 7 9 8 10 11 11 12 12
REMARK SMILES IDX 13 13 19 14 15 15 17 16 14 17 16 19 18 21 9 23 1 25 5 27
REMARK H PARENT 14 18 16 20 18 22 9 24 1 26 5 28
REMARK Flexibility Score: inf
ROOT
ATOM      1  C   UNL     1      -0.915  -3.554   8.027  1.00  0.00     0.402 A 
ATOM      2  O   UNL     1       0.346  -3.978   8.051  1.00  0.00    -0.202 OA
ATOM      3  C   UNL     1       0.684  -5.263   8.058  1.00  0.00     0.368 A 
ATOM      4  C   UNL     1       2.037  -5.611   8.086  1.00  0.00     0.162 A 
ATOM      5  C   UNL     1       2.420  -6.952   8.097  1.00  0.00     0.128 A 
ATOM      6  C   UNL     1       1.445  -7.956   8.081  1.00  0.00     0.093 A 
ATOM      7  C   UNL     1       0.082  -7.634   8.052  1.00  0.00     0.136 A 
ATOM      8  C   UNL     1      -0.312  -6.270   8.039  1.00  0.00     0.125 A 
ATOM      9  C   UNL     1      -1.652  -5.854   7.998  1.00  0.00     0.078 A 
ATOM     10  C   UNL     1      -1.963  -4.491   7.981  1.00  0.00     0.223 A 
ENDROOT
BRANCH   1  11
ATOM     11  C   UNL     1      -1.163  -2.094   8.032  1.00  0.00     0.091 A 
ATOM     12  C   UNL     1      -0.076  -1.210   8.072  1.00  0.00     0.068 A 
ATOM     13  C   UNL     1      -0.273   0.177   8.098  1.00  0.00     0.162 A 
ATOM     14  C   UNL     1      -2.466  -1.574   8.056  1.00  0.00     0.068 A 
ATOM     15  C   UNL     1      -1.590   0.694   8.099  1.00  0.00     0.200 A 
ATOM     16  C   UNL     1      -2.679  -0.190   8.083  1.00  0.00     0.162 A 
BRANCH  13  17
ATOM     17  O   UNL     1       0.859   0.994   8.124  1.00  0.00    -0.504 OA
ATOM     18  H   UNL     1       0.962   1.835   7.574  1.00  0.00     0.293 HD
ENDBRANCH  13  17
BRANCH  15  19
ATOM     19  O   UNL     1      -1.859   2.065   8.118  1.00  0.00    -0.502 OA
ATOM     20  H   UNL     1      -2.183   2.588   7.317  1.00  0.00     0.293 HD
ENDBRANCH  15  19
BRANCH  16  21
ATOM     21  O   UNL     1      -3.977   0.318   8.099  1.00  0.00    -0.504 OA
ATOM     22  H   UNL     1      -4.712  -0.117   8.644  1.00  0.00     0.293 HD
ENDBRANCH  16  21
ENDBRANCH   1  11
BRANCH  10  23
ATOM     23  O   UNL     1      -3.292  -4.077   7.890  1.00  0.00    -0.500 OA
ATOM     24  H   UNL     1      -3.848  -4.251   7.060  1.00  0.00     0.294 HD
ENDBRANCH  10  23
BRANCH   5  25
ATOM     25  O   UNL     1       3.774  -7.279   8.125  1.00  0.00    -0.507 OA
ATOM     26  H   UNL     1       4.384  -7.077   7.341  1.00  0.00     0.293 HD
ENDBRANCH   5  25
BRANCH   7  27
ATOM     27  O   UNL     1      -0.829  -8.693   8.041  1.00  0.00    -0.507 OA
ATOM     28  H   UNL     1      -0.620  -9.622   7.705  1.00  0.00     0.293 HD
ENDBRANCH   7  27
TORSDOF 7
ENDMDL
