MODEL 1
REMARK VINA RESULT:    -4.353      0.000      0.000
REMARK INTER + INTRA:          -7.399
REMARK INTER:                  -6.643
REMARK INTRA:                  -0.756
REMARK UNBOUND:                -0.756
REMARK SMILES CC(=O)CCC=C(C)CCC=C(C)CCC=C(C)C
REMARK SMILES IDX 10 1 11 2 12 3 13 4 14 5 15 6 16 7 18 8 17 9 19 10 9 11 7 12
REMARK SMILES IDX 6 13 8 14 5 15 4 16 2 17 3 18 1 19
REMARK H PARENT
REMARK Flexibility Score: inf
ROOT
ATOM      1  C   UNL     1      57.170  -0.265  21.722  1.00  0.00     0.032 C 
ENDROOT
BRANCH   1   2
ATOM      2  C   UNL     1      56.501   0.988  22.234  1.00  0.00    -0.028 C 
ATOM      3  C   UNL     1      55.186   1.258  22.070  1.00  0.00    -0.077 C 
ATOM      4  C   UNL     1      54.651   2.559  22.608  1.00  0.00     0.039 C 
BRANCH   3   5
ATOM      5  C   UNL     1      54.230   0.298  21.381  1.00  0.00     0.034 C 
BRANCH   5   6
ATOM      6  C   UNL     1      52.885   0.959  21.047  1.00  0.00     0.032 C 
BRANCH   6   7
ATOM      7  C   UNL     1      51.939  -0.020  20.391  1.00  0.00    -0.028 C 
ATOM      8  C   UNL     1      51.162  -1.002  22.562  1.00  0.00     0.039 C 
ATOM      9  C   UNL     1      51.142  -0.885  21.056  1.00  0.00    -0.080 C 
ATOM     10  C   UNL     1      50.204  -1.753  20.257  1.00  0.00     0.039 C 
ENDBRANCH   6   7
ENDBRANCH   5   6
ENDBRANCH   3   5
ENDBRANCH   1   2
BRANCH   1  11
ATOM     11  C   UNL     1      56.870  -1.463  22.630  1.00  0.00     0.034 C 
BRANCH  11  12
ATOM     12  C   UNL     1      57.738  -1.432  23.870  1.00  0.00    -0.077 C 
ATOM     13  C   UNL     1      58.965  -2.001  23.825  1.00  0.00    -0.028 C 
ATOM     14  C   UNL     1      57.204  -0.784  25.125  1.00  0.00     0.039 C 
BRANCH  13  15
ATOM     15  C   UNL     1      59.951  -2.005  24.969  1.00  0.00     0.035 C 
BRANCH  15  16
ATOM     16  C   UNL     1      61.004  -0.898  24.816  1.00  0.00     0.079 C 
BRANCH  16  17
ATOM     17  C   UNL     1      62.401  -1.430  24.993  1.00  0.00     0.130 C 
ATOM     18  O   UNL     1      62.590  -2.636  25.051  1.00  0.00    -0.300 OA
ATOM     19  C   UNL     1      63.560  -0.488  25.123  1.00  0.00     0.087 C 
ENDBRANCH  16  17
ENDBRANCH  15  16
ENDBRANCH  13  15
ENDBRANCH  11  12
ENDBRANCH   1  11
TORSDOF 9
ENDMDL
MODEL 2
REMARK VINA RESULT:    -4.068     19.619     22.515
REMARK INTER + INTRA:          -6.964
REMARK INTER:                  -6.110
REMARK INTRA:                  -0.854
REMARK UNBOUND:                -0.756
REMARK SMILES CC(=O)CCC=C(C)CCC=C(C)CCC=C(C)C
REMARK SMILES IDX 10 1 11 2 12 3 13 4 14 5 15 6 16 7 18 8 17 9 19 10 9 11 7 12
REMARK SMILES IDX 6 13 8 14 5 15 4 16 2 17 3 18 1 19
REMARK H PARENT
REMARK Flexibility Score: inf
ROOT
ATOM      1  C   UNL     1      54.821 -16.106   8.454  1.00  0.00     0.032 C 
ENDROOT
BRANCH   1   2
ATOM      2  C   UNL     1      55.772 -14.940   8.574  1.00  0.00    -0.028 C 
ATOM      3  C   UNL     1      57.084 -15.068   8.872  1.00  0.00    -0.077 C 
ATOM      4  C   UNL     1      57.917 -13.817   8.986  1.00  0.00     0.039 C 
BRANCH   3   5
ATOM      5  C   UNL     1      57.752 -16.417   9.080  1.00  0.00     0.034 C 
BRANCH   5   6
ATOM      6  C   UNL     1      57.258 -17.119  10.353  1.00  0.00     0.032 C 
BRANCH   6   7
ATOM      7  C   UNL     1      58.128 -16.779  11.542  1.00  0.00    -0.028 C 
ATOM      8  C   UNL     1      56.224 -16.810  13.172  1.00  0.00     0.039 C 
ATOM      9  C   UNL     1      57.683 -16.664  12.813  1.00  0.00    -0.080 C 
ATOM     10  C   UNL     1      58.690 -16.384  13.900  1.00  0.00     0.039 C 
ENDBRANCH   6   7
ENDBRANCH   5   6
ENDBRANCH   3   5
ENDBRANCH   1   2
BRANCH   1  11
ATOM     11  C   UNL     1      54.981 -16.815   7.104  1.00  0.00     0.034 C 
BRANCH  11  12
ATOM     12  C   UNL     1      54.356 -16.002   5.990  1.00  0.00    -0.077 C 
ATOM     13  C   UNL     1      53.007 -15.937   5.905  1.00  0.00    -0.028 C 
ATOM     14  C   UNL     1      55.253 -15.302   4.998  1.00  0.00     0.039 C 
BRANCH  13  15
ATOM     15  C   UNL     1      52.251 -15.131   4.875  1.00  0.00     0.035 C 
BRANCH  15  16
ATOM     16  C   UNL     1      50.746 -15.097   5.173  1.00  0.00     0.079 C 
BRANCH  16  17
ATOM     17  C   UNL     1      50.364 -13.881   5.975  1.00  0.00     0.130 C 
ATOM     18  O   UNL     1      50.216 -12.806   5.415  1.00  0.00    -0.300 OA
ATOM     19  C   UNL     1      50.188 -13.977   7.461  1.00  0.00     0.087 C 
ENDBRANCH  16  17
ENDBRANCH  15  16
ENDBRANCH  13  15
ENDBRANCH  11  12
ENDBRANCH   1  11
TORSDOF 9
ENDMDL
MODEL 3
REMARK VINA RESULT:    -4.019     19.404     21.039
REMARK INTER + INTRA:          -6.889
REMARK INTER:                  -6.077
REMARK INTRA:                  -0.812
REMARK UNBOUND:                -0.756
REMARK SMILES CC(=O)CCC=C(C)CCC=C(C)CCC=C(C)C
REMARK SMILES IDX 10 1 11 2 12 3 13 4 14 5 15 6 16 7 18 8 17 9 19 10 9 11 7 12
REMARK SMILES IDX 6 13 8 14 5 15 4 16 2 17 3 18 1 19
REMARK H PARENT
REMARK Flexibility Score: inf
ROOT
ATOM      1  C   UNL     1      57.304 -14.156   8.707  1.00  0.00     0.032 C 
ENDROOT
BRANCH   1   2
ATOM      2  C   UNL     1      58.178 -15.089   7.905  1.00  0.00    -0.028 C 
ATOM      3  C   UNL     1      57.935 -15.426   6.619  1.00  0.00    -0.077 C 
ATOM      4  C   UNL     1      58.876 -16.390   5.942  1.00  0.00     0.039 C 
BRANCH   3   5
ATOM      5  C   UNL     1      56.767 -14.861   5.828  1.00  0.00     0.034 C 
BRANCH   5   6
ATOM      6  C   UNL     1      55.942 -15.961   5.146  1.00  0.00     0.032 C 
BRANCH   6   7
ATOM      7  C   UNL     1      54.468 -15.624   5.146  1.00  0.00    -0.028 C 
ATOM      8  C   UNL     1      53.958 -17.053   7.141  1.00  0.00     0.039 C 
ATOM      9  C   UNL     1      53.574 -16.084   6.048  1.00  0.00    -0.080 C 
ATOM     10  C   UNL     1      52.148 -15.603   5.952  1.00  0.00     0.039 C 
ENDBRANCH   6   7
ENDBRANCH   5   6
ENDBRANCH   3   5
ENDBRANCH   1   2
BRANCH   1  11
ATOM     11  C   UNL     1      55.996 -14.840   9.121  1.00  0.00     0.034 C 
BRANCH  11  12
ATOM     12  C   UNL     1      56.263 -15.974  10.088  1.00  0.00    -0.077 C 
ATOM     13  C   UNL     1      55.723 -15.918  11.328  1.00  0.00    -0.028 C 
ATOM     14  C   UNL     1      57.136 -17.125   9.649  1.00  0.00     0.039 C 
BRANCH  13  15
ATOM     15  C   UNL     1      55.870 -16.995  12.376  1.00  0.00     0.035 C 
BRANCH  15  16
ATOM     16  C   UNL     1      56.099 -16.401  13.773  1.00  0.00     0.079 C 
BRANCH  16  17
ATOM     17  C   UNL     1      57.520 -16.591  14.234  1.00  0.00     0.130 C 
ATOM     18  O   UNL     1      57.756 -16.766  15.419  1.00  0.00    -0.300 OA
ATOM     19  C   UNL     1      58.649 -16.543  13.249  1.00  0.00     0.087 C 
ENDBRANCH  16  17
ENDBRANCH  15  16
ENDBRANCH  13  15
ENDBRANCH  11  12
ENDBRANCH   1  11
TORSDOF 9
ENDMDL
MODEL 4
REMARK VINA RESULT:    -3.997     17.557     19.652
REMARK INTER + INTRA:          -6.856
REMARK INTER:                  -5.242
REMARK INTRA:                  -1.614
REMARK UNBOUND:                -0.756
REMARK SMILES CC(=O)CCC=C(C)CCC=C(C)CCC=C(C)C
REMARK SMILES IDX 10 1 11 2 12 3 13 4 14 5 15 6 16 7 18 8 17 9 19 10 9 11 7 12
REMARK SMILES IDX 6 13 8 14 5 15 4 16 2 17 3 18 1 19
REMARK H PARENT
REMARK Flexibility Score: inf
ROOT
ATOM      1  C   UNL     1      69.068  -1.299  10.932  1.00  0.00     0.032 C 
ENDROOT
BRANCH   1   2
ATOM      2  C   UNL     1      68.849  -0.226  11.971  1.00  0.00    -0.028 C 
ATOM      3  C   UNL     1      69.315   1.038  11.857  1.00  0.00    -0.077 C 
ATOM      4  C   UNL     1      69.046   2.004  12.982  1.00  0.00     0.039 C 
BRANCH   3   5
ATOM      5  C   UNL     1      70.080   1.523  10.638  1.00  0.00     0.034 C 
BRANCH   5   6
ATOM      6  C   UNL     1      69.557   2.872  10.123  1.00  0.00     0.032 C 
BRANCH   6   7
ATOM      7  C   UNL     1      69.244   2.814   8.646  1.00  0.00    -0.028 C 
ATOM      8  C   UNL     1      66.786   2.469   8.996  1.00  0.00     0.039 C 
ATOM      9  C   UNL     1      68.006   2.661   8.126  1.00  0.00    -0.080 C 
ATOM     10  C   UNL     1      67.850   2.688   6.627  1.00  0.00     0.039 C 
ENDBRANCH   6   7
ENDBRANCH   5   6
ENDBRANCH   3   5
ENDBRANCH   1   2
BRANCH   1  11
ATOM     11  C   UNL     1      68.287  -0.993   9.648  1.00  0.00     0.034 C 
BRANCH  11  12
ATOM     12  C   UNL     1      69.006  -1.547   8.436  1.00  0.00    -0.077 C 
ATOM     13  C   UNL     1      69.433  -2.830   8.457  1.00  0.00    -0.028 C 
ATOM     14  C   UNL     1      69.239  -0.647   7.245  1.00  0.00     0.039 C 
BRANCH  13  15
ATOM     15  C   UNL     1      70.122  -3.523   7.305  1.00  0.00     0.035 C 
BRANCH  15  16
ATOM     16  C   UNL     1      70.125  -5.048   7.479  1.00  0.00     0.079 C 
BRANCH  16  17
ATOM     17  C   UNL     1      69.489  -5.745   6.306  1.00  0.00     0.130 C 
ATOM     18  O   UNL     1      69.088  -6.892   6.424  1.00  0.00    -0.300 OA
ATOM     19  C   UNL     1      69.366  -5.046   4.985  1.00  0.00     0.087 C 
ENDBRANCH  16  17
ENDBRANCH  15  16
ENDBRANCH  13  15
ENDBRANCH  11  12
ENDBRANCH   1  11
TORSDOF 9
ENDMDL
MODEL 5
REMARK VINA RESULT:    -3.722      3.962      7.957
REMARK INTER + INTRA:          -6.436
REMARK INTER:                  -5.061
REMARK INTRA:                  -1.375
REMARK UNBOUND:                -0.756
REMARK SMILES CC(=O)CCC=C(C)CCC=C(C)CCC=C(C)C
REMARK SMILES IDX 10 1 11 2 12 3 13 4 14 5 15 6 16 7 18 8 17 9 19 10 9 11 7 12
REMARK SMILES IDX 6 13 8 14 5 15 4 16 2 17 3 18 1 19
REMARK H PARENT
REMARK Flexibility Score: inf
ROOT
ATOM      1  C   UNL     1      52.978   2.422  24.217  1.00  0.00     0.032 C 
ENDROOT
BRANCH   1   2
ATOM      2  C   UNL     1      54.333   2.319  24.875  1.00  0.00    -0.028 C 
ATOM      3  C   UNL     1      55.461   1.964  24.220  1.00  0.00    -0.077 C 
ATOM      4  C   UNL     1      56.745   1.875  25.005  1.00  0.00     0.039 C 
BRANCH   3   5
ATOM      5  C   UNL     1      55.488   1.669  22.730  1.00  0.00     0.034 C 
BRANCH   5   6
ATOM      6  C   UNL     1      55.079   0.223  22.417  1.00  0.00     0.032 C 
BRANCH   6   7
ATOM      7  C   UNL     1      56.195  -0.746  22.732  1.00  0.00    -0.028 C 
ATOM      8  C   UNL     1      57.618  -0.014  20.803  1.00  0.00     0.039 C 
ATOM      9  C   UNL     1      57.348  -0.846  22.035  1.00  0.00    -0.080 C 
ATOM     10  C   UNL     1      58.393  -1.820  22.515  1.00  0.00     0.039 C 
ENDBRANCH   6   7
ENDBRANCH   5   6
ENDBRANCH   3   5
ENDBRANCH   1   2
BRANCH   1  11
ATOM     11  C   UNL     1      51.971   1.470  24.872  1.00  0.00     0.034 C 
BRANCH  11  12
ATOM     12  C   UNL     1      50.975   0.955  23.854  1.00  0.00    -0.077 C 
ATOM     13  C   UNL     1      50.882  -0.379  23.647  1.00  0.00    -0.028 C 
ATOM     14  C   UNL     1      50.128   1.943  23.089  1.00  0.00     0.039 C 
BRANCH  13  15
ATOM     15  C   UNL     1      49.906  -1.033  22.698  1.00  0.00     0.035 C 
BRANCH  15  16
ATOM     16  C   UNL     1      50.619  -1.662  21.494  1.00  0.00     0.079 C 
BRANCH  16  17
ATOM     17  C   UNL     1      50.845  -0.660  20.393  1.00  0.00     0.130 C 
ATOM     18  O   UNL     1      49.930  -0.372  19.636  1.00  0.00    -0.300 OA
ATOM     19  C   UNL     1      52.192  -0.030  20.205  1.00  0.00     0.087 C 
ENDBRANCH  16  17
ENDBRANCH  15  16
ENDBRANCH  13  15
ENDBRANCH  11  12
ENDBRANCH   1  11
TORSDOF 9
ENDMDL
MODEL 6
REMARK VINA RESULT:    -3.700      3.463      8.251
REMARK INTER + INTRA:          -6.403
REMARK INTER:                  -5.334
REMARK INTRA:                  -1.069
REMARK UNBOUND:                -0.756
REMARK SMILES CC(=O)CCC=C(C)CCC=C(C)CCC=C(C)C
REMARK SMILES IDX 10 1 11 2 12 3 13 4 14 5 15 6 16 7 18 8 17 9 19 10 9 11 7 12
REMARK SMILES IDX 6 13 8 14 5 15 4 16 2 17 3 18 1 19
REMARK H PARENT
REMARK Flexibility Score: inf
ROOT
ATOM      1  C   UNL     1      55.579   0.368  21.948  1.00  0.00     0.032 C 
ENDROOT
BRANCH   1   2
ATOM      2  C   UNL     1      56.368   1.538  22.482  1.00  0.00    -0.028 C 
ATOM      3  C   UNL     1      56.616   1.740  23.796  1.00  0.00    -0.077 C 
ATOM      4  C   UNL     1      57.396   2.966  24.196  1.00  0.00     0.039 C 
BRANCH   3   5
ATOM      5  C   UNL     1      56.155   0.777  24.876  1.00  0.00     0.034 C 
BRANCH   5   6
ATOM      6  C   UNL     1      56.628  -0.659  24.614  1.00  0.00     0.032 C 
BRANCH   6   7
ATOM      7  C   UNL     1      58.060  -0.858  25.055  1.00  0.00    -0.028 C 
ATOM      8  C   UNL     1      58.719  -2.096  22.978  1.00  0.00     0.039 C 
ATOM      9  C   UNL     1      59.014  -1.475  24.323  1.00  0.00    -0.080 C 
ATOM     10  C   UNL     1      60.414  -1.535  24.877  1.00  0.00     0.039 C 
ENDBRANCH   6   7
ENDBRANCH   5   6
ENDBRANCH   3   5
ENDBRANCH   1   2
BRANCH   1  11
ATOM     11  C   UNL     1      54.243   0.826  21.352  1.00  0.00     0.034 C 
BRANCH  11  12
ATOM     12  C   UNL     1      53.081   0.330  22.187  1.00  0.00    -0.077 C 
ATOM     13  C   UNL     1      52.378  -0.744  21.759  1.00  0.00    -0.028 C 
ATOM     14  C   UNL     1      52.730   1.057  23.463  1.00  0.00     0.039 C 
BRANCH  13  15
ATOM     15  C   UNL     1      51.228  -1.371  22.511  1.00  0.00     0.035 C 
BRANCH  15  16
ATOM     16  C   UNL     1      49.875  -1.011  21.881  1.00  0.00     0.079 C 
BRANCH  16  17
ATOM     17  C   UNL     1      49.921  -1.092  20.378  1.00  0.00     0.130 C 
ATOM     18  O   UNL     1      49.875  -2.181  19.827  1.00  0.00    -0.300 OA
ATOM     19  C   UNL     1      50.046   0.155  19.555  1.00  0.00     0.087 C 
ENDBRANCH  16  17
ENDBRANCH  15  16
ENDBRANCH  13  15
ENDBRANCH  11  12
ENDBRANCH   1  11
TORSDOF 9
ENDMDL
MODEL 7
REMARK VINA RESULT:    -3.682     16.488     18.622
REMARK INTER + INTRA:          -6.376
REMARK INTER:                  -5.516
REMARK INTRA:                  -0.860
REMARK UNBOUND:                -0.756
REMARK SMILES CC(=O)CCC=C(C)CCC=C(C)CCC=C(C)C
REMARK SMILES IDX 10 1 11 2 12 3 13 4 14 5 15 6 16 7 18 8 17 9 19 10 9 11 7 12
REMARK SMILES IDX 6 13 8 14 5 15 4 16 2 17 3 18 1 19
REMARK H PARENT
REMARK Flexibility Score: inf
ROOT
ATOM      1  C   UNL     1      66.727   0.148   8.516  1.00  0.00     0.032 C 
ENDROOT
BRANCH   1   2
ATOM      2  C   UNL     1      67.027   1.390   7.714  1.00  0.00    -0.028 C 
ATOM      3  C   UNL     1      68.026   1.475   6.806  1.00  0.00    -0.077 C 
ATOM      4  C   UNL     1      68.234   2.786   6.091  1.00  0.00     0.039 C 
BRANCH   3   5
ATOM      5  C   UNL     1      68.932   0.303   6.469  1.00  0.00     0.034 C 
BRANCH   5   6
ATOM      6  C   UNL     1      69.695  -0.213   7.697  1.00  0.00     0.032 C 
BRANCH   6   7
ATOM      7  C   UNL     1      70.110  -1.656   7.522  1.00  0.00    -0.028 C 
ATOM      8  C   UNL     1      68.728  -2.475   9.446  1.00  0.00     0.039 C 
ATOM      9  C   UNL     1      69.665  -2.683   8.280  1.00  0.00    -0.080 C 
ATOM     10  C   UNL     1      70.124  -4.077   7.937  1.00  0.00     0.039 C 
ENDBRANCH   6   7
ENDBRANCH   5   6
ENDBRANCH   3   5
ENDBRANCH   1   2
BRANCH   1  11
ATOM     11  C   UNL     1      66.585   0.474  10.008  1.00  0.00     0.034 C 
BRANCH  11  12
ATOM     12  C   UNL     1      67.803   1.216  10.516  1.00  0.00    -0.077 C 
ATOM     13  C   UNL     1      68.742   0.534  11.212  1.00  0.00    -0.028 C 
ATOM     14  C   UNL     1      67.926   2.697  10.248  1.00  0.00     0.039 C 
BRANCH  13  15
ATOM     15  C   UNL     1      70.023   1.136  11.739  1.00  0.00     0.035 C 
BRANCH  15  16
ATOM     16  C   UNL     1      70.125   1.009  13.265  1.00  0.00     0.079 C 
BRANCH  16  17
ATOM     17  C   UNL     1      69.604   2.238  13.962  1.00  0.00     0.130 C 
ATOM     18  O   UNL     1      69.039   3.108  13.318  1.00  0.00    -0.300 OA
ATOM     19  C   UNL     1      69.796   2.411  15.439  1.00  0.00     0.087 C 
ENDBRANCH  16  17
ENDBRANCH  15  16
ENDBRANCH  13  15
ENDBRANCH  11  12
ENDBRANCH   1  11
TORSDOF 9
ENDMDL
MODEL 8
REMARK VINA RESULT:    -3.653      2.301      4.206
REMARK INTER + INTRA:          -6.331
REMARK INTER:                  -4.546
REMARK INTRA:                  -1.785
REMARK UNBOUND:                -0.756
REMARK SMILES CC(=O)CCC=C(C)CCC=C(C)CCC=C(C)C
REMARK SMILES IDX 10 1 11 2 12 3 13 4 14 5 15 6 16 7 18 8 17 9 19 10 9 11 7 12
REMARK SMILES IDX 6 13 8 14 5 15 4 16 2 17 3 18 1 19
REMARK H PARENT
REMARK Flexibility Score: inf
ROOT
ATOM      1  C   UNL     1      53.224   1.225  23.133  1.00  0.00     0.032 C 
ENDROOT
BRANCH   1   2
ATOM      2  C   UNL     1      52.080   1.940  23.810  1.00  0.00    -0.028 C 
ATOM      3  C   UNL     1      50.978   1.315  24.281  1.00  0.00    -0.077 C 
ATOM      4  C   UNL     1      49.896   2.152  24.914  1.00  0.00     0.039 C 
BRANCH   3   5
ATOM      5  C   UNL     1      50.795  -0.192  24.212  1.00  0.00     0.034 C 
BRANCH   5   6
ATOM      6  C   UNL     1      49.875  -0.613  23.058  1.00  0.00     0.032 C 
BRANCH   6   7
ATOM      7  C   UNL     1      50.662  -0.880  21.795  1.00  0.00    -0.028 C 
ATOM      8  C   UNL     1      50.009   1.284  20.715  1.00  0.00     0.039 C 
ATOM      9  C   UNL     1      50.753  -0.029  20.750  1.00  0.00    -0.080 C 
ATOM     10  C   UNL     1      51.633  -0.414  19.588  1.00  0.00     0.039 C 
ENDBRANCH   6   7
ENDBRANCH   5   6
ENDBRANCH   3   5
ENDBRANCH   1   2
BRANCH   1  11
ATOM     11  C   UNL     1      54.176   2.220  22.458  1.00  0.00     0.034 C 
BRANCH  11  12
ATOM     12  C   UNL     1      55.591   1.681  22.434  1.00  0.00    -0.077 C 
ATOM     13  C   UNL     1      55.844   0.536  21.759  1.00  0.00    -0.028 C 
ATOM     14  C   UNL     1      56.674   2.427  23.176  1.00  0.00     0.039 C 
BRANCH  13  15
ATOM     15  C   UNL     1      57.212  -0.090  21.615  1.00  0.00     0.035 C 
BRANCH  15  16
ATOM     16  C   UNL     1      57.297  -1.441  22.339  1.00  0.00     0.079 C 
BRANCH  16  17
ATOM     17  C   UNL     1      58.068  -1.334  23.629  1.00  0.00     0.130 C 
ATOM     18  O   UNL     1      59.238  -1.681  23.667  1.00  0.00    -0.300 OA
ATOM     19  C   UNL     1      57.400  -0.828  24.872  1.00  0.00     0.087 C 
ENDBRANCH  16  17
ENDBRANCH  15  16
ENDBRANCH  13  15
ENDBRANCH  11  12
ENDBRANCH   1  11
TORSDOF 9
ENDMDL
