MODEL 1
REMARK VINA RESULT:    -7.399      0.000      0.000
REMARK INTER + INTRA:          -8.993
REMARK INTER:                  -8.697
REMARK INTRA:                  -0.296
REMARK UNBOUND:                -0.296
REMARK SMILES O=c1cc(-c2ccc(O)c(O)c2)oc2cc(O)cc(O)c12
REMARK SMILES IDX 4 1 3 2 2 3 1 4 21 5 19 6 18 7 16 8 15 9 14 10 13 11 5 12
REMARK SMILES IDX 6 13 7 14 8 15 12 16 10 17 9 18 11 20 20 22 17 24
REMARK H PARENT 9 19 11 21 20 23 17 25
REMARK Flexibility Score: inf
ROOT
ATOM      1  C   UNL     1       3.694  29.206  16.634  1.00  0.00     0.138 A 
ATOM      2  C   UNL     1       4.610  28.614  17.515  1.00  0.00     0.100 A 
ATOM      3  C   UNL     1       4.262  28.437  18.855  1.00  0.00     0.197 A 
ATOM      4  O   UNL     1       5.079  27.847  19.608  1.00  0.00    -0.289 OA
ATOM      5  C   UNL     1       3.002  28.885  19.320  1.00  0.00     0.107 A 
ATOM      6  C   UNL     1       2.556  28.794  20.673  1.00  0.00     0.134 A 
ATOM      7  C   UNL     1       1.244  29.163  20.993  1.00  0.00     0.093 A 
ATOM      8  C   UNL     1       0.383  29.676  20.024  1.00  0.00     0.123 A 
ATOM      9  C   UNL     1       0.826  29.819  18.708  1.00  0.00     0.094 A 
ATOM     10  C   UNL     1       2.118  29.427  18.350  1.00  0.00     0.146 A 
ATOM     11  O   UNL     1       2.497  29.568  17.085  1.00  0.00    -0.456 OA
ENDROOT
BRANCH   1  12
ATOM     12  C   UNL     1       4.013  29.419  15.199  1.00  0.00     0.021 A 
ATOM     13  C   UNL     1       3.113  30.134  14.390  1.00  0.00     0.016 A 
ATOM     14  C   UNL     1       3.393  30.354  13.040  1.00  0.00     0.051 A 
ATOM     15  C   UNL     1       4.578  29.875  12.475  1.00  0.00     0.157 A 
ATOM     16  C   UNL     1       5.213  28.949  14.630  1.00  0.00     0.062 A 
ATOM     17  C   UNL     1       5.495  29.172  13.274  1.00  0.00     0.158 A 
BRANCH  15  18
ATOM     18  O   UNL     1       4.829  30.110  11.124  1.00  0.00    -0.504 OA
ATOM     19  H   UNL     1       5.695  30.523  10.802  1.00  0.00     0.293 HD
ENDBRANCH  15  18
BRANCH  17  20
ATOM     20  O   UNL     1       6.685  28.701  12.719  1.00  0.00    -0.504 OA
ATOM     21  H   UNL     1       7.026  29.040  11.827  1.00  0.00     0.293 HD
ENDBRANCH  17  20
ENDBRANCH   1  12
BRANCH   6  22
ATOM     22  O   UNL     1       3.363  28.374  21.735  1.00  0.00    -0.507 OA
ATOM     23  H   UNL     1       4.328  28.638  21.865  1.00  0.00     0.293 HD
ENDBRANCH   6  22
BRANCH   8  24
ATOM     24  O   UNL     1      -0.911  30.048  20.382  1.00  0.00    -0.508 OA
ATOM     25  H   UNL     1      -1.218  30.037  21.348  1.00  0.00     0.293 HD
ENDBRANCH   8  24
TORSDOF 5
ENDMDL
MODEL 2
REMARK VINA RESULT:    -7.366      2.585      4.432
REMARK INTER + INTRA:          -8.954
REMARK INTER:                  -8.649
REMARK INTRA:                  -0.305
REMARK UNBOUND:                -0.296
REMARK SMILES O=c1cc(-c2ccc(O)c(O)c2)oc2cc(O)cc(O)c12
REMARK SMILES IDX 4 1 3 2 2 3 1 4 21 5 19 6 18 7 16 8 15 9 14 10 13 11 5 12
REMARK SMILES IDX 6 13 7 14 8 15 12 16 10 17 9 18 11 20 20 22 17 24
REMARK H PARENT 9 19 11 21 20 23 17 25
REMARK Flexibility Score: inf
ROOT
ATOM      1  C   UNL     1       5.629  28.720  14.671  1.00  0.00     0.138 A 
ATOM      2  C   UNL     1       4.858  29.699  14.029  1.00  0.00     0.100 A 
ATOM      3  C   UNL     1       3.727  30.212  14.665  1.00  0.00     0.197 A 
ATOM      4  O   UNL     1       3.090  31.134  14.093  1.00  0.00    -0.289 OA
ATOM      5  C   UNL     1       3.350  29.718  15.937  1.00  0.00     0.107 A 
ATOM      6  C   UNL     1       2.194  30.138  16.662  1.00  0.00     0.134 A 
ATOM      7  C   UNL     1       1.985  29.664  17.963  1.00  0.00     0.093 A 
ATOM      8  C   UNL     1       2.856  28.741  18.542  1.00  0.00     0.123 A 
ATOM      9  C   UNL     1       3.960  28.283  17.822  1.00  0.00     0.094 A 
ATOM     10  C   UNL     1       4.215  28.764  16.535  1.00  0.00     0.146 A 
ATOM     11  O   UNL     1       5.284  28.313  15.888  1.00  0.00    -0.456 OA
ENDROOT
BRANCH   1  12
ATOM     12  C   UNL     1       6.842  28.139  14.039  1.00  0.00     0.021 A 
ATOM     13  C   UNL     1       7.612  28.927  13.168  1.00  0.00     0.016 A 
ATOM     14  C   UNL     1       8.761  28.407  12.567  1.00  0.00     0.051 A 
ATOM     15  C   UNL     1       9.166  27.096  12.833  1.00  0.00     0.157 A 
ATOM     16  C   UNL     1       7.261  26.822  14.315  1.00  0.00     0.062 A 
ATOM     17  C   UNL     1       8.416  26.300  13.714  1.00  0.00     0.158 A 
BRANCH  15  18
ATOM     18  O   UNL     1      10.317  26.604  12.217  1.00  0.00    -0.504 OA
ATOM     19  H   UNL     1      10.729  27.056  11.409  1.00  0.00     0.293 HD
ENDBRANCH  15  18
BRANCH  17  20
ATOM     20  O   UNL     1       8.821  24.995  13.992  1.00  0.00    -0.504 OA
ATOM     21  H   UNL     1       9.622  24.578  13.532  1.00  0.00     0.293 HD
ENDBRANCH  17  20
ENDBRANCH   1  12
BRANCH   6  22
ATOM     22  O   UNL     1       1.215  30.992  16.145  1.00  0.00    -0.507 OA
ATOM     23  H   UNL     1       1.234  31.399  15.222  1.00  0.00     0.293 HD
ENDBRANCH   6  22
BRANCH   8  24
ATOM     24  O   UNL     1       2.609  28.280  19.833  1.00  0.00    -0.508 OA
ATOM     25  H   UNL     1       1.737  28.480  20.309  1.00  0.00     0.293 HD
ENDBRANCH   8  24
TORSDOF 5
ENDMDL
MODEL 3
REMARK VINA RESULT:    -7.167      2.928      5.010
REMARK INTER + INTRA:          -8.720
REMARK INTER:                  -8.432
REMARK INTRA:                  -0.288
REMARK UNBOUND:                -0.296
REMARK SMILES O=c1cc(-c2ccc(O)c(O)c2)oc2cc(O)cc(O)c12
REMARK SMILES IDX 4 1 3 2 2 3 1 4 21 5 19 6 18 7 16 8 15 9 14 10 13 11 5 12
REMARK SMILES IDX 6 13 7 14 8 15 12 16 10 17 9 18 11 20 20 22 17 24
REMARK H PARENT 9 19 11 21 20 23 17 25
REMARK Flexibility Score: inf
ROOT
ATOM      1  C   UNL     1       5.616  28.827  14.504  1.00  0.00     0.138 A 
ATOM      2  C   UNL     1       5.113  28.486  15.767  1.00  0.00     0.100 A 
ATOM      3  C   UNL     1       3.963  29.114  16.244  1.00  0.00     0.197 A 
ATOM      4  O   UNL     1       3.499  28.743  17.353  1.00  0.00    -0.289 OA
ATOM      5  C   UNL     1       3.331  30.113  15.464  1.00  0.00     0.107 A 
ATOM      6  C   UNL     1       2.176  30.850  15.866  1.00  0.00     0.134 A 
ATOM      7  C   UNL     1       1.571  31.731  14.962  1.00  0.00     0.093 A 
ATOM      8  C   UNL     1       2.111  31.948  13.695  1.00  0.00     0.123 A 
ATOM      9  C   UNL     1       3.271  31.273  13.311  1.00  0.00     0.094 A 
ATOM     10  C   UNL     1       3.879  30.361  14.177  1.00  0.00     0.146 A 
ATOM     11  O   UNL     1       4.974  29.729  13.769  1.00  0.00    -0.456 OA
ENDROOT
BRANCH   1  12
ATOM     12  C   UNL     1       6.838  28.191  13.948  1.00  0.00     0.021 A 
ATOM     13  C   UNL     1       7.628  28.899  13.027  1.00  0.00     0.016 A 
ATOM     14  C   UNL     1       8.786  28.325  12.496  1.00  0.00     0.051 A 
ATOM     15  C   UNL     1       9.180  27.041  12.881  1.00  0.00     0.157 A 
ATOM     16  C   UNL     1       7.246  26.902  14.344  1.00  0.00     0.062 A 
ATOM     17  C   UNL     1       8.410  26.326  13.812  1.00  0.00     0.158 A 
BRANCH  15  18
ATOM     18  O   UNL     1      10.340  26.495  12.332  1.00  0.00    -0.504 OA
ATOM     19  H   UNL     1      10.366  26.126  11.389  1.00  0.00     0.293 HD
ENDBRANCH  15  18
BRANCH  17  20
ATOM     20  O   UNL     1       8.803  25.049  14.209  1.00  0.00    -0.504 OA
ATOM     21  H   UNL     1       8.130  24.301  14.336  1.00  0.00     0.293 HD
ENDBRANCH  17  20
ENDBRANCH   1  12
BRANCH   6  22
ATOM     22  O   UNL     1       1.605  30.771  17.139  1.00  0.00    -0.507 OA
ATOM     23  H   UNL     1       0.615  30.697  17.324  1.00  0.00     0.293 HD
ENDBRANCH   6  22
BRANCH   8  24
ATOM     24  O   UNL     1       1.490  32.844  12.827  1.00  0.00    -0.508 OA
ATOM     25  H   UNL     1       0.486  32.841  12.693  1.00  0.00     0.293 HD
ENDBRANCH   8  24
TORSDOF 5
ENDMDL
MODEL 4
REMARK VINA RESULT:    -7.064      1.220      2.703
REMARK INTER + INTRA:          -8.599
REMARK INTER:                  -8.282
REMARK INTRA:                  -0.317
REMARK UNBOUND:                -0.296
REMARK SMILES O=c1cc(-c2ccc(O)c(O)c2)oc2cc(O)cc(O)c12
REMARK SMILES IDX 4 1 3 2 2 3 1 4 21 5 19 6 18 7 16 8 15 9 14 10 13 11 5 12
REMARK SMILES IDX 6 13 7 14 8 15 12 16 10 17 9 18 11 20 20 22 17 24
REMARK H PARENT 9 19 11 21 20 23 17 25
REMARK Flexibility Score: inf
ROOT
ATOM      1  C   UNL     1       3.459  29.337  16.277  1.00  0.00     0.138 A 
ATOM      2  C   UNL     1       2.279  29.951  16.719  1.00  0.00     0.100 A 
ATOM      3  C   UNL     1       1.885  29.809  18.051  1.00  0.00     0.197 A 
ATOM      4  O   UNL     1       0.855  30.422  18.434  1.00  0.00    -0.289 OA
ATOM      5  C   UNL     1       2.661  29.021  18.935  1.00  0.00     0.107 A 
ATOM      6  C   UNL     1       2.335  28.773  20.302  1.00  0.00     0.134 A 
ATOM      7  C   UNL     1       3.238  28.073  21.111  1.00  0.00     0.093 A 
ATOM      8  C   UNL     1       4.426  27.563  20.589  1.00  0.00     0.123 A 
ATOM      9  C   UNL     1       4.731  27.754  19.241  1.00  0.00     0.094 A 
ATOM     10  C   UNL     1       3.866  28.477  18.416  1.00  0.00     0.146 A 
ATOM     11  O   UNL     1       4.198  28.648  17.141  1.00  0.00    -0.456 OA
ENDROOT
BRANCH   1  12
ATOM     12  C   UNL     1       3.925  29.454  14.872  1.00  0.00     0.021 A 
ATOM     13  C   UNL     1       3.098  30.075  13.920  1.00  0.00     0.016 A 
ATOM     14  C   UNL     1       3.516  30.205  12.593  1.00  0.00     0.051 A 
ATOM     15  C   UNL     1       4.768  29.727  12.196  1.00  0.00     0.157 A 
ATOM     16  C   UNL     1       5.191  28.986  14.470  1.00  0.00     0.062 A 
ATOM     17  C   UNL     1       5.612  29.118  13.138  1.00  0.00     0.158 A 
BRANCH  15  18
ATOM     18  O   UNL     1       5.156  29.870  10.864  1.00  0.00    -0.504 OA
ATOM     19  H   UNL     1       5.615  30.707  10.525  1.00  0.00     0.293 HD
ENDBRANCH  15  18
BRANCH  17  20
ATOM     20  O   UNL     1       6.867  28.649  12.751  1.00  0.00    -0.504 OA
ATOM     21  H   UNL     1       7.006  27.692  12.448  1.00  0.00     0.293 HD
ENDBRANCH  17  20
ENDBRANCH   1  12
BRANCH   6  22
ATOM     22  O   UNL     1       1.135  29.166  20.902  1.00  0.00    -0.507 OA
ATOM     23  H   UNL     1       0.449  28.534  21.288  1.00  0.00     0.293 HD
ENDBRANCH   6  22
BRANCH   8  24
ATOM     24  O   UNL     1       5.295  26.859  21.421  1.00  0.00    -0.508 OA
ATOM     25  H   UNL     1       4.964  26.382  22.251  1.00  0.00     0.293 HD
ENDBRANCH   8  24
TORSDOF 5
ENDMDL
MODEL 5
REMARK VINA RESULT:    -7.033     11.338     13.700
REMARK INTER + INTRA:          -8.563
REMARK INTER:                  -8.247
REMARK INTRA:                  -0.316
REMARK UNBOUND:                -0.296
REMARK SMILES O=c1cc(-c2ccc(O)c(O)c2)oc2cc(O)cc(O)c12
REMARK SMILES IDX 4 1 3 2 2 3 1 4 21 5 19 6 18 7 16 8 15 9 14 10 13 11 5 12
REMARK SMILES IDX 6 13 7 14 8 15 12 16 10 17 9 18 11 20 20 22 17 24
REMARK H PARENT 9 19 11 21 20 23 17 25
REMARK Flexibility Score: inf
ROOT
ATOM      1  C   UNL     1      -4.266  20.800  22.103  1.00  0.00     0.138 A 
ATOM      2  C   UNL     1      -4.002  21.493  20.913  1.00  0.00     0.100 A 
ATOM      3  C   UNL     1      -4.649  22.703  20.662  1.00  0.00     0.197 A 
ATOM      4  O   UNL     1      -4.346  23.333  19.616  1.00  0.00    -0.289 OA
ATOM      5  C   UNL     1      -5.589  23.206  21.594  1.00  0.00     0.107 A 
ATOM      6  C   UNL     1      -6.339  24.408  21.425  1.00  0.00     0.134 A 
ATOM      7  C   UNL     1      -7.154  24.866  22.467  1.00  0.00     0.093 A 
ATOM      8  C   UNL     1      -7.293  24.136  23.646  1.00  0.00     0.123 A 
ATOM      9  C   UNL     1      -6.606  22.931  23.802  1.00  0.00     0.094 A 
ATOM     10  C   UNL     1      -5.758  22.465  22.795  1.00  0.00     0.146 A 
ATOM     11  O   UNL     1      -5.112  21.321  22.987  1.00  0.00    -0.456 OA
ENDROOT
BRANCH   1  12
ATOM     12  C   UNL     1      -3.606  19.508  22.421  1.00  0.00     0.021 A 
ATOM     13  C   UNL     1      -2.516  19.079  21.644  1.00  0.00     0.016 A 
ATOM     14  C   UNL     1      -1.874  17.871  21.927  1.00  0.00     0.051 A 
ATOM     15  C   UNL     1      -2.300  17.076  22.994  1.00  0.00     0.157 A 
ATOM     16  C   UNL     1      -4.024  18.710  23.504  1.00  0.00     0.062 A 
ATOM     17  C   UNL     1      -3.377  17.498  23.790  1.00  0.00     0.158 A 
BRANCH  15  18
ATOM     18  O   UNL     1      -1.639  15.875  23.250  1.00  0.00    -0.504 OA
ATOM     19  H   UNL     1      -1.198  15.337  22.514  1.00  0.00     0.293 HD
ENDBRANCH  15  18
BRANCH  17  20
ATOM     20  O   UNL     1      -3.800  16.715  24.863  1.00  0.00    -0.504 OA
ATOM     21  H   UNL     1      -3.986  17.118  25.774  1.00  0.00     0.293 HD
ENDBRANCH  17  20
ENDBRANCH   1  12
BRANCH   6  22
ATOM     22  O   UNL     1      -6.338  25.170  20.252  1.00  0.00    -0.507 OA
ATOM     23  H   UNL     1      -6.010  26.122  20.184  1.00  0.00     0.293 HD
ENDBRANCH   6  22
BRANCH   8  24
ATOM     24  O   UNL     1      -8.125  24.615  24.657  1.00  0.00    -0.508 OA
ATOM     25  H   UNL     1      -9.046  24.984  24.454  1.00  0.00     0.293 HD
ENDBRANCH   8  24
TORSDOF 5
ENDMDL
MODEL 6
REMARK VINA RESULT:    -6.784      3.186      7.399
REMARK INTER + INTRA:          -8.270
REMARK INTER:                  -7.963
REMARK INTRA:                  -0.307
REMARK UNBOUND:                -0.296
REMARK SMILES O=c1cc(-c2ccc(O)c(O)c2)oc2cc(O)cc(O)c12
REMARK SMILES IDX 4 1 3 2 2 3 1 4 21 5 19 6 18 7 16 8 15 9 14 10 13 11 5 12
REMARK SMILES IDX 6 13 7 14 8 15 12 16 10 17 9 18 11 20 20 22 17 24
REMARK H PARENT 9 19 11 21 20 23 17 25
REMARK Flexibility Score: inf
ROOT
ATOM      1  C   UNL     1       5.967  28.877  13.999  1.00  0.00     0.138 A 
ATOM      2  C   UNL     1       6.883  29.377  13.063  1.00  0.00     0.100 A 
ATOM      3  C   UNL     1       7.995  28.612  12.710  1.00  0.00     0.197 A 
ATOM      4  O   UNL     1       8.766  29.058  11.822  1.00  0.00    -0.289 OA
ATOM      5  C   UNL     1       8.206  27.353  13.323  1.00  0.00     0.107 A 
ATOM      6  C   UNL     1       9.326  26.504  13.071  1.00  0.00     0.134 A 
ATOM      7  C   UNL     1       9.370  25.230  13.649  1.00  0.00     0.093 A 
ATOM      8  C   UNL     1       8.366  24.797  14.515  1.00  0.00     0.123 A 
ATOM      9  C   UNL     1       7.293  25.639  14.810  1.00  0.00     0.094 A 
ATOM     10  C   UNL     1       7.204  26.903  14.222  1.00  0.00     0.146 A 
ATOM     11  O   UNL     1       6.160  27.669  14.519  1.00  0.00    -0.456 OA
ENDROOT
BRANCH   1  12
ATOM     12  C   UNL     1       4.767  29.650  14.411  1.00  0.00     0.021 A 
ATOM     13  C   UNL     1       4.191  30.564  13.512  1.00  0.00     0.016 A 
ATOM     14  C   UNL     1       3.058  31.297  13.873  1.00  0.00     0.051 A 
ATOM     15  C   UNL     1       2.474  31.124  15.130  1.00  0.00     0.157 A 
ATOM     16  C   UNL     1       4.167  29.468  15.673  1.00  0.00     0.062 A 
ATOM     17  C   UNL     1       3.028  30.203  16.034  1.00  0.00     0.158 A 
BRANCH  15  18
ATOM     18  O   UNL     1       1.345  31.872  15.462  1.00  0.00    -0.504 OA
ATOM     19  H   UNL     1       0.684  31.564  16.166  1.00  0.00     0.293 HD
ENDBRANCH  15  18
BRANCH  17  20
ATOM     20  O   UNL     1       2.443  30.017  17.287  1.00  0.00    -0.504 OA
ATOM     21  H   UNL     1       2.668  30.618  18.072  1.00  0.00     0.293 HD
ENDBRANCH  17  20
ENDBRANCH   1  12
BRANCH   6  22
ATOM     22  O   UNL     1      10.425  26.872  12.289  1.00  0.00    -0.507 OA
ATOM     23  H   UNL     1      10.409  27.579  11.569  1.00  0.00     0.293 HD
ENDBRANCH   6  22
BRANCH   8  24
ATOM     24  O   UNL     1       8.450  23.527  15.083  1.00  0.00    -0.508 OA
ATOM     25  H   UNL     1       7.659  22.894  15.084  1.00  0.00     0.293 HD
ENDBRANCH   8  24
TORSDOF 5
ENDMDL
MODEL 7
REMARK VINA RESULT:    -6.580      1.744      7.031
REMARK INTER + INTRA:          -8.030
REMARK INTER:                  -7.713
REMARK INTRA:                  -0.317
REMARK UNBOUND:                -0.296
REMARK SMILES O=c1cc(-c2ccc(O)c(O)c2)oc2cc(O)cc(O)c12
REMARK SMILES IDX 4 1 3 2 2 3 1 4 21 5 19 6 18 7 16 8 15 9 14 10 13 11 5 12
REMARK SMILES IDX 6 13 7 14 8 15 12 16 10 17 9 18 11 20 20 22 17 24
REMARK H PARENT 9 19 11 21 20 23 17 25
REMARK Flexibility Score: inf
ROOT
ATOM      1  C   UNL     1       2.973  29.384  17.168  1.00  0.00     0.138 A 
ATOM      2  C   UNL     1       1.965  30.335  16.954  1.00  0.00     0.100 A 
ATOM      3  C   UNL     1       1.853  30.952  15.708  1.00  0.00     0.197 A 
ATOM      4  O   UNL     1       0.902  31.754  15.525  1.00  0.00    -0.289 OA
ATOM      5  C   UNL     1       2.776  30.637  14.681  1.00  0.00     0.107 A 
ATOM      6  C   UNL     1       2.783  31.232  13.384  1.00  0.00     0.134 A 
ATOM      7  C   UNL     1       3.672  30.757  12.411  1.00  0.00     0.093 A 
ATOM      8  C   UNL     1       4.591  29.752  12.705  1.00  0.00     0.123 A 
ATOM      9  C   UNL     1       4.629  29.199  13.986  1.00  0.00     0.094 A 
ATOM     10  C   UNL     1       3.733  29.627  14.968  1.00  0.00     0.146 A 
ATOM     11  O   UNL     1       3.792  29.067  16.171  1.00  0.00    -0.456 OA
ENDROOT
BRANCH   1  12
ATOM     12  C   UNL     1       3.138  28.698  18.476  1.00  0.00     0.021 A 
ATOM     13  C   UNL     1       2.393  29.135  19.584  1.00  0.00     0.016 A 
ATOM     14  C   UNL     1       2.525  28.502  20.823  1.00  0.00     0.051 A 
ATOM     15  C   UNL     1       3.392  27.417  20.974  1.00  0.00     0.157 A 
ATOM     16  C   UNL     1       4.001  27.595  18.629  1.00  0.00     0.062 A 
ATOM     17  C   UNL     1       4.132  26.958  19.872  1.00  0.00     0.158 A 
BRANCH  15  18
ATOM     18  O   UNL     1       3.503  26.807  22.223  1.00  0.00    -0.504 OA
ATOM     19  H   UNL     1       3.196  25.855  22.385  1.00  0.00     0.293 HD
ENDBRANCH  15  18
BRANCH  17  20
ATOM     20  O   UNL     1       4.991  25.869  20.013  1.00  0.00    -0.504 OA
ATOM     21  H   UNL     1       4.845  25.166  20.729  1.00  0.00     0.293 HD
ENDBRANCH  17  20
ENDBRANCH   1  12
BRANCH   6  22
ATOM     22  O   UNL     1       1.963  32.302  13.011  1.00  0.00    -0.507 OA
ATOM     23  H   UNL     1       1.959  33.208  13.454  1.00  0.00     0.293 HD
ENDBRANCH   6  22
BRANCH   8  24
ATOM     24  O   UNL     1       5.470  29.314  11.717  1.00  0.00    -0.508 OA
ATOM     25  H   UNL     1       6.304  29.839  11.479  1.00  0.00     0.293 HD
ENDBRANCH   8  24
TORSDOF 5
ENDMDL
MODEL 8
REMARK VINA RESULT:    -6.564     12.388     14.508
REMARK INTER + INTRA:          -8.011
REMARK INTER:                  -7.736
REMARK INTRA:                  -0.275
REMARK UNBOUND:                -0.296
REMARK SMILES O=c1cc(-c2ccc(O)c(O)c2)oc2cc(O)cc(O)c12
REMARK SMILES IDX 4 1 3 2 2 3 1 4 21 5 19 6 18 7 16 8 15 9 14 10 13 11 5 12
REMARK SMILES IDX 6 13 7 14 8 15 12 16 10 17 9 18 11 20 20 22 17 24
REMARK H PARENT 9 19 11 21 20 23 17 25
REMARK Flexibility Score: inf
ROOT
ATOM      1  C   UNL     1      -5.646  21.080  22.543  1.00  0.00     0.138 A 
ATOM      2  C   UNL     1      -4.618  20.764  23.443  1.00  0.00     0.100 A 
ATOM      3  C   UNL     1      -4.048  19.490  23.418  1.00  0.00     0.197 A 
ATOM      4  O   UNL     1      -3.086  19.255  24.194  1.00  0.00    -0.289 OA
ATOM      5  C   UNL     1      -4.531  18.520  22.508  1.00  0.00     0.107 A 
ATOM      6  C   UNL     1      -4.053  17.177  22.422  1.00  0.00     0.134 A 
ATOM      7  C   UNL     1      -4.527  16.340  21.404  1.00  0.00     0.093 A 
ATOM      8  C   UNL     1      -5.503  16.776  20.509  1.00  0.00     0.123 A 
ATOM      9  C   UNL     1      -6.016  18.070  20.618  1.00  0.00     0.094 A 
ATOM     10  C   UNL     1      -5.539  18.940  21.600  1.00  0.00     0.146 A 
ATOM     11  O   UNL     1      -6.044  20.167  21.662  1.00  0.00    -0.456 OA
ENDROOT
BRANCH   1  12
ATOM     12  C   UNL     1      -6.289  22.419  22.526  1.00  0.00     0.021 A 
ATOM     13  C   UNL     1      -6.981  22.867  23.664  1.00  0.00     0.016 A 
ATOM     14  C   UNL     1      -7.588  24.125  23.677  1.00  0.00     0.051 A 
ATOM     15  C   UNL     1      -7.506  24.961  22.560  1.00  0.00     0.157 A 
ATOM     16  C   UNL     1      -6.197  23.269  21.407  1.00  0.00     0.062 A 
ATOM     17  C   UNL     1      -6.805  24.534  21.420  1.00  0.00     0.158 A 
BRANCH  15  18
ATOM     18  O   UNL     1      -8.124  26.210  22.602  1.00  0.00    -0.504 OA
ATOM     19  H   UNL     1      -8.727  26.537  21.856  1.00  0.00     0.293 HD
ENDBRANCH  15  18
BRANCH  17  20
ATOM     20  O   UNL     1      -6.711  25.368  20.306  1.00  0.00    -0.504 OA
ATOM     21  H   UNL     1      -7.529  25.813  19.906  1.00  0.00     0.293 HD
ENDBRANCH  17  20
ENDBRANCH   1  12
BRANCH   6  22
ATOM     22  O   UNL     1      -3.140  16.614  23.318  1.00  0.00    -0.507 OA
ATOM     23  H   UNL     1      -2.141  16.751  23.286  1.00  0.00     0.293 HD
ENDBRANCH   6  22
BRANCH   8  24
ATOM     24  O   UNL     1      -5.962  15.911  19.518  1.00  0.00    -0.508 OA
ATOM     25  H   UNL     1      -6.952  15.749  19.373  1.00  0.00     0.293 HD
ENDBRANCH   8  24
TORSDOF 5
ENDMDL
MODEL 9
REMARK VINA RESULT:    -6.513      2.768      7.727
REMARK INTER + INTRA:          -7.951
REMARK INTER:                  -7.670
REMARK INTRA:                  -0.281
REMARK UNBOUND:                -0.296
REMARK SMILES O=c1cc(-c2ccc(O)c(O)c2)oc2cc(O)cc(O)c12
REMARK SMILES IDX 4 1 3 2 2 3 1 4 21 5 19 6 18 7 16 8 15 9 14 10 13 11 5 12
REMARK SMILES IDX 6 13 7 14 8 15 12 16 10 17 9 18 11 20 20 22 17 24
REMARK H PARENT 9 19 11 21 20 23 17 25
REMARK Flexibility Score: inf
ROOT
ATOM      1  C   UNL     1       5.859  28.431  14.810  1.00  0.00     0.138 A 
ATOM      2  C   UNL     1       6.319  27.110  14.908  1.00  0.00     0.100 A 
ATOM      3  C   UNL     1       7.470  26.728  14.219  1.00  0.00     0.197 A 
ATOM      4  O   UNL     1       7.894  25.554  14.376  1.00  0.00    -0.289 OA
ATOM      5  C   UNL     1       8.145  27.666  13.401  1.00  0.00     0.107 A 
ATOM      6  C   UNL     1       9.305  27.378  12.620  1.00  0.00     0.134 A 
ATOM      7  C   UNL     1       9.955  28.416  11.941  1.00  0.00     0.093 A 
ATOM      8  C   UNL     1       9.455  29.717  11.965  1.00  0.00     0.123 A 
ATOM      9  C   UNL     1       8.292  30.000  12.682  1.00  0.00     0.094 A 
ATOM     10  C   UNL     1       7.639  28.993  13.398  1.00  0.00     0.146 A 
ATOM     11  O   UNL     1       6.542  29.306  14.078  1.00  0.00    -0.456 OA
ENDROOT
BRANCH   1  12
ATOM     12  C   UNL     1       4.639  28.892  15.521  1.00  0.00     0.021 A 
ATOM     13  C   UNL     1       3.760  29.782  14.881  1.00  0.00     0.016 A 
ATOM     14  C   UNL     1       2.602  30.224  15.526  1.00  0.00     0.051 A 
ATOM     15  C   UNL     1       2.296  29.778  16.814  1.00  0.00     0.157 A 
ATOM     16  C   UNL     1       4.320  28.434  16.815  1.00  0.00     0.062 A 
ATOM     17  C   UNL     1       3.156  28.876  17.462  1.00  0.00     0.158 A 
BRANCH  15  18
ATOM     18  O   UNL     1       1.134  30.238  17.432  1.00  0.00    -0.504 OA
ATOM     19  H   UNL     1       0.362  30.626  16.904  1.00  0.00     0.293 HD
ENDBRANCH  15  18
BRANCH  17  20
ATOM     20  O   UNL     1       2.851  28.419  18.743  1.00  0.00    -0.504 OA
ATOM     21  H   UNL     1       1.899  28.207  19.019  1.00  0.00     0.293 HD
ENDBRANCH  17  20
ENDBRANCH   1  12
BRANCH   6  22
ATOM     22  O   UNL     1       9.840  26.096  12.460  1.00  0.00    -0.507 OA
ATOM     23  H   UNL     1       9.317  25.286  12.160  1.00  0.00     0.293 HD
ENDBRANCH   6  22
BRANCH   8  24
ATOM     24  O   UNL     1      10.120  30.721  11.265  1.00  0.00    -0.508 OA
ATOM     25  H   UNL     1       9.619  31.498  10.850  1.00  0.00     0.293 HD
ENDBRANCH   8  24
TORSDOF 5
ENDMDL
