MODEL 1
REMARK VINA RESULT:    -4.524      0.000      0.000
REMARK INTER + INTRA:          -5.692
REMARK INTER:                  -5.450
REMARK INTRA:                  -0.242
REMARK UNBOUND:                -0.242
REMARK SMILES NC(=O)C[C@@H]([NH3+])C(=O)[O-]
REMARK SMILES IDX 4 1 5 2 6 3 7 7 8 8 9 9 2 10 3 11 1 12
REMARK H PARENT 6 4 6 5 6 6 1 13 1 14
REMARK Flexibility Score: inf
ROOT
ATOM      1  C   UNL     1     -23.587 -22.267 -13.290  1.00  0.00     0.171 C 
ENDROOT
BRANCH   1   2
ATOM      2  C   UNL     1     -23.688 -20.769 -12.943  1.00  0.00     0.237 C 
BRANCH   2   3
ATOM      3  N   UNL     1     -24.558 -20.569 -11.778  1.00  0.00    -0.350 N 
ATOM      4  H   UNL     1     -24.939 -21.483 -11.439  1.00  0.00     0.345 HD
ATOM      5  H   UNL     1     -25.355 -19.942 -12.033  1.00  0.00     0.345 HD
ATOM      6  H   UNL     1     -24.020 -20.114 -11.006  1.00  0.00     0.345 HD
ENDBRANCH   2   3
BRANCH   2   7
ATOM      7  C   UNL     1     -22.325 -20.185 -12.675  1.00  0.00     0.100 C 
ATOM      8  O   UNL     1     -21.289 -20.832 -12.980  1.00  0.00    -0.544 OA
ATOM      9  O   UNL     1     -22.202 -18.936 -12.077  1.00  0.00    -0.544 OA
ENDBRANCH   2   7
ENDBRANCH   1   2
BRANCH   1  10
ATOM     10  C   UNL     1     -24.757 -22.724 -14.113  1.00  0.00     0.223 C 
ATOM     11  O   UNL     1     -25.887 -22.860 -13.573  1.00  0.00    -0.275 OA
ATOM     12  N   UNL     1     -24.606 -22.969 -15.512  1.00  0.00    -0.369 N 
ATOM     13  H   UNL     1     -25.426 -23.272 -16.084  1.00  0.00     0.159 HD
ATOM     14  H   UNL     1     -23.682 -22.843 -15.980  1.00  0.00     0.159 HD
ENDBRANCH   1  10
TORSDOF 4
ENDMDL
MODEL 2
REMARK VINA RESULT:    -4.479      1.287      1.373
REMARK INTER + INTRA:          -5.638
REMARK INTER:                  -5.497
REMARK INTRA:                  -0.141
REMARK UNBOUND:                -0.242
REMARK SMILES NC(=O)C[C@@H]([NH3+])C(=O)[O-]
REMARK SMILES IDX 4 1 5 2 6 3 7 7 8 8 9 9 2 10 3 11 1 12
REMARK H PARENT 6 4 6 5 6 6 1 13 1 14
REMARK Flexibility Score: inf
ROOT
ATOM      1  C   UNL     1     -24.483 -20.902 -13.913  1.00  0.00     0.171 C 
ENDROOT
BRANCH   1   2
ATOM      2  C   UNL     1     -23.356 -20.964 -12.863  1.00  0.00     0.237 C 
BRANCH   2   3
ATOM      3  N   UNL     1     -22.491 -22.124 -13.108  1.00  0.00    -0.350 N 
ATOM      4  H   UNL     1     -23.057 -22.953 -13.402  1.00  0.00     0.345 HD
ATOM      5  H   UNL     1     -21.963 -22.363 -12.238  1.00  0.00     0.345 HD
ATOM      6  H   UNL     1     -21.797 -21.898 -13.858  1.00  0.00     0.345 HD
ENDBRANCH   2   3
BRANCH   2   7
ATOM      7  C   UNL     1     -22.538 -19.698 -12.875  1.00  0.00     0.100 C 
ATOM      8  O   UNL     1     -21.409 -19.670 -12.318  1.00  0.00    -0.544 OA
ATOM      9  O   UNL     1     -23.028 -18.552 -13.489  1.00  0.00    -0.544 OA
ENDBRANCH   2   7
ENDBRANCH   1   2
BRANCH   1  10
ATOM     10  C   UNL     1     -24.991 -22.271 -14.261  1.00  0.00     0.223 C 
ATOM     11  O   UNL     1     -25.732 -22.888 -13.450  1.00  0.00    -0.275 OA
ATOM     12  N   UNL     1     -24.673 -22.862 -15.522  1.00  0.00    -0.369 N 
ATOM     13  H   UNL     1     -25.041 -23.809 -15.766  1.00  0.00     0.159 HD
ATOM     14  H   UNL     1     -24.077 -22.358 -16.213  1.00  0.00     0.159 HD
ENDBRANCH   1  10
TORSDOF 4
ENDMDL
MODEL 3
REMARK VINA RESULT:    -4.373      2.176      2.603
REMARK INTER + INTRA:          -5.510
REMARK INTER:                  -5.017
REMARK INTRA:                  -0.493
REMARK UNBOUND:                -0.242
REMARK SMILES NC(=O)C[C@@H]([NH3+])C(=O)[O-]
REMARK SMILES IDX 4 1 5 2 6 3 7 7 8 8 9 9 2 10 3 11 1 12
REMARK H PARENT 6 4 6 5 6 6 1 13 1 14
REMARK Flexibility Score: inf
ROOT
ATOM      1  C   UNL     1     -25.824 -22.739 -13.123  1.00  0.00     0.171 C 
ENDROOT
BRANCH   1   2
ATOM      2  C   UNL     1     -24.871 -22.492 -11.937  1.00  0.00     0.237 C 
BRANCH   2   3
ATOM      3  N   UNL     1     -23.518 -22.958 -12.260  1.00  0.00    -0.350 N 
ATOM      4  H   UNL     1     -22.823 -22.582 -11.574  1.00  0.00     0.345 HD
ATOM      5  H   UNL     1     -23.253 -22.641 -13.221  1.00  0.00     0.345 HD
ATOM      6  H   UNL     1     -23.487 -24.004 -12.242  1.00  0.00     0.345 HD
ENDBRANCH   2   3
BRANCH   2   7
ATOM      7  C   UNL     1     -24.839 -21.031 -11.567  1.00  0.00     0.100 C 
ATOM      8  O   UNL     1     -25.480 -20.619 -10.565  1.00  0.00    -0.544 OA
ATOM      9  O   UNL     1     -24.114 -20.129 -12.337  1.00  0.00    -0.544 OA
ENDBRANCH   2   7
ENDBRANCH   1   2
BRANCH   1  10
ATOM     10  C   UNL     1     -25.081 -22.791 -14.427  1.00  0.00     0.223 C 
ATOM     11  O   UNL     1     -24.771 -23.906 -14.926  1.00  0.00    -0.275 OA
ATOM     12  N   UNL     1     -24.759 -21.588 -15.126  1.00  0.00    -0.369 N 
ATOM     13  H   UNL     1     -24.256 -21.629 -16.040  1.00  0.00     0.159 HD
ATOM     14  H   UNL     1     -25.025 -20.657 -14.737  1.00  0.00     0.159 HD
ENDBRANCH   1  10
TORSDOF 4
ENDMDL
MODEL 4
REMARK VINA RESULT:    -4.303      1.896      4.199
REMARK INTER + INTRA:          -5.426
REMARK INTER:                  -5.156
REMARK INTRA:                  -0.269
REMARK UNBOUND:                -0.242
REMARK SMILES NC(=O)C[C@@H]([NH3+])C(=O)[O-]
REMARK SMILES IDX 4 1 5 2 6 3 7 7 8 8 9 9 2 10 3 11 1 12
REMARK H PARENT 6 4 6 5 6 6 1 13 1 14
REMARK Flexibility Score: inf
ROOT
ATOM      1  C   UNL     1     -23.622 -20.087 -12.380  1.00  0.00     0.171 C 
ENDROOT
BRANCH   1   2
ATOM      2  C   UNL     1     -23.817 -21.335 -13.263  1.00  0.00     0.237 C 
BRANCH   2   3
ATOM      3  N   UNL     1     -22.603 -22.160 -13.262  1.00  0.00    -0.350 N 
ATOM      4  H   UNL     1     -22.297 -22.370 -14.240  1.00  0.00     0.345 HD
ATOM      5  H   UNL     1     -22.785 -23.059 -12.762  1.00  0.00     0.345 HD
ATOM      6  H   UNL     1     -21.833 -21.658 -12.761  1.00  0.00     0.345 HD
ENDBRANCH   2   3
BRANCH   2   7
ATOM      7  C   UNL     1     -24.994 -22.150 -12.791  1.00  0.00     0.100 C 
ATOM      8  O   UNL     1     -25.290 -22.184 -11.568  1.00  0.00    -0.544 OA
ATOM      9  O   UNL     1     -25.752 -22.879 -13.700  1.00  0.00    -0.544 OA
ENDBRANCH   2   7
ENDBRANCH   1   2
BRANCH   1  10
ATOM     10  C   UNL     1     -22.449 -19.266 -12.834  1.00  0.00     0.223 C 
ATOM     11  O   UNL     1     -21.283 -19.598 -12.492  1.00  0.00    -0.275 OA
ATOM     12  N   UNL     1     -22.643 -18.134 -13.683  1.00  0.00    -0.369 N 
ATOM     13  H   UNL     1     -21.824 -17.575 -14.008  1.00  0.00     0.159 HD
ATOM     14  H   UNL     1     -23.600 -17.856 -13.991  1.00  0.00     0.159 HD
ENDBRANCH   1  10
TORSDOF 4
ENDMDL
MODEL 5
REMARK VINA RESULT:    -4.269      1.817      1.998
REMARK INTER + INTRA:          -5.384
REMARK INTER:                  -4.913
REMARK INTRA:                  -0.471
REMARK UNBOUND:                -0.242
REMARK SMILES NC(=O)C[C@@H]([NH3+])C(=O)[O-]
REMARK SMILES IDX 4 1 5 2 6 3 7 7 8 8 9 9 2 10 3 11 1 12
REMARK H PARENT 6 4 6 5 6 6 1 13 1 14
REMARK Flexibility Score: inf
ROOT
ATOM      1  C   UNL     1     -23.991 -21.577 -12.560  1.00  0.00     0.171 C 
ENDROOT
BRANCH   1   2
ATOM      2  C   UNL     1     -22.727 -20.695 -12.549  1.00  0.00     0.237 C 
BRANCH   2   3
ATOM      3  N   UNL     1     -21.657 -21.322 -13.335  1.00  0.00    -0.350 N 
ATOM      4  H   UNL     1     -20.956 -20.609 -13.642  1.00  0.00     0.345 HD
ATOM      5  H   UNL     1     -22.063 -21.786 -14.180  1.00  0.00     0.345 HD
ATOM      6  H   UNL     1     -21.176 -22.052 -12.761  1.00  0.00     0.345 HD
ENDBRANCH   2   3
BRANCH   2   7
ATOM      7  C   UNL     1     -23.026 -19.320 -13.090  1.00  0.00     0.100 C 
ATOM      8  O   UNL     1     -24.113 -19.097 -13.684  1.00  0.00    -0.544 OA
ATOM      9  O   UNL     1     -22.098 -18.294 -12.948  1.00  0.00    -0.544 OA
ENDBRANCH   2   7
ENDBRANCH   1   2
BRANCH   1  10
ATOM     10  C   UNL     1     -24.063 -22.425 -13.797  1.00  0.00     0.223 C 
ATOM     11  O   UNL     1     -23.513 -23.559 -13.812  1.00  0.00    -0.275 OA
ATOM     12  N   UNL     1     -24.784 -21.974 -14.944  1.00  0.00    -0.369 N 
ATOM     13  H   UNL     1     -24.845 -22.573 -15.797  1.00  0.00     0.159 HD
ATOM     14  H   UNL     1     -25.262 -21.046 -14.943  1.00  0.00     0.159 HD
ENDBRANCH   1  10
TORSDOF 4
ENDMDL
MODEL 6
REMARK VINA RESULT:    -4.124      1.918      3.741
REMARK INTER + INTRA:          -5.211
REMARK INTER:                  -4.835
REMARK INTRA:                  -0.375
REMARK UNBOUND:                -0.242
REMARK SMILES NC(=O)C[C@@H]([NH3+])C(=O)[O-]
REMARK SMILES IDX 4 1 5 2 6 3 7 7 8 8 9 9 2 10 3 11 1 12
REMARK H PARENT 6 4 6 5 6 6 1 13 1 14
REMARK Flexibility Score: inf
ROOT
ATOM      1  C   UNL     1     -23.899 -20.531 -12.297  1.00  0.00     0.171 C 
ENDROOT
BRANCH   1   2
ATOM      2  C   UNL     1     -24.504 -21.517 -13.315  1.00  0.00     0.237 C 
BRANCH   2   3
ATOM      3  N   UNL     1     -24.690 -20.862 -14.616  1.00  0.00    -0.350 N 
ATOM      4  H   UNL     1     -25.422 -21.354 -15.177  1.00  0.00     0.345 HD
ATOM      5  H   UNL     1     -23.790 -20.869 -15.148  1.00  0.00     0.345 HD
ATOM      6  H   UNL     1     -24.977 -19.866 -14.474  1.00  0.00     0.345 HD
ENDBRANCH   2   3
BRANCH   2   7
ATOM      7  C   UNL     1     -23.628 -22.735 -13.471  1.00  0.00     0.100 C 
ATOM      8  O   UNL     1     -22.578 -22.849 -12.787  1.00  0.00    -0.544 OA
ATOM      9  O   UNL     1     -23.967 -23.730 -14.380  1.00  0.00    -0.544 OA
ENDBRANCH   2   7
ENDBRANCH   1   2
BRANCH   1  10
ATOM     10  C   UNL     1     -22.841 -19.669 -12.923  1.00  0.00     0.223 C 
ATOM     11  O   UNL     1     -23.177 -18.680 -13.628  1.00  0.00    -0.275 OA
ATOM     12  N   UNL     1     -21.458 -19.937 -12.692  1.00  0.00    -0.369 N 
ATOM     13  H   UNL     1     -20.725 -19.326 -13.117  1.00  0.00     0.159 HD
ATOM     14  H   UNL     1     -21.162 -20.741 -12.096  1.00  0.00     0.159 HD
ENDBRANCH   1  10
TORSDOF 4
ENDMDL
MODEL 7
REMARK VINA RESULT:    -4.124     10.018     10.885
REMARK INTER + INTRA:          -5.210
REMARK INTER:                  -4.968
REMARK INTRA:                  -0.242
REMARK UNBOUND:                -0.242
REMARK SMILES NC(=O)C[C@@H]([NH3+])C(=O)[O-]
REMARK SMILES IDX 4 1 5 2 6 3 7 7 8 8 9 9 2 10 3 11 1 12
REMARK H PARENT 6 4 6 5 6 6 1 13 1 14
REMARK Flexibility Score: inf
ROOT
ATOM      1  C   UNL     1     -29.125 -31.179 -13.251  1.00  0.00     0.171 C 
ENDROOT
BRANCH   1   2
ATOM      2  C   UNL     1     -28.373 -29.991 -13.882  1.00  0.00     0.237 C 
BRANCH   2   3
ATOM      3  N   UNL     1     -27.073 -29.801 -13.227  1.00  0.00    -0.350 N 
ATOM      4  H   UNL     1     -27.035 -30.321 -12.321  1.00  0.00     0.345 HD
ATOM      5  H   UNL     1     -26.914 -28.784 -13.043  1.00  0.00     0.345 HD
ATOM      6  H   UNL     1     -26.307 -30.143 -13.852  1.00  0.00     0.345 HD
ENDBRANCH   2   3
BRANCH   2   7
ATOM      7  C   UNL     1     -28.179 -30.201 -15.362  1.00  0.00     0.100 C 
ATOM      8  O   UNL     1     -27.536 -31.199 -15.780  1.00  0.00    -0.544 OA
ATOM      9  O   UNL     1     -28.697 -29.289 -16.274  1.00  0.00    -0.544 OA
ENDBRANCH   2   7
ENDBRANCH   1   2
BRANCH   1  10
ATOM     10  C   UNL     1     -28.953 -31.214 -11.760  1.00  0.00     0.223 C 
ATOM     11  O   UNL     1     -28.887 -30.135 -11.113  1.00  0.00    -0.275 OA
ATOM     12  N   UNL     1     -28.904 -32.460 -11.065  1.00  0.00    -0.369 N 
ATOM     13  H   UNL     1     -28.799 -32.479 -10.026  1.00  0.00     0.159 HD
ATOM     14  H   UNL     1     -28.976 -33.363 -11.582  1.00  0.00     0.159 HD
ENDBRANCH   1  10
TORSDOF 4
ENDMDL
MODEL 8
REMARK VINA RESULT:    -4.122      1.652      4.119
REMARK INTER + INTRA:          -5.207
REMARK INTER:                  -5.001
REMARK INTRA:                  -0.206
REMARK UNBOUND:                -0.242
REMARK SMILES NC(=O)C[C@@H]([NH3+])C(=O)[O-]
REMARK SMILES IDX 4 1 5 2 6 3 7 7 8 8 9 9 2 10 3 11 1 12
REMARK H PARENT 6 4 6 5 6 6 1 13 1 14
REMARK Flexibility Score: inf
ROOT
ATOM      1  C   UNL     1     -23.875 -20.704 -12.941  1.00  0.00     0.171 C 
ENDROOT
BRANCH   1   2
ATOM      2  C   UNL     1     -23.729 -22.216 -13.204  1.00  0.00     0.237 C 
BRANCH   2   3
ATOM      3  N   UNL     1     -23.715 -22.958 -11.938  1.00  0.00    -0.350 N 
ATOM      4  H   UNL     1     -24.303 -22.475 -11.219  1.00  0.00     0.345 HD
ATOM      5  H   UNL     1     -22.735 -23.033 -11.581  1.00  0.00     0.345 HD
ATOM      6  H   UNL     1     -24.082 -23.926 -12.088  1.00  0.00     0.345 HD
ENDBRANCH   2   3
BRANCH   2   7
ATOM      7  C   UNL     1     -24.845 -22.719 -14.084  1.00  0.00     0.100 C 
ATOM      8  O   UNL     1     -24.638 -22.932 -15.308  1.00  0.00    -0.544 OA
ATOM      9  O   UNL     1     -26.111 -22.938 -13.555  1.00  0.00    -0.544 OA
ENDBRANCH   2   7
ENDBRANCH   1   2
BRANCH   1  10
ATOM     10  C   UNL     1     -22.547 -20.061 -12.664  1.00  0.00     0.223 C 
ATOM     11  O   UNL     1     -21.485 -20.708 -12.861  1.00  0.00    -0.275 OA
ATOM     12  N   UNL     1     -22.477 -18.707 -12.215  1.00  0.00    -0.369 N 
ATOM     13  H   UNL     1     -21.551 -18.258 -12.038  1.00  0.00     0.159 HD
ATOM     14  H   UNL     1     -23.346 -18.149 -12.064  1.00  0.00     0.159 HD
ENDBRANCH   1  10
TORSDOF 4
ENDMDL
MODEL 9
REMARK VINA RESULT:    -4.044      1.765      3.808
REMARK INTER + INTRA:          -5.114
REMARK INTER:                  -4.928
REMARK INTRA:                  -0.185
REMARK UNBOUND:                -0.242
REMARK SMILES NC(=O)C[C@@H]([NH3+])C(=O)[O-]
REMARK SMILES IDX 4 1 5 2 6 3 7 7 8 8 9 9 2 10 3 11 1 12
REMARK H PARENT 6 4 6 5 6 6 1 13 1 14
REMARK Flexibility Score: inf
ROOT
ATOM      1  C   UNL     1     -23.198 -22.334 -12.943  1.00  0.00     0.171 C 
ENDROOT
BRANCH   1   2
ATOM      2  C   UNL     1     -24.697 -22.163 -13.260  1.00  0.00     0.237 C 
BRANCH   2   3
ATOM      3  N   UNL     1     -25.172 -23.269 -14.101  1.00  0.00    -0.350 N 
ATOM      4  H   UNL     1     -26.017 -22.982 -14.647  1.00  0.00     0.345 HD
ATOM      5  H   UNL     1     -25.415 -24.091 -13.502  1.00  0.00     0.345 HD
ATOM      6  H   UNL     1     -24.417 -23.561 -14.764  1.00  0.00     0.345 HD
ENDBRANCH   2   3
BRANCH   2   7
ATOM      7  C   UNL     1     -25.511 -22.093 -11.993  1.00  0.00     0.100 C 
ATOM      8  O   UNL     1     -26.501 -22.854 -11.835  1.00  0.00    -0.544 OA
ATOM      9  O   UNL     1     -25.182 -21.179 -10.999  1.00  0.00    -0.544 OA
ENDBRANCH   2   7
ENDBRANCH   1   2
BRANCH   1  10
ATOM     10  C   UNL     1     -22.462 -21.027 -13.030  1.00  0.00     0.223 C 
ATOM     11  O   UNL     1     -21.205 -21.011 -12.950  1.00  0.00    -0.275 OA
ATOM     12  N   UNL     1     -23.174 -19.808 -13.243  1.00  0.00    -0.369 N 
ATOM     13  H   UNL     1     -22.658 -18.903 -13.318  1.00  0.00     0.159 HD
ATOM     14  H   UNL     1     -24.214 -19.805 -13.331  1.00  0.00     0.159 HD
ENDBRANCH   1  10
TORSDOF 4
ENDMDL
