MODEL 1
REMARK VINA RESULT:    -4.832      0.000      0.000
REMARK INTER + INTRA:          -5.500
REMARK INTER:                  -5.397
REMARK INTRA:                  -0.102
REMARK UNBOUND:                -0.102
REMARK SMILES CCc1ccc(O)cc1O
REMARK SMILES IDX 3 1 9 2 8 3 6 4 5 5 4 6 2 7 1 8 10 9 7 11
REMARK H PARENT 10 10 7 12
REMARK Flexibility Score: inf
ROOT
ATOM      1  C   UNL     1      -0.528  -0.208   0.308  1.00  0.00    -0.006 A 
ATOM      2  C   UNL     1      -0.422   0.689   1.391  1.00  0.00     0.122 A 
ATOM      3  C   UNL     1      -1.249   0.531   2.513  1.00  0.00     0.092 A 
ATOM      4  C   UNL     1      -2.170  -0.519   2.571  1.00  0.00     0.119 A 
ATOM      5  C   UNL     1      -2.267  -1.420   1.503  1.00  0.00     0.047 A 
ATOM      6  C   UNL     1      -1.447  -1.268   0.382  1.00  0.00     0.011 A 
ENDROOT
BRANCH   1   7
ATOM      7  C   UNL     1       0.370  -0.079  -0.896  1.00  0.00     0.036 C 
ATOM      8  C   UNL     1      -0.385   0.535  -2.070  1.00  0.00     0.009 C 
ENDBRANCH   1   7
BRANCH   2   9
ATOM      9  O   UNL     1       0.502   1.732   1.350  1.00  0.00    -0.508 OA
ATOM     10  H   UNL     1       0.852   2.100   0.472  1.00  0.00     0.293 HD
ENDBRANCH   2   9
BRANCH   4  11
ATOM     11  O   UNL     1      -2.983  -0.660   3.694  1.00  0.00    -0.508 OA
ATOM     12  H   UNL     1      -3.116  -1.559   4.141  1.00  0.00     0.293 HD
ENDBRANCH   4  11
TORSDOF 3
ENDMDL
MODEL 2
REMARK VINA RESULT:    -4.530      1.585      2.205
REMARK INTER + INTRA:          -5.162
REMARK INTER:                  -5.062
REMARK INTRA:                  -0.100
REMARK UNBOUND:                -0.102
REMARK SMILES CCc1ccc(O)cc1O
REMARK SMILES IDX 3 1 9 2 8 3 6 4 5 5 4 6 2 7 1 8 10 9 7 11
REMARK H PARENT 10 10 7 12
REMARK Flexibility Score: inf
ROOT
ATOM      1  C   UNL     1      -0.538  -0.392   0.367  1.00  0.00    -0.006 A 
ATOM      2  C   UNL     1      -1.400  -1.503   0.468  1.00  0.00     0.122 A 
ATOM      3  C   UNL     1      -2.250  -1.628   1.578  1.00  0.00     0.092 A 
ATOM      4  C   UNL     1      -2.256  -0.652   2.578  1.00  0.00     0.119 A 
ATOM      5  C   UNL     1      -1.411   0.459   2.472  1.00  0.00     0.047 A 
ATOM      6  C   UNL     1      -0.562   0.590   1.370  1.00  0.00     0.011 A 
ENDROOT
BRANCH   1   7
ATOM      7  C   UNL     1       0.363  -0.216  -0.829  1.00  0.00     0.036 C 
ATOM      8  C   UNL     1      -0.344   0.569  -1.929  1.00  0.00     0.009 C 
ENDBRANCH   1   7
BRANCH   2   9
ATOM      9  O   UNL     1      -1.412  -2.476  -0.531  1.00  0.00    -0.508 OA
ATOM     10  H   UNL     1      -2.068  -3.248  -0.513  1.00  0.00     0.293 HD
ENDBRANCH   2   9
BRANCH   4  11
ATOM     11  O   UNL     1      -3.108  -0.795   3.672  1.00  0.00    -0.508 OA
ATOM     12  H   UNL     1      -2.791  -1.216   4.537  1.00  0.00     0.293 HD
ENDBRANCH   4  11
TORSDOF 3
ENDMDL
MODEL 3
REMARK VINA RESULT:    -4.463      2.024      2.531
REMARK INTER + INTRA:          -5.087
REMARK INTER:                  -4.979
REMARK INTRA:                  -0.108
REMARK UNBOUND:                -0.102
REMARK SMILES CCc1ccc(O)cc1O
REMARK SMILES IDX 3 1 9 2 8 3 6 4 5 5 4 6 2 7 1 8 10 9 7 11
REMARK H PARENT 10 10 7 12
REMARK Flexibility Score: inf
ROOT
ATOM      1  C   UNL     1      -0.379  -1.366  -0.690  1.00  0.00    -0.006 A 
ATOM      2  C   UNL     1       0.228  -0.101  -0.557  1.00  0.00     0.122 A 
ATOM      3  C   UNL     1       0.421   0.451   0.719  1.00  0.00     0.092 A 
ATOM      4  C   UNL     1       0.027  -0.252   1.861  1.00  0.00     0.119 A 
ATOM      5  C   UNL     1      -0.562  -1.516   1.732  1.00  0.00     0.047 A 
ATOM      6  C   UNL     1      -0.758  -2.071   0.465  1.00  0.00     0.011 A 
ENDROOT
BRANCH   1   7
ATOM      7  C   UNL     1      -0.571  -1.996  -2.046  1.00  0.00     0.036 C 
ATOM      8  C   UNL     1       0.544  -2.993  -2.343  1.00  0.00     0.009 C 
ENDBRANCH   1   7
BRANCH   2   9
ATOM      9  O   UNL     1       0.637   0.604  -1.688  1.00  0.00    -0.508 OA
ATOM     10  H   UNL     1       1.588   0.550  -2.034  1.00  0.00     0.293 HD
ENDBRANCH   2   9
BRANCH   4  11
ATOM     11  O   UNL     1       0.228   0.312   3.119  1.00  0.00    -0.508 OA
ATOM     12  H   UNL     1       1.007   0.035   3.705  1.00  0.00     0.293 HD
ENDBRANCH   4  11
TORSDOF 3
ENDMDL
MODEL 4
REMARK VINA RESULT:    -4.453      8.775      9.745
REMARK INTER + INTRA:          -5.076
REMARK INTER:                  -4.990
REMARK INTRA:                  -0.087
REMARK UNBOUND:                -0.102
REMARK SMILES CCc1ccc(O)cc1O
REMARK SMILES IDX 3 1 9 2 8 3 6 4 5 5 4 6 2 7 1 8 10 9 7 11
REMARK H PARENT 10 10 7 12
REMARK Flexibility Score: inf
ROOT
ATOM      1  C   UNL     1      -6.802   2.130  -6.095  1.00  0.00    -0.006 A 
ATOM      2  C   UNL     1      -5.608   1.953  -6.822  1.00  0.00     0.122 A 
ATOM      3  C   UNL     1      -4.525   2.819  -6.607  1.00  0.00     0.092 A 
ATOM      4  C   UNL     1      -4.617   3.848  -5.666  1.00  0.00     0.119 A 
ATOM      5  C   UNL     1      -5.797   4.016  -4.932  1.00  0.00     0.047 A 
ATOM      6  C   UNL     1      -6.880   3.159  -5.141  1.00  0.00     0.011 A 
ENDROOT
BRANCH   1   7
ATOM      7  C   UNL     1      -7.971   1.196  -6.284  1.00  0.00     0.036 C 
ATOM      8  C   UNL     1      -8.821   1.130  -5.019  1.00  0.00     0.009 C 
ENDBRANCH   1   7
BRANCH   2   9
ATOM      9  O   UNL     1      -5.500   0.922  -7.754  1.00  0.00    -0.508 OA
ATOM     10  H   UNL     1      -5.971   0.963  -8.651  1.00  0.00     0.293 HD
ENDBRANCH   2   9
BRANCH   4  11
ATOM     11  O   UNL     1      -3.529   4.697  -5.466  1.00  0.00    -0.508 OA
ATOM     12  H   UNL     1      -3.621   5.702  -5.551  1.00  0.00     0.293 HD
ENDBRANCH   4  11
TORSDOF 3
ENDMDL
MODEL 5
REMARK VINA RESULT:    -4.439      2.669      4.006
REMARK INTER + INTRA:          -5.060
REMARK INTER:                  -4.955
REMARK INTRA:                  -0.105
REMARK UNBOUND:                -0.102
REMARK SMILES CCc1ccc(O)cc1O
REMARK SMILES IDX 3 1 9 2 8 3 6 4 5 5 4 6 2 7 1 8 10 9 7 11
REMARK H PARENT 10 10 7 12
REMARK Flexibility Score: inf
ROOT
ATOM      1  C   UNL     1      -0.387  -1.123   0.325  1.00  0.00    -0.006 A 
ATOM      2  C   UNL     1       0.050  -0.470  -0.845  1.00  0.00     0.122 A 
ATOM      3  C   UNL     1      -0.202  -1.044  -2.100  1.00  0.00     0.092 A 
ATOM      4  C   UNL     1      -0.896  -2.252  -2.200  1.00  0.00     0.119 A 
ATOM      5  C   UNL     1      -1.345  -2.895  -1.040  1.00  0.00     0.047 A 
ATOM      6  C   UNL     1      -1.096  -2.331   0.214  1.00  0.00     0.011 A 
ENDROOT
BRANCH   1   7
ATOM      7  C   UNL     1      -0.157  -0.515   1.685  1.00  0.00     0.036 C 
ATOM      8  C   UNL     1      -1.337   0.360   2.094  1.00  0.00     0.009 C 
ENDBRANCH   1   7
BRANCH   2   9
ATOM      9  O   UNL     1       0.733   0.743  -0.759  1.00  0.00    -0.508 OA
ATOM     10  H   UNL     1       1.709   0.786  -0.489  1.00  0.00     0.293 HD
ENDBRANCH   2   9
BRANCH   4  11
ATOM     11  O   UNL     1      -1.138  -2.805  -3.457  1.00  0.00    -0.508 OA
ATOM     12  H   UNL     1      -0.980  -2.276  -4.306  1.00  0.00     0.293 HD
ENDBRANCH   4  11
TORSDOF 3
ENDMDL
MODEL 6
REMARK VINA RESULT:    -4.419      2.711      4.184
REMARK INTER + INTRA:          -5.038
REMARK INTER:                  -4.941
REMARK INTRA:                  -0.097
REMARK UNBOUND:                -0.102
REMARK SMILES CCc1ccc(O)cc1O
REMARK SMILES IDX 3 1 9 2 8 3 6 4 5 5 4 6 2 7 1 8 10 9 7 11
REMARK H PARENT 10 10 7 12
REMARK Flexibility Score: inf
ROOT
ATOM      1  C   UNL     1      -0.033  -0.298  -0.041  1.00  0.00    -0.006 A 
ATOM      2  C   UNL     1      -0.666  -1.539   0.174  1.00  0.00     0.122 A 
ATOM      3  C   UNL     1      -1.019  -2.341  -0.922  1.00  0.00     0.092 A 
ATOM      4  C   UNL     1      -0.736  -1.924  -2.225  1.00  0.00     0.119 A 
ATOM      5  C   UNL     1      -0.095  -0.698  -2.440  1.00  0.00     0.047 A 
ATOM      6  C   UNL     1       0.260   0.106  -1.354  1.00  0.00     0.011 A 
ENDROOT
BRANCH   1   7
ATOM      7  C   UNL     1       0.385   0.571   1.118  1.00  0.00     0.036 C 
ATOM      8  C   UNL     1       1.893   0.803   1.105  1.00  0.00     0.009 C 
ENDBRANCH   1   7
BRANCH   2   9
ATOM      9  O   UNL     1      -0.941  -1.971   1.470  1.00  0.00    -0.508 OA
ATOM     10  H   UNL     1      -0.837  -2.943   1.740  1.00  0.00     0.293 HD
ENDBRANCH   2   9
BRANCH   4  11
ATOM     11  O   UNL     1      -1.095  -2.736  -3.300  1.00  0.00    -0.508 OA
ATOM     12  H   UNL     1      -2.043  -2.754  -3.655  1.00  0.00     0.293 HD
ENDBRANCH   4  11
TORSDOF 3
ENDMDL
MODEL 7
REMARK VINA RESULT:    -4.391      2.024      3.005
REMARK INTER + INTRA:          -5.007
REMARK INTER:                  -4.921
REMARK INTRA:                  -0.086
REMARK UNBOUND:                -0.102
REMARK SMILES CCc1ccc(O)cc1O
REMARK SMILES IDX 3 1 9 2 8 3 6 4 5 5 4 6 2 7 1 8 10 9 7 11
REMARK H PARENT 10 10 7 12
REMARK Flexibility Score: inf
ROOT
ATOM      1  C   UNL     1      -0.462  -1.076  -0.879  1.00  0.00    -0.006 A 
ATOM      2  C   UNL     1      -1.019  -1.736   0.235  1.00  0.00     0.122 A 
ATOM      3  C   UNL     1      -0.741  -1.276   1.531  1.00  0.00     0.092 A 
ATOM      4  C   UNL     1       0.074  -0.157   1.725  1.00  0.00     0.119 A 
ATOM      5  C   UNL     1       0.616   0.509   0.619  1.00  0.00     0.047 A 
ATOM      6  C   UNL     1       0.345   0.055  -0.674  1.00  0.00     0.011 A 
ENDROOT
BRANCH   1   7
ATOM      7  C   UNL     1      -0.768  -1.531  -2.283  1.00  0.00     0.036 C 
ATOM      8  C   UNL     1       0.446  -1.348  -3.188  1.00  0.00     0.009 C 
ENDBRANCH   1   7
BRANCH   2   9
ATOM      9  O   UNL     1      -1.845  -2.845   0.053  1.00  0.00    -0.508 OA
ATOM     10  H   UNL     1      -2.420  -3.209   0.804  1.00  0.00     0.293 HD
ENDBRANCH   2   9
BRANCH   4  11
ATOM     11  O   UNL     1       0.337   0.285   3.020  1.00  0.00    -0.508 OA
ATOM     12  H   UNL     1      -0.330   0.849   3.532  1.00  0.00     0.293 HD
ENDBRANCH   4  11
TORSDOF 3
ENDMDL
MODEL 8
REMARK VINA RESULT:    -4.351      1.685      3.767
REMARK INTER + INTRA:          -4.962
REMARK INTER:                  -4.857
REMARK INTRA:                  -0.106
REMARK UNBOUND:                -0.102
REMARK SMILES CCc1ccc(O)cc1O
REMARK SMILES IDX 3 1 9 2 8 3 6 4 5 5 4 6 2 7 1 8 10 9 7 11
REMARK H PARENT 10 10 7 12
REMARK Flexibility Score: inf
ROOT
ATOM      1  C   UNL     1      -0.947  -1.146   1.687  1.00  0.00    -0.006 A 
ATOM      2  C   UNL     1      -0.021  -0.090   1.808  1.00  0.00     0.122 A 
ATOM      3  C   UNL     1       0.561   0.464   0.658  1.00  0.00     0.092 A 
ATOM      4  C   UNL     1       0.220  -0.016  -0.609  1.00  0.00     0.119 A 
ATOM      5  C   UNL     1      -0.710  -1.055  -0.733  1.00  0.00     0.047 A 
ATOM      6  C   UNL     1      -1.293  -1.612   0.408  1.00  0.00     0.011 A 
ENDROOT
BRANCH   1   7
ATOM      7  C   UNL     1      -1.610  -1.739   2.903  1.00  0.00     0.036 C 
ATOM      8  C   UNL     1      -3.056  -1.265   3.017  1.00  0.00     0.009 C 
ENDBRANCH   1   7
BRANCH   2   9
ATOM      9  O   UNL     1       0.317   0.406   3.067  1.00  0.00    -0.508 OA
ATOM     10  H   UNL     1      -0.377   0.521   3.797  1.00  0.00     0.293 HD
ENDBRANCH   2   9
BRANCH   4  11
ATOM     11  O   UNL     1       0.810   0.548  -1.740  1.00  0.00    -0.508 OA
ATOM     12  H   UNL     1       1.594   1.185  -1.665  1.00  0.00     0.293 HD
ENDBRANCH   4  11
TORSDOF 3
ENDMDL
MODEL 9
REMARK VINA RESULT:    -4.351      2.016      3.972
REMARK INTER + INTRA:          -4.962
REMARK INTER:                  -4.876
REMARK INTRA:                  -0.086
REMARK UNBOUND:                -0.102
REMARK SMILES CCc1ccc(O)cc1O
REMARK SMILES IDX 3 1 9 2 8 3 6 4 5 5 4 6 2 7 1 8 10 9 7 11
REMARK H PARENT 10 10 7 12
REMARK Flexibility Score: inf
ROOT
ATOM      1  C   UNL     1      -1.375  -0.689   1.290  1.00  0.00    -0.006 A 
ATOM      2  C   UNL     1      -0.590  -0.781   0.123  1.00  0.00     0.122 A 
ATOM      3  C   UNL     1       0.592  -0.033   0.016  1.00  0.00     0.092 A 
ATOM      4  C   UNL     1       1.004   0.794   1.065  1.00  0.00     0.119 A 
ATOM      5  C   UNL     1       0.233   0.875   2.230  1.00  0.00     0.047 A 
ATOM      6  C   UNL     1      -0.946   0.134   2.344  1.00  0.00     0.011 A 
ENDROOT
BRANCH   1   7
ATOM      7  C   UNL     1      -2.634  -1.505   1.444  1.00  0.00     0.036 C 
ATOM      8  C   UNL     1      -3.205  -1.359   2.850  1.00  0.00     0.009 C 
ENDBRANCH   1   7
BRANCH   2   9
ATOM      9  O   UNL     1      -0.984  -1.613  -0.925  1.00  0.00    -0.508 OA
ATOM     10  H   UNL     1      -1.927  -1.981  -0.987  1.00  0.00     0.293 HD
ENDBRANCH   2   9
BRANCH   4  11
ATOM     11  O   UNL     1       2.182   1.528   0.939  1.00  0.00    -0.508 OA
ATOM     12  H   UNL     1       2.510   1.851   0.037  1.00  0.00     0.293 HD
ENDBRANCH   4  11
TORSDOF 3
ENDMDL
