MODEL 1
REMARK VINA RESULT:    -4.803      0.000      0.000
REMARK INTER + INTRA:          -6.019
REMARK INTER:                  -5.926
REMARK INTRA:                  -0.093
REMARK UNBOUND:                -0.093
REMARK SMILES CCCCCC(=O)[O-]
REMARK SMILES IDX 4 1 5 2 6 3 7 4 8 5 3 6 2 7 1 8
REMARK H PARENT
REMARK Flexibility Score: inf
ROOT
ATOM      1  C   UNL     1      16.588   8.545 -21.275  1.00  0.00     0.006 C 
ENDROOT
BRANCH   1   2
ATOM      2  C   UNL     1      16.895   8.509 -19.770  1.00  0.00     0.053 C 
BRANCH   2   3
ATOM      3  C   UNL     1      17.976   9.475 -19.395  1.00  0.00     0.041 C 
ATOM      4  O   UNL     1      17.722  10.705 -19.300  1.00  0.00    -0.550 OA
ATOM      5  O   UNL     1      19.272   9.023 -19.183  1.00  0.00    -0.550 OA
ENDBRANCH   2   3
ENDBRANCH   1   2
BRANCH   1   6
ATOM      6  C   UNL     1      15.565   7.491 -21.738  1.00  0.00     0.000 C 
BRANCH   6   7
ATOM      7  C   UNL     1      14.930   6.726 -20.568  1.00  0.00    -0.003 C 
ATOM      8  C   UNL     1      13.504   7.205 -20.308  1.00  0.00     0.004 C 
ENDBRANCH   6   7
ENDBRANCH   1   6
TORSDOF 4
ENDMDL
MODEL 2
REMARK VINA RESULT:    -4.784      0.109      1.144
REMARK INTER + INTRA:          -5.996
REMARK INTER:                  -5.902
REMARK INTRA:                  -0.094
REMARK UNBOUND:                -0.093
REMARK SMILES CCCCCC(=O)[O-]
REMARK SMILES IDX 4 1 5 2 6 3 7 4 8 5 3 6 2 7 1 8
REMARK H PARENT
REMARK Flexibility Score: inf
ROOT
ATOM      1  C   UNL     1      16.569   8.575 -21.237  1.00  0.00     0.006 C 
ENDROOT
BRANCH   1   2
ATOM      2  C   UNL     1      16.886   8.538 -19.733  1.00  0.00     0.053 C 
BRANCH   2   3
ATOM      3  C   UNL     1      17.994   9.480 -19.371  1.00  0.00     0.041 C 
ATOM      4  O   UNL     1      19.116   9.033 -19.018  1.00  0.00    -0.550 OA
ATOM      5  O   UNL     1      17.776  10.852 -19.393  1.00  0.00    -0.550 OA
ENDBRANCH   2   3
ENDBRANCH   1   2
BRANCH   1   6
ATOM      6  C   UNL     1      15.575   7.494 -21.700  1.00  0.00     0.000 C 
BRANCH   6   7
ATOM      7  C   UNL     1      14.934   6.735 -20.530  1.00  0.00    -0.003 C 
ATOM      8  C   UNL     1      13.504   7.209 -20.285  1.00  0.00     0.004 C 
ENDBRANCH   6   7
ENDBRANCH   1   6
TORSDOF 4
ENDMDL
MODEL 3
REMARK VINA RESULT:    -4.548      1.602      2.242
REMARK INTER + INTRA:          -5.704
REMARK INTER:                  -5.605
REMARK INTRA:                  -0.100
REMARK UNBOUND:                -0.093
REMARK SMILES CCCCCC(=O)[O-]
REMARK SMILES IDX 4 1 5 2 6 3 7 4 8 5 3 6 2 7 1 8
REMARK H PARENT
REMARK Flexibility Score: inf
ROOT
ATOM      1  C   UNL     1      15.614   7.528 -21.586  1.00  0.00     0.006 C 
ENDROOT
BRANCH   1   2
ATOM      2  C   UNL     1      16.628   8.365 -20.790  1.00  0.00     0.053 C 
BRANCH   2   3
ATOM      3  C   UNL     1      16.895   9.688 -21.441  1.00  0.00     0.041 C 
ATOM      4  O   UNL     1      17.542  10.577 -20.828  1.00  0.00    -0.550 OA
ATOM      5  O   UNL     1      16.401   9.950 -22.713  1.00  0.00    -0.550 OA
ENDBRANCH   2   3
ENDBRANCH   1   2
BRANCH   1   6
ATOM      6  C   UNL     1      14.704   6.642 -20.716  1.00  0.00     0.000 C 
BRANCH   6   7
ATOM      7  C   UNL     1      13.391   7.338 -20.330  1.00  0.00    -0.003 C 
ATOM      8  C   UNL     1      13.183   7.320 -18.818  1.00  0.00     0.004 C 
ENDBRANCH   6   7
ENDBRANCH   1   6
TORSDOF 4
ENDMDL
MODEL 4
REMARK VINA RESULT:    -4.449      1.012      1.312
REMARK INTER + INTRA:          -5.583
REMARK INTER:                  -5.511
REMARK INTRA:                  -0.072
REMARK UNBOUND:                -0.093
REMARK SMILES CCCCCC(=O)[O-]
REMARK SMILES IDX 4 1 5 2 6 3 7 4 8 5 3 6 2 7 1 8
REMARK H PARENT
REMARK Flexibility Score: inf
ROOT
ATOM      1  C   UNL     1      16.351   8.305 -20.592  1.00  0.00     0.006 C 
ENDROOT
BRANCH   1   2
ATOM      2  C   UNL     1      17.111   9.454 -21.273  1.00  0.00     0.053 C 
BRANCH   2   3
ATOM      3  C   UNL     1      18.073  10.121 -20.338  1.00  0.00     0.041 C 
ATOM      4  O   UNL     1      19.176  10.553 -20.765  1.00  0.00    -0.550 OA
ATOM      5  O   UNL     1      17.764  10.237 -18.988  1.00  0.00    -0.550 OA
ENDBRANCH   2   3
ENDBRANCH   1   2
BRANCH   1   6
ATOM      6  C   UNL     1      15.524   7.435 -21.557  1.00  0.00     0.000 C 
BRANCH   6   7
ATOM      7  C   UNL     1      14.639   6.415 -20.826  1.00  0.00    -0.003 C 
ATOM      8  C   UNL     1      13.729   7.103 -19.812  1.00  0.00     0.004 C 
ENDBRANCH   6   7
ENDBRANCH   1   6
TORSDOF 4
ENDMDL
MODEL 5
REMARK VINA RESULT:    -4.057      2.964      4.165
REMARK INTER + INTRA:          -5.099
REMARK INTER:                  -4.937
REMARK INTRA:                  -0.162
REMARK UNBOUND:                -0.093
REMARK SMILES CCCCCC(=O)[O-]
REMARK SMILES IDX 4 1 5 2 6 3 7 4 8 5 3 6 2 7 1 8
REMARK H PARENT
REMARK Flexibility Score: inf
ROOT
ATOM      1  C   UNL     1      15.532   7.458 -21.677  1.00  0.00     0.006 C 
ENDROOT
BRANCH   1   2
ATOM      2  C   UNL     1      14.902   6.634 -20.543  1.00  0.00     0.053 C 
BRANCH   2   3
ATOM      3  C   UNL     1      13.673   7.289 -19.992  1.00  0.00     0.041 C 
ATOM      4  O   UNL     1      12.901   7.931 -20.752  1.00  0.00    -0.550 OA
ATOM      5  O   UNL     1      13.397   7.219 -18.632  1.00  0.00    -0.550 OA
ENDBRANCH   2   3
ENDBRANCH   1   2
BRANCH   1   6
ATOM      6  C   UNL     1      16.365   8.661 -21.199  1.00  0.00     0.000 C 
BRANCH   6   7
ATOM      7  C   UNL     1      17.366   8.291 -20.095  1.00  0.00    -0.003 C 
ATOM      8  C   UNL     1      17.520   9.427 -19.089  1.00  0.00     0.004 C 
ENDBRANCH   6   7
ENDBRANCH   1   6
TORSDOF 4
ENDMDL
MODEL 6
REMARK VINA RESULT:    -4.043      2.113      3.028
REMARK INTER + INTRA:          -5.082
REMARK INTER:                  -4.987
REMARK INTRA:                  -0.095
REMARK UNBOUND:                -0.093
REMARK SMILES CCCCCC(=O)[O-]
REMARK SMILES IDX 4 1 5 2 6 3 7 4 8 5 3 6 2 7 1 8
REMARK H PARENT
REMARK Flexibility Score: inf
ROOT
ATOM      1  C   UNL     1      18.318  10.149 -20.598  1.00  0.00     0.006 C 
ENDROOT
BRANCH   1   2
ATOM      2  C   UNL     1      17.721  11.399 -21.264  1.00  0.00     0.053 C 
BRANCH   2   3
ATOM      3  C   UNL     1      17.679  12.567 -20.327  1.00  0.00     0.041 C 
ATOM      4  O   UNL     1      16.596  13.174 -20.118  1.00  0.00    -0.550 OA
ATOM      5  O   UNL     1      18.844  13.006 -19.710  1.00  0.00    -0.550 OA
ENDBRANCH   2   3
ENDBRANCH   1   2
BRANCH   1   6
ATOM      6  C   UNL     1      17.325   8.983 -20.436  1.00  0.00     0.000 C 
BRANCH   6   7
ATOM      7  C   UNL     1      16.335   8.879 -21.605  1.00  0.00    -0.003 C 
ATOM      8  C   UNL     1      15.652   7.515 -21.627  1.00  0.00     0.004 C 
ENDBRANCH   6   7
ENDBRANCH   1   6
TORSDOF 4
ENDMDL
MODEL 7
REMARK VINA RESULT:    -3.866      2.994      4.636
REMARK INTER + INTRA:          -4.864
REMARK INTER:                  -4.793
REMARK INTRA:                  -0.071
REMARK UNBOUND:                -0.093
REMARK SMILES CCCCCC(=O)[O-]
REMARK SMILES IDX 4 1 5 2 6 3 7 4 8 5 3 6 2 7 1 8
REMARK H PARENT
REMARK Flexibility Score: inf
ROOT
ATOM      1  C   UNL     1      16.544   8.291 -20.635  1.00  0.00     0.006 C 
ENDROOT
BRANCH   1   2
ATOM      2  C   UNL     1      15.549   7.564 -21.554  1.00  0.00     0.053 C 
BRANCH   2   3
ATOM      3  C   UNL     1      14.479   6.861 -20.777  1.00  0.00     0.041 C 
ATOM      4  O   UNL     1      14.628   5.659 -20.436  1.00  0.00    -0.550 OA
ATOM      5  O   UNL     1      13.300   7.525 -20.458  1.00  0.00    -0.550 OA
ENDBRANCH   2   3
ENDBRANCH   1   2
BRANCH   1   6
ATOM      6  C   UNL     1      17.134   9.580 -21.234  1.00  0.00     0.000 C 
BRANCH   6   7
ATOM      7  C   UNL     1      18.227  10.200 -20.352  1.00  0.00    -0.003 C 
ATOM      8  C   UNL     1      19.381   9.224 -20.140  1.00  0.00     0.004 C 
ENDBRANCH   6   7
ENDBRANCH   1   6
TORSDOF 4
ENDMDL
MODEL 8
REMARK VINA RESULT:    -3.837     15.809     16.852
REMARK INTER + INTRA:          -4.827
REMARK INTER:                  -4.742
REMARK INTRA:                  -0.085
REMARK UNBOUND:                -0.093
REMARK SMILES CCCCCC(=O)[O-]
REMARK SMILES IDX 4 1 5 2 6 3 7 4 8 5 3 6 2 7 1 8
REMARK H PARENT
REMARK Flexibility Score: inf
ROOT
ATOM      1  C   UNL     1       6.601  -2.227 -27.661  1.00  0.00     0.006 C 
ENDROOT
BRANCH   1   2
ATOM      2  C   UNL     1       6.214  -1.003 -28.507  1.00  0.00     0.053 C 
BRANCH   2   3
ATOM      3  C   UNL     1       4.758  -1.005 -28.860  1.00  0.00     0.041 C 
ATOM      4  O   UNL     1       4.360  -1.579 -29.907  1.00  0.00    -0.550 OA
ATOM      5  O   UNL     1       3.845  -0.343 -28.048  1.00  0.00    -0.550 OA
ENDBRANCH   2   3
ENDBRANCH   1   2
BRANCH   1   6
ATOM      6  C   UNL     1       8.110  -2.536 -27.650  1.00  0.00     0.000 C 
BRANCH   6   7
ATOM      7  C   UNL     1       8.693  -2.601 -26.231  1.00  0.00    -0.003 C 
ATOM      8  C   UNL     1       7.661  -3.125 -25.236  1.00  0.00     0.004 C 
ENDBRANCH   6   7
ENDBRANCH   1   6
TORSDOF 4
ENDMDL
MODEL 9
REMARK VINA RESULT:    -3.782      8.831      9.999
REMARK INTER + INTRA:          -4.760
REMARK INTER:                  -4.717
REMARK INTRA:                  -0.043
REMARK UNBOUND:                -0.093
REMARK SMILES CCCCCC(=O)[O-]
REMARK SMILES IDX 4 1 5 2 6 3 7 4 8 5 3 6 2 7 1 8
REMARK H PARENT
REMARK Flexibility Score: inf
ROOT
ATOM      1  C   UNL     1       9.603  13.696 -18.420  1.00  0.00     0.006 C 
ENDROOT
BRANCH   1   2
ATOM      2  C   UNL     1       8.950  13.879 -19.799  1.00  0.00     0.053 C 
BRANCH   2   3
ATOM      3  C   UNL     1       8.816  12.579 -20.532  1.00  0.00     0.041 C 
ATOM      4  O   UNL     1       7.801  12.354 -21.242  1.00  0.00    -0.550 OA
ATOM      5  O   UNL     1       9.797  11.603 -20.404  1.00  0.00    -0.550 OA
ENDBRANCH   2   3
ENDBRANCH   1   2
BRANCH   1   6
ATOM      6  C   UNL     1       9.595  14.961 -17.543  1.00  0.00     0.000 C 
BRANCH   6   7
ATOM      7  C   UNL     1       9.240  14.667 -16.078  1.00  0.00    -0.003 C 
ATOM      8  C   UNL     1      10.282  15.256 -15.131  1.00  0.00     0.004 C 
ENDBRANCH   6   7
ENDBRANCH   1   6
TORSDOF 4
ENDMDL
