MODEL 1
REMARK VINA RESULT:    -3.511      0.000      0.000
REMARK INTER + INTRA:          -4.692
REMARK INTER:                  -4.537
REMARK INTRA:                  -0.155
REMARK UNBOUND:                -0.155
REMARK SMILES CCO[C@@H]1O[C@@H](CO)[C@@H](O)[C@@H](O)[C@H]1O
REMARK SMILES IDX 4 1 13 2 11 3 9 4 6 5 5 6 3 7 2 8 1 9 14 10 12 12 7 14 8 15
REMARK SMILES IDX 10 17
REMARK H PARENT 14 11 12 13 8 16 10 18
REMARK Flexibility Score: inf
ROOT
ATOM      1  C   UNL     1      12.039  -8.408 -13.643  1.00  0.00     0.281 C 
ATOM      2  C   UNL     1      10.561  -8.285 -14.070  1.00  0.00     0.202 C 
ATOM      3  C   UNL     1      10.135  -9.516 -14.889  1.00  0.00     0.179 C 
ATOM      4  C   UNL     1      10.519 -10.817 -14.162  1.00  0.00     0.177 C 
ATOM      5  C   UNL     1      12.015 -10.757 -13.769  1.00  0.00     0.178 C 
ATOM      6  O   UNL     1      12.272  -9.627 -12.947  1.00  0.00    -0.341 OA
ENDROOT
BRANCH   1   7
ATOM      7  O   UNL     1      12.882  -8.286 -14.779  1.00  0.00    -0.350 OA
BRANCH   7   8
ATOM      8  C   UNL     1      13.294  -6.945 -14.968  1.00  0.00     0.160 C 
ATOM      9  C   UNL     1      14.809  -6.878 -15.124  1.00  0.00     0.035 C 
ENDBRANCH   7   8
ENDBRANCH   1   7
BRANCH   2  10
ATOM     10  O   UNL     1       9.743  -8.161 -12.935  1.00  0.00    -0.385 OA
ATOM     11  H   UNL     1       9.907  -7.257 -12.558  1.00  0.00     0.211 HD
ENDBRANCH   2  10
BRANCH   3  12
ATOM     12  O   UNL     1       8.751  -9.474 -15.125  1.00  0.00    -0.387 OA
ATOM     13  H   UNL     1       8.329 -10.082 -14.463  1.00  0.00     0.211 HD
ENDBRANCH   3  12
BRANCH   5  14
ATOM     14  C   UNL     1      12.463 -12.019 -13.016  1.00  0.00     0.191 C 
BRANCH  14  15
ATOM     15  O   UNL     1      13.753 -11.859 -12.487  1.00  0.00    -0.394 OA
ATOM     16  H   UNL     1      14.172 -11.108 -12.984  1.00  0.00     0.210 HD
ENDBRANCH  14  15
ENDBRANCH   5  14
BRANCH   4  17
ATOM     17  O   UNL     1       9.715 -10.977 -13.018  1.00  0.00    -0.387 OA
ATOM     18  H   UNL     1       9.660 -10.092 -12.573  1.00  0.00     0.211 HD
ENDBRANCH   4  17
TORSDOF 7
ENDMDL
MODEL 2
REMARK VINA RESULT:    -2.471      1.286      3.893
REMARK INTER + INTRA:          -3.348
REMARK INTER:                  -3.200
REMARK INTRA:                  -0.148
REMARK UNBOUND:                -0.155
REMARK SMILES CCO[C@@H]1O[C@@H](CO)[C@@H](O)[C@@H](O)[C@H]1O
REMARK SMILES IDX 4 1 13 2 11 3 9 4 6 5 5 6 3 7 2 8 1 9 14 10 12 12 7 14 8 15
REMARK SMILES IDX 10 17
REMARK H PARENT 14 11 12 13 8 16 10 18
REMARK Flexibility Score: inf
ROOT
ATOM      1  C   UNL     1      11.852 -10.120 -14.373  1.00  0.00     0.281 C 
ATOM      2  C   UNL     1      10.441  -9.644 -13.969  1.00  0.00     0.202 C 
ATOM      3  C   UNL     1      10.524  -8.314 -13.199  1.00  0.00     0.179 C 
ATOM      4  C   UNL     1      11.387  -7.293 -13.962  1.00  0.00     0.177 C 
ATOM      5  C   UNL     1      12.742  -7.944 -14.326  1.00  0.00     0.178 C 
ATOM      6  O   UNL     1      12.544  -9.114 -15.105  1.00  0.00    -0.341 OA
ENDROOT
BRANCH   1   7
ATOM      7  O   UNL     1      12.577 -10.518 -13.219  1.00  0.00    -0.350 OA
BRANCH   7   8
ATOM      8  C   UNL     1      12.261 -11.847 -12.849  1.00  0.00     0.160 C 
ATOM      9  C   UNL     1      13.505 -12.557 -12.327  1.00  0.00     0.035 C 
ENDBRANCH   7   8
ENDBRANCH   1   7
BRANCH   2  10
ATOM     10  O   UNL     1       9.643  -9.483 -15.114  1.00  0.00    -0.385 OA
ATOM     11  H   UNL     1      10.135  -8.875 -15.725  1.00  0.00     0.211 HD
ENDBRANCH   2  10
BRANCH   3  12
ATOM     12  O   UNL     1       9.232  -7.807 -12.987  1.00  0.00    -0.387 OA
ATOM     13  H   UNL     1       9.327  -7.025 -12.383  1.00  0.00     0.211 HD
ENDBRANCH   3  12
BRANCH   5  14
ATOM     14  C   UNL     1      13.649  -6.984 -15.112  1.00  0.00     0.191 C 
BRANCH  14  15
ATOM     15  O   UNL     1      14.984  -7.099 -14.698  1.00  0.00    -0.394 OA
ATOM     16  H   UNL     1      15.492  -6.393 -15.178  1.00  0.00     0.210 HD
ENDBRANCH  14  15
ENDBRANCH   5  14
BRANCH   4  17
ATOM     17  O   UNL     1      10.712  -6.875 -15.124  1.00  0.00    -0.387 OA
ATOM     18  H   UNL     1      10.759  -5.884 -15.150  1.00  0.00     0.211 HD
ENDBRANCH   4  17
TORSDOF 7
ENDMDL
