MODEL 1
REMARK VINA RESULT:    -4.968      0.000      0.000
REMARK INTER + INTRA:          -6.337
REMARK INTER:                  -5.984
REMARK INTRA:                  -0.353
REMARK UNBOUND:                -0.353
REMARK SMILES O=c1c(O)c(-c2ccc(O)cc2O)oc2cc(O)cc(O)c12
REMARK SMILES IDX 5 1 3 2 2 3 1 4 22 5 20 6 19 7 17 8 16 9 15 10 14 11 6 12
REMARK SMILES IDX 8 13 7 14 9 15 11 16 12 17 10 18 13 20 4 22 21 24 18 26
REMARK H PARENT 10 19 13 21 4 23 21 25 18 27
REMARK Flexibility Score: inf
ROOT
ATOM      1  C   UNL     1      -8.566   3.115 -19.004  1.00  0.00     0.184 A 
ATOM      2  C   UNL     1      -9.246   1.976 -19.464  1.00  0.00     0.208 A 
ATOM      3  C   UNL     1      -9.054   0.754 -18.800  1.00  0.00     0.238 A 
ATOM      4  O   UNL     1      -9.619  -0.275 -19.254  1.00  0.00    -0.285 OA
ATOM      5  C   UNL     1      -8.206   0.694 -17.668  1.00  0.00     0.111 A 
ATOM      6  C   UNL     1      -7.968  -0.481 -16.894  1.00  0.00     0.134 A 
ATOM      7  C   UNL     1      -7.015  -0.453 -15.868  1.00  0.00     0.093 A 
ATOM      8  C   UNL     1      -6.338   0.726 -15.547  1.00  0.00     0.123 A 
ATOM      9  C   UNL     1      -6.606   1.894 -16.258  1.00  0.00     0.094 A 
ATOM     10  C   UNL     1      -7.524   1.888 -17.311  1.00  0.00     0.146 A 
ATOM     11  O   UNL     1      -7.738   3.018 -17.972  1.00  0.00    -0.451 OA
ENDROOT
BRANCH   1  12
ATOM     12  C   UNL     1      -8.748   4.433 -19.649  1.00  0.00     0.063 A 
ATOM     13  C   UNL     1      -8.463   5.852 -21.605  1.00  0.00     0.047 A 
ATOM     14  C   UNL     1      -8.257   4.636 -20.951  1.00  0.00     0.020 A 
ATOM     15  C   UNL     1      -9.172   6.880 -20.972  1.00  0.00     0.119 A 
ATOM     16  C   UNL     1      -9.666   6.687 -19.680  1.00  0.00     0.093 A 
ATOM     17  C   UNL     1      -9.456   5.476 -19.008  1.00  0.00     0.130 A 
BRANCH  15  18
ATOM     18  O   UNL     1      -9.388   8.095 -21.617  1.00  0.00    -0.508 OA
ATOM     19  H   UNL     1     -10.314   8.378 -21.917  1.00  0.00     0.293 HD
ENDBRANCH  15  18
BRANCH  17  20
ATOM     20  O   UNL     1      -9.941   5.352 -17.704  1.00  0.00    -0.507 OA
ATOM     21  H   UNL     1     -10.605   4.640 -17.428  1.00  0.00     0.293 HD
ENDBRANCH  17  20
ENDBRANCH   1  12
BRANCH   2  22
ATOM     22  O   UNL     1     -10.080   2.066 -20.582  1.00  0.00    -0.502 OA
ATOM     23  H   UNL     1     -10.074   2.870 -21.200  1.00  0.00     0.293 HD
ENDBRANCH   2  22
BRANCH   6  24
ATOM     24  O   UNL     1      -8.655  -1.686 -17.073  1.00  0.00    -0.507 OA
ATOM     25  H   UNL     1      -8.220  -2.572 -17.280  1.00  0.00     0.293 HD
ENDBRANCH   6  24
BRANCH   8  26
ATOM     26  O   UNL     1      -5.404   0.750 -14.515  1.00  0.00    -0.508 OA
ATOM     27  H   UNL     1      -4.410   0.828 -14.701  1.00  0.00     0.293 HD
ENDBRANCH   8  26
TORSDOF 6
ENDMDL
MODEL 2
REMARK VINA RESULT:    -4.930     16.514     19.109
REMARK INTER + INTRA:          -6.291
REMARK INTER:                  -5.921
REMARK INTRA:                  -0.370
REMARK UNBOUND:                -0.353
REMARK SMILES O=c1c(O)c(-c2ccc(O)cc2O)oc2cc(O)cc(O)c12
REMARK SMILES IDX 5 1 3 2 2 3 1 4 22 5 20 6 19 7 17 8 16 9 15 10 14 11 6 12
REMARK SMILES IDX 8 13 7 14 9 15 11 16 12 17 10 18 13 20 4 22 21 24 18 26
REMARK H PARENT 10 19 13 21 4 23 21 25 18 27
REMARK Flexibility Score: inf
ROOT
ATOM      1  C   UNL     1       5.385   4.193  -7.344  1.00  0.00     0.184 A 
ATOM      2  C   UNL     1       4.363   4.764  -8.118  1.00  0.00     0.208 A 
ATOM      3  C   UNL     1       4.390   6.145  -8.369  1.00  0.00     0.238 A 
ATOM      4  O   UNL     1       3.439   6.661  -9.012  1.00  0.00    -0.285 OA
ATOM      5  C   UNL     1       5.456   6.931  -7.866  1.00  0.00     0.111 A 
ATOM      6  C   UNL     1       5.607   8.332  -8.091  1.00  0.00     0.134 A 
ATOM      7  C   UNL     1       6.634   9.030  -7.443  1.00  0.00     0.093 A 
ATOM      8  C   UNL     1       7.553   8.365  -6.629  1.00  0.00     0.123 A 
ATOM      9  C   UNL     1       7.450   6.988  -6.449  1.00  0.00     0.094 A 
ATOM     10  C   UNL     1       6.414   6.270  -7.052  1.00  0.00     0.146 A 
ATOM     11  O   UNL     1       6.343   4.962  -6.842  1.00  0.00    -0.451 OA
ENDROOT
BRANCH   1  12
ATOM     12  C   UNL     1       5.420   2.741  -7.067  1.00  0.00     0.063 A 
ATOM     13  C   UNL     1       4.509   0.824  -5.876  1.00  0.00     0.047 A 
ATOM     14  C   UNL     1       4.536   2.200  -6.117  1.00  0.00     0.020 A 
ATOM     15  C   UNL     1       5.358  -0.031  -6.587  1.00  0.00     0.119 A 
ATOM     16  C   UNL     1       6.238   0.497  -7.534  1.00  0.00     0.093 A 
ATOM     17  C   UNL     1       6.284   1.875  -7.778  1.00  0.00     0.130 A 
BRANCH  15  18
ATOM     18  O   UNL     1       5.336  -1.405  -6.358  1.00  0.00    -0.508 OA
ATOM     19  H   UNL     1       6.163  -1.904  -6.054  1.00  0.00     0.293 HD
ENDBRANCH  15  18
BRANCH  17  20
ATOM     20  O   UNL     1       7.208   2.351  -8.710  1.00  0.00    -0.507 OA
ATOM     21  H   UNL     1       8.034   1.832  -8.982  1.00  0.00     0.293 HD
ENDBRANCH  17  20
ENDBRANCH   1  12
BRANCH   2  22
ATOM     22  O   UNL     1       3.326   3.963  -8.604  1.00  0.00    -0.502 OA
ATOM     23  H   UNL     1       2.488   3.775  -8.067  1.00  0.00     0.293 HD
ENDBRANCH   2  22
BRANCH   6  24
ATOM     24  O   UNL     1       4.798   9.076  -8.957  1.00  0.00    -0.507 OA
ATOM     25  H   UNL     1       3.791   9.035  -8.981  1.00  0.00     0.293 HD
ENDBRANCH   6  24
BRANCH   8  26
ATOM     26  O   UNL     1       8.582   9.063  -6.001  1.00  0.00    -0.508 OA
ATOM     27  H   UNL     1       9.549   8.948  -6.281  1.00  0.00     0.293 HD
ENDBRANCH   8  26
TORSDOF 6
ENDMDL
MODEL 3
REMARK VINA RESULT:    -4.890      5.503      8.976
REMARK INTER + INTRA:          -6.243
REMARK INTER:                  -5.838
REMARK INTRA:                  -0.405
REMARK UNBOUND:                -0.353
REMARK SMILES O=c1c(O)c(-c2ccc(O)cc2O)oc2cc(O)cc(O)c12
REMARK SMILES IDX 5 1 3 2 2 3 1 4 22 5 20 6 19 7 17 8 16 9 15 10 14 11 6 12
REMARK SMILES IDX 8 13 7 14 9 15 11 16 12 17 10 18 13 20 4 22 21 24 18 26
REMARK H PARENT 10 19 13 21 4 23 21 25 18 27
REMARK Flexibility Score: inf
ROOT
ATOM      1  C   UNL     1      -5.812  -1.084 -12.007  1.00  0.00     0.184 A 
ATOM      2  C   UNL     1      -6.170  -2.436 -11.883  1.00  0.00     0.208 A 
ATOM      3  C   UNL     1      -6.345  -2.979 -10.601  1.00  0.00     0.238 A 
ATOM      4  O   UNL     1      -6.606  -4.205 -10.495  1.00  0.00    -0.285 OA
ATOM      5  C   UNL     1      -6.187  -2.155  -9.460  1.00  0.00     0.111 A 
ATOM      6  C   UNL     1      -6.378  -2.588  -8.114  1.00  0.00     0.134 A 
ATOM      7  C   UNL     1      -6.075  -1.719  -7.058  1.00  0.00     0.093 A 
ATOM      8  C   UNL     1      -5.650  -0.411  -7.302  1.00  0.00     0.123 A 
ATOM      9  C   UNL     1      -5.516   0.040  -8.612  1.00  0.00     0.094 A 
ATOM     10  C   UNL     1      -5.775  -0.815  -9.686  1.00  0.00     0.146 A 
ATOM     11  O   UNL     1      -5.621  -0.348 -10.919  1.00  0.00    -0.451 OA
ENDROOT
BRANCH   1  12
ATOM     12  C   UNL     1      -5.638  -0.453 -13.333  1.00  0.00     0.063 A 
ATOM     13  C   UNL     1      -6.638   0.553 -15.310  1.00  0.00     0.047 A 
ATOM     14  C   UNL     1      -6.774  -0.095 -14.080  1.00  0.00     0.020 A 
ATOM     15  C   UNL     1      -5.366   0.861 -15.806  1.00  0.00     0.119 A 
ATOM     16  C   UNL     1      -4.232   0.511 -15.070  1.00  0.00     0.093 A 
ATOM     17  C   UNL     1      -4.353  -0.149 -13.841  1.00  0.00     0.130 A 
BRANCH  15  18
ATOM     18  O   UNL     1      -5.220   1.511 -17.029  1.00  0.00    -0.508 OA
ATOM     19  H   UNL     1      -6.008   1.657 -17.649  1.00  0.00     0.293 HD
ENDBRANCH  15  18
BRANCH  17  20
ATOM     20  O   UNL     1      -3.184  -0.507 -13.166  1.00  0.00    -0.507 OA
ATOM     21  H   UNL     1      -2.265  -0.189 -13.447  1.00  0.00     0.293 HD
ENDBRANCH  17  20
ENDBRANCH   1  12
BRANCH   2  22
ATOM     22  O   UNL     1      -6.323  -3.224 -13.027  1.00  0.00    -0.502 OA
ATOM     23  H   UNL     1      -6.954  -4.016 -13.060  1.00  0.00     0.293 HD
ENDBRANCH   2  22
BRANCH   6  24
ATOM     24  O   UNL     1      -6.884  -3.843  -7.761  1.00  0.00    -0.507 OA
ATOM     25  H   UNL     1      -6.326  -4.621  -7.443  1.00  0.00     0.293 HD
ENDBRANCH   6  24
BRANCH   8  26
ATOM     26  O   UNL     1      -5.366   0.452  -6.246  1.00  0.00    -0.508 OA
ATOM     27  H   UNL     1      -6.101   0.946  -5.753  1.00  0.00     0.293 HD
ENDBRANCH   8  26
TORSDOF 6
ENDMDL
MODEL 4
REMARK VINA RESULT:    -4.885     13.994     16.729
REMARK INTER + INTRA:          -6.237
REMARK INTER:                  -5.833
REMARK INTRA:                  -0.404
REMARK UNBOUND:                -0.353
REMARK SMILES O=c1c(O)c(-c2ccc(O)cc2O)oc2cc(O)cc(O)c12
REMARK SMILES IDX 5 1 3 2 2 3 1 4 22 5 20 6 19 7 17 8 16 9 15 10 14 11 6 12
REMARK SMILES IDX 8 13 7 14 9 15 11 16 12 17 10 18 13 20 4 22 21 24 18 26
REMARK H PARENT 10 19 13 21 4 23 21 25 18 27
REMARK Flexibility Score: inf
ROOT
ATOM      1  C   UNL     1       6.067   1.061 -12.129  1.00  0.00     0.184 A 
ATOM      2  C   UNL     1       6.430   2.412 -12.016  1.00  0.00     0.208 A 
ATOM      3  C   UNL     1       6.613   2.964 -10.738  1.00  0.00     0.238 A 
ATOM      4  O   UNL     1       6.879   4.190 -10.642  1.00  0.00    -0.285 OA
ATOM      5  C   UNL     1       6.458   2.148  -9.591  1.00  0.00     0.111 A 
ATOM      6  C   UNL     1       6.657   2.590  -8.249  1.00  0.00     0.134 A 
ATOM      7  C   UNL     1       6.356   1.729  -7.185  1.00  0.00     0.093 A 
ATOM      8  C   UNL     1       5.925   0.421  -7.418  1.00  0.00     0.123 A 
ATOM      9  C   UNL     1       5.784  -0.039  -8.725  1.00  0.00     0.094 A 
ATOM     10  C   UNL     1       6.040   0.807  -9.806  1.00  0.00     0.146 A 
ATOM     11  O   UNL     1       5.878   0.333 -11.035  1.00  0.00    -0.451 OA
ENDROOT
BRANCH   1  12
ATOM     12  C   UNL     1       5.884   0.421 -13.449  1.00  0.00     0.063 A 
ATOM     13  C   UNL     1       6.871  -0.606 -15.422  1.00  0.00     0.047 A 
ATOM     14  C   UNL     1       7.014   0.050 -14.197  1.00  0.00     0.020 A 
ATOM     15  C   UNL     1       5.595  -0.909 -15.912  1.00  0.00     0.119 A 
ATOM     16  C   UNL     1       4.465  -0.546 -15.175  1.00  0.00     0.093 A 
ATOM     17  C   UNL     1       4.595   0.123 -13.951  1.00  0.00     0.130 A 
BRANCH  15  18
ATOM     18  O   UNL     1       5.440  -1.567 -17.129  1.00  0.00    -0.508 OA
ATOM     19  H   UNL     1       5.044  -2.499 -17.181  1.00  0.00     0.293 HD
ENDBRANCH  15  18
BRANCH  17  20
ATOM     20  O   UNL     1       3.430   0.493 -13.274  1.00  0.00    -0.507 OA
ATOM     21  H   UNL     1       2.837   1.255 -13.575  1.00  0.00     0.293 HD
ENDBRANCH  17  20
ENDBRANCH   1  12
BRANCH   2  22
ATOM     22  O   UNL     1       6.580   3.192 -13.166  1.00  0.00    -0.502 OA
ATOM     23  H   UNL     1       5.909   3.174 -13.925  1.00  0.00     0.293 HD
ENDBRANCH   2  22
BRANCH   6  24
ATOM     24  O   UNL     1       7.169   3.846  -7.908  1.00  0.00    -0.507 OA
ATOM     25  H   UNL     1       7.440   4.124  -6.977  1.00  0.00     0.293 HD
ENDBRANCH   6  24
BRANCH   8  26
ATOM     26  O   UNL     1       5.644  -0.434  -6.355  1.00  0.00    -0.508 OA
ATOM     27  H   UNL     1       5.004  -0.167  -5.615  1.00  0.00     0.293 HD
ENDBRANCH   8  26
TORSDOF 6
ENDMDL
MODEL 5
REMARK VINA RESULT:    -4.865     14.473     15.654
REMARK INTER + INTRA:          -6.213
REMARK INTER:                  -5.823
REMARK INTRA:                  -0.390
REMARK UNBOUND:                -0.353
REMARK SMILES O=c1c(O)c(-c2ccc(O)cc2O)oc2cc(O)cc(O)c12
REMARK SMILES IDX 5 1 3 2 2 3 1 4 22 5 20 6 19 7 17 8 16 9 15 10 14 11 6 12
REMARK SMILES IDX 8 13 7 14 9 15 11 16 12 17 10 18 13 20 4 22 21 24 18 26
REMARK H PARENT 10 19 13 21 4 23 21 25 18 27
REMARK Flexibility Score: inf
ROOT
ATOM      1  C   UNL     1       2.318  -0.427  -8.489  1.00  0.00     0.184 A 
ATOM      2  C   UNL     1       1.601   0.288  -7.517  1.00  0.00     0.208 A 
ATOM      3  C   UNL     1       0.417  -0.262  -7.001  1.00  0.00     0.238 A 
ATOM      4  O   UNL     1      -0.252   0.412  -6.176  1.00  0.00    -0.285 OA
ATOM      5  C   UNL     1      -0.019  -1.534  -7.444  1.00  0.00     0.111 A 
ATOM      6  C   UNL     1      -1.182  -2.206  -6.963  1.00  0.00     0.134 A 
ATOM      7  C   UNL     1      -1.584  -3.407  -7.561  1.00  0.00     0.093 A 
ATOM      8  C   UNL     1      -0.830  -3.992  -8.581  1.00  0.00     0.123 A 
ATOM      9  C   UNL     1       0.339  -3.374  -9.018  1.00  0.00     0.094 A 
ATOM     10  C   UNL     1       0.747  -2.157  -8.467  1.00  0.00     0.146 A 
ATOM     11  O   UNL     1       1.859  -1.594  -8.924  1.00  0.00    -0.451 OA
ENDROOT
BRANCH   1  12
ATOM     12  C   UNL     1       3.583   0.092  -9.050  1.00  0.00     0.063 A 
ATOM     13  C   UNL     1       4.717   1.523 -10.660  1.00  0.00     0.047 A 
ATOM     14  C   UNL     1       3.540   0.973 -10.145  1.00  0.00     0.020 A 
ATOM     15  C   UNL     1       5.952   1.207 -10.082  1.00  0.00     0.119 A 
ATOM     16  C   UNL     1       6.004   0.335  -8.992  1.00  0.00     0.093 A 
ATOM     17  C   UNL     1       4.834  -0.232  -8.474  1.00  0.00     0.130 A 
BRANCH  15  18
ATOM     18  O   UNL     1       7.130   1.754 -10.584  1.00  0.00    -0.508 OA
ATOM     19  H   UNL     1       7.211   2.038 -11.553  1.00  0.00     0.293 HD
ENDBRANCH  15  18
BRANCH  17  20
ATOM     20  O   UNL     1       4.950  -1.125  -7.406  1.00  0.00    -0.507 OA
ATOM     21  H   UNL     1       4.771  -2.117  -7.495  1.00  0.00     0.293 HD
ENDBRANCH  17  20
ENDBRANCH   1  12
BRANCH   2  22
ATOM     22  O   UNL     1       2.058   1.541  -7.096  1.00  0.00    -0.502 OA
ATOM     23  H   UNL     1       1.441   2.234  -6.688  1.00  0.00     0.293 HD
ENDBRANCH   2  22
BRANCH   6  24
ATOM     24  O   UNL     1      -1.956  -1.755  -5.890  1.00  0.00    -0.507 OA
ATOM     25  H   UNL     1      -1.664  -1.059  -5.221  1.00  0.00     0.293 HD
ENDBRANCH   6  24
BRANCH   8  26
ATOM     26  O   UNL     1      -1.228  -5.194  -9.159  1.00  0.00    -0.508 OA
ATOM     27  H   UNL     1      -1.816  -5.216  -9.984  1.00  0.00     0.293 HD
ENDBRANCH   8  26
TORSDOF 6
ENDMDL
MODEL 6
REMARK VINA RESULT:    -4.839     10.394     13.497
REMARK INTER + INTRA:          -6.181
REMARK INTER:                  -5.780
REMARK INTRA:                  -0.402
REMARK UNBOUND:                -0.353
REMARK SMILES O=c1c(O)c(-c2ccc(O)cc2O)oc2cc(O)cc(O)c12
REMARK SMILES IDX 5 1 3 2 2 3 1 4 22 5 20 6 19 7 17 8 16 9 15 10 14 11 6 12
REMARK SMILES IDX 8 13 7 14 9 15 11 16 12 17 10 18 13 20 4 22 21 24 18 26
REMARK H PARENT 10 19 13 21 4 23 21 25 18 27
REMARK Flexibility Score: inf
ROOT
ATOM      1  C   UNL     1      -1.967   0.431  -8.352  1.00  0.00     0.184 A 
ATOM      2  C   UNL     1      -1.217  -0.270  -7.396  1.00  0.00     0.208 A 
ATOM      3  C   UNL     1      -0.026   0.296  -6.915  1.00  0.00     0.238 A 
ATOM      4  O   UNL     1       0.673  -0.364  -6.103  1.00  0.00    -0.285 OA
ATOM      5  C   UNL     1       0.384   1.571  -7.378  1.00  0.00     0.111 A 
ATOM      6  C   UNL     1       1.552   2.259  -6.932  1.00  0.00     0.134 A 
ATOM      7  C   UNL     1       1.924   3.460  -7.548  1.00  0.00     0.093 A 
ATOM      8  C   UNL     1       1.136   4.030  -8.551  1.00  0.00     0.123 A 
ATOM      9  C   UNL     1      -0.037   3.396  -8.953  1.00  0.00     0.094 A 
ATOM     10  C   UNL     1      -0.416   2.178  -8.383  1.00  0.00     0.146 A 
ATOM     11  O   UNL     1      -1.533   1.600  -8.806  1.00  0.00    -0.451 OA
ENDROOT
BRANCH   1  12
ATOM     12  C   UNL     1      -3.241  -0.107  -8.876  1.00  0.00     0.063 A 
ATOM     13  C   UNL     1      -4.407  -1.487 -10.507  1.00  0.00     0.047 A 
ATOM     14  C   UNL     1      -3.225  -0.921 -10.022  1.00  0.00     0.020 A 
ATOM     15  C   UNL     1      -5.619  -1.256  -9.847  1.00  0.00     0.119 A 
ATOM     16  C   UNL     1      -5.645  -0.450  -8.706  1.00  0.00     0.093 A 
ATOM     17  C   UNL     1      -4.469   0.134  -8.217  1.00  0.00     0.130 A 
BRANCH  15  18
ATOM     18  O   UNL     1      -6.802  -1.819 -10.318  1.00  0.00    -0.508 OA
ATOM     19  H   UNL     1      -7.707  -1.442 -10.061  1.00  0.00     0.293 HD
ENDBRANCH  15  18
BRANCH  17  20
ATOM     20  O   UNL     1      -4.560   0.959  -7.094  1.00  0.00    -0.507 OA
ATOM     21  H   UNL     1      -3.812   1.572  -6.798  1.00  0.00     0.293 HD
ENDBRANCH  17  20
ENDBRANCH   1  12
BRANCH   2  22
ATOM     22  O   UNL     1      -1.648  -1.525  -6.954  1.00  0.00    -0.502 OA
ATOM     23  H   UNL     1      -1.158  -2.044  -6.235  1.00  0.00     0.293 HD
ENDBRANCH   2  22
BRANCH   6  24
ATOM     24  O   UNL     1       2.360   1.823  -5.877  1.00  0.00    -0.507 OA
ATOM     25  H   UNL     1       2.020   1.534  -4.972  1.00  0.00     0.293 HD
ENDBRANCH   6  24
BRANCH   8  26
ATOM     26  O   UNL     1       1.505   5.233  -9.147  1.00  0.00    -0.508 OA
ATOM     27  H   UNL     1       2.007   5.948  -8.633  1.00  0.00     0.293 HD
ENDBRANCH   8  26
TORSDOF 6
ENDMDL
MODEL 7
REMARK VINA RESULT:    -4.804     16.450     19.031
REMARK INTER + INTRA:          -6.139
REMARK INTER:                  -5.879
REMARK INTRA:                  -0.260
REMARK UNBOUND:                -0.353
REMARK SMILES O=c1c(O)c(-c2ccc(O)cc2O)oc2cc(O)cc(O)c12
REMARK SMILES IDX 5 1 3 2 2 3 1 4 22 5 20 6 19 7 17 8 16 9 15 10 14 11 6 12
REMARK SMILES IDX 8 13 7 14 9 15 11 16 12 17 10 18 13 20 4 22 21 24 18 26
REMARK H PARENT 10 19 13 21 4 23 21 25 18 27
REMARK Flexibility Score: inf
ROOT
ATOM      1  C   UNL     1       8.912  -3.072 -19.349  1.00  0.00     0.184 A 
ATOM      2  C   UNL     1       9.481  -1.956 -19.981  1.00  0.00     0.208 A 
ATOM      3  C   UNL     1       9.373  -0.698 -19.369  1.00  0.00     0.238 A 
ATOM      4  O   UNL     1       9.833   0.308 -19.969  1.00  0.00    -0.285 OA
ATOM      5  C   UNL     1       8.719  -0.577 -18.118  1.00  0.00     0.111 A 
ATOM      6  C   UNL     1       8.584   0.641 -17.387  1.00  0.00     0.134 A 
ATOM      7  C   UNL     1       7.811   0.664 -16.219  1.00  0.00     0.093 A 
ATOM      8  C   UNL     1       7.222  -0.500 -15.722  1.00  0.00     0.123 A 
ATOM      9  C   UNL     1       7.397  -1.706 -16.396  1.00  0.00     0.094 A 
ATOM     10  C   UNL     1       8.131  -1.755 -17.584  1.00  0.00     0.146 A 
ATOM     11  O   UNL     1       8.260  -2.922 -18.202  1.00  0.00    -0.451 OA
ENDROOT
BRANCH   1  12
ATOM     12  C   UNL     1       9.016  -4.425 -19.935  1.00  0.00     0.063 A 
ATOM     13  C   UNL     1       8.664  -5.906 -21.834  1.00  0.00     0.047 A 
ATOM     14  C   UNL     1       8.528  -4.652 -21.235  1.00  0.00     0.020 A 
ATOM     15  C   UNL     1       9.296  -6.949 -21.148  1.00  0.00     0.119 A 
ATOM     16  C   UNL     1       9.785  -6.733 -19.857  1.00  0.00     0.093 A 
ATOM     17  C   UNL     1       9.646  -5.484 -19.240  1.00  0.00     0.130 A 
BRANCH  15  18
ATOM     18  O   UNL     1       9.441  -8.202 -21.738  1.00  0.00    -0.508 OA
ATOM     19  H   UNL     1      10.198  -8.400 -22.382  1.00  0.00     0.293 HD
ENDBRANCH  15  18
BRANCH  17  20
ATOM     20  O   UNL     1      10.123  -5.336 -17.935  1.00  0.00    -0.507 OA
ATOM     21  H   UNL     1       9.869  -5.961 -17.181  1.00  0.00     0.293 HD
ENDBRANCH  17  20
ENDBRANCH   1  12
BRANCH   2  22
ATOM     22  O   UNL     1      10.124  -2.106 -21.213  1.00  0.00    -0.502 OA
ATOM     23  H   UNL     1      10.095  -2.972 -21.738  1.00  0.00     0.293 HD
ENDBRANCH   2  22
BRANCH   6  24
ATOM     24  O   UNL     1       9.205   1.841 -17.748  1.00  0.00    -0.507 OA
ATOM     25  H   UNL     1       9.908   2.313 -17.199  1.00  0.00     0.293 HD
ENDBRANCH   6  24
BRANCH   8  26
ATOM     26  O   UNL     1       6.469  -0.472 -14.551  1.00  0.00    -0.508 OA
ATOM     27  H   UNL     1       6.122  -1.322 -14.123  1.00  0.00     0.293 HD
ENDBRANCH   8  26
TORSDOF 6
ENDMDL
MODEL 8
REMARK VINA RESULT:    -4.786     14.297     16.604
REMARK INTER + INTRA:          -6.117
REMARK INTER:                  -5.750
REMARK INTRA:                  -0.367
REMARK UNBOUND:                -0.353
REMARK SMILES O=c1c(O)c(-c2ccc(O)cc2O)oc2cc(O)cc(O)c12
REMARK SMILES IDX 5 1 3 2 2 3 1 4 22 5 20 6 19 7 17 8 16 9 15 10 14 11 6 12
REMARK SMILES IDX 8 13 7 14 9 15 11 16 12 17 10 18 13 20 4 22 21 24 18 26
REMARK H PARENT 10 19 13 21 4 23 21 25 18 27
REMARK Flexibility Score: inf
ROOT
ATOM      1  C   UNL     1       2.406   0.593  -7.792  1.00  0.00     0.184 A 
ATOM      2  C   UNL     1       3.699   0.517  -7.253  1.00  0.00     0.208 A 
ATOM      3  C   UNL     1       4.392   1.705  -6.973  1.00  0.00     0.238 A 
ATOM      4  O   UNL     1       5.573   1.630  -6.547  1.00  0.00    -0.285 OA
ATOM      5  C   UNL     1       3.769   2.955  -7.210  1.00  0.00     0.111 A 
ATOM      6  C   UNL     1       4.360   4.222  -6.928  1.00  0.00     0.134 A 
ATOM      7  C   UNL     1       3.701   5.395  -7.317  1.00  0.00     0.093 A 
ATOM      8  C   UNL     1       2.442   5.347  -7.921  1.00  0.00     0.123 A 
ATOM      9  C   UNL     1       1.830   4.117  -8.148  1.00  0.00     0.094 A 
ATOM     10  C   UNL     1       2.479   2.928  -7.805  1.00  0.00     0.146 A 
ATOM     11  O   UNL     1       1.867   1.777  -8.053  1.00  0.00    -0.451 OA
ENDROOT
BRANCH   1  12
ATOM     12  C   UNL     1       1.621  -0.626  -8.085  1.00  0.00     0.063 A 
ATOM     13  C   UNL     1       1.253  -2.581  -9.486  1.00  0.00     0.047 A 
ATOM     14  C   UNL     1       1.942  -1.396  -9.216  1.00  0.00     0.020 A 
ATOM     15  C   UNL     1       0.241  -3.018  -8.624  1.00  0.00     0.119 A 
ATOM     16  C   UNL     1      -0.083  -2.261  -7.496  1.00  0.00     0.093 A 
ATOM     17  C   UNL     1       0.592  -1.065  -7.220  1.00  0.00     0.130 A 
BRANCH  15  18
ATOM     18  O   UNL     1      -0.448  -4.201  -8.880  1.00  0.00    -0.508 OA
ATOM     19  H   UNL     1      -0.171  -5.078  -8.454  1.00  0.00     0.293 HD
ENDBRANCH  15  18
BRANCH  17  20
ATOM     20  O   UNL     1       0.201  -0.330  -6.098  1.00  0.00    -0.507 OA
ATOM     21  H   UNL     1      -0.271  -0.745  -5.304  1.00  0.00     0.293 HD
ENDBRANCH  17  20
ENDBRANCH   1  12
BRANCH   2  22
ATOM     22  O   UNL     1       4.288  -0.731  -7.026  1.00  0.00    -0.502 OA
ATOM     23  H   UNL     1       3.790  -1.601  -7.177  1.00  0.00     0.293 HD
ENDBRANCH   2  22
BRANCH   6  24
ATOM     24  O   UNL     1       5.572   4.385  -6.249  1.00  0.00    -0.507 OA
ATOM     25  H   UNL     1       5.939   3.743  -5.564  1.00  0.00     0.293 HD
ENDBRANCH   6  24
BRANCH   8  26
ATOM     26  O   UNL     1       1.786   6.519  -8.290  1.00  0.00    -0.508 OA
ATOM     27  H   UNL     1       1.550   6.712  -9.257  1.00  0.00     0.293 HD
ENDBRANCH   8  26
TORSDOF 6
ENDMDL
MODEL 9
REMARK VINA RESULT:    -4.733     12.875     14.257
REMARK INTER + INTRA:          -6.054
REMARK INTER:                  -5.713
REMARK INTRA:                  -0.341
REMARK UNBOUND:                -0.353
REMARK SMILES O=c1c(O)c(-c2ccc(O)cc2O)oc2cc(O)cc(O)c12
REMARK SMILES IDX 5 1 3 2 2 3 1 4 22 5 20 6 19 7 17 8 16 9 15 10 14 11 6 12
REMARK SMILES IDX 8 13 7 14 9 15 11 16 12 17 10 18 13 20 4 22 21 24 18 26
REMARK H PARENT 10 19 13 21 4 23 21 25 18 27
REMARK Flexibility Score: inf
ROOT
ATOM      1  C   UNL     1       0.828  -0.823  -9.090  1.00  0.00     0.184 A 
ATOM      2  C   UNL     1       0.739  -2.208  -8.885  1.00  0.00     0.208 A 
ATOM      3  C   UNL     1      -0.445  -2.743  -8.353  1.00  0.00     0.238 A 
ATOM      4  O   UNL     1      -0.497  -3.977  -8.115  1.00  0.00    -0.285 OA
ATOM      5  C   UNL     1      -1.534  -1.887  -8.059  1.00  0.00     0.111 A 
ATOM      6  C   UNL     1      -2.795  -2.323  -7.553  1.00  0.00     0.134 A 
ATOM      7  C   UNL     1      -3.758  -1.374  -7.183  1.00  0.00     0.093 A 
ATOM      8  C   UNL     1      -3.527  -0.008  -7.362  1.00  0.00     0.123 A 
ATOM      9  C   UNL     1      -2.323   0.425  -7.909  1.00  0.00     0.094 A 
ATOM     10  C   UNL     1      -1.329  -0.494  -8.253  1.00  0.00     0.146 A 
ATOM     11  O   UNL     1      -0.190  -0.038  -8.758  1.00  0.00    -0.451 OA
ENDROOT
BRANCH   1  12
ATOM     12  C   UNL     1       2.041  -0.207  -9.670  1.00  0.00     0.063 A 
ATOM     13  C   UNL     1       3.096   0.990 -11.508  1.00  0.00     0.047 A 
ATOM     14  C   UNL     1       1.981   0.353 -10.958  1.00  0.00     0.020 A 
ATOM     15  C   UNL     1       4.284   1.084 -10.775  1.00  0.00     0.119 A 
ATOM     16  C   UNL     1       4.353   0.533  -9.493  1.00  0.00     0.093 A 
ATOM     17  C   UNL     1       3.246  -0.118  -8.935  1.00  0.00     0.130 A 
BRANCH  15  18
ATOM     18  O   UNL     1       5.400   1.721 -11.311  1.00  0.00    -0.508 OA
ATOM     19  H   UNL     1       5.509   1.846 -12.311  1.00  0.00     0.293 HD
ENDBRANCH  15  18
BRANCH  17  20
ATOM     20  O   UNL     1       3.384  -0.682  -7.664  1.00  0.00    -0.507 OA
ATOM     21  H   UNL     1       4.177  -0.499  -7.062  1.00  0.00     0.293 HD
ENDBRANCH  17  20
ENDBRANCH   1  12
BRANCH   2  22
ATOM     22  O   UNL     1       1.828  -3.029  -9.188  1.00  0.00    -0.502 OA
ATOM     23  H   UNL     1       1.721  -3.924  -9.652  1.00  0.00     0.293 HD
ENDBRANCH   2  22
BRANCH   6  24
ATOM     24  O   UNL     1      -3.161  -3.666  -7.419  1.00  0.00    -0.507 OA
ATOM     25  H   UNL     1      -3.437  -4.266  -8.182  1.00  0.00     0.293 HD
ENDBRANCH   6  24
BRANCH   8  26
ATOM     26  O   UNL     1      -4.496   0.928  -7.007  1.00  0.00    -0.508 OA
ATOM     27  H   UNL     1      -5.356   1.027  -7.534  1.00  0.00     0.293 HD
ENDBRANCH   8  26
TORSDOF 6
ENDMDL
