MODEL 1
REMARK VINA RESULT:    -4.847      0.000      0.000
REMARK INTER + INTRA:          -6.197
REMARK INTER:                  -5.980
REMARK INTRA:                  -0.217
REMARK UNBOUND:                -0.217
REMARK SMILES CCCCC=CC(C)=O
REMARK SMILES IDX 4 1 3 2 2 3 1 4 5 5 6 6 7 7 9 8 8 9
REMARK H PARENT
REMARK Flexibility Score: inf
ROOT
ATOM      1  C   UNL     1      31.077  18.799  28.176  1.00  0.00     0.027 C 
ENDROOT
BRANCH   1   2
ATOM      2  C   UNL     1      31.637  17.853  29.253  1.00  0.00     0.004 C 
BRANCH   2   3
ATOM      3  C   UNL     1      33.133  17.529  29.090  1.00  0.00    -0.003 C 
ATOM      4  C   UNL     1      33.382  16.096  28.623  1.00  0.00     0.004 C 
ENDBRANCH   2   3
ENDBRANCH   1   2
BRANCH   1   5
ATOM      5  C   UNL     1      32.141  19.665  27.560  1.00  0.00    -0.023 C 
ATOM      6  C   UNL     1      31.890  20.929  27.198  1.00  0.00     0.042 C 
BRANCH   6   7
ATOM      7  C   UNL     1      32.902  21.816  26.591  1.00  0.00     0.152 C 
ATOM      8  O   UNL     1      32.528  22.673  25.747  1.00  0.00    -0.295 OA
ATOM      9  C   UNL     1      34.357  21.733  26.942  1.00  0.00     0.093 C 
ENDBRANCH   6   7
ENDBRANCH   1   5
TORSDOF 4
ENDMDL
MODEL 2
REMARK VINA RESULT:    -4.786      2.124      2.749
REMARK INTER + INTRA:          -6.122
REMARK INTER:                  -5.920
REMARK INTRA:                  -0.202
REMARK UNBOUND:                -0.217
REMARK SMILES CCCCC=CC(C)=O
REMARK SMILES IDX 4 1 3 2 2 3 1 4 5 5 6 6 7 7 9 8 8 9
REMARK H PARENT
REMARK Flexibility Score: inf
ROOT
ATOM      1  C   UNL     1      31.969  17.008  29.002  1.00  0.00     0.027 C 
ENDROOT
BRANCH   1   2
ATOM      2  C   UNL     1      31.877  15.830  28.016  1.00  0.00     0.004 C 
BRANCH   2   3
ATOM      3  C   UNL     1      30.576  15.799  27.194  1.00  0.00    -0.003 C 
ATOM      4  C   UNL     1      29.491  14.933  27.833  1.00  0.00     0.004 C 
ENDBRANCH   2   3
ENDBRANCH   1   2
BRANCH   1   5
ATOM      5  C   UNL     1      31.431  18.288  28.424  1.00  0.00    -0.023 C 
ATOM      6  C   UNL     1      32.208  19.116  27.716  1.00  0.00     0.042 C 
BRANCH   6   7
ATOM      7  C   UNL     1      31.723  20.382  27.130  1.00  0.00     0.152 C 
ATOM      8  O   UNL     1      31.041  21.159  27.849  1.00  0.00    -0.295 OA
ATOM      9  C   UNL     1      32.014  20.774  25.712  1.00  0.00     0.093 C 
ENDBRANCH   6   7
ENDBRANCH   1   5
TORSDOF 4
ENDMDL
MODEL 3
REMARK VINA RESULT:    -4.480      2.570      4.731
REMARK INTER + INTRA:          -5.745
REMARK INTER:                  -5.526
REMARK INTRA:                  -0.219
REMARK UNBOUND:                -0.217
REMARK SMILES CCCCC=CC(C)=O
REMARK SMILES IDX 4 1 3 2 2 3 1 4 5 5 6 6 7 7 9 8 8 9
REMARK H PARENT
REMARK Flexibility Score: inf
ROOT
ATOM      1  C   UNL     1      30.995  20.500  27.870  1.00  0.00     0.027 C 
ENDROOT
BRANCH   1   2
ATOM      2  C   UNL     1      31.816  21.553  27.105  1.00  0.00     0.004 C 
BRANCH   2   3
ATOM      3  C   UNL     1      33.132  21.017  26.514  1.00  0.00    -0.003 C 
ATOM      4  C   UNL     1      34.367  21.699  27.100  1.00  0.00     0.004 C 
ENDBRANCH   2   3
ENDBRANCH   1   2
BRANCH   1   5
ATOM      5  C   UNL     1      31.579  19.119  27.756  1.00  0.00    -0.023 C 
ATOM      6  C   UNL     1      31.421  18.211  28.726  1.00  0.00     0.042 C 
BRANCH   6   7
ATOM      7  C   UNL     1      31.977  16.844  28.657  1.00  0.00     0.152 C 
ATOM      8  O   UNL     1      31.222  15.902  28.298  1.00  0.00    -0.295 OA
ATOM      9  C   UNL     1      33.404  16.539  28.998  1.00  0.00     0.093 C 
ENDBRANCH   6   7
ENDBRANCH   1   5
TORSDOF 4
ENDMDL
MODEL 4
REMARK VINA RESULT:    -4.435     10.589     11.628
REMARK INTER + INTRA:          -5.689
REMARK INTER:                  -5.462
REMARK INTRA:                  -0.226
REMARK UNBOUND:                -0.217
REMARK SMILES CCCCC=CC(C)=O
REMARK SMILES IDX 4 1 3 2 2 3 1 4 5 5 6 6 7 7 9 8 8 9
REMARK H PARENT
REMARK Flexibility Score: inf
ROOT
ATOM      1  C   UNL     1      22.481  25.164  26.580  1.00  0.00     0.027 C 
ENDROOT
BRANCH   1   2
ATOM      2  C   UNL     1      21.279  24.546  27.317  1.00  0.00     0.004 C 
BRANCH   2   3
ATOM      3  C   UNL     1      20.757  23.243  26.686  1.00  0.00    -0.003 C 
ATOM      4  C   UNL     1      19.261  23.289  26.381  1.00  0.00     0.004 C 
ENDBRANCH   2   3
ENDBRANCH   1   2
BRANCH   1   5
ATOM      5  C   UNL     1      23.106  24.213  25.597  1.00  0.00    -0.023 C 
ATOM      6  C   UNL     1      23.424  24.600  24.357  1.00  0.00     0.042 C 
BRANCH   6   7
ATOM      7  C   UNL     1      24.039  23.701  23.359  1.00  0.00     0.152 C 
ATOM      8  O   UNL     1      25.289  23.730  23.208  1.00  0.00    -0.295 OA
ATOM      9  C   UNL     1      23.229  22.757  22.521  1.00  0.00     0.093 C 
ENDBRANCH   6   7
ENDBRANCH   1   5
TORSDOF 4
ENDMDL
MODEL 5
REMARK VINA RESULT:    -4.361      2.944      3.313
REMARK INTER + INTRA:          -5.597
REMARK INTER:                  -5.433
REMARK INTRA:                  -0.164
REMARK UNBOUND:                -0.217
REMARK SMILES CCCCC=CC(C)=O
REMARK SMILES IDX 4 1 3 2 2 3 1 4 5 5 6 6 7 7 9 8 8 9
REMARK H PARENT
REMARK Flexibility Score: inf
ROOT
ATOM      1  C   UNL     1      31.021  17.287  27.733  1.00  0.00     0.027 C 
ENDROOT
BRANCH   1   2
ATOM      2  C   UNL     1      31.822  15.973  27.704  1.00  0.00     0.004 C 
BRANCH   2   3
ATOM      3  C   UNL     1      33.081  15.985  28.590  1.00  0.00    -0.003 C 
ATOM      4  C   UNL     1      33.272  17.306  29.332  1.00  0.00     0.004 C 
ENDBRANCH   2   3
ENDBRANCH   1   2
BRANCH   1   5
ATOM      5  C   UNL     1      31.317  18.170  26.553  1.00  0.00    -0.023 C 
ATOM      6  C   UNL     1      31.375  17.678  25.310  1.00  0.00     0.042 C 
BRANCH   6   7
ATOM      7  C   UNL     1      31.663  18.506  24.121  1.00  0.00     0.152 C 
ATOM      8  O   UNL     1      32.034  17.935  23.061  1.00  0.00    -0.295 OA
ATOM      9  C   UNL     1      31.530  19.999  24.132  1.00  0.00     0.093 C 
ENDBRANCH   6   7
ENDBRANCH   1   5
TORSDOF 4
ENDMDL
MODEL 6
REMARK VINA RESULT:    -4.335     10.541     11.390
REMARK INTER + INTRA:          -5.566
REMARK INTER:                  -5.359
REMARK INTRA:                  -0.206
REMARK UNBOUND:                -0.217
REMARK SMILES CCCCC=CC(C)=O
REMARK SMILES IDX 4 1 3 2 2 3 1 4 5 5 6 6 7 7 9 8 8 9
REMARK H PARENT
REMARK Flexibility Score: inf
ROOT
ATOM      1  C   UNL     1      23.737  25.696  24.834  1.00  0.00     0.027 C 
ENDROOT
BRANCH   1   2
ATOM      2  C   UNL     1      22.880  25.829  26.106  1.00  0.00     0.004 C 
BRANCH   2   3
ATOM      3  C   UNL     1      22.762  24.530  26.923  1.00  0.00    -0.003 C 
ATOM      4  C   UNL     1      21.322  24.035  27.045  1.00  0.00     0.004 C 
ENDBRANCH   2   3
ENDBRANCH   1   2
BRANCH   1   5
ATOM      5  C   UNL     1      23.271  24.582  23.939  1.00  0.00    -0.023 C 
ATOM      6  C   UNL     1      24.137  23.740  23.364  1.00  0.00     0.042 C 
BRANCH   6   7
ATOM      7  C   UNL     1      23.726  22.632  22.478  1.00  0.00     0.152 C 
ATOM      8  O   UNL     1      22.496  22.431  22.293  1.00  0.00    -0.295 OA
ATOM      9  C   UNL     1      24.718  21.741  21.792  1.00  0.00     0.093 C 
ENDBRANCH   6   7
ENDBRANCH   1   5
TORSDOF 4
ENDMDL
MODEL 7
REMARK VINA RESULT:    -4.235      3.081      5.404
REMARK INTER + INTRA:          -5.442
REMARK INTER:                  -5.332
REMARK INTRA:                  -0.110
REMARK UNBOUND:                -0.217
REMARK SMILES CCCCC=CC(C)=O
REMARK SMILES IDX 4 1 3 2 2 3 1 4 5 5 6 6 7 7 9 8 8 9
REMARK H PARENT
REMARK Flexibility Score: inf
ROOT
ATOM      1  C   UNL     1      32.104  19.646  26.786  1.00  0.00     0.027 C 
ENDROOT
BRANCH   1   2
ATOM      2  C   UNL     1      33.144  20.537  27.489  1.00  0.00     0.004 C 
BRANCH   2   3
ATOM      3  C   UNL     1      33.603  21.747  26.655  1.00  0.00    -0.003 C 
ATOM      4  C   UNL     1      32.467  22.380  25.854  1.00  0.00     0.004 C 
ENDBRANCH   2   3
ENDBRANCH   1   2
BRANCH   1   5
ATOM      5  C   UNL     1      31.908  18.329  27.483  1.00  0.00    -0.023 C 
ATOM      6  C   UNL     1      31.014  17.433  27.046  1.00  0.00     0.042 C 
BRANCH   6   7
ATOM      7  C   UNL     1      30.787  16.128  27.699  1.00  0.00     0.152 C 
ATOM      8  O   UNL     1      31.707  15.637  28.405  1.00  0.00    -0.295 OA
ATOM      9  C   UNL     1      29.503  15.369  27.550  1.00  0.00     0.093 C 
ENDBRANCH   6   7
ENDBRANCH   1   5
TORSDOF 4
ENDMDL
MODEL 8
REMARK VINA RESULT:    -4.168     10.707     11.558
REMARK INTER + INTRA:          -5.359
REMARK INTER:                  -5.164
REMARK INTRA:                  -0.196
REMARK UNBOUND:                -0.217
REMARK SMILES CCCCC=CC(C)=O
REMARK SMILES IDX 4 1 3 2 2 3 1 4 5 5 6 6 7 7 9 8 8 9
REMARK H PARENT
REMARK Flexibility Score: inf
ROOT
ATOM      1  C   UNL     1      23.707  24.290  23.857  1.00  0.00     0.027 C 
ENDROOT
BRANCH   1   2
ATOM      2  C   UNL     1      22.605  23.455  23.179  1.00  0.00     0.004 C 
BRANCH   2   3
ATOM      3  C   UNL     1      23.137  22.348  22.251  1.00  0.00    -0.003 C 
ATOM      4  C   UNL     1      24.660  22.346  22.142  1.00  0.00     0.004 C 
ENDBRANCH   2   3
ENDBRANCH   1   2
BRANCH   1   5
ATOM      5  C   UNL     1      23.249  24.909  25.148  1.00  0.00    -0.023 C 
ATOM      6  C   UNL     1      22.583  24.198  26.066  1.00  0.00     0.042 C 
BRANCH   6   7
ATOM      7  C   UNL     1      22.114  24.764  27.347  1.00  0.00     0.152 C 
ATOM      8  O   UNL     1      20.877  24.922  27.522  1.00  0.00    -0.295 OA
ATOM      9  C   UNL     1      23.057  25.154  28.445  1.00  0.00     0.093 C 
ENDBRANCH   6   7
ENDBRANCH   1   5
TORSDOF 4
ENDMDL
MODEL 9
REMARK VINA RESULT:    -4.110     10.875     11.360
REMARK INTER + INTRA:          -5.288
REMARK INTER:                  -5.135
REMARK INTRA:                  -0.153
REMARK UNBOUND:                -0.217
REMARK SMILES CCCCC=CC(C)=O
REMARK SMILES IDX 4 1 3 2 2 3 1 4 5 5 6 6 7 7 9 8 8 9
REMARK H PARENT
REMARK Flexibility Score: inf
ROOT
ATOM      1  C   UNL     1      22.753  25.310  26.498  1.00  0.00     0.027 C 
ENDROOT
BRANCH   1   2
ATOM      2  C   UNL     1      21.972  24.821  27.731  1.00  0.00     0.004 C 
BRANCH   2   3
ATOM      3  C   UNL     1      22.364  25.525  29.043  1.00  0.00    -0.003 C 
ATOM      4  C   UNL     1      23.797  26.055  29.027  1.00  0.00     0.004 C 
ENDBRANCH   2   3
ENDBRANCH   1   2
BRANCH   1   5
ATOM      5  C   UNL     1      22.910  24.240  25.454  1.00  0.00    -0.023 C 
ATOM      6  C   UNL     1      23.474  24.498  24.268  1.00  0.00     0.042 C 
BRANCH   6   7
ATOM      7  C   UNL     1      23.649  23.479  23.214  1.00  0.00     0.152 C 
ATOM      8  O   UNL     1      24.816  23.206  22.824  1.00  0.00    -0.295 OA
ATOM      9  C   UNL     1      22.490  22.758  22.592  1.00  0.00     0.093 C 
ENDBRANCH   6   7
ENDBRANCH   1   5
TORSDOF 4
ENDMDL
