MODEL 1
REMARK VINA RESULT:    -8.934      0.000      0.000
REMARK INTER + INTRA:         -10.789
REMARK INTER:                 -10.501
REMARK INTRA:                  -0.288
REMARK UNBOUND:                -0.288
REMARK SMILES O=c1c(O)c(-c2ccc(O)cc2)oc2cc(O)cc(O)c12
REMARK SMILES IDX 5 1 3 2 2 3 1 4 21 5 19 6 18 7 16 8 15 9 14 10 13 11 6 12
REMARK SMILES IDX 7 13 8 14 9 15 12 16 11 17 10 18 4 20 20 22 17 24
REMARK H PARENT 10 19 4 21 20 23 17 25
REMARK Flexibility Score: inf
ROOT
ATOM      1  C   UNL     1     141.143 -20.443  78.861  1.00  0.00     0.180 A 
ATOM      2  C   UNL     1     139.880 -20.841  78.387  1.00  0.00     0.208 A 
ATOM      3  C   UNL     1     138.728 -20.330  79.007  1.00  0.00     0.238 A 
ATOM      4  O   UNL     1     137.602 -20.647  78.544  1.00  0.00    -0.285 OA
ATOM      5  C   UNL     1     138.853 -19.442  80.103  1.00  0.00     0.111 A 
ATOM      6  C   UNL     1     137.754 -18.895  80.832  1.00  0.00     0.134 A 
ATOM      7  C   UNL     1     137.992 -17.926  81.814  1.00  0.00     0.093 A 
ATOM      8  C   UNL     1     139.289 -17.531  82.138  1.00  0.00     0.123 A 
ATOM      9  C   UNL     1     140.374 -18.103  81.472  1.00  0.00     0.094 A 
ATOM     10  C   UNL     1     140.167 -19.046  80.464  1.00  0.00     0.146 A 
ATOM     11  O   UNL     1     141.226 -19.558  79.848  1.00  0.00    -0.452 OA
ENDROOT
BRANCH   1  12
ATOM     12  C   UNL     1     142.402 -20.958  78.275  1.00  0.00     0.021 A 
ATOM     13  C   UNL     1     143.110 -20.167  77.355  1.00  0.00     0.016 A 
ATOM     14  C   UNL     1     144.312 -20.624  76.806  1.00  0.00     0.047 A 
ATOM     15  C   UNL     1     144.830 -21.867  77.181  1.00  0.00     0.115 A 
ATOM     16  C   UNL     1     142.938 -22.199  78.664  1.00  0.00     0.016 A 
ATOM     17  C   UNL     1     144.140 -22.653  78.115  1.00  0.00     0.047 A 
BRANCH  15  18
ATOM     18  O   UNL     1     146.028 -22.310  76.627  1.00  0.00    -0.508 OA
ATOM     19  H   UNL     1     146.199 -23.293  76.451  1.00  0.00     0.293 HD
ENDBRANCH  15  18
ENDBRANCH   1  12
BRANCH   2  20
ATOM     20  O   UNL     1     139.780 -21.700  77.290  1.00  0.00    -0.502 OA
ATOM     21  H   UNL     1     138.957 -21.735  76.699  1.00  0.00     0.293 HD
ENDBRANCH   2  20
BRANCH   6  22
ATOM     22  O   UNL     1     136.425 -19.288  80.651  1.00  0.00    -0.507 OA
ATOM     23  H   UNL     1     135.963 -19.357  79.757  1.00  0.00     0.293 HD
ENDBRANCH   6  22
BRANCH   8  24
ATOM     24  O   UNL     1     139.488 -16.575  83.132  1.00  0.00    -0.508 OA
ATOM     25  H   UNL     1     140.346 -16.544  83.672  1.00  0.00     0.293 HD
ENDBRANCH   8  24
TORSDOF 5
ENDMDL
MODEL 2
REMARK VINA RESULT:    -8.903      1.152      1.178
REMARK INTER + INTRA:         -10.753
REMARK INTER:                 -10.592
REMARK INTRA:                  -0.161
REMARK UNBOUND:                -0.288
REMARK SMILES O=c1c(O)c(-c2ccc(O)cc2)oc2cc(O)cc(O)c12
REMARK SMILES IDX 5 1 3 2 2 3 1 4 21 5 19 6 18 7 16 8 15 9 14 10 13 11 6 12
REMARK SMILES IDX 7 13 8 14 9 15 12 16 11 17 10 18 4 20 20 22 17 24
REMARK H PARENT 10 19 4 21 20 23 17 25
REMARK Flexibility Score: inf
ROOT
ATOM      1  C   UNL     1     141.194 -19.808  78.795  1.00  0.00     0.180 A 
ATOM      2  C   UNL     1     139.857 -20.202  78.612  1.00  0.00     0.208 A 
ATOM      3  C   UNL     1     138.835 -19.427  79.184  1.00  0.00     0.238 A 
ATOM      4  O   UNL     1     137.638 -19.754  78.972  1.00  0.00    -0.285 OA
ATOM      5  C   UNL     1     139.163 -18.278  79.944  1.00  0.00     0.111 A 
ATOM      6  C   UNL     1     138.210 -17.443  80.602  1.00  0.00     0.134 A 
ATOM      7  C   UNL     1     138.638 -16.261  81.217  1.00  0.00     0.093 A 
ATOM      8  C   UNL     1     139.988 -15.915  81.255  1.00  0.00     0.123 A 
ATOM      9  C   UNL     1     140.935 -16.755  80.666  1.00  0.00     0.094 A 
ATOM     10  C   UNL     1     140.535 -17.924  80.014  1.00  0.00     0.146 A 
ATOM     11  O   UNL     1     141.466 -18.689  79.458  1.00  0.00    -0.452 OA
ENDROOT
BRANCH   1  12
ATOM     12  C   UNL     1     142.327 -20.587  78.244  1.00  0.00     0.021 A 
ATOM     13  C   UNL     1     143.184 -19.991  77.304  1.00  0.00     0.016 A 
ATOM     14  C   UNL     1     144.272 -20.700  76.788  1.00  0.00     0.047 A 
ATOM     15  C   UNL     1     144.528 -22.006  77.215  1.00  0.00     0.115 A 
ATOM     16  C   UNL     1     142.601 -21.894  78.686  1.00  0.00     0.016 A 
ATOM     17  C   UNL     1     143.690 -22.601  78.168  1.00  0.00     0.047 A 
BRANCH  15  18
ATOM     18  O   UNL     1     145.616 -22.701  76.692  1.00  0.00    -0.508 OA
ATOM     19  H   UNL     1     145.521 -23.647  76.343  1.00  0.00     0.293 HD
ENDBRANCH  15  18
ENDBRANCH   1  12
BRANCH   2  20
ATOM     20  O   UNL     1     139.555 -21.326  77.839  1.00  0.00    -0.502 OA
ATOM     21  H   UNL     1     140.178 -22.123  77.771  1.00  0.00     0.293 HD
ENDBRANCH   2  20
BRANCH   6  22
ATOM     22  O   UNL     1     136.848 -17.743  80.704  1.00  0.00    -0.507 OA
ATOM     23  H   UNL     1     136.224 -17.851  79.919  1.00  0.00     0.293 HD
ENDBRANCH   6  22
BRANCH   8  24
ATOM     24  O   UNL     1     140.379 -14.738  81.890  1.00  0.00    -0.508 OA
ATOM     25  H   UNL     1     140.619 -14.722  82.875  1.00  0.00     0.293 HD
ENDBRANCH   8  24
TORSDOF 5
ENDMDL
MODEL 3
REMARK VINA RESULT:    -8.581      2.973      5.856
REMARK INTER + INTRA:         -10.374
REMARK INTER:                 -10.096
REMARK INTRA:                  -0.277
REMARK UNBOUND:                -0.288
REMARK SMILES O=c1c(O)c(-c2ccc(O)cc2)oc2cc(O)cc(O)c12
REMARK SMILES IDX 5 1 3 2 2 3 1 4 21 5 19 6 18 7 16 8 15 9 14 10 13 11 6 12
REMARK SMILES IDX 7 13 8 14 9 15 12 16 11 17 10 18 4 20 20 22 17 24
REMARK H PARENT 10 19 4 21 20 23 17 25
REMARK Flexibility Score: inf
ROOT
ATOM      1  C   UNL     1     139.145 -18.704  79.635  1.00  0.00     0.180 A 
ATOM      2  C   UNL     1     140.319 -19.243  79.078  1.00  0.00     0.208 A 
ATOM      3  C   UNL     1     141.535 -18.563  79.265  1.00  0.00     0.238 A 
ATOM      4  O   UNL     1     142.590 -19.078  78.811  1.00  0.00    -0.285 OA
ATOM      5  C   UNL     1     141.558 -17.348  79.990  1.00  0.00     0.111 A 
ATOM      6  C   UNL     1     142.726 -16.556  80.206  1.00  0.00     0.134 A 
ATOM      7  C   UNL     1     142.657 -15.439  81.048  1.00  0.00     0.093 A 
ATOM      8  C   UNL     1     141.451 -15.049  81.630  1.00  0.00     0.123 A 
ATOM      9  C   UNL     1     140.291 -15.783  81.379  1.00  0.00     0.094 A 
ATOM     10  C   UNL     1     140.336 -16.921  80.571  1.00  0.00     0.146 A 
ATOM     11  O   UNL     1     139.211 -17.597  80.365  1.00  0.00    -0.452 OA
ENDROOT
BRANCH   1  12
ATOM     12  C   UNL     1     137.824 -19.349  79.460  1.00  0.00     0.021 A 
ATOM     13  C   UNL     1     137.095 -19.123  78.280  1.00  0.00     0.016 A 
ATOM     14  C   UNL     1     135.856 -19.739  78.085  1.00  0.00     0.047 A 
ATOM     15  C   UNL     1     135.335 -20.598  79.056  1.00  0.00     0.115 A 
ATOM     16  C   UNL     1     137.304 -20.230  80.426  1.00  0.00     0.016 A 
ATOM     17  C   UNL     1     136.065 -20.845  80.227  1.00  0.00     0.047 A 
BRANCH  15  18
ATOM     18  O   UNL     1     134.099 -21.205  78.849  1.00  0.00    -0.508 OA
ATOM     19  H   UNL     1     133.887 -21.694  77.987  1.00  0.00     0.293 HD
ENDBRANCH  15  18
ENDBRANCH   1  12
BRANCH   2  20
ATOM     20  O   UNL     1     140.277 -20.455  78.385  1.00  0.00    -0.502 OA
ATOM     21  H   UNL     1     139.434 -21.013  78.318  1.00  0.00     0.293 HD
ENDBRANCH   2  20
BRANCH   6  22
ATOM     22  O   UNL     1     143.960 -16.804  79.598  1.00  0.00    -0.507 OA
ATOM     23  H   UNL     1     144.784 -17.127  80.082  1.00  0.00     0.293 HD
ENDBRANCH   6  22
BRANCH   8  24
ATOM     24  O   UNL     1     141.417 -13.923  82.451  1.00  0.00    -0.508 OA
ATOM     25  H   UNL     1     141.129 -13.984  83.421  1.00  0.00     0.293 HD
ENDBRANCH   8  24
TORSDOF 5
ENDMDL
MODEL 4
REMARK VINA RESULT:    -8.437      1.399      2.857
REMARK INTER + INTRA:         -10.205
REMARK INTER:                 -10.283
REMARK INTRA:                   0.078
REMARK UNBOUND:                -0.288
REMARK SMILES O=c1c(O)c(-c2ccc(O)cc2)oc2cc(O)cc(O)c12
REMARK SMILES IDX 5 1 3 2 2 3 1 4 21 5 19 6 18 7 16 8 15 9 14 10 13 11 6 12
REMARK SMILES IDX 7 13 8 14 9 15 12 16 11 17 10 18 4 20 20 22 17 24
REMARK H PARENT 10 19 4 21 20 23 17 25
REMARK Flexibility Score: inf
ROOT
ATOM      1  C   UNL     1     141.145 -19.963  78.933  1.00  0.00     0.180 A 
ATOM      2  C   UNL     1     141.251 -18.668  79.471  1.00  0.00     0.208 A 
ATOM      3  C   UNL     1     140.109 -18.067  80.027  1.00  0.00     0.238 A 
ATOM      4  O   UNL     1     140.223 -16.930  80.556  1.00  0.00    -0.285 OA
ATOM      5  C   UNL     1     138.875 -18.760  80.022  1.00  0.00     0.111 A 
ATOM      6  C   UNL     1     137.647 -18.230  80.522  1.00  0.00     0.134 A 
ATOM      7  C   UNL     1     136.516 -19.053  80.586  1.00  0.00     0.093 A 
ATOM      8  C   UNL     1     136.550 -20.363  80.110  1.00  0.00     0.123 A 
ATOM      9  C   UNL     1     137.730 -20.872  79.565  1.00  0.00     0.094 A 
ATOM     10  C   UNL     1     138.884 -20.087  79.520  1.00  0.00     0.146 A 
ATOM     11  O   UNL     1     139.988 -20.612  79.003  1.00  0.00    -0.452 OA
ENDROOT
BRANCH   1  12
ATOM     12  C   UNL     1     142.297 -20.653  78.307  1.00  0.00     0.021 A 
ATOM     13  C   UNL     1     143.086 -19.968  77.369  1.00  0.00     0.016 A 
ATOM     14  C   UNL     1     144.191 -20.592  76.783  1.00  0.00     0.047 A 
ATOM     15  C   UNL     1     144.531 -21.901  77.137  1.00  0.00     0.115 A 
ATOM     16  C   UNL     1     142.654 -21.963  78.675  1.00  0.00     0.016 A 
ATOM     17  C   UNL     1     143.760 -22.585  78.088  1.00  0.00     0.047 A 
BRANCH  15  18
ATOM     18  O   UNL     1     145.634 -22.511  76.546  1.00  0.00    -0.508 OA
ATOM     19  H   UNL     1     146.325 -21.974  76.035  1.00  0.00     0.293 HD
ENDBRANCH  15  18
ENDBRANCH   1  12
BRANCH   2  20
ATOM     20  O   UNL     1     142.484 -18.012  79.485  1.00  0.00    -0.502 OA
ATOM     21  H   UNL     1     143.363 -18.508  79.573  1.00  0.00     0.293 HD
ENDBRANCH   2  20
BRANCH   6  22
ATOM     22  O   UNL     1     137.480 -16.906  80.938  1.00  0.00    -0.507 OA
ATOM     23  H   UNL     1     138.234 -16.260  81.113  1.00  0.00     0.293 HD
ENDBRANCH   6  22
BRANCH   8  24
ATOM     24  O   UNL     1     135.400 -21.148  80.175  1.00  0.00    -0.508 OA
ATOM     25  H   UNL     1     134.757 -21.081  80.956  1.00  0.00     0.293 HD
ENDBRANCH   8  24
TORSDOF 5
ENDMDL
MODEL 5
REMARK VINA RESULT:    -7.991      3.441      5.220
REMARK INTER + INTRA:          -9.680
REMARK INTER:                  -9.415
REMARK INTRA:                  -0.264
REMARK UNBOUND:                -0.288
REMARK SMILES O=c1c(O)c(-c2ccc(O)cc2)oc2cc(O)cc(O)c12
REMARK SMILES IDX 5 1 3 2 2 3 1 4 21 5 19 6 18 7 16 8 15 9 14 10 13 11 6 12
REMARK SMILES IDX 7 13 8 14 9 15 12 16 11 17 10 18 4 20 20 22 17 24
REMARK H PARENT 10 19 4 21 20 23 17 25
REMARK Flexibility Score: inf
ROOT
ATOM      1  C   UNL     1     138.783 -18.824  79.701  1.00  0.00     0.180 A 
ATOM      2  C   UNL     1     138.355 -19.798  80.621  1.00  0.00     0.208 A 
ATOM      3  C   UNL     1     137.148 -20.475  80.382  1.00  0.00     0.238 A 
ATOM      4  O   UNL     1     136.797 -21.383  81.180  1.00  0.00    -0.285 OA
ATOM      5  C   UNL     1     136.377 -20.159  79.237  1.00  0.00     0.111 A 
ATOM      6  C   UNL     1     135.119 -20.753  78.919  1.00  0.00     0.134 A 
ATOM      7  C   UNL     1     134.507 -20.459  77.694  1.00  0.00     0.093 A 
ATOM      8  C   UNL     1     135.073 -19.545  76.807  1.00  0.00     0.123 A 
ATOM      9  C   UNL     1     136.274 -18.913  77.135  1.00  0.00     0.094 A 
ATOM     10  C   UNL     1     136.925 -19.213  78.334  1.00  0.00     0.146 A 
ATOM     11  O   UNL     1     138.071 -18.597  78.604  1.00  0.00    -0.452 OA
ENDROOT
BRANCH   1  12
ATOM     12  C   UNL     1     140.031 -18.051  79.896  1.00  0.00     0.021 A 
ATOM     13  C   UNL     1     140.037 -16.959  80.781  1.00  0.00     0.016 A 
ATOM     14  C   UNL     1     141.210 -16.230  80.997  1.00  0.00     0.047 A 
ATOM     15  C   UNL     1     142.393 -16.589  80.346  1.00  0.00     0.115 A 
ATOM     16  C   UNL     1     141.230 -18.421  79.260  1.00  0.00     0.016 A 
ATOM     17  C   UNL     1     142.401 -17.690  79.478  1.00  0.00     0.047 A 
BRANCH  15  18
ATOM     18  O   UNL     1     143.553 -15.853  80.571  1.00  0.00    -0.508 OA
ATOM     19  H   UNL     1     143.783 -15.495  81.490  1.00  0.00     0.293 HD
ENDBRANCH  15  18
ENDBRANCH   1  12
BRANCH   2  20
ATOM     20  O   UNL     1     139.143 -20.110  81.732  1.00  0.00    -0.502 OA
ATOM     21  H   UNL     1     139.157 -19.536  82.567  1.00  0.00     0.293 HD
ENDBRANCH   2  20
BRANCH   6  22
ATOM     22  O   UNL     1     134.421 -21.610  79.775  1.00  0.00    -0.507 OA
ATOM     23  H   UNL     1     134.184 -22.566  79.564  1.00  0.00     0.293 HD
ENDBRANCH   6  22
BRANCH   8  24
ATOM     24  O   UNL     1     134.428 -19.264  75.604  1.00  0.00    -0.508 OA
ATOM     25  H   UNL     1     134.638 -19.782  74.758  1.00  0.00     0.293 HD
ENDBRANCH   8  24
TORSDOF 5
ENDMDL
MODEL 6
REMARK VINA RESULT:    -7.697      3.821      6.291
REMARK INTER + INTRA:          -9.335
REMARK INTER:                  -9.066
REMARK INTRA:                  -0.269
REMARK UNBOUND:                -0.288
REMARK SMILES O=c1c(O)c(-c2ccc(O)cc2)oc2cc(O)cc(O)c12
REMARK SMILES IDX 5 1 3 2 2 3 1 4 21 5 19 6 18 7 16 8 15 9 14 10 13 11 6 12
REMARK SMILES IDX 7 13 8 14 9 15 12 16 11 17 10 18 4 20 20 22 17 24
REMARK H PARENT 10 19 4 21 20 23 17 25
REMARK Flexibility Score: inf
ROOT
ATOM      1  C   UNL     1     138.888 -17.709  80.373  1.00  0.00     0.180 A 
ATOM      2  C   UNL     1     138.374 -16.516  80.912  1.00  0.00     0.208 A 
ATOM      3  C   UNL     1     139.265 -15.489  81.265  1.00  0.00     0.238 A 
ATOM      4  O   UNL     1     138.795 -14.403  81.696  1.00  0.00    -0.285 OA
ATOM      5  C   UNL     1     140.658 -15.674  81.090  1.00  0.00     0.111 A 
ATOM      6  C   UNL     1     141.653 -14.717  81.451  1.00  0.00     0.134 A 
ATOM      7  C   UNL     1     142.991 -14.952  81.113  1.00  0.00     0.093 A 
ATOM      8  C   UNL     1     143.379 -16.136  80.487  1.00  0.00     0.123 A 
ATOM      9  C   UNL     1     142.421 -17.105  80.182  1.00  0.00     0.094 A 
ATOM     10  C   UNL     1     141.074 -16.883  80.476  1.00  0.00     0.146 A 
ATOM     11  O   UNL     1     140.193 -17.826  80.160  1.00  0.00    -0.452 OA
ENDROOT
BRANCH   1  12
ATOM     12  C   UNL     1     138.014 -18.845  80.000  1.00  0.00     0.021 A 
ATOM     13  C   UNL     1     137.559 -19.723  80.998  1.00  0.00     0.016 A 
ATOM     14  C   UNL     1     136.715 -20.789  80.671  1.00  0.00     0.047 A 
ATOM     15  C   UNL     1     136.304 -20.984  79.350  1.00  0.00     0.115 A 
ATOM     16  C   UNL     1     137.581 -19.033  78.675  1.00  0.00     0.016 A 
ATOM     17  C   UNL     1     136.738 -20.100  78.351  1.00  0.00     0.047 A 
BRANCH  15  18
ATOM     18  O   UNL     1     135.465 -22.050  79.039  1.00  0.00    -0.508 OA
ATOM     19  H   UNL     1     135.667 -22.676  78.268  1.00  0.00     0.293 HD
ENDBRANCH  15  18
ENDBRANCH   1  12
BRANCH   2  20
ATOM     20  O   UNL     1     136.994 -16.346  81.055  1.00  0.00    -0.502 OA
ATOM     21  H   UNL     1     136.365 -17.123  81.224  1.00  0.00     0.293 HD
ENDBRANCH   2  20
BRANCH   6  22
ATOM     22  O   UNL     1     141.386 -13.543  82.161  1.00  0.00    -0.507 OA
ATOM     23  H   UNL     1     141.563 -13.413  83.145  1.00  0.00     0.293 HD
ENDBRANCH   6  22
BRANCH   8  24
ATOM     24  O   UNL     1     144.722 -16.344  80.179  1.00  0.00    -0.508 OA
ATOM     25  H   UNL     1     145.416 -16.484  80.906  1.00  0.00     0.293 HD
ENDBRANCH   8  24
TORSDOF 5
ENDMDL
MODEL 7
REMARK VINA RESULT:    -7.590      3.868      9.908
REMARK INTER + INTRA:          -9.209
REMARK INTER:                  -9.339
REMARK INTRA:                   0.129
REMARK UNBOUND:                -0.288
REMARK SMILES O=c1c(O)c(-c2ccc(O)cc2)oc2cc(O)cc(O)c12
REMARK SMILES IDX 5 1 3 2 2 3 1 4 21 5 19 6 18 7 16 8 15 9 14 10 13 11 6 12
REMARK SMILES IDX 7 13 8 14 9 15 12 16 11 17 10 18 4 20 20 22 17 24
REMARK H PARENT 10 19 4 21 20 23 17 25
REMARK Flexibility Score: inf
ROOT
ATOM      1  C   UNL     1     146.421 -22.674  77.353  1.00  0.00     0.180 A 
ATOM      2  C   UNL     1     147.187 -23.208  78.404  1.00  0.00     0.208 A 
ATOM      3  C   UNL     1     148.483 -23.677  78.131  1.00  0.00     0.238 A 
ATOM      4  O   UNL     1     149.185 -24.103  79.085  1.00  0.00    -0.285 OA
ATOM      5  C   UNL     1     148.989 -23.622  76.809  1.00  0.00     0.111 A 
ATOM      6  C   UNL     1     150.272 -24.105  76.413  1.00  0.00     0.134 A 
ATOM      7  C   UNL     1     150.719 -23.881  75.105  1.00  0.00     0.093 A 
ATOM      8  C   UNL     1     149.907 -23.249  74.164  1.00  0.00     0.123 A 
ATOM      9  C   UNL     1     148.628 -22.825  74.525  1.00  0.00     0.094 A 
ATOM     10  C   UNL     1     148.167 -23.004  75.832  1.00  0.00     0.146 A 
ATOM     11  O   UNL     1     146.948 -22.576  76.138  1.00  0.00    -0.452 OA
ENDROOT
BRANCH   1  12
ATOM     12  C   UNL     1     145.038 -22.183  77.557  1.00  0.00     0.021 A 
ATOM     13  C   UNL     1     144.605 -21.034  76.875  1.00  0.00     0.016 A 
ATOM     14  C   UNL     1     143.298 -20.566  77.036  1.00  0.00     0.047 A 
ATOM     15  C   UNL     1     142.403 -21.247  77.866  1.00  0.00     0.115 A 
ATOM     16  C   UNL     1     144.128 -22.876  78.376  1.00  0.00     0.016 A 
ATOM     17  C   UNL     1     142.821 -22.406  78.534  1.00  0.00     0.047 A 
BRANCH  15  18
ATOM     18  O   UNL     1     141.104 -20.769  78.017  1.00  0.00    -0.508 OA
ATOM     19  H   UNL     1     140.299 -21.340  77.786  1.00  0.00     0.293 HD
ENDBRANCH  15  18
ENDBRANCH   1  12
BRANCH   2  20
ATOM     20  O   UNL     1     146.677 -23.232  79.704  1.00  0.00    -0.502 OA
ATOM     21  H   UNL     1     146.458 -24.096  80.187  1.00  0.00     0.293 HD
ENDBRANCH   2  20
BRANCH   6  22
ATOM     22  O   UNL     1     151.125 -24.831  77.249  1.00  0.00    -0.507 OA
ATOM     23  H   UNL     1     150.885 -25.154  78.173  1.00  0.00     0.293 HD
ENDBRANCH   6  22
BRANCH   8  24
ATOM     24  O   UNL     1     150.380 -23.057  72.867  1.00  0.00    -0.508 OA
ATOM     25  H   UNL     1     150.781 -23.819  72.331  1.00  0.00     0.293 HD
ENDBRANCH   8  24
TORSDOF 5
ENDMDL
MODEL 8
REMARK VINA RESULT:    -7.531      4.332      7.624
REMARK INTER + INTRA:          -9.140
REMARK INTER:                  -9.025
REMARK INTRA:                  -0.115
REMARK UNBOUND:                -0.288
REMARK SMILES O=c1c(O)c(-c2ccc(O)cc2)oc2cc(O)cc(O)c12
REMARK SMILES IDX 5 1 3 2 2 3 1 4 21 5 19 6 18 7 16 8 15 9 14 10 13 11 6 12
REMARK SMILES IDX 7 13 8 14 9 15 12 16 11 17 10 18 4 20 20 22 17 24
REMARK H PARENT 10 19 4 21 20 23 17 25
REMARK Flexibility Score: inf
ROOT
ATOM      1  C   UNL     1     135.445 -19.615  77.814  1.00  0.00     0.180 A 
ATOM      2  C   UNL     1     135.411 -20.626  78.792  1.00  0.00     0.208 A 
ATOM      3  C   UNL     1     136.583 -20.921  79.507  1.00  0.00     0.238 A 
ATOM      4  O   UNL     1     136.533 -21.788  80.418  1.00  0.00    -0.285 OA
ATOM      5  C   UNL     1     137.778 -20.215  79.224  1.00  0.00     0.111 A 
ATOM      6  C   UNL     1     139.032 -20.460  79.859  1.00  0.00     0.134 A 
ATOM      7  C   UNL     1     140.117 -19.615  79.594  1.00  0.00     0.093 A 
ATOM      8  C   UNL     1     140.010 -18.575  78.671  1.00  0.00     0.123 A 
ATOM      9  C   UNL     1     138.805 -18.363  78.001  1.00  0.00     0.094 A 
ATOM     10  C   UNL     1     137.696 -19.168  78.270  1.00  0.00     0.146 A 
ATOM     11  O   UNL     1     136.564 -18.927  77.618  1.00  0.00    -0.452 OA
ENDROOT
BRANCH   1  12
ATOM     12  C   UNL     1     134.258 -19.264  77.002  1.00  0.00     0.021 A 
ATOM     13  C   UNL     1     133.135 -18.698  77.629  1.00  0.00     0.016 A 
ATOM     14  C   UNL     1     132.012 -18.338  76.878  1.00  0.00     0.047 A 
ATOM     15  C   UNL     1     132.001 -18.525  75.493  1.00  0.00     0.115 A 
ATOM     16  C   UNL     1     134.249 -19.431  75.605  1.00  0.00     0.016 A 
ATOM     17  C   UNL     1     133.125 -19.070  74.857  1.00  0.00     0.047 A 
BRANCH  15  18
ATOM     18  O   UNL     1     130.875 -18.162  74.758  1.00  0.00    -0.508 OA
ATOM     19  H   UNL     1     129.940 -18.279  75.130  1.00  0.00     0.293 HD
ENDBRANCH  15  18
ENDBRANCH   1  12
BRANCH   2  20
ATOM     20  O   UNL     1     134.216 -21.294  79.070  1.00  0.00    -0.502 OA
ATOM     21  H   UNL     1     133.497 -20.897  79.665  1.00  0.00     0.293 HD
ENDBRANCH   2  20
BRANCH   6  22
ATOM     22  O   UNL     1     139.272 -21.529  80.728  1.00  0.00    -0.507 OA
ATOM     23  H   UNL     1     138.820 -22.428  80.670  1.00  0.00     0.293 HD
ENDBRANCH   6  22
BRANCH   8  24
ATOM     24  O   UNL     1     141.115 -17.763  78.420  1.00  0.00    -0.508 OA
ATOM     25  H   UNL     1     141.973 -18.141  78.035  1.00  0.00     0.293 HD
ENDBRANCH   8  24
TORSDOF 5
ENDMDL
MODEL 9
REMARK VINA RESULT:    -7.400      4.042      6.240
REMARK INTER + INTRA:          -8.986
REMARK INTER:                  -8.855
REMARK INTRA:                  -0.130
REMARK UNBOUND:                -0.288
REMARK SMILES O=c1c(O)c(-c2ccc(O)cc2)oc2cc(O)cc(O)c12
REMARK SMILES IDX 5 1 3 2 2 3 1 4 21 5 19 6 18 7 16 8 15 9 14 10 13 11 6 12
REMARK SMILES IDX 7 13 8 14 9 15 12 16 11 17 10 18 4 20 20 22 17 24
REMARK H PARENT 10 19 4 21 20 23 17 25
REMARK Flexibility Score: inf
ROOT
ATOM      1  C   UNL     1     138.540 -18.095  80.326  1.00  0.00     0.180 A 
ATOM      2  C   UNL     1     139.857 -18.425  80.692  1.00  0.00     0.208 A 
ATOM      3  C   UNL     1     140.767 -17.391  80.965  1.00  0.00     0.238 A 
ATOM      4  O   UNL     1     141.928 -17.693  81.345  1.00  0.00    -0.285 OA
ATOM      5  C   UNL     1     140.353 -16.041  80.853  1.00  0.00     0.111 A 
ATOM      6  C   UNL     1     141.202 -14.914  81.067  1.00  0.00     0.134 A 
ATOM      7  C   UNL     1     140.655 -13.625  81.056  1.00  0.00     0.093 A 
ATOM      8  C   UNL     1     139.305 -13.419  80.776  1.00  0.00     0.123 A 
ATOM      9  C   UNL     1     138.477 -14.510  80.507  1.00  0.00     0.094 A 
ATOM     10  C   UNL     1     138.988 -15.810  80.545  1.00  0.00     0.146 A 
ATOM     11  O   UNL     1     138.165 -16.821  80.293  1.00  0.00    -0.452 OA
ENDROOT
BRANCH   1  12
ATOM     12  C   UNL     1     137.531 -19.129  79.998  1.00  0.00     0.021 A 
ATOM     13  C   UNL     1     137.073 -19.992  81.007  1.00  0.00     0.016 A 
ATOM     14  C   UNL     1     136.105 -20.960  80.725  1.00  0.00     0.047 A 
ATOM     15  C   UNL     1     135.571 -21.069  79.438  1.00  0.00     0.115 A 
ATOM     16  C   UNL     1     136.975 -19.228  78.709  1.00  0.00     0.016 A 
ATOM     17  C   UNL     1     136.007 -20.197  78.430  1.00  0.00     0.047 A 
BRANCH  15  18
ATOM     18  O   UNL     1     134.607 -22.038  79.171  1.00  0.00    -0.508 OA
ATOM     19  H   UNL     1     134.260 -22.653  79.898  1.00  0.00     0.293 HD
ENDBRANCH  15  18
ENDBRANCH   1  12
BRANCH   2  20
ATOM     20  O   UNL     1     140.237 -19.764  80.818  1.00  0.00    -0.502 OA
ATOM     21  H   UNL     1     139.722 -20.519  80.380  1.00  0.00     0.293 HD
ENDBRANCH   2  20
BRANCH   6  22
ATOM     22  O   UNL     1     142.583 -15.003  81.264  1.00  0.00    -0.507 OA
ATOM     23  H   UNL     1     143.027 -15.158  82.156  1.00  0.00     0.293 HD
ENDBRANCH   6  22
BRANCH   8  24
ATOM     24  O   UNL     1     138.797 -12.121  80.758  1.00  0.00    -0.508 OA
ATOM     25  H   UNL     1     139.405 -11.313  80.838  1.00  0.00     0.293 HD
ENDBRANCH   8  24
TORSDOF 5
ENDMDL
