MODEL 1
REMARK VINA RESULT:    -4.943      0.000      0.000
REMARK INTER + INTRA:          -6.005
REMARK INTER:                  -6.966
REMARK INTRA:                   0.960
REMARK UNBOUND:                 0.960
REMARK SMILES CC1=CCC(=C(C)C)C(=O)CC(C)=CCC1
REMARK SMILES IDX 12 1 14 2 13 3 15 4 16 5 2 6 1 7 3 8 11 10 9 11 10 12 5 13
REMARK SMILES IDX 6 14 7 15 8 16 4 17
REMARK H PARENT
REMARK Flexibility Score: 60.00
ROOT
ATOM      1  C   UNL     1     -12.889 -19.296  29.503  1.00  0.00    -0.070 C 
ATOM      2  C   UNL     1     -13.209 -19.488  30.803  1.00  0.00    -0.027 C 
ATOM      3  C   UNL     1     -13.935 -19.607  28.463  1.00  0.00     0.039 C 
ENDROOT
BRANCH   2   4
ATOM      4  C   UNL     1     -12.270 -19.286  31.971  1.00  0.00     0.032 C 
BRANCH   4   5
ATOM      5  C   UNL     1     -11.985 -17.797  32.217  1.00  0.00     0.034 C 
BRANCH   5   6
ATOM      6  C   UNL     1     -13.182 -16.896  31.945  1.00  0.00    -0.077 C 
ATOM      7  C   UNL     1     -14.370 -16.965  32.873  1.00  0.00     0.039 C 
ATOM      8  C   UNL     1     -13.250 -16.044  30.898  1.00  0.00    -0.023 CG0
ATOM      9  G   UNL     1     -12.140 -15.785  29.906  1.00  0.00     0.000 G0
ENDBRANCH   5   6
ENDBRANCH   4   5
ENDBRANCH   2   4
BRANCH   1  10
ATOM     10  C   UNL     1     -11.536 -18.782  29.052  1.00  0.00     0.111 C 
BRANCH  10  11
ATOM     11  C   UNL     1     -11.685 -17.617  28.115  1.00  0.00     0.163 C 
ATOM     12  O   UNL     1     -11.164 -17.674  26.968  1.00  0.00    -0.294 OA
BRANCH  11  13
ATOM     13  C   UNL     1     -12.415 -16.388  28.520  1.00  0.00    -0.002 C 
ATOM     14  C   UNL     1     -13.306 -15.807  27.672  1.00  0.00    -0.069 C 
ATOM     15  C   UNL     1     -14.098 -14.589  28.085  1.00  0.00     0.039 C 
ATOM     16  C   UNL     1     -13.509 -16.336  26.269  1.00  0.00     0.039 C 
BRANCH  13  17
ATOM     17  C   UNL     1     -12.151 -15.788  29.897  1.00  0.00     0.066 CG0
ATOM     18  G   UNL     1     -13.251 -16.053  30.898  1.00  0.00     0.000 G0
ENDBRANCH  13  17
ENDBRANCH  11  13
ENDBRANCH  10  11
ENDBRANCH   1  10
TORSDOF 0
ENDMDL
MODEL 2
REMARK VINA RESULT:    -4.684      1.562      4.061
REMARK INTER + INTRA:          -5.640
REMARK INTER:                  -6.657
REMARK INTRA:                   1.017
REMARK UNBOUND:                 0.960
REMARK SMILES CC1=CCC(=C(C)C)C(=O)CC(C)=CCC1
REMARK SMILES IDX 12 1 14 2 13 3 15 4 16 5 2 6 1 7 3 8 11 10 9 11 10 12 5 13
REMARK SMILES IDX 6 14 7 15 8 16 4 17
REMARK H PARENT
REMARK Flexibility Score: 60.00
ROOT
ATOM      1  C   UNL     1     -12.525 -17.065  31.744  1.00  0.00    -0.070 C 
ATOM      2  C   UNL     1     -12.248 -15.931  31.059  1.00  0.00    -0.027 C 
ATOM      3  C   UNL     1     -13.855 -17.160  32.449  1.00  0.00     0.039 C 
ENDROOT
BRANCH   2   4
ATOM      4  C   UNL     1     -10.946 -15.640  30.347  1.00  0.00     0.032 C 
BRANCH   4   5
ATOM      5  C   UNL     1     -11.149 -15.506  28.830  1.00  0.00     0.034 C 
BRANCH   5   6
ATOM      6  C   UNL     1     -12.562 -15.840  28.374  1.00  0.00    -0.077 C 
ATOM      7  C   UNL     1     -13.571 -14.725  28.254  1.00  0.00     0.039 C 
ATOM      8  C   UNL     1     -12.975 -17.095  28.085  1.00  0.00    -0.023 CG0
ATOM      9  G   UNL     1     -12.098 -18.326  28.079  1.00  0.00     0.000 G0
ENDBRANCH   5   6
ENDBRANCH   4   5
ENDBRANCH   2   4
BRANCH   1  10
ATOM     10  C   UNL     1     -11.564 -18.234  31.829  1.00  0.00     0.111 C 
BRANCH  10  11
ATOM     11  C   UNL     1     -11.106 -18.658  30.462  1.00  0.00     0.163 C 
ATOM     12  O   UNL     1      -9.875 -18.640  30.189  1.00  0.00    -0.294 OA
BRANCH  11  13
ATOM     13  C   UNL     1     -12.076 -19.077  29.418  1.00  0.00    -0.002 C 
ATOM     14  C   UNL     1     -12.937 -20.104  29.653  1.00  0.00    -0.069 C 
ATOM     15  C   UNL     1     -13.967 -20.510  28.624  1.00  0.00     0.039 C 
ATOM     16  C   UNL     1     -12.868 -20.904  30.935  1.00  0.00     0.039 C 
BRANCH  13  17
ATOM     17  C   UNL     1     -12.093 -18.341  28.083  1.00  0.00     0.066 CG0
ATOM     18  G   UNL     1     -12.978 -17.116  28.073  1.00  0.00     0.000 G0
ENDBRANCH  13  17
ENDBRANCH  11  13
ENDBRANCH  10  11
ENDBRANCH   1  10
TORSDOF 0
ENDMDL
MODEL 3
REMARK VINA RESULT:    -4.651      2.070      3.326
REMARK INTER + INTRA:          -5.595
REMARK INTER:                  -6.374
REMARK INTRA:                   0.779
REMARK UNBOUND:                 0.960
REMARK SMILES CC1=CCC(=C(C)C)C(=O)CC(C)=CCC1
REMARK SMILES IDX 12 1 14 2 13 3 15 4 16 5 2 6 1 7 3 8 11 10 9 11 10 12 5 13
REMARK SMILES IDX 6 14 7 15 8 16 4 17
REMARK H PARENT
REMARK Flexibility Score: 60.00
ROOT
ATOM      1  C   UNL     1     -10.728 -17.029  29.152  1.00  0.00    -0.070 C 
ATOM      2  C   UNL     1     -10.158 -17.868  30.047  1.00  0.00    -0.027 C 
ATOM      3  C   UNL     1     -10.681 -17.411  27.694  1.00  0.00     0.039 C 
ENDROOT
BRANCH   2   4
ATOM      4  C   UNL     1     -10.060 -17.618  31.535  1.00  0.00     0.032 C 
BRANCH   4   5
ATOM      5  C   UNL     1     -10.636 -18.789  32.346  1.00  0.00     0.034 C 
BRANCH   5   6
ATOM      6  C   UNL     1     -12.059 -19.158  31.952  1.00  0.00    -0.077 C 
ATOM      7  C   UNL     1     -12.371 -20.595  31.613  1.00  0.00     0.039 C 
ATOM      8  C   UNL     1     -13.066 -18.259  31.869  1.00  0.00    -0.023 CG0
ATOM      9  G   UNL     1     -12.966 -16.796  32.234  1.00  0.00     0.000 G0
ENDBRANCH   5   6
ENDBRANCH   4   5
ENDBRANCH   2   4
BRANCH   1  10
ATOM     10  C   UNL     1     -11.409 -15.735  29.551  1.00  0.00     0.111 C 
BRANCH  10  11
ATOM     11  C   UNL     1     -12.882 -15.941  29.764  1.00  0.00     0.163 C 
ATOM     12  O   UNL     1     -13.626 -16.164  28.771  1.00  0.00    -0.294 OA
BRANCH  11  13
ATOM     13  C   UNL     1     -13.484 -15.866  31.121  1.00  0.00    -0.002 C 
ATOM     14  C   UNL     1     -14.485 -14.982  31.380  1.00  0.00    -0.069 C 
ATOM     15  C   UNL     1     -15.146 -14.928  32.737  1.00  0.00     0.039 C 
ATOM     16  C   UNL     1     -14.947 -13.995  30.331  1.00  0.00     0.039 C 
BRANCH  13  17
ATOM     17  C   UNL     1     -12.963 -16.790  32.216  1.00  0.00     0.066 CG0
ATOM     18  G   UNL     1     -13.078 -18.259  31.879  1.00  0.00     0.000 G0
ENDBRANCH  13  17
ENDBRANCH  11  13
ENDBRANCH  10  11
ENDBRANCH   1  10
TORSDOF 0
ENDMDL
MODEL 4
REMARK VINA RESULT:    -4.542      1.482      3.833
REMARK INTER + INTRA:          -5.440
REMARK INTER:                  -5.953
REMARK INTRA:                   0.513
REMARK UNBOUND:                 0.960
REMARK SMILES CC1=CCC(=C(C)C)C(=O)CC(C)=CCC1
REMARK SMILES IDX 12 1 14 2 13 3 15 4 16 5 2 6 1 7 3 8 11 10 9 11 10 12 5 13
REMARK SMILES IDX 6 14 7 15 8 16 4 17
REMARK H PARENT
REMARK Flexibility Score: 60.00
ROOT
ATOM      1  C   UNL     1     -12.103 -19.529  30.764  1.00  0.00    -0.070 C 
ATOM      2  C   UNL     1     -13.021 -19.687  29.783  1.00  0.00    -0.027 C 
ATOM      3  C   UNL     1     -12.470 -19.977  32.156  1.00  0.00     0.039 C 
ENDROOT
BRANCH   2   4
ATOM      4  C   UNL     1     -12.848 -19.242  28.348  1.00  0.00     0.032 C 
BRANCH   4   5
ATOM      5  C   UNL     1     -13.851 -18.141  27.972  1.00  0.00     0.034 C 
BRANCH   5   6
ATOM      6  C   UNL     1     -13.215 -16.768  27.813  1.00  0.00    -0.077 C 
ATOM      7  C   UNL     1     -12.930 -16.254  26.423  1.00  0.00     0.039 C 
ATOM      8  C   UNL     1     -12.869 -15.981  28.857  1.00  0.00    -0.023 CG0
ATOM      9  G   UNL     1     -13.137 -16.290  30.312  1.00  0.00     0.000 G0
ENDBRANCH   5   6
ENDBRANCH   4   5
ENDBRANCH   2   4
BRANCH   1  10
ATOM     10  C   UNL     1     -10.732 -18.929  30.524  1.00  0.00     0.111 C 
BRANCH  10  11
ATOM     11  C   UNL     1     -10.804 -17.430  30.443  1.00  0.00     0.163 C 
ATOM     12  O   UNL     1      -9.919 -16.802  29.802  1.00  0.00    -0.294 OA
BRANCH  11  13
ATOM     13  C   UNL     1     -11.885 -16.671  31.124  1.00  0.00    -0.002 C 
ATOM     14  C   UNL     1     -11.764 -16.331  32.436  1.00  0.00    -0.069 C 
ATOM     15  C   UNL     1     -12.827 -15.514  33.132  1.00  0.00     0.039 C 
ATOM     16  C   UNL     1     -10.580 -16.792  33.257  1.00  0.00     0.039 C 
BRANCH  13  17
ATOM     17  C   UNL     1     -13.129 -16.281  30.334  1.00  0.00     0.066 CG0
ATOM     18  G   UNL     1     -12.860 -16.003  28.873  1.00  0.00     0.000 G0
ENDBRANCH  13  17
ENDBRANCH  11  13
ENDBRANCH  10  11
ENDBRANCH   1  10
TORSDOF 0
ENDMDL
MODEL 5
REMARK VINA RESULT:    -4.537      1.713      3.121
REMARK INTER + INTRA:          -5.433
REMARK INTER:                  -6.374
REMARK INTRA:                   0.941
REMARK UNBOUND:                 0.960
REMARK SMILES CC1=CCC(=C(C)C)C(=O)CC(C)=CCC1
REMARK SMILES IDX 12 1 14 2 13 3 15 4 16 5 2 6 1 7 3 8 11 10 9 11 10 12 5 13
REMARK SMILES IDX 6 14 7 15 8 16 4 17
REMARK H PARENT
REMARK Flexibility Score: 60.00
ROOT
ATOM      1  C   UNL     1     -12.750 -16.966  31.505  1.00  0.00    -0.070 C 
ATOM      2  C   UNL     1     -13.247 -18.171  31.869  1.00  0.00    -0.027 C 
ATOM      3  C   UNL     1     -13.690 -15.788  31.493  1.00  0.00     0.039 C 
ENDROOT
BRANCH   2   4
ATOM      4  C   UNL     1     -12.467 -19.467  31.881  1.00  0.00     0.032 C 
BRANCH   4   5
ATOM      5  C   UNL     1     -11.816 -19.748  30.519  1.00  0.00     0.034 C 
BRANCH   5   6
ATOM      6  C   UNL     1     -12.805 -19.756  29.362  1.00  0.00    -0.077 C 
ATOM      7  C   UNL     1     -13.990 -20.687  29.424  1.00  0.00     0.039 C 
ATOM      8  C   UNL     1     -12.670 -18.981  28.262  1.00  0.00    -0.023 CG0
ATOM      9  G   UNL     1     -11.595 -17.942  28.049  1.00  0.00     0.000 G0
ENDBRANCH   5   6
ENDBRANCH   4   5
ENDBRANCH   2   4
BRANCH   1  10
ATOM     10  C   UNL     1     -11.301 -16.754  31.116  1.00  0.00     0.111 C 
BRANCH  10  11
ATOM     11  C   UNL     1     -11.194 -16.064  29.785  1.00  0.00     0.163 C 
ATOM     12  O   UNL     1     -10.479 -15.031  29.679  1.00  0.00    -0.294 OA
BRANCH  11  13
ATOM     13  C   UNL     1     -11.931 -16.563  28.595  1.00  0.00    -0.002 C 
ATOM     14  C   UNL     1     -12.894 -15.798  28.013  1.00  0.00    -0.069 C 
ATOM     15  C   UNL     1     -13.617 -16.265  26.771  1.00  0.00     0.039 C 
ATOM     16  C   UNL     1     -13.304 -14.471  28.610  1.00  0.00     0.039 C 
BRANCH  13  17
ATOM     17  C   UNL     1     -11.594 -17.942  28.038  1.00  0.00     0.066 CG0
ATOM     18  G   UNL     1     -12.674 -18.973  28.269  1.00  0.00     0.000 G0
ENDBRANCH  13  17
ENDBRANCH  11  13
ENDBRANCH  10  11
ENDBRANCH   1  10
TORSDOF 0
ENDMDL
MODEL 6
REMARK VINA RESULT:    -4.502      1.676      3.523
REMARK INTER + INTRA:          -5.384
REMARK INTER:                  -6.810
REMARK INTRA:                   1.426
REMARK UNBOUND:                 0.960
REMARK SMILES CC1=CCC(=C(C)C)C(=O)CC(C)=CCC1
REMARK SMILES IDX 12 1 14 2 13 3 15 4 16 5 2 6 1 7 3 8 11 10 9 11 10 12 5 13
REMARK SMILES IDX 6 14 7 15 8 16 4 17
REMARK H PARENT
REMARK Flexibility Score: 60.00
ROOT
ATOM      1  C   UNL     1     -12.910 -15.566  29.489  1.00  0.00    -0.070 C 
ATOM      2  C   UNL     1     -13.684 -15.453  30.593  1.00  0.00    -0.027 C 
ATOM      3  C   UNL     1     -13.555 -15.337  28.146  1.00  0.00     0.039 C 
ENDROOT
BRANCH   2   4
ATOM      4  C   UNL     1     -13.222 -15.707  32.011  1.00  0.00     0.032 C 
BRANCH   4   5
ATOM      5  C   UNL     1     -12.603 -17.104  32.163  1.00  0.00     0.034 C 
BRANCH   5   6
ATOM      6  C   UNL     1     -11.123 -17.077  32.517  1.00  0.00    -0.077 C 
ATOM      7  C   UNL     1     -10.645 -16.115  33.576  1.00  0.00     0.039 C 
ATOM      8  C   UNL     1     -10.199 -17.861  31.916  1.00  0.00    -0.023 CG0
ATOM      9  G   UNL     1     -10.491 -18.929  30.888  1.00  0.00     0.000 G0
ENDBRANCH   5   6
ENDBRANCH   4   5
ENDBRANCH   2   4
BRANCH   1  10
ATOM     10  C   UNL     1     -11.435 -15.907  29.547  1.00  0.00     0.111 C 
BRANCH  10  11
ATOM     11  C   UNL     1     -11.175 -17.280  28.992  1.00  0.00     0.163 C 
ATOM     12  O   UNL     1     -10.721 -17.399  27.822  1.00  0.00    -0.294 OA
BRANCH  11  13
ATOM     13  C   UNL     1     -11.463 -18.501  29.788  1.00  0.00    -0.002 C 
ATOM     14  C   UNL     1     -12.590 -19.225  29.550  1.00  0.00    -0.069 C 
ATOM     15  C   UNL     1     -12.874 -20.499  30.311  1.00  0.00     0.039 C 
ATOM     16  C   UNL     1     -13.620 -18.761  28.545  1.00  0.00     0.039 C 
BRANCH  13  17
ATOM     17  C   UNL     1     -10.480 -18.930  30.872  1.00  0.00     0.066 CG0
ATOM     18  G   UNL     1     -10.197 -17.856  31.897  1.00  0.00     0.000 G0
ENDBRANCH  13  17
ENDBRANCH  11  13
ENDBRANCH  10  11
ENDBRANCH   1  10
TORSDOF 0
ENDMDL
MODEL 7
REMARK VINA RESULT:    -4.395      2.007      3.113
REMARK INTER + INTRA:          -5.233
REMARK INTER:                  -6.153
REMARK INTRA:                   0.920
REMARK UNBOUND:                 0.960
REMARK SMILES CC1=CCC(=C(C)C)C(=O)CC(C)=CCC1
REMARK SMILES IDX 12 1 14 2 13 3 15 4 16 5 2 6 1 7 3 8 11 10 9 11 10 12 5 13
REMARK SMILES IDX 6 14 7 15 8 16 4 17
REMARK H PARENT
REMARK Flexibility Score: 60.00
ROOT
ATOM      1  C   UNL     1     -13.508 -16.454  31.447  1.00  0.00    -0.070 C 
ATOM      2  C   UNL     1     -12.659 -17.068  32.303  1.00  0.00    -0.027 C 
ATOM      3  C   UNL     1     -14.316 -15.291  31.963  1.00  0.00     0.039 C 
ENDROOT
BRANCH   2   4
ATOM      4  C   UNL     1     -11.818 -18.282  31.977  1.00  0.00     0.032 C 
BRANCH   4   5
ATOM      5  C   UNL     1     -10.349 -17.904  31.735  1.00  0.00     0.034 C 
BRANCH   5   6
ATOM      6  C   UNL     1     -10.145 -16.429  31.421  1.00  0.00    -0.077 C 
ATOM      7  C   UNL     1      -9.880 -15.473  32.558  1.00  0.00     0.039 C 
ATOM      8  C   UNL     1     -10.206 -15.918  30.171  1.00  0.00    -0.023 CG0
ATOM      9  G   UNL     1     -10.391 -16.721  28.905  1.00  0.00     0.000 G0
ENDBRANCH   5   6
ENDBRANCH   4   5
ENDBRANCH   2   4
BRANCH   1  10
ATOM     10  C   UNL     1     -13.675 -16.881  30.002  1.00  0.00     0.111 C 
BRANCH  10  11
ATOM     11  C   UNL     1     -12.887 -15.992  29.081  1.00  0.00     0.163 C 
ATOM     12  O   UNL     1     -13.192 -14.773  28.987  1.00  0.00    -0.294 OA
BRANCH  11  13
ATOM     13  C   UNL     1     -11.770 -16.527  28.260  1.00  0.00    -0.002 C 
ATOM     14  C   UNL     1     -11.969 -16.843  26.952  1.00  0.00    -0.069 C 
ATOM     15  C   UNL     1     -10.833 -17.338  26.087  1.00  0.00     0.039 C 
ATOM     16  C   UNL     1     -13.342 -16.750  26.325  1.00  0.00     0.039 C 
BRANCH  13  17
ATOM     17  C   UNL     1     -10.401 -16.716  28.904  1.00  0.00     0.066 CG0
ATOM     18  G   UNL     1     -10.208 -15.917  30.172  1.00  0.00     0.000 G0
ENDBRANCH  13  17
ENDBRANCH  11  13
ENDBRANCH  10  11
ENDBRANCH   1  10
TORSDOF 0
ENDMDL
MODEL 8
REMARK VINA RESULT:    -4.355      1.678      3.318
REMARK INTER + INTRA:          -5.176
REMARK INTER:                  -5.741
REMARK INTRA:                   0.564
REMARK UNBOUND:                 0.960
REMARK SMILES CC1=CCC(=C(C)C)C(=O)CC(C)=CCC1
REMARK SMILES IDX 12 1 14 2 13 3 15 4 16 5 2 6 1 7 3 8 11 10 9 11 10 12 5 13
REMARK SMILES IDX 6 14 7 15 8 16 4 17
REMARK H PARENT
REMARK Flexibility Score: 60.00
ROOT
ATOM      1  C   UNL     1     -12.576 -17.935  28.325  1.00  0.00    -0.070 C 
ATOM      2  C   UNL     1     -12.449 -19.172  28.860  1.00  0.00    -0.027 C 
ATOM      3  C   UNL     1     -11.644 -17.550  27.204  1.00  0.00     0.039 C 
ENDROOT
BRANCH   2   4
ATOM      4  C   UNL     1     -13.254 -19.704  30.025  1.00  0.00     0.032 C 
BRANCH   4   5
ATOM      5  C   UNL     1     -12.385 -19.882  31.279  1.00  0.00     0.034 C 
BRANCH   5   6
ATOM      6  C   UNL     1     -11.346 -18.784  31.459  1.00  0.00    -0.077 C 
ATOM      7  C   UNL     1      -9.904 -19.087  31.131  1.00  0.00     0.039 C 
ATOM      8  C   UNL     1     -11.640 -17.548  31.919  1.00  0.00    -0.023 CG0
ATOM      9  G   UNL     1     -13.028 -17.037  32.234  1.00  0.00     0.000 G0
ENDBRANCH   5   6
ENDBRANCH   4   5
ENDBRANCH   2   4
BRANCH   1  10
ATOM     10  C   UNL     1     -13.608 -16.932  28.799  1.00  0.00     0.111 C 
BRANCH  10  11
ATOM     11  C   UNL     1     -13.037 -16.025  29.852  1.00  0.00     0.163 C 
ATOM     12  O   UNL     1     -12.078 -15.261  29.558  1.00  0.00    -0.294 OA
BRANCH  11  13
ATOM     13  C   UNL     1     -13.565 -16.025  31.241  1.00  0.00    -0.002 C 
ATOM     14  C   UNL     1     -14.529 -15.138  31.609  1.00  0.00    -0.069 C 
ATOM     15  C   UNL     1     -15.117 -15.158  33.001  1.00  0.00     0.039 C 
ATOM     16  C   UNL     1     -15.019 -14.074  30.653  1.00  0.00     0.039 C 
BRANCH  13  17
ATOM     17  C   UNL     1     -13.012 -17.031  32.245  1.00  0.00     0.066 CG0
ATOM     18  G   UNL     1     -11.628 -17.533  31.905  1.00  0.00     0.000 G0
ENDBRANCH  13  17
ENDBRANCH  11  13
ENDBRANCH  10  11
ENDBRANCH   1  10
TORSDOF 0
ENDMDL
MODEL 9
REMARK VINA RESULT:    -4.216      1.838      3.362
REMARK INTER + INTRA:          -4.980
REMARK INTER:                  -7.182
REMARK INTRA:                   2.201
REMARK UNBOUND:                 0.960
REMARK SMILES CC1=CCC(=C(C)C)C(=O)CC(C)=CCC1
REMARK SMILES IDX 12 1 14 2 13 3 15 4 16 5 2 6 1 7 3 8 11 10 9 11 10 12 5 13
REMARK SMILES IDX 6 14 7 15 8 16 4 17
REMARK H PARENT
REMARK Flexibility Score: 60.00
ROOT
ATOM      1  C   UNL     1     -13.109 -16.089  32.217  1.00  0.00    -0.070 C 
ATOM      2  C   UNL     1     -11.831 -16.228  32.642  1.00  0.00    -0.027 C 
ATOM      3  C   UNL     1     -14.038 -15.229  33.037  1.00  0.00     0.039 C 
ENDROOT
BRANCH   2   4
ATOM      4  C   UNL     1     -10.783 -17.095  31.981  1.00  0.00     0.032 C 
BRANCH   4   5
ATOM      5  C   UNL     1     -10.954 -18.574  32.357  1.00  0.00     0.034 C 
BRANCH   5   6
ATOM      6  C   UNL     1     -11.682 -19.390  31.299  1.00  0.00    -0.077 C 
ATOM      7  C   UNL     1     -12.390 -20.656  31.715  1.00  0.00     0.039 C 
ATOM      8  C   UNL     1     -11.716 -19.052  29.990  1.00  0.00    -0.023 CG0
ATOM      9  G   UNL     1     -11.129 -17.793  29.395  1.00  0.00     0.000 G0
ENDBRANCH   5   6
ENDBRANCH   4   5
ENDBRANCH   2   4
BRANCH   1  10
ATOM     10  C   UNL     1     -13.638 -16.752  30.961  1.00  0.00     0.111 C 
BRANCH  10  11
ATOM     11  C   UNL     1     -13.079 -16.101  29.728  1.00  0.00     0.163 C 
ATOM     12  O   UNL     1     -13.383 -14.906  29.467  1.00  0.00    -0.294 OA
BRANCH  11  13
ATOM     13  C   UNL     1     -12.190 -16.845  28.798  1.00  0.00    -0.002 C 
ATOM     14  C   UNL     1     -12.316 -16.684  27.453  1.00  0.00    -0.069 C 
ATOM     15  C   UNL     1     -11.388 -17.390  26.492  1.00  0.00     0.039 C 
ATOM     16  C   UNL     1     -13.415 -15.825  26.867  1.00  0.00     0.039 C 
BRANCH  13  17
ATOM     17  C   UNL     1     -11.139 -17.788  29.371  1.00  0.00     0.066 CG0
ATOM     18  G   UNL     1     -11.716 -19.042  29.986  1.00  0.00     0.000 G0
ENDBRANCH  13  17
ENDBRANCH  11  13
ENDBRANCH  10  11
ENDBRANCH   1  10
TORSDOF 0
ENDMDL
