MODEL 1
REMARK VINA RESULT:    -2.622      0.000      0.000
REMARK INTER + INTRA:          -3.189
REMARK INTER:                  -3.082
REMARK INTRA:                  -0.107
REMARK UNBOUND:                -0.107
REMARK SMILES CCCCC(=O)[O-]
REMARK SMILES IDX 4 1 5 2 6 3 7 4 3 5 2 6 1 7
REMARK H PARENT
REMARK Flexibility Score: inf
ROOT
ATOM      1  C   UNL     1     -25.537   7.120 -29.481  1.00  0.00     0.053 C 
ENDROOT
BRANCH   1   2
ATOM      2  C   UNL     1     -24.775   6.278 -30.454  1.00  0.00     0.041 C 
ATOM      3  O   UNL     1     -25.388   5.553 -31.281  1.00  0.00    -0.550 OA
ATOM      4  O   UNL     1     -23.386   6.253 -30.414  1.00  0.00    -0.550 OA
ENDBRANCH   1   2
BRANCH   1   5
ATOM      5  C   UNL     1     -24.607   8.125 -28.796  1.00  0.00     0.006 C 
BRANCH   5   6
ATOM      6  C   UNL     1     -24.657   7.969 -27.272  1.00  0.00    -0.003 C 
ATOM      7  C   UNL     1     -23.861   6.751 -26.815  1.00  0.00     0.004 C 
ENDBRANCH   5   6
ENDBRANCH   1   5
TORSDOF 3
ENDMDL
MODEL 2
REMARK VINA RESULT:    -2.604     15.392     16.142
REMARK INTER + INTRA:          -3.169
REMARK INTER:                  -3.094
REMARK INTRA:                  -0.074
REMARK UNBOUND:                -0.107
REMARK SMILES CCCCC(=O)[O-]
REMARK SMILES IDX 4 1 5 2 6 3 7 4 3 5 2 6 1 7
REMARK H PARENT
REMARK Flexibility Score: inf
ROOT
ATOM      1  C   UNL     1     -33.689  -5.430 -32.150  1.00  0.00     0.053 C 
ENDROOT
BRANCH   1   2
ATOM      2  C   UNL     1     -34.244  -4.744 -33.358  1.00  0.00     0.041 C 
ATOM      3  O   UNL     1     -35.066  -5.340 -34.103  1.00  0.00    -0.550 OA
ATOM      4  O   UNL     1     -33.814  -3.466 -33.691  1.00  0.00    -0.550 OA
ENDBRANCH   1   2
BRANCH   1   5
ATOM      5  C   UNL     1     -34.561  -6.628 -31.765  1.00  0.00     0.006 C 
BRANCH   5   6
ATOM      6  C   UNL     1     -35.642  -6.221 -30.758  1.00  0.00    -0.003 C 
ATOM      7  C   UNL     1     -35.074  -5.305 -29.679  1.00  0.00     0.004 C 
ENDBRANCH   5   6
ENDBRANCH   1   5
TORSDOF 3
ENDMDL
MODEL 3
REMARK VINA RESULT:    -2.584     15.423     16.316
REMARK INTER + INTRA:          -3.145
REMARK INTER:                  -3.081
REMARK INTRA:                  -0.065
REMARK UNBOUND:                -0.107
REMARK SMILES CCCCC(=O)[O-]
REMARK SMILES IDX 4 1 5 2 6 3 7 4 3 5 2 6 1 7
REMARK H PARENT
REMARK Flexibility Score: inf
ROOT
ATOM      1  C   UNL     1     -34.341  -5.080 -31.858  1.00  0.00     0.053 C 
ENDROOT
BRANCH   1   2
ATOM      2  C   UNL     1     -34.411  -4.687 -33.299  1.00  0.00     0.041 C 
ATOM      3  O   UNL     1     -35.062  -5.390 -34.117  1.00  0.00    -0.550 OA
ATOM      4  O   UNL     1     -33.717  -3.571 -33.751  1.00  0.00    -0.550 OA
ENDBRANCH   1   2
BRANCH   1   5
ATOM      5  C   UNL     1     -35.117  -6.378 -31.617  1.00  0.00     0.006 C 
BRANCH   5   6
ATOM      6  C   UNL     1     -34.164  -7.567 -31.457  1.00  0.00    -0.003 C 
ATOM      7  C   UNL     1     -33.144  -7.312 -30.352  1.00  0.00     0.004 C 
ENDBRANCH   5   6
ENDBRANCH   1   5
TORSDOF 3
ENDMDL
MODEL 4
REMARK VINA RESULT:    -2.569     15.237     16.432
REMARK INTER + INTRA:          -3.126
REMARK INTER:                  -3.098
REMARK INTRA:                  -0.029
REMARK UNBOUND:                -0.107
REMARK SMILES CCCCC(=O)[O-]
REMARK SMILES IDX 4 1 5 2 6 3 7 4 3 5 2 6 1 7
REMARK H PARENT
REMARK Flexibility Score: inf
ROOT
ATOM      1  C   UNL     1     -34.018  -5.624 -31.942  1.00  0.00     0.053 C 
ENDROOT
BRANCH   1   2
ATOM      2  C   UNL     1     -34.745  -6.891 -31.622  1.00  0.00     0.041 C 
ATOM      3  O   UNL     1     -34.123  -7.986 -31.576  1.00  0.00    -0.550 OA
ATOM      4  O   UNL     1     -36.121  -6.874 -31.427  1.00  0.00    -0.550 OA
ENDBRANCH   1   2
BRANCH   1   5
ATOM      5  C   UNL     1     -34.567  -4.998 -33.227  1.00  0.00     0.006 C 
BRANCH   5   6
ATOM      6  C   UNL     1     -33.787  -3.733 -33.598  1.00  0.00    -0.003 C 
ATOM      7  C   UNL     1     -32.286  -3.940 -33.428  1.00  0.00     0.004 C 
ENDBRANCH   5   6
ENDBRANCH   1   5
TORSDOF 3
ENDMDL
MODEL 5
REMARK VINA RESULT:    -2.558      1.483      2.276
REMARK INTER + INTRA:          -3.114
REMARK INTER:                  -3.009
REMARK INTRA:                  -0.106
REMARK UNBOUND:                -0.107
REMARK SMILES CCCCC(=O)[O-]
REMARK SMILES IDX 4 1 5 2 6 3 7 4 3 5 2 6 1 7
REMARK H PARENT
REMARK Flexibility Score: inf
ROOT
ATOM      1  C   UNL     1     -24.076   6.795 -28.342  1.00  0.00     0.053 C 
ENDROOT
BRANCH   1   2
ATOM      2  C   UNL     1     -24.042   5.784 -29.444  1.00  0.00     0.041 C 
ATOM      3  O   UNL     1     -23.367   6.002 -30.484  1.00  0.00    -0.550 OA
ATOM      4  O   UNL     1     -24.797   4.622 -29.345  1.00  0.00    -0.550 OA
ENDBRANCH   1   2
BRANCH   1   5
ATOM      5  C   UNL     1     -24.669   8.115 -28.843  1.00  0.00     0.006 C 
BRANCH   5   6
ATOM      6  C   UNL     1     -26.123   7.931 -29.288  1.00  0.00    -0.003 C 
ATOM      7  C   UNL     1     -27.086   8.123 -28.120  1.00  0.00     0.004 C 
ENDBRANCH   5   6
ENDBRANCH   1   5
TORSDOF 3
ENDMDL
MODEL 6
REMARK VINA RESULT:    -2.525      9.143     10.335
REMARK INTER + INTRA:          -3.075
REMARK INTER:                  -2.986
REMARK INTRA:                  -0.089
REMARK UNBOUND:                -0.107
REMARK SMILES CCCCC(=O)[O-]
REMARK SMILES IDX 4 1 5 2 6 3 7 4 3 5 2 6 1 7
REMARK H PARENT
REMARK Flexibility Score: inf
ROOT
ATOM      1  C   UNL     1     -19.907  -0.664 -31.793  1.00  0.00     0.053 C 
ENDROOT
BRANCH   1   2
ATOM      2  C   UNL     1     -20.107   0.438 -32.784  1.00  0.00     0.041 C 
ATOM      3  O   UNL     1     -20.154   0.181 -34.016  1.00  0.00    -0.550 OA
ATOM      4  O   UNL     1     -20.189   1.756 -32.352  1.00  0.00    -0.550 OA
ENDBRANCH   1   2
BRANCH   1   5
ATOM      5  C   UNL     1     -20.298  -2.014 -32.403  1.00  0.00     0.006 C 
BRANCH   5   6
ATOM      6  C   UNL     1     -19.093  -2.958 -32.464  1.00  0.00    -0.003 C 
ATOM      7  C   UNL     1     -18.840  -3.438 -33.890  1.00  0.00     0.004 C 
ENDBRANCH   5   6
ENDBRANCH   1   5
TORSDOF 3
ENDMDL
MODEL 7
REMARK VINA RESULT:    -2.510     14.848     15.780
REMARK INTER + INTRA:          -3.058
REMARK INTER:                  -3.007
REMARK INTRA:                  -0.051
REMARK UNBOUND:                -0.107
REMARK SMILES CCCCC(=O)[O-]
REMARK SMILES IDX 4 1 5 2 6 3 7 4 3 5 2 6 1 7
REMARK H PARENT
REMARK Flexibility Score: inf
ROOT
ATOM      1  C   UNL     1     -34.736  -5.212 -33.366  1.00  0.00     0.053 C 
ENDROOT
BRANCH   1   2
ATOM      2  C   UNL     1     -33.652  -4.183 -33.428  1.00  0.00     0.041 C 
ATOM      3  O   UNL     1     -33.934  -2.978 -33.665  1.00  0.00    -0.550 OA
ATOM      4  O   UNL     1     -32.324  -4.562 -33.276  1.00  0.00    -0.550 OA
ENDBRANCH   1   2
BRANCH   1   5
ATOM      5  C   UNL     1     -34.457  -6.220 -32.248  1.00  0.00     0.006 C 
BRANCH   5   6
ATOM      6  C   UNL     1     -35.585  -6.218 -31.211  1.00  0.00    -0.003 C 
ATOM      7  C   UNL     1     -35.182  -5.447 -29.959  1.00  0.00     0.004 C 
ENDBRANCH   5   6
ENDBRANCH   1   5
TORSDOF 3
ENDMDL
MODEL 8
REMARK VINA RESULT:    -2.409     16.767     17.556
REMARK INTER + INTRA:          -2.939
REMARK INTER:                  -2.893
REMARK INTRA:                  -0.046
REMARK UNBOUND:                -0.107
REMARK SMILES CCCCC(=O)[O-]
REMARK SMILES IDX 4 1 5 2 6 3 7 4 3 5 2 6 1 7
REMARK H PARENT
REMARK Flexibility Score: inf
ROOT
ATOM      1  C   UNL     1     -33.239  -7.586 -30.454  1.00  0.00     0.053 C 
ENDROOT
BRANCH   1   2
ATOM      2  C   UNL     1     -32.820  -9.019 -30.550  1.00  0.00     0.041 C 
ATOM      3  O   UNL     1     -33.196  -9.725 -31.523  1.00  0.00    -0.550 OA
ATOM      4  O   UNL     1     -32.057  -9.590 -29.539  1.00  0.00    -0.550 OA
ENDBRANCH   1   2
BRANCH   1   5
ATOM      5  C   UNL     1     -34.207  -7.232 -31.586  1.00  0.00     0.006 C 
BRANCH   5   6
ATOM      6  C   UNL     1     -35.454  -6.527 -31.043  1.00  0.00    -0.003 C 
ATOM      7  C   UNL     1     -35.077  -5.399 -30.087  1.00  0.00     0.004 C 
ENDBRANCH   5   6
ENDBRANCH   1   5
TORSDOF 3
ENDMDL
MODEL 9
REMARK VINA RESULT:    -2.362     16.121     17.094
REMARK INTER + INTRA:          -2.884
REMARK INTER:                  -2.834
REMARK INTRA:                  -0.050
REMARK UNBOUND:                -0.107
REMARK SMILES CCCCC(=O)[O-]
REMARK SMILES IDX 4 1 5 2 6 3 7 4 3 5 2 6 1 7
REMARK H PARENT
REMARK Flexibility Score: inf
ROOT
ATOM      1  C   UNL     1     -33.687  -5.886 -31.500  1.00  0.00     0.053 C 
ENDROOT
BRANCH   1   2
ATOM      2  C   UNL     1     -34.975  -5.896 -32.260  1.00  0.00     0.041 C 
ATOM      3  O   UNL     1     -35.053  -5.334 -33.385  1.00  0.00    -0.550 OA
ATOM      4  O   UNL     1     -36.106  -6.482 -31.705  1.00  0.00    -0.550 OA
ENDBRANCH   1   2
BRANCH   1   5
ATOM      5  C   UNL     1     -33.662  -7.017 -30.469  1.00  0.00     0.006 C 
BRANCH   5   6
ATOM      6  C   UNL     1     -33.159  -8.322 -31.096  1.00  0.00    -0.003 C 
ATOM      7  C   UNL     1     -32.556  -9.244 -30.041  1.00  0.00     0.004 C 
ENDBRANCH   5   6
ENDBRANCH   1   5
TORSDOF 3
ENDMDL
