MODEL 1
REMARK VINA RESULT:    -6.681      0.000      0.000
REMARK INTER + INTRA:         -10.745
REMARK INTER:                  -9.220
REMARK INTRA:                  -1.525
REMARK UNBOUND:                -1.525
REMARK SMILES CC[C@@H](CC[C@H](C)[C@H]1CC[C@@H]2[C@H]3CC=C4C[C@@H](O)CC[C@@]4(C)[C@H]3CC[C@@]21C)C(C)C
REMARK SMILES IDX 5 1 4 2 3 3 2 4 1 5 28 6 29 7 30 8 6 9 7 10 8 11 9 12 26 13
REMARK SMILES IDX 10 14 11 15 25 16 27 17 12 18 24 19 23 20 13 21 21 22 14 23
REMARK SMILES IDX 15 24 20 25 22 26 16 27 19 28 17 29 18 30
REMARK H PARENT 18 31
REMARK Flexibility Score: inf
ROOT
ATOM      1  C   UNL     1      -8.875 -30.715  -6.036  1.00  0.00     0.004 C 
ENDROOT
BRANCH   1   2
ATOM      2  C   UNL     1      -9.875 -31.885  -5.968  1.00  0.00     0.004 C 
BRANCH   2   3
ATOM      3  C   UNL     1      -9.435 -33.076  -6.867  1.00  0.00    -0.009 C 
BRANCH   3   4
ATOM      4  C   UNL     1      -9.989 -33.003  -8.326  1.00  0.00     0.000 C 
ATOM      5  C   UNL     1      -8.999 -33.355  -9.446  1.00  0.00     0.004 C 
ENDBRANCH   3   4
BRANCH   3   6
ATOM      6  C   UNL     1      -9.649 -34.479  -6.200  1.00  0.00    -0.014 C 
ATOM      7  C   UNL     1     -10.204 -35.564  -7.144  1.00  0.00     0.007 C 
ATOM      8  C   UNL     1     -10.540 -34.376  -4.944  1.00  0.00     0.007 C 
ENDBRANCH   3   6
ENDBRANCH   2   3
ENDBRANCH   1   2
BRANCH   1   9
ATOM      9  C   UNL     1      -9.304 -29.502  -6.910  1.00  0.00    -0.011 C 
ATOM     10  C   UNL     1      -8.911 -28.153  -6.275  1.00  0.00     0.008 C 
BRANCH   9  11
ATOM     11  C   UNL     1     -10.791 -29.604  -7.435  1.00  0.00    -0.002 C 
ATOM     12  C   UNL     1     -11.759 -28.628  -6.736  1.00  0.00     0.005 C 
ATOM     13  C   UNL     1     -11.041 -29.365  -8.971  1.00  0.00    -0.026 C 
ATOM     14  C   UNL     1     -12.072 -27.503  -7.717  1.00  0.00     0.005 C 
ATOM     15  C   UNL     1     -11.405 -27.853  -9.056  1.00  0.00    -0.001 C 
ATOM     16  C   UNL     1     -12.245 -30.255  -9.416  1.00  0.00     0.007 C 
ATOM     17  C   UNL     1      -9.817 -29.739  -9.848  1.00  0.00     0.012 C 
ATOM     18  C   UNL     1     -12.279 -27.393 -10.268  1.00  0.00     0.000 C 
ATOM     19  C   UNL     1     -12.923 -29.802 -10.716  1.00  0.00     0.005 C 
ATOM     20  C   UNL     1     -13.452 -28.357 -10.583  1.00  0.00     0.003 C 
ATOM     21  C   UNL     1     -11.424 -27.121 -11.518  1.00  0.00     0.031 C 
ATOM     22  C   UNL     1     -14.344 -27.823 -11.786  1.00  0.00    -0.008 C 
ATOM     23  C   UNL     1     -12.247 -26.754 -12.714  1.00  0.00    -0.027 C 
ATOM     24  C   UNL     1     -13.519 -27.164 -12.899  1.00  0.00    -0.065 C 
ATOM     25  C   UNL     1     -15.193 -28.967 -12.430  1.00  0.00     0.014 C 
ATOM     26  C   UNL     1     -15.312 -26.752 -11.208  1.00  0.00     0.016 C 
ATOM     27  C   UNL     1     -14.222 -26.779 -14.191  1.00  0.00     0.063 C 
ATOM     28  C   UNL     1     -15.987 -28.527 -13.672  1.00  0.00     0.033 C 
ATOM     29  C   UNL     1     -15.062 -27.939 -14.748  1.00  0.00     0.118 C 
BRANCH  29  30
ATOM     30  O   UNL     1     -14.221 -28.949 -15.246  1.00  0.00    -0.393 OA
ATOM     31  H   UNL     1     -14.810 -29.640 -15.652  1.00  0.00     0.210 HD
ENDBRANCH  29  30
ENDBRANCH   9  11
ENDBRANCH   1   9
TORSDOF 7
ENDMDL
MODEL 2
REMARK VINA RESULT:    -4.575      2.381      3.816
REMARK INTER + INTRA:          -7.838
REMARK INTER:                  -6.196
REMARK INTRA:                  -1.643
REMARK UNBOUND:                -1.525
REMARK SMILES CC[C@@H](CC[C@H](C)[C@H]1CC[C@@H]2[C@H]3CC=C4C[C@@H](O)CC[C@@]4(C)[C@H]3CC[C@@]21C)C(C)C
REMARK SMILES IDX 5 1 4 2 3 3 2 4 1 5 28 6 29 7 30 8 6 9 7 10 8 11 9 12 26 13
REMARK SMILES IDX 10 14 11 15 25 16 27 17 12 18 24 19 23 20 13 21 21 22 14 23
REMARK SMILES IDX 15 24 20 25 22 26 16 27 19 28 17 29 18 30
REMARK H PARENT 18 31
REMARK Flexibility Score: inf
ROOT
ATOM      1  C   UNL     1     -10.204 -27.217  -7.226  1.00  0.00     0.004 C 
ENDROOT
BRANCH   1   2
ATOM      2  C   UNL     1      -9.190 -28.143  -7.922  1.00  0.00     0.004 C 
BRANCH   2   3
ATOM      3  C   UNL     1      -8.875 -29.405  -7.068  1.00  0.00    -0.009 C 
BRANCH   3   4
ATOM      4  C   UNL     1      -8.875 -30.736  -7.886  1.00  0.00     0.000 C 
ATOM      5  C   UNL     1      -8.898 -30.593  -9.416  1.00  0.00     0.004 C 
ENDBRANCH   3   4
BRANCH   3   6
ATOM      6  C   UNL     1      -9.716 -29.497  -5.749  1.00  0.00    -0.014 C 
ATOM      7  C   UNL     1      -8.889 -29.754  -4.473  1.00  0.00     0.007 C 
ATOM      8  C   UNL     1     -10.835 -30.554  -5.866  1.00  0.00     0.007 C 
ENDBRANCH   3   6
ENDBRANCH   2   3
ENDBRANCH   1   2
BRANCH   1   9
ATOM      9  C   UNL     1     -11.548 -26.992  -7.976  1.00  0.00    -0.011 C 
ATOM     10  C   UNL     1     -12.307 -25.752  -7.461  1.00  0.00     0.008 C 
BRANCH   9  11
ATOM     11  C   UNL     1     -12.410 -28.309  -8.126  1.00  0.00    -0.002 C 
ATOM     12  C   UNL     1     -13.888 -28.125  -7.730  1.00  0.00     0.005 C 
ATOM     13  C   UNL     1     -12.468 -28.986  -9.546  1.00  0.00    -0.026 C 
ATOM     14  C   UNL     1     -14.712 -28.098  -9.014  1.00  0.00     0.005 C 
ATOM     15  C   UNL     1     -13.761 -28.396 -10.184  1.00  0.00    -0.001 C 
ATOM     16  C   UNL     1     -12.598 -30.530  -9.347  1.00  0.00     0.007 C 
ATOM     17  C   UNL     1     -11.200 -28.715 -10.397  1.00  0.00     0.012 C 
ATOM     18  C   UNL     1     -14.465 -29.245 -11.291  1.00  0.00     0.000 C 
ATOM     19  C   UNL     1     -13.145 -31.282 -10.568  1.00  0.00     0.005 C 
ATOM     20  C   UNL     1     -14.545 -30.756 -10.953  1.00  0.00     0.003 C 
ATOM     21  C   UNL     1     -13.836 -29.012 -12.676  1.00  0.00     0.031 C 
ATOM     22  C   UNL     1     -15.315 -31.570 -12.080  1.00  0.00    -0.008 C 
ATOM     23  C   UNL     1     -14.442 -29.872 -13.740  1.00  0.00    -0.027 C 
ATOM     24  C   UNL     1     -15.001 -31.075 -13.499  1.00  0.00    -0.065 C 
ATOM     25  C   UNL     1     -14.985 -33.097 -12.020  1.00  0.00     0.014 C 
ATOM     26  C   UNL     1     -16.839 -31.381 -11.832  1.00  0.00     0.016 C 
ATOM     27  C   UNL     1     -15.521 -31.882 -14.678  1.00  0.00     0.063 C 
ATOM     28  C   UNL     1     -15.615 -33.914 -13.161  1.00  0.00     0.033 C 
ATOM     29  C   UNL     1     -15.189 -33.376 -14.535  1.00  0.00     0.118 C 
BRANCH  29  30
ATOM     30  O   UNL     1     -13.811 -33.584 -14.713  1.00  0.00    -0.393 OA
ATOM     31  H   UNL     1     -13.714 -34.296 -15.400  1.00  0.00     0.210 HD
ENDBRANCH  29  30
ENDBRANCH   9  11
ENDBRANCH   1   9
TORSDOF 7
ENDMDL
MODEL 3
REMARK VINA RESULT:    -4.377      4.624      7.680
REMARK INTER + INTRA:          -7.564
REMARK INTER:                  -7.219
REMARK INTRA:                  -0.346
REMARK UNBOUND:                -1.525
REMARK SMILES CC[C@@H](CC[C@H](C)[C@H]1CC[C@@H]2[C@H]3CC=C4C[C@@H](O)CC[C@@]4(C)[C@H]3CC[C@@]21C)C(C)C
REMARK SMILES IDX 5 1 4 2 3 3 2 4 1 5 28 6 29 7 30 8 6 9 7 10 8 11 9 12 26 13
REMARK SMILES IDX 10 14 11 15 25 16 27 17 12 18 24 19 23 20 13 21 21 22 14 23
REMARK SMILES IDX 15 24 20 25 22 26 16 27 19 28 17 29 18 30
REMARK H PARENT 18 31
REMARK Flexibility Score: inf
ROOT
ATOM      1  C   UNL     1     -15.603 -33.955 -13.210  1.00  0.00     0.004 C 
ENDROOT
BRANCH   1   2
ATOM      2  C   UNL     1     -14.716 -35.052 -13.828  1.00  0.00     0.004 C 
BRANCH   2   3
ATOM      3  C   UNL     1     -15.549 -36.080 -14.646  1.00  0.00    -0.009 C 
BRANCH   3   4
ATOM      4  C   UNL     1     -16.303 -37.125 -13.762  1.00  0.00     0.000 C 
ATOM      5  C   UNL     1     -17.836 -37.116 -13.859  1.00  0.00     0.004 C 
ENDBRANCH   3   4
BRANCH   3   6
ATOM      6  C   UNL     1     -14.755 -36.735 -15.828  1.00  0.00    -0.014 C 
ATOM      7  C   UNL     1     -13.241 -36.884 -15.583  1.00  0.00     0.007 C 
ATOM      8  C   UNL     1     -14.997 -35.983 -17.154  1.00  0.00     0.007 C 
ENDBRANCH   3   6
ENDBRANCH   2   3
ENDBRANCH   1   2
BRANCH   1   9
ATOM      9  C   UNL     1     -15.792 -32.670 -14.065  1.00  0.00    -0.011 C 
ATOM     10  C   UNL     1     -14.847 -32.631 -15.283  1.00  0.00     0.008 C 
BRANCH   9  11
ATOM     11  C   UNL     1     -15.851 -31.347 -13.202  1.00  0.00    -0.002 C 
ATOM     12  C   UNL     1     -16.867 -31.412 -12.044  1.00  0.00     0.005 C 
ATOM     13  C   UNL     1     -14.518 -30.857 -12.524  1.00  0.00    -0.026 C 
ATOM     14  C   UNL     1     -16.081 -31.567 -10.746  1.00  0.00     0.005 C 
ATOM     15  C   UNL     1     -14.587 -31.466 -11.091  1.00  0.00    -0.001 C 
ATOM     16  C   UNL     1     -14.541 -29.296 -12.468  1.00  0.00     0.007 C 
ATOM     17  C   UNL     1     -13.249 -31.292 -13.302  1.00  0.00     0.012 C 
ATOM     18  C   UNL     1     -13.787 -30.737  -9.963  1.00  0.00     0.000 C 
ATOM     19  C   UNL     1     -13.587 -28.684 -11.434  1.00  0.00     0.005 C 
ATOM     20  C   UNL     1     -13.918 -29.193 -10.014  1.00  0.00     0.003 C 
ATOM     21  C   UNL     1     -12.312 -31.175  -9.934  1.00  0.00     0.031 C 
ATOM     22  C   UNL     1     -13.134 -28.498  -8.819  1.00  0.00    -0.008 C 
ATOM     23  C   UNL     1     -11.508 -30.433  -8.913  1.00  0.00    -0.027 C 
ATOM     24  C   UNL     1     -11.801 -29.185  -8.495  1.00  0.00    -0.065 C 
ATOM     25  C   UNL     1     -12.839 -26.992  -9.118  1.00  0.00     0.014 C 
ATOM     26  C   UNL     1     -14.038 -28.585  -7.556  1.00  0.00     0.016 C 
ATOM     27  C   UNL     1     -10.863 -28.515  -7.503  1.00  0.00     0.063 C 
ATOM     28  C   UNL     1     -11.981 -26.302  -8.043  1.00  0.00     0.033 C 
ATOM     29  C   UNL     1     -10.645 -27.031  -7.840  1.00  0.00     0.118 C 
BRANCH  29  30
ATOM     30  O   UNL     1      -9.863 -26.911  -9.001  1.00  0.00    -0.393 OA
ATOM     31  H   UNL     1     -10.428 -27.217  -9.760  1.00  0.00     0.210 HD
ENDBRANCH  29  30
ENDBRANCH   9  11
ENDBRANCH   1   9
TORSDOF 7
ENDMDL
MODEL 4
REMARK VINA RESULT:    -4.245      4.362      7.526
REMARK INTER + INTRA:          -7.383
REMARK INTER:                  -6.189
REMARK INTRA:                  -1.194
REMARK UNBOUND:                -1.525
REMARK SMILES CC[C@@H](CC[C@H](C)[C@H]1CC[C@@H]2[C@H]3CC=C4C[C@@H](O)CC[C@@]4(C)[C@H]3CC[C@@]21C)C(C)C
REMARK SMILES IDX 5 1 4 2 3 3 2 4 1 5 28 6 29 7 30 8 6 9 7 10 8 11 9 12 26 13
REMARK SMILES IDX 10 14 11 15 25 16 27 17 12 18 24 19 23 20 13 21 21 22 14 23
REMARK SMILES IDX 15 24 20 25 22 26 16 27 19 28 17 29 18 30
REMARK H PARENT 18 31
REMARK Flexibility Score: inf
ROOT
ATOM      1  C   UNL     1     -16.373 -33.183 -13.754  1.00  0.00     0.004 C 
ENDROOT
BRANCH   1   2
ATOM      2  C   UNL     1     -15.085 -33.776 -14.356  1.00  0.00     0.004 C 
BRANCH   2   3
ATOM      3  C   UNL     1     -15.082 -35.330 -14.302  1.00  0.00    -0.009 C 
BRANCH   3   4
ATOM      4  C   UNL     1     -15.053 -36.010 -15.708  1.00  0.00     0.000 C 
ATOM      5  C   UNL     1     -13.864 -36.942 -15.988  1.00  0.00     0.004 C 
ENDBRANCH   3   4
BRANCH   3   6
ATOM      6  C   UNL     1     -16.178 -35.929 -13.354  1.00  0.00    -0.014 C 
ATOM      7  C   UNL     1     -15.630 -36.629 -12.095  1.00  0.00     0.007 C 
ATOM      8  C   UNL     1     -17.119 -36.888 -14.116  1.00  0.00     0.007 C 
ENDBRANCH   3   6
ENDBRANCH   2   3
ENDBRANCH   1   2
BRANCH   1   9
ATOM      9  C   UNL     1     -16.203 -31.868 -12.943  1.00  0.00    -0.011 C 
ATOM     10  C   UNL     1     -17.184 -30.767 -13.396  1.00  0.00     0.008 C 
BRANCH   9  11
ATOM     11  C   UNL     1     -14.695 -31.419 -12.786  1.00  0.00    -0.002 C 
ATOM     12  C   UNL     1     -14.329 -30.186 -13.636  1.00  0.00     0.005 C 
ATOM     13  C   UNL     1     -14.187 -31.060 -11.340  1.00  0.00    -0.026 C 
ATOM     14  C   UNL     1     -14.207 -28.992 -12.694  1.00  0.00     0.005 C 
ATOM     15  C   UNL     1     -14.368 -29.515 -11.258  1.00  0.00    -0.001 C 
ATOM     16  C   UNL     1     -12.678 -31.450 -11.241  1.00  0.00     0.007 C 
ATOM     17  C   UNL     1     -14.955 -31.815 -10.225  1.00  0.00     0.012 C 
ATOM     18  C   UNL     1     -13.450 -28.737 -10.260  1.00  0.00     0.000 C 
ATOM     19  C   UNL     1     -11.913 -30.746 -10.111  1.00  0.00     0.005 C 
ATOM     20  C   UNL     1     -11.973 -29.212 -10.283  1.00  0.00     0.003 C 
ATOM     21  C   UNL     1     -14.021 -28.747  -8.832  1.00  0.00     0.031 C 
ATOM     22  C   UNL     1     -11.067 -28.360  -9.294  1.00  0.00    -0.008 C 
ATOM     23  C   UNL     1     -13.120 -28.075  -7.843  1.00  0.00    -0.027 C 
ATOM     24  C   UNL     1     -11.781 -28.001  -7.983  1.00  0.00    -0.065 C 
ATOM     25  C   UNL     1      -9.743 -29.107  -8.932  1.00  0.00     0.014 C 
ATOM     26  C   UNL     1     -10.705 -27.033 -10.021  1.00  0.00     0.016 C 
ATOM     27  C   UNL     1     -10.971 -27.352  -6.873  1.00  0.00     0.063 C 
ATOM     28  C   UNL     1      -8.883 -28.376  -7.887  1.00  0.00     0.033 C 
ATOM     29  C   UNL     1      -9.669 -28.121  -6.593  1.00  0.00     0.118 C 
BRANCH  29  30
ATOM     30  O   UNL     1      -9.958 -29.347  -5.971  1.00  0.00    -0.393 OA
ATOM     31  H   UNL     1      -9.140 -29.907  -6.046  1.00  0.00     0.210 HD
ENDBRANCH  29  30
ENDBRANCH   9  11
ENDBRANCH   1   9
TORSDOF 7
ENDMDL
