MODEL 1
REMARK VINA RESULT:    -6.233      0.000      0.000
REMARK INTER + INTRA:          -6.632
REMARK INTER:                  -6.598
REMARK INTRA:                  -0.035
REMARK UNBOUND:                -0.035
REMARK SMILES COc1ccc2ccc(=O)oc2c1
REMARK SMILES IDX 3 1 13 2 12 3 6 4 5 5 4 6 7 7 8 8 9 9 10 10 11 11 2 12 1 13
REMARK H PARENT
REMARK Flexibility Score: inf
ROOT
ATOM      1  C   UNL     1      73.442  41.173  -5.021  1.00  0.00     0.122 A 
ATOM      2  C   UNL     1      72.873  41.623  -3.812  1.00  0.00     0.094 A 
ATOM      3  C   UNL     1      73.187  42.892  -3.315  1.00  0.00     0.142 A 
ATOM      4  C   UNL     1      74.075  43.726  -4.027  1.00  0.00     0.018 A 
ATOM      5  C   UNL     1      74.640  43.280  -5.228  1.00  0.00     0.016 A 
ATOM      6  C   UNL     1      74.323  42.010  -5.719  1.00  0.00     0.047 A 
ATOM      7  C   UNL     1      74.369  44.989  -3.504  1.00  0.00     0.019 A 
ATOM      8  C   UNL     1      73.780  45.387  -2.303  1.00  0.00     0.094 A 
ATOM      9  C   UNL     1      72.908  44.508  -1.653  1.00  0.00     0.336 A 
ATOM     10  O   UNL     1      72.367  44.848  -0.568  1.00  0.00    -0.246 OA
ATOM     11  O   UNL     1      72.646  43.311  -2.172  1.00  0.00    -0.423 OA
ENDROOT
BRANCH   1  12
ATOM     12  O   UNL     1      73.158  39.909  -5.560  1.00  0.00    -0.497 OA
ATOM     13  C   UNL     1      71.851  39.445  -5.880  1.00  0.00     0.278 C 
ENDBRANCH   1  12
TORSDOF 1
ENDMDL
MODEL 2
REMARK VINA RESULT:    -6.217      1.041      4.652
REMARK INTER + INTRA:          -6.615
REMARK INTER:                  -6.581
REMARK INTRA:                  -0.033
REMARK UNBOUND:                -0.035
REMARK SMILES COc1ccc2ccc(=O)oc2c1
REMARK SMILES IDX 3 1 13 2 12 3 6 4 5 5 4 6 7 7 8 8 9 9 10 10 11 11 2 12 1 13
REMARK H PARENT
REMARK Flexibility Score: inf
ROOT
ATOM      1  C   UNL     1      72.935  44.420  -1.614  1.00  0.00     0.122 A 
ATOM      2  C   UNL     1      72.708  43.141  -2.161  1.00  0.00     0.094 A 
ATOM      3  C   UNL     1      73.278  42.789  -3.389  1.00  0.00     0.142 A 
ATOM      4  C   UNL     1      74.084  43.716  -4.082  1.00  0.00     0.018 A 
ATOM      5  C   UNL     1      74.311  44.988  -3.538  1.00  0.00     0.016 A 
ATOM      6  C   UNL     1      73.737  45.333  -2.311  1.00  0.00     0.047 A 
ATOM      7  C   UNL     1      74.640  43.335  -5.307  1.00  0.00     0.019 A 
ATOM      8  C   UNL     1      74.384  42.057  -5.806  1.00  0.00     0.094 A 
ATOM      9  C   UNL     1      73.576  41.189  -5.063  1.00  0.00     0.336 A 
ATOM     10  O   UNL     1      73.333  40.033  -5.496  1.00  0.00    -0.246 OA
ATOM     11  O   UNL     1      73.059  41.579  -3.900  1.00  0.00    -0.423 OA
ENDROOT
BRANCH   1  12
ATOM     12  O   UNL     1      72.386  44.820  -0.386  1.00  0.00    -0.497 OA
ATOM     13  C   UNL     1      71.027  45.202  -0.199  1.00  0.00     0.278 C 
ENDBRANCH   1  12
TORSDOF 1
ENDMDL
MODEL 3
REMARK VINA RESULT:    -6.031      1.633      2.268
REMARK INTER + INTRA:          -6.418
REMARK INTER:                  -6.382
REMARK INTRA:                  -0.036
REMARK UNBOUND:                -0.035
REMARK SMILES COc1ccc2ccc(=O)oc2c1
REMARK SMILES IDX 3 1 13 2 12 3 6 4 5 5 4 6 7 7 8 8 9 9 10 10 11 11 2 12 1 13
REMARK H PARENT
REMARK Flexibility Score: inf
ROOT
ATOM      1  C   UNL     1      74.072  41.314  -5.657  1.00  0.00     0.122 A 
ATOM      2  C   UNL     1      74.532  42.619  -5.390  1.00  0.00     0.094 A 
ATOM      3  C   UNL     1      74.074  43.311  -4.265  1.00  0.00     0.142 A 
ATOM      4  C   UNL     1      73.149  42.701  -3.392  1.00  0.00     0.018 A 
ATOM      5  C   UNL     1      72.691  41.403  -3.656  1.00  0.00     0.016 A 
ATOM      6  C   UNL     1      73.153  40.717  -4.783  1.00  0.00     0.047 A 
ATOM      7  C   UNL     1      72.710  43.419  -2.275  1.00  0.00     0.019 A 
ATOM      8  C   UNL     1      73.196  44.708  -2.056  1.00  0.00     0.094 A 
ATOM      9  C   UNL     1      74.113  45.250  -2.963  1.00  0.00     0.336 A 
ATOM     10  O   UNL     1      74.562  46.412  -2.783  1.00  0.00    -0.246 OA
ATOM     11  O   UNL     1      74.513  44.545  -4.018  1.00  0.00    -0.423 OA
ENDROOT
BRANCH   1  12
ATOM     12  O   UNL     1      74.501  40.579  -6.772  1.00  0.00    -0.497 OA
ATOM     13  C   UNL     1      73.645  39.801  -7.602  1.00  0.00     0.278 C 
ENDBRANCH   1  12
TORSDOF 1
ENDMDL
MODEL 4
REMARK VINA RESULT:    -5.932      1.884      5.879
REMARK INTER + INTRA:          -6.313
REMARK INTER:                  -6.279
REMARK INTRA:                  -0.034
REMARK UNBOUND:                -0.035
REMARK SMILES COc1ccc2ccc(=O)oc2c1
REMARK SMILES IDX 3 1 13 2 12 3 6 4 5 5 4 6 7 7 8 8 9 9 10 10 11 11 2 12 1 13
REMARK H PARENT
REMARK Flexibility Score: inf
ROOT
ATOM      1  C   UNL     1      72.857  41.506  -3.830  1.00  0.00     0.122 A 
ATOM      2  C   UNL     1      73.719  41.485  -4.945  1.00  0.00     0.094 A 
ATOM      3  C   UNL     1      73.439  40.657  -6.036  1.00  0.00     0.142 A 
ATOM      4  C   UNL     1      72.289  39.839  -6.023  1.00  0.00     0.018 A 
ATOM      5  C   UNL     1      71.432  39.860  -4.914  1.00  0.00     0.016 A 
ATOM      6  C   UNL     1      71.718  40.689  -3.826  1.00  0.00     0.047 A 
ATOM      7  C   UNL     1      72.036  39.022  -7.129  1.00  0.00     0.019 A 
ATOM      8  C   UNL     1      72.921  39.039  -8.208  1.00  0.00     0.094 A 
ATOM      9  C   UNL     1      74.041  39.876  -8.153  1.00  0.00     0.336 A 
ATOM     10  O   UNL     1      74.851  39.904  -9.116  1.00  0.00    -0.246 OA
ATOM     11  O   UNL     1      74.258  40.642  -7.087  1.00  0.00    -0.423 OA
ENDROOT
BRANCH   1  12
ATOM     12  O   UNL     1      73.095  42.318  -2.711  1.00  0.00    -0.497 OA
ATOM     13  C   UNL     1      73.108  43.742  -2.739  1.00  0.00     0.278 C 
ENDBRANCH   1  12
TORSDOF 1
ENDMDL
MODEL 5
REMARK VINA RESULT:    -5.791      1.366      5.187
REMARK INTER + INTRA:          -6.164
REMARK INTER:                  -6.128
REMARK INTRA:                  -0.036
REMARK UNBOUND:                -0.035
REMARK SMILES COc1ccc2ccc(=O)oc2c1
REMARK SMILES IDX 3 1 13 2 12 3 6 4 5 5 4 6 7 7 8 8 9 9 10 10 11 11 2 12 1 13
REMARK H PARENT
REMARK Flexibility Score: inf
ROOT
ATOM      1  C   UNL     1      73.307  42.383  -3.447  1.00  0.00     0.122 A 
ATOM      2  C   UNL     1      72.656  41.288  -4.049  1.00  0.00     0.094 A 
ATOM      3  C   UNL     1      73.069  40.826  -5.303  1.00  0.00     0.142 A 
ATOM      4  C   UNL     1      74.141  41.459  -5.968  1.00  0.00     0.018 A 
ATOM      5  C   UNL     1      74.788  42.548  -5.369  1.00  0.00     0.016 A 
ATOM      6  C   UNL     1      74.370  43.004  -4.116  1.00  0.00     0.047 A 
ATOM      7  C   UNL     1      74.530  40.974  -7.221  1.00  0.00     0.019 A 
ATOM      8  C   UNL     1      73.853  39.887  -7.774  1.00  0.00     0.094 A 
ATOM      9  C   UNL     1      72.800  39.308  -7.057  1.00  0.00     0.336 A 
ATOM     10  O   UNL     1      72.176  38.327  -7.540  1.00  0.00    -0.246 OA
ATOM     11  O   UNL     1      72.450  39.790  -5.867  1.00  0.00    -0.423 OA
ENDROOT
BRANCH   1  12
ATOM     12  O   UNL     1      72.930  42.883  -2.191  1.00  0.00    -0.497 OA
ATOM     13  C   UNL     1      72.854  44.267  -1.866  1.00  0.00     0.278 C 
ENDBRANCH   1  12
TORSDOF 1
ENDMDL
MODEL 6
REMARK VINA RESULT:    -5.189      1.071      1.253
REMARK INTER + INTRA:          -5.527
REMARK INTER:                  -5.490
REMARK INTRA:                  -0.037
REMARK UNBOUND:                -0.035
REMARK SMILES COc1ccc2ccc(=O)oc2c1
REMARK SMILES IDX 3 1 13 2 12 3 6 4 5 5 4 6 7 7 8 8 9 9 10 10 11 11 2 12 1 13
REMARK H PARENT
REMARK Flexibility Score: inf
ROOT
ATOM      1  C   UNL     1      72.790  40.248  -5.575  1.00  0.00     0.122 A 
ATOM      2  C   UNL     1      72.327  40.833  -4.379  1.00  0.00     0.094 A 
ATOM      3  C   UNL     1      72.890  42.026  -3.915  1.00  0.00     0.142 A 
ATOM      4  C   UNL     1      73.924  42.648  -4.646  1.00  0.00     0.018 A 
ATOM      5  C   UNL     1      74.384  42.067  -5.835  1.00  0.00     0.016 A 
ATOM      6  C   UNL     1      73.818  40.874  -6.293  1.00  0.00     0.047 A 
ATOM      7  C   UNL     1      74.467  43.839  -4.155  1.00  0.00     0.019 A 
ATOM      8  C   UNL     1      73.973  44.377  -2.966  1.00  0.00     0.094 A 
ATOM      9  C   UNL     1      72.945  43.707  -2.294  1.00  0.00     0.336 A 
ATOM     10  O   UNL     1      72.487  44.176  -1.220  1.00  0.00    -0.246 OA
ATOM     11  O   UNL     1      72.448  42.574  -2.783  1.00  0.00    -0.423 OA
ENDROOT
BRANCH   1  12
ATOM     12  O   UNL     1      72.258  39.053  -6.082  1.00  0.00    -0.497 OA
ATOM     13  C   UNL     1      72.123  38.756  -7.468  1.00  0.00     0.278 C 
ENDBRANCH   1  12
TORSDOF 1
ENDMDL
MODEL 7
REMARK VINA RESULT:    -4.927     10.096     13.280
REMARK INTER + INTRA:          -5.250
REMARK INTER:                  -5.217
REMARK INTRA:                  -0.033
REMARK UNBOUND:                -0.035
REMARK SMILES COc1ccc2ccc(=O)oc2c1
REMARK SMILES IDX 3 1 13 2 12 3 6 4 5 5 4 6 7 7 8 8 9 9 10 10 11 11 2 12 1 13
REMARK H PARENT
REMARK Flexibility Score: inf
ROOT
ATOM      1  C   UNL     1      69.842  49.275   8.520  1.00  0.00     0.122 A 
ATOM      2  C   UNL     1      70.003  48.847   7.187  1.00  0.00     0.094 A 
ATOM      3  C   UNL     1      71.268  48.490   6.710  1.00  0.00     0.142 A 
ATOM      4  C   UNL     1      72.388  48.557   7.567  1.00  0.00     0.018 A 
ATOM      5  C   UNL     1      72.228  48.982   8.892  1.00  0.00     0.016 A 
ATOM      6  C   UNL     1      70.960  49.338   9.362  1.00  0.00     0.047 A 
ATOM      7  C   UNL     1      73.640  48.193   7.061  1.00  0.00     0.019 A 
ATOM      8  C   UNL     1      73.746  47.777   5.733  1.00  0.00     0.094 A 
ATOM      9  C   UNL     1      72.593  47.734   4.942  1.00  0.00     0.336 A 
ATOM     10  O   UNL     1      72.669  47.362   3.742  1.00  0.00    -0.246 OA
ATOM     11  O   UNL     1      71.414  48.086   5.449  1.00  0.00    -0.423 OA
ENDROOT
BRANCH   1  12
ATOM     12  O   UNL     1      68.594  49.644   9.045  1.00  0.00    -0.497 OA
ATOM     13  C   UNL     1      67.601  48.723   9.482  1.00  0.00     0.278 C 
ENDBRANCH   1  12
TORSDOF 1
ENDMDL
MODEL 8
REMARK VINA RESULT:    -4.853      9.536     12.242
REMARK INTER + INTRA:          -5.172
REMARK INTER:                  -5.138
REMARK INTRA:                  -0.034
REMARK UNBOUND:                -0.035
REMARK SMILES COc1ccc2ccc(=O)oc2c1
REMARK SMILES IDX 3 1 13 2 12 3 6 4 5 5 4 6 7 7 8 8 9 9 10 10 11 11 2 12 1 13
REMARK H PARENT
REMARK Flexibility Score: inf
ROOT
ATOM      1  C   UNL     1      72.587  47.672   5.113  1.00  0.00     0.122 A 
ATOM      2  C   UNL     1      71.345  48.064   5.653  1.00  0.00     0.094 A 
ATOM      3  C   UNL     1      71.260  48.502   6.978  1.00  0.00     0.142 A 
ATOM      4  C   UNL     1      72.420  48.551   7.779  1.00  0.00     0.018 A 
ATOM      5  C   UNL     1      73.655  48.161   7.244  1.00  0.00     0.016 A 
ATOM      6  C   UNL     1      73.733  47.725   5.918  1.00  0.00     0.047 A 
ATOM      7  C   UNL     1      72.302  48.992   9.101  1.00  0.00     0.019 A 
ATOM      8  C   UNL     1      71.049  49.369   9.587  1.00  0.00     0.094 A 
ATOM      9  C   UNL     1      69.942  49.296   8.735  1.00  0.00     0.336 A 
ATOM     10  O   UNL     1      68.804  49.631   9.155  1.00  0.00    -0.246 OA
ATOM     11  O   UNL     1      70.083  48.871   7.482  1.00  0.00    -0.423 OA
ENDROOT
BRANCH   1  12
ATOM     12  O   UNL     1      72.725  47.226   3.790  1.00  0.00    -0.497 OA
ATOM     13  C   UNL     1      72.894  45.863   3.414  1.00  0.00     0.278 C 
ENDBRANCH   1  12
TORSDOF 1
ENDMDL
MODEL 9
REMARK VINA RESULT:    -4.790     10.365     13.171
REMARK INTER + INTRA:          -5.105
REMARK INTER:                  -5.068
REMARK INTRA:                  -0.037
REMARK UNBOUND:                -0.035
REMARK SMILES COc1ccc2ccc(=O)oc2c1
REMARK SMILES IDX 3 1 13 2 12 3 6 4 5 5 4 6 7 7 8 8 9 9 10 10 11 11 2 12 1 13
REMARK H PARENT
REMARK Flexibility Score: inf
ROOT
ATOM      1  C   UNL     1      72.676  48.190   9.127  1.00  0.00     0.122 A 
ATOM      2  C   UNL     1      72.849  47.875   7.764  1.00  0.00     0.094 A 
ATOM      3  C   UNL     1      71.956  48.369   6.808  1.00  0.00     0.142 A 
ATOM      4  C   UNL     1      70.878  49.186   7.208  1.00  0.00     0.018 A 
ATOM      5  C   UNL     1      70.705  49.500   8.562  1.00  0.00     0.016 A 
ATOM      6  C   UNL     1      71.601  49.003   9.513  1.00  0.00     0.047 A 
ATOM      7  C   UNL     1      70.002  49.664   6.228  1.00  0.00     0.019 A 
ATOM      8  C   UNL     1      70.218  49.323   4.892  1.00  0.00     0.094 A 
ATOM      9  C   UNL     1      71.309  48.509   4.568  1.00  0.00     0.336 A 
ATOM     10  O   UNL     1      71.519  48.190   3.370  1.00  0.00    -0.246 OA
ATOM     11  O   UNL     1      72.126  48.067   5.521  1.00  0.00    -0.423 OA
ENDROOT
BRANCH   1  12
ATOM     12  O   UNL     1      73.544  47.719  10.123  1.00  0.00    -0.497 OA
ATOM     13  C   UNL     1      74.183  46.447  10.098  1.00  0.00     0.278 C 
ENDBRANCH   1  12
TORSDOF 1
ENDMDL
