MODEL 1
REMARK VINA RESULT:    -6.505      0.000      0.000
REMARK INTER + INTRA:          -8.045
REMARK INTER:                  -7.456
REMARK INTRA:                  -0.590
REMARK UNBOUND:                -0.590
REMARK SMILES C=C(C)[C@@H]1CC[C@@]2(C(=O)[O-])CC[C@@]3(C)[C@H](CC[C@H]4[C@@]5(C)CC[C@H](O)C(C)(C)[C@H]5CC[C@@]43C)[C@@H]12
REMARK SMILES IDX 7 1 6 2 33 3 11 4 5 5 15 6 4 7 12 8 16 9 13 10 17 11 31 12
REMARK SMILES IDX 14 13 18 14 30 15 32 16 19 17 29 18 21 19 20 20 28 21 22 22
REMARK SMILES IDX 25 23 23 24 26 25 27 26 8 27 9 28 10 29 2 30 3 31 1 32 24 33
REMARK H PARENT 24 34
REMARK Flexibility Score: inf
ROOT
ATOM      1  C   UNL     1     -26.061  34.406  21.095  1.00  0.00     0.014 C 
ATOM      2  C   UNL     1     -24.993  35.106  20.211  1.00  0.00     0.014 C 
ATOM      3  C   UNL     1     -25.435  33.018  21.458  1.00  0.00     0.012 C 
ATOM      4  C   UNL     1     -27.401  34.259  20.318  1.00  0.00     0.014 C 
ATOM      5  C   UNL     1     -23.717  34.296  20.361  1.00  0.00     0.009 C 
ATOM      6  C   UNL     1     -26.433  31.797  21.475  1.00  0.00     0.000 C 
ATOM      7  C   UNL     1     -24.205  32.868  20.534  1.00  0.00     0.018 C 
ATOM      8  C   UNL     1     -27.449  33.014  19.418  1.00  0.00     0.008 C 
ATOM      9  C   UNL     1     -27.188  31.820  22.823  1.00  0.00     0.005 C 
ATOM     10  C   UNL     1     -27.381  31.650  20.197  1.00  0.00    -0.024 C 
ATOM     11  C   UNL     1     -28.205  30.681  23.029  1.00  0.00     0.005 C 
ATOM     12  C   UNL     1     -28.865  31.060  20.576  1.00  0.00    -0.024 C 
ATOM     13  C   UNL     1     -26.655  30.650  19.222  1.00  0.00     0.012 C 
ATOM     14  C   UNL     1     -28.686  29.985  21.719  1.00  0.00     0.002 C 
ATOM     15  C   UNL     1     -29.530  30.381  19.341  1.00  0.00     0.008 C 
ATOM     16  C   UNL     1     -29.852  32.196  21.022  1.00  0.00     0.012 C 
ATOM     17  C   UNL     1     -29.823  28.865  21.959  1.00  0.00    -0.026 C 
ATOM     18  C   UNL     1     -30.800  29.606  19.670  1.00  0.00     0.005 C 
ATOM     19  C   UNL     1     -30.916  29.362  22.964  1.00  0.00     0.010 C 
ATOM     20  C   UNL     1     -29.090  27.635  22.607  1.00  0.00     0.012 C 
ATOM     21  C   UNL     1     -30.509  28.398  20.597  1.00  0.00     0.003 C 
ATOM     22  C   UNL     1     -32.124  28.432  23.125  1.00  0.00     0.033 C 
ATOM     23  C   UNL     1     -31.797  27.465  20.768  1.00  0.00    -0.006 C 
ATOM     24  C   UNL     1     -32.790  28.100  21.789  1.00  0.00     0.120 C 
ATOM     25  C   UNL     1     -32.551  27.287  19.416  1.00  0.00     0.014 C 
ATOM     26  C   UNL     1     -31.401  26.021  21.195  1.00  0.00     0.014 C 
ENDROOT
BRANCH   1  27
ATOM     27  C   UNL     1     -26.269  35.260  22.347  1.00  0.00     0.048 C 
ATOM     28  O   UNL     1     -25.362  36.044  22.739  1.00  0.00    -0.550 OA
ATOM     29  O   UNL     1     -27.484  35.263  23.025  1.00  0.00    -0.550 OA
ENDBRANCH   1  27
BRANCH   7  30
ATOM     30  C   UNL     1     -23.076  31.932  20.973  1.00  0.00    -0.077 C 
ATOM     31  C   UNL     1     -22.573  30.908  19.987  1.00  0.00     0.039 C 
ATOM     32  C   UNL     1     -22.511  31.952  22.195  1.00  0.00     0.008 C 
ENDBRANCH   7  30
BRANCH  24  33
ATOM     33  O   UNL     1     -33.871  27.234  22.036  1.00  0.00    -0.393 OA
ATOM     34  H   UNL     1     -33.856  26.533  21.334  1.00  0.00     0.210 HD
ENDBRANCH  24  33
TORSDOF 3
ENDMDL
MODEL 2
REMARK VINA RESULT:    -5.810      2.650      4.426
REMARK INTER + INTRA:          -7.248
REMARK INTER:                  -6.734
REMARK INTRA:                  -0.515
REMARK UNBOUND:                -0.590
REMARK SMILES C=C(C)[C@@H]1CC[C@@]2(C(=O)[O-])CC[C@@]3(C)[C@H](CC[C@H]4[C@@]5(C)CC[C@H](O)C(C)(C)[C@H]5CC[C@@]43C)[C@@H]12
REMARK SMILES IDX 7 1 6 2 33 3 11 4 5 5 15 6 4 7 12 8 16 9 13 10 17 11 31 12
REMARK SMILES IDX 14 13 18 14 30 15 32 16 19 17 29 18 21 19 20 20 28 21 22 22
REMARK SMILES IDX 25 23 23 24 26 25 27 26 8 27 9 28 10 29 2 30 3 31 1 32 24 33
REMARK H PARENT 24 34
REMARK Flexibility Score: inf
ROOT
ATOM      1  C   UNL     1     -22.799  29.909  20.674  1.00  0.00     0.014 C 
ATOM      2  C   UNL     1     -21.618  30.513  21.482  1.00  0.00     0.014 C 
ATOM      3  C   UNL     1     -23.697  31.135  20.298  1.00  0.00     0.012 C 
ATOM      4  C   UNL     1     -23.567  28.861  21.531  1.00  0.00     0.014 C 
ATOM      5  C   UNL     1     -21.681  32.015  21.271  1.00  0.00     0.009 C 
ATOM      6  C   UNL     1     -25.254  30.891  20.360  1.00  0.00     0.000 C 
ATOM      7  C   UNL     1     -23.166  32.310  21.151  1.00  0.00     0.018 C 
ATOM      8  C   UNL     1     -24.626  29.488  22.453  1.00  0.00     0.008 C 
ATOM      9  C   UNL     1     -25.675  30.172  19.059  1.00  0.00     0.005 C 
ATOM     10  C   UNL     1     -25.802  30.203  21.695  1.00  0.00    -0.024 C 
ATOM     11  C   UNL     1     -27.178  29.864  18.932  1.00  0.00     0.005 C 
ATOM     12  C   UNL     1     -27.076  29.207  21.413  1.00  0.00    -0.024 C 
ATOM     13  C   UNL     1     -26.256  31.376  22.641  1.00  0.00     0.012 C 
ATOM     14  C   UNL     1     -27.964  29.856  20.279  1.00  0.00     0.002 C 
ATOM     15  C   UNL     1     -27.942  29.029  22.696  1.00  0.00     0.008 C 
ATOM     16  C   UNL     1     -26.613  27.763  21.007  1.00  0.00     0.012 C 
ATOM     17  C   UNL     1     -29.513  29.432  20.126  1.00  0.00    -0.026 C 
ATOM     18  C   UNL     1     -29.265  28.313  22.455  1.00  0.00     0.005 C 
ATOM     19  C   UNL     1     -29.680  28.197  19.178  1.00  0.00     0.010 C 
ATOM     20  C   UNL     1     -30.233  30.659  19.456  1.00  0.00     0.012 C 
ATOM     21  C   UNL     1     -30.202  29.135  21.533  1.00  0.00     0.003 C 
ATOM     22  C   UNL     1     -31.098  27.619  19.104  1.00  0.00     0.033 C 
ATOM     23  C   UNL     1     -31.663  28.490  21.453  1.00  0.00    -0.006 C 
ATOM     24  C   UNL     1     -31.661  27.270  20.482  1.00  0.00     0.120 C 
ATOM     25  C   UNL     1     -32.137  27.988  22.851  1.00  0.00     0.014 C 
ATOM     26  C   UNL     1     -32.727  29.543  21.028  1.00  0.00     0.014 C 
ENDROOT
BRANCH   1  27
ATOM     27  C   UNL     1     -22.222  29.245  19.422  1.00  0.00     0.048 C 
ATOM     28  O   UNL     1     -22.674  28.136  19.028  1.00  0.00    -0.550 OA
ATOM     29  O   UNL     1     -21.261  29.882  18.645  1.00  0.00    -0.550 OA
ENDBRANCH   1  27
BRANCH   7  30
ATOM     30  C   UNL     1     -23.424  33.738  20.662  1.00  0.00    -0.077 C 
ATOM     31  C   UNL     1     -22.236  34.627  20.395  1.00  0.00     0.039 C 
ATOM     32  C   UNL     1     -24.650  34.258  20.467  1.00  0.00     0.008 C 
ENDBRANCH   7  30
BRANCH  24  33
ATOM     33  O   UNL     1     -32.963  26.765  20.313  1.00  0.00    -0.393 OA
ATOM     34  H   UNL     1     -33.591  27.530  20.398  1.00  0.00     0.210 HD
ENDBRANCH  24  33
TORSDOF 3
ENDMDL
MODEL 3
REMARK VINA RESULT:    -5.151     16.333     18.020
REMARK INTER + INTRA:          -6.494
REMARK INTER:                  -5.857
REMARK INTRA:                  -0.637
REMARK UNBOUND:                -0.590
REMARK SMILES C=C(C)[C@@H]1CC[C@@]2(C(=O)[O-])CC[C@@]3(C)[C@H](CC[C@H]4[C@@]5(C)CC[C@H](O)C(C)(C)[C@H]5CC[C@@]43C)[C@@H]12
REMARK SMILES IDX 7 1 6 2 33 3 11 4 5 5 15 6 4 7 12 8 16 9 13 10 17 11 31 12
REMARK SMILES IDX 14 13 18 14 30 15 32 16 19 17 29 18 21 19 20 20 28 21 22 22
REMARK SMILES IDX 25 23 23 24 26 25 27 26 8 27 9 28 10 29 2 30 3 31 1 32 24 33
REMARK H PARENT 24 34
REMARK Flexibility Score: inf
ROOT
ATOM      1  C   UNL     1     -35.032  43.739   6.016  1.00  0.00     0.014 C 
ATOM      2  C   UNL     1     -34.552  44.541   4.776  1.00  0.00     0.014 C 
ATOM      3  C   UNL     1     -33.728  43.128   6.630  1.00  0.00     0.012 C 
ATOM      4  C   UNL     1     -36.052  42.641   5.595  1.00  0.00     0.014 C 
ATOM      5  C   UNL     1     -33.042  44.649   4.896  1.00  0.00     0.009 C 
ATOM      6  C   UNL     1     -33.855  41.660   7.192  1.00  0.00     0.000 C 
ATOM      7  C   UNL     1     -32.631  43.347   5.563  1.00  0.00     0.018 C 
ATOM      8  C   UNL     1     -35.382  41.342   5.116  1.00  0.00     0.008 C 
ATOM      9  C   UNL     1     -34.489  41.744   8.599  1.00  0.00     0.005 C 
ATOM     10  C   UNL     1     -34.551  40.597   6.223  1.00  0.00    -0.024 C 
ATOM     11  C   UNL     1     -34.677  40.395   9.318  1.00  0.00     0.005 C 
ATOM     12  C   UNL     1     -35.436  39.483   7.041  1.00  0.00    -0.024 C 
ATOM     13  C   UNL     1     -33.385  39.874   5.452  1.00  0.00     0.012 C 
ATOM     14  C   UNL     1     -34.677  39.146   8.385  1.00  0.00     0.002 C 
ATOM     15  C   UNL     1     -35.597  38.175   6.209  1.00  0.00     0.008 C 
ATOM     16  C   UNL     1     -36.894  39.987   7.329  1.00  0.00     0.012 C 
ATOM     17  C   UNL     1     -34.975  37.759   9.155  1.00  0.00    -0.026 C 
ATOM     18  C   UNL     1     -36.200  37.014   6.990  1.00  0.00     0.005 C 
ATOM     19  C   UNL     1     -36.157  37.909  10.171  1.00  0.00     0.010 C 
ATOM     20  C   UNL     1     -33.672  37.427   9.969  1.00  0.00     0.012 C 
ATOM     21  C   UNL     1     -35.274  36.560   8.147  1.00  0.00     0.003 C 
ATOM     22  C   UNL     1     -36.621  36.604  10.827  1.00  0.00     0.033 C 
ATOM     23  C   UNL     1     -35.803  35.214   8.829  1.00  0.00    -0.006 C 
ATOM     24  C   UNL     1     -36.980  35.528   9.801  1.00  0.00     0.120 C 
ATOM     25  C   UNL     1     -36.321  34.204   7.761  1.00  0.00     0.014 C 
ATOM     26  C   UNL     1     -34.656  34.460   9.564  1.00  0.00     0.014 C 
ENDROOT
BRANCH   1  27
ATOM     27  C   UNL     1     -35.689  44.722   6.987  1.00  0.00     0.048 C 
ATOM     28  O   UNL     1     -36.867  45.125   6.782  1.00  0.00    -0.550 OA
ATOM     29  O   UNL     1     -35.048  45.121   8.155  1.00  0.00    -0.550 OA
ENDBRANCH   1  27
BRANCH   7  30
ATOM     30  C   UNL     1     -31.170  43.379   6.019  1.00  0.00    -0.077 C 
ATOM     31  C   UNL     1     -30.649  44.643   6.654  1.00  0.00     0.039 C 
ATOM     32  C   UNL     1     -30.312  42.353   5.876  1.00  0.00     0.008 C 
ENDBRANCH   7  30
BRANCH  24  33
ATOM     33  O   UNL     1     -37.377  34.370  10.495  1.00  0.00    -0.393 OA
ATOM     34  H   UNL     1     -37.901  34.663  11.285  1.00  0.00     0.210 HD
ENDBRANCH  24  33
TORSDOF 3
ENDMDL
MODEL 4
REMARK VINA RESULT:    -5.088      2.111      2.879
REMARK INTER + INTRA:          -6.421
REMARK INTER:                  -5.822
REMARK INTRA:                  -0.600
REMARK UNBOUND:                -0.590
REMARK SMILES C=C(C)[C@@H]1CC[C@@]2(C(=O)[O-])CC[C@@]3(C)[C@H](CC[C@H]4[C@@]5(C)CC[C@H](O)C(C)(C)[C@H]5CC[C@@]43C)[C@@H]12
REMARK SMILES IDX 7 1 6 2 33 3 11 4 5 5 15 6 4 7 12 8 16 9 13 10 17 11 31 12
REMARK SMILES IDX 14 13 18 14 30 15 32 16 19 17 29 18 21 19 20 20 28 21 22 22
REMARK SMILES IDX 25 23 23 24 26 25 27 26 8 27 9 28 10 29 2 30 3 31 1 32 24 33
REMARK H PARENT 24 34
REMARK Flexibility Score: inf
ROOT
ATOM      1  C   UNL     1     -25.650  31.336  19.733  1.00  0.00     0.014 C 
ATOM      2  C   UNL     1     -24.263  31.004  19.120  1.00  0.00     0.014 C 
ATOM      3  C   UNL     1     -25.790  30.371  20.959  1.00  0.00     0.012 C 
ATOM      4  C   UNL     1     -26.778  31.115  18.683  1.00  0.00     0.014 C 
ATOM      5  C   UNL     1     -23.536  30.152  20.146  1.00  0.00     0.009 C 
ATOM      6  C   UNL     1     -27.225  29.762  21.195  1.00  0.00     0.000 C 
ATOM      7  C   UNL     1     -24.641  29.347  20.807  1.00  0.00     0.018 C 
ATOM      8  C   UNL     1     -27.253  29.655  18.600  1.00  0.00     0.008 C 
ATOM      9  C   UNL     1     -28.078  30.825  21.923  1.00  0.00     0.005 C 
ATOM     10  C   UNL     1     -27.932  29.121  19.913  1.00  0.00    -0.024 C 
ATOM     11  C   UNL     1     -29.519  30.399  22.256  1.00  0.00     0.005 C 
ATOM     12  C   UNL     1     -29.560  29.334  19.919  1.00  0.00    -0.024 C 
ATOM     13  C   UNL     1     -27.607  27.581  19.954  1.00  0.00     0.012 C 
ATOM     14  C   UNL     1     -30.065  29.207  21.411  1.00  0.00     0.002 C 
ATOM     15  C   UNL     1     -30.270  28.252  19.050  1.00  0.00     0.008 C 
ATOM     16  C   UNL     1     -29.974  30.716  19.301  1.00  0.00     0.012 C 
ATOM     17  C   UNL     1     -31.609  28.848  21.713  1.00  0.00    -0.026 C 
ATOM     18  C   UNL     1     -31.786  28.238  19.196  1.00  0.00     0.005 C 
ATOM     19  C   UNL     1     -32.490  30.139  21.806  1.00  0.00     0.010 C 
ATOM     20  C   UNL     1     -31.623  28.147  23.120  1.00  0.00     0.012 C 
ATOM     21  C   UNL     1     -32.221  27.848  20.632  1.00  0.00     0.003 C 
ATOM     22  C   UNL     1     -33.999  29.891  21.924  1.00  0.00     0.033 C 
ATOM     23  C   UNL     1     -33.802  27.626  20.728  1.00  0.00    -0.006 C 
ATOM     24  C   UNL     1     -34.535  29.000  20.802  1.00  0.00     0.120 C 
ATOM     25  C   UNL     1     -34.342  26.863  19.481  1.00  0.00     0.014 C 
ATOM     26  C   UNL     1     -34.177  26.724  21.939  1.00  0.00     0.014 C 
ENDROOT
BRANCH   1  27
ATOM     27  C   UNL     1     -25.630  32.798  20.183  1.00  0.00     0.048 C 
ATOM     28  O   UNL     1     -24.542  33.345  20.512  1.00  0.00    -0.550 OA
ATOM     29  O   UNL     1     -26.781  33.578  20.155  1.00  0.00    -0.550 OA
ENDBRANCH   1  27
BRANCH   7  30
ATOM     30  C   UNL     1     -24.144  28.622  22.060  1.00  0.00    -0.077 C 
ATOM     31  C   UNL     1     -24.304  27.125  22.129  1.00  0.00     0.039 C 
ATOM     32  C   UNL     1     -23.584  29.240  23.117  1.00  0.00     0.008 C 
ENDBRANCH   7  30
BRANCH  24  33
ATOM     33  O   UNL     1     -35.916  28.818  21.004  1.00  0.00    -0.393 OA
ATOM     34  H   UNL     1     -36.026  28.048  21.620  1.00  0.00     0.210 HD
ENDBRANCH  24  33
TORSDOF 3
ENDMDL
MODEL 5
REMARK VINA RESULT:    -4.674      3.514      6.248
REMARK INTER + INTRA:          -5.947
REMARK INTER:                  -5.341
REMARK INTRA:                  -0.605
REMARK UNBOUND:                -0.590
REMARK SMILES C=C(C)[C@@H]1CC[C@@]2(C(=O)[O-])CC[C@@]3(C)[C@H](CC[C@H]4[C@@]5(C)CC[C@H](O)C(C)(C)[C@H]5CC[C@@]43C)[C@@H]12
REMARK SMILES IDX 7 1 6 2 33 3 11 4 5 5 15 6 4 7 12 8 16 9 13 10 17 11 31 12
REMARK SMILES IDX 14 13 18 14 30 15 32 16 19 17 29 18 21 19 20 20 28 21 22 22
REMARK SMILES IDX 25 23 23 24 26 25 27 26 8 27 9 28 10 29 2 30 3 31 1 32 24 33
REMARK H PARENT 24 34
REMARK Flexibility Score: inf
ROOT
ATOM      1  C   UNL     1     -28.434  28.546  21.749  1.00  0.00     0.014 C 
ATOM      2  C   UNL     1     -27.332  29.543  22.199  1.00  0.00     0.014 C 
ATOM      3  C   UNL     1     -29.126  29.236  20.526  1.00  0.00     0.012 C 
ATOM      4  C   UNL     1     -29.434  28.277  22.911  1.00  0.00     0.014 C 
ATOM      5  C   UNL     1     -27.196  30.562  21.082  1.00  0.00     0.009 C 
ATOM      6  C   UNL     1     -30.691  29.068  20.434  1.00  0.00     0.000 C 
ATOM      7  C   UNL     1     -28.605  30.692  20.528  1.00  0.00     0.018 C 
ATOM      8  C   UNL     1     -30.546  29.335  23.013  1.00  0.00     0.008 C 
ATOM      9  C   UNL     1     -30.984  27.678  19.828  1.00  0.00     0.005 C 
ATOM     10  C   UNL     1     -31.507  29.384  21.772  1.00  0.00    -0.024 C 
ATOM     11  C   UNL     1     -32.475  27.339  19.646  1.00  0.00     0.005 C 
ATOM     12  C   UNL     1     -32.825  28.420  21.948  1.00  0.00    -0.024 C 
ATOM     13  C   UNL     1     -31.970  30.885  21.662  1.00  0.00     0.012 C 
ATOM     14  C   UNL     1     -33.453  28.183  20.519  1.00  0.00     0.002 C 
ATOM     15  C   UNL     1     -33.891  29.092  22.866  1.00  0.00     0.008 C 
ATOM     16  C   UNL     1     -32.466  27.057  22.638  1.00  0.00     0.012 C 
ATOM     17  C   UNL     1     -34.999  27.739  20.380  1.00  0.00    -0.026 C 
ATOM     18  C   UNL     1     -35.232  28.370  22.887  1.00  0.00     0.005 C 
ATOM     19  C   UNL     1     -35.153  26.181  20.413  1.00  0.00     0.010 C 
ATOM     20  C   UNL     1     -35.469  28.245  18.968  1.00  0.00     0.012 C 
ATOM     21  C   UNL     1     -35.922  28.400  21.499  1.00  0.00     0.003 C 
ATOM     22  C   UNL     1     -36.598  25.670  20.455  1.00  0.00     0.033 C 
ATOM     23  C   UNL     1     -37.415  27.834  21.572  1.00  0.00    -0.006 C 
ATOM     24  C   UNL     1     -37.399  26.275  21.609  1.00  0.00     0.120 C 
ATOM     25  C   UNL     1     -38.148  28.334  22.853  1.00  0.00     0.014 C 
ATOM     26  C   UNL     1     -38.281  28.358  20.389  1.00  0.00     0.014 C 
ENDROOT
BRANCH   1  27
ATOM     27  C   UNL     1     -27.750  27.243  21.332  1.00  0.00     0.048 C 
ATOM     28  O   UNL     1     -26.557  27.255  20.925  1.00  0.00    -0.550 OA
ATOM     29  O   UNL     1     -28.388  26.015  21.475  1.00  0.00    -0.550 OA
ENDBRANCH   1  27
BRANCH   7  30
ATOM     30  C   UNL     1     -28.628  31.474  19.212  1.00  0.00    -0.077 C 
ATOM     31  C   UNL     1     -27.494  31.267  18.239  1.00  0.00     0.039 C 
ATOM     32  C   UNL     1     -29.591  32.349  18.871  1.00  0.00     0.008 C 
ENDBRANCH   7  30
BRANCH  24  33
ATOM     33  O   UNL     1     -38.708  25.762  21.556  1.00  0.00    -0.393 OA
ATOM     34  H   UNL     1     -39.134  26.120  20.734  1.00  0.00     0.210 HD
ENDBRANCH  24  33
TORSDOF 3
ENDMDL
MODEL 6
REMARK VINA RESULT:    -4.475      1.544      2.130
REMARK INTER + INTRA:          -5.719
REMARK INTER:                  -5.172
REMARK INTRA:                  -0.547
REMARK UNBOUND:                -0.590
REMARK SMILES C=C(C)[C@@H]1CC[C@@]2(C(=O)[O-])CC[C@@]3(C)[C@H](CC[C@H]4[C@@]5(C)CC[C@H](O)C(C)(C)[C@H]5CC[C@@]43C)[C@@H]12
REMARK SMILES IDX 7 1 6 2 33 3 11 4 5 5 15 6 4 7 12 8 16 9 13 10 17 11 31 12
REMARK SMILES IDX 14 13 18 14 30 15 32 16 19 17 29 18 21 19 20 20 28 21 22 22
REMARK SMILES IDX 25 23 23 24 26 25 27 26 8 27 9 28 10 29 2 30 3 31 1 32 24 33
REMARK H PARENT 24 34
REMARK Flexibility Score: inf
ROOT
ATOM      1  C   UNL     1     -24.119  32.546  20.463  1.00  0.00     0.014 C 
ATOM      2  C   UNL     1     -22.720  32.472  19.793  1.00  0.00     0.014 C 
ATOM      3  C   UNL     1     -24.152  31.339  21.460  1.00  0.00     0.012 C 
ATOM      4  C   UNL     1     -25.243  32.450  19.390  1.00  0.00     0.014 C 
ATOM      5  C   UNL     1     -21.904  31.493  20.617  1.00  0.00     0.009 C 
ATOM      6  C   UNL     1     -25.525  30.571  21.565  1.00  0.00     0.000 C 
ATOM      7  C   UNL     1     -22.923  30.474  21.097  1.00  0.00     0.018 C 
ATOM      8  C   UNL     1     -25.594  31.003  19.005  1.00  0.00     0.008 C 
ATOM      9  C   UNL     1     -26.452  31.380  22.499  1.00  0.00     0.005 C 
ATOM     10  C   UNL     1     -26.199  30.150  20.178  1.00  0.00    -0.024 C 
ATOM     11  C   UNL     1     -27.845  30.769  22.737  1.00  0.00     0.005 C 
ATOM     12  C   UNL     1     -27.839  30.213  20.230  1.00  0.00    -0.024 C 
ATOM     13  C   UNL     1     -25.743  28.670  19.896  1.00  0.00     0.012 C 
ATOM     14  C   UNL     1     -28.302  29.735  21.662  1.00  0.00     0.002 C 
ATOM     15  C   UNL     1     -28.470  29.277  19.155  1.00  0.00     0.008 C 
ATOM     16  C   UNL     1     -28.381  31.652  19.914  1.00  0.00     0.012 C 
ATOM     17  C   UNL     1     -29.804  29.188  21.884  1.00  0.00    -0.026 C 
ATOM     18  C   UNL     1     -29.976  29.100  19.295  1.00  0.00     0.005 C 
ATOM     19  C   UNL     1     -30.791  30.348  22.245  1.00  0.00     0.010 C 
ATOM     20  C   UNL     1     -29.732  28.211  23.114  1.00  0.00     0.012 C 
ATOM     21  C   UNL     1     -30.349  28.384  20.619  1.00  0.00     0.003 C 
ATOM     22  C   UNL     1     -32.270  29.949  22.309  1.00  0.00     0.033 C 
ATOM     23  C   UNL     1     -31.902  28.009  20.667  1.00  0.00    -0.006 C 
ATOM     24  C   UNL     1     -32.749  29.268  21.027  1.00  0.00     0.120 C 
ATOM     25  C   UNL     1     -32.399  27.477  19.289  1.00  0.00     0.014 C 
ATOM     26  C   UNL     1     -32.176  26.846  21.664  1.00  0.00     0.014 C 
ENDROOT
BRANCH   1  27
ATOM     27  C   UNL     1     -24.216  33.878  21.208  1.00  0.00     0.048 C 
ATOM     28  O   UNL     1     -23.174  34.434  21.651  1.00  0.00    -0.550 OA
ATOM     29  O   UNL     1     -25.428  34.548  21.333  1.00  0.00    -0.550 OA
ENDBRANCH   1  27
BRANCH   7  30
ATOM     30  C   UNL     1     -22.342  29.551  22.171  1.00  0.00    -0.077 C 
ATOM     31  C   UNL     1     -21.030  29.934  22.807  1.00  0.00     0.039 C 
ATOM     32  C   UNL     1     -22.922  28.406  22.577  1.00  0.00     0.008 C 
ENDBRANCH   7  30
BRANCH  24  33
ATOM     33  O   UNL     1     -34.105  28.927  21.187  1.00  0.00    -0.393 OA
ATOM     34  H   UNL     1     -34.366  28.374  20.406  1.00  0.00     0.210 HD
ENDBRANCH  24  33
TORSDOF 3
ENDMDL
MODEL 7
REMARK VINA RESULT:    -4.275      4.711     10.789
REMARK INTER + INTRA:          -5.489
REMARK INTER:                  -4.857
REMARK INTRA:                  -0.632
REMARK UNBOUND:                -0.590
REMARK SMILES C=C(C)[C@@H]1CC[C@@]2(C(=O)[O-])CC[C@@]3(C)[C@H](CC[C@H]4[C@@]5(C)CC[C@H](O)C(C)(C)[C@H]5CC[C@@]43C)[C@@H]12
REMARK SMILES IDX 7 1 6 2 33 3 11 4 5 5 15 6 4 7 12 8 16 9 13 10 17 11 31 12
REMARK SMILES IDX 14 13 18 14 30 15 32 16 19 17 29 18 21 19 20 20 28 21 22 22
REMARK SMILES IDX 25 23 23 24 26 25 27 26 8 27 9 28 10 29 2 30 3 31 1 32 24 33
REMARK H PARENT 24 34
REMARK Flexibility Score: inf
ROOT
ATOM      1  C   UNL     1     -38.388  27.384  21.810  1.00  0.00     0.014 C 
ATOM      2  C   UNL     1     -39.611  26.429  21.866  1.00  0.00     0.014 C 
ATOM      3  C   UNL     1     -37.772  27.165  20.388  1.00  0.00     0.012 C 
ATOM      4  C   UNL     1     -37.377  27.044  22.944  1.00  0.00     0.014 C 
ATOM      5  C   UNL     1     -39.857  25.967  20.441  1.00  0.00     0.009 C 
ATOM      6  C   UNL     1     -36.196  27.169  20.312  1.00  0.00     0.000 C 
ATOM      7  C   UNL     1     -38.469  25.904  19.828  1.00  0.00     0.018 C 
ATOM      8  C   UNL     1     -36.407  25.910  22.574  1.00  0.00     0.008 C 
ATOM      9  C   UNL     1     -35.725  28.640  20.300  1.00  0.00     0.005 C 
ATOM     10  C   UNL     1     -35.443  26.249  21.380  1.00  0.00    -0.024 C 
ATOM     11  C   UNL     1     -34.201  28.844  20.212  1.00  0.00     0.005 C 
ATOM     12  C   UNL     1     -34.018  26.897  21.876  1.00  0.00    -0.024 C 
ATOM     13  C   UNL     1     -35.169  24.875  20.663  1.00  0.00     0.012 C 
ATOM     14  C   UNL     1     -33.347  27.611  20.637  1.00  0.00     0.002 C 
ATOM     15  C   UNL     1     -33.056  25.793  22.408  1.00  0.00     0.008 C 
ATOM     16  C   UNL     1     -34.214  27.902  23.066  1.00  0.00     0.012 C 
ATOM     17  C   UNL     1     -31.757  27.887  20.629  1.00  0.00    -0.026 C 
ATOM     18  C   UNL     1     -31.636  26.281  22.665  1.00  0.00     0.005 C 
ATOM     19  C   UNL     1     -31.411  29.271  21.275  1.00  0.00     0.010 C 
ATOM     20  C   UNL     1     -31.334  27.937  19.116  1.00  0.00     0.012 C 
ATOM     21  C   UNL     1     -30.937  26.728  21.355  1.00  0.00     0.003 C 
ATOM     22  C   UNL     1     -29.915  29.546  21.463  1.00  0.00     0.033 C 
ATOM     23  C   UNL     1     -29.386  27.036  21.592  1.00  0.00    -0.006 C 
ATOM     24  C   UNL     1     -29.210  28.439  22.248  1.00  0.00     0.120 C 
ATOM     25  C   UNL     1     -28.737  25.981  22.538  1.00  0.00     0.014 C 
ATOM     26  C   UNL     1     -28.577  26.932  20.266  1.00  0.00     0.014 C 
ENDROOT
BRANCH   1  27
ATOM     27  C   UNL     1     -38.899  28.816  21.974  1.00  0.00     0.048 C 
ATOM     28  O   UNL     1     -39.015  29.321  23.124  1.00  0.00    -0.550 OA
ATOM     29  O   UNL     1     -39.161  29.620  20.870  1.00  0.00    -0.550 OA
ENDBRANCH   1  27
BRANCH   7  30
ATOM     30  C   UNL     1     -38.526  25.718  18.310  1.00  0.00    -0.077 C 
ATOM     31  C   UNL     1     -39.816  26.040  17.600  1.00  0.00     0.039 C 
ATOM     32  C   UNL     1     -37.498  25.270  17.565  1.00  0.00     0.008 C 
ENDBRANCH   7  30
BRANCH  24  33
ATOM     33  O   UNL     1     -27.847  28.772  22.355  1.00  0.00    -0.393 OA
ATOM     34  H   UNL     1     -27.333  28.076  21.868  1.00  0.00     0.210 HD
ENDBRANCH  24  33
TORSDOF 3
ENDMDL
MODEL 8
REMARK VINA RESULT:    -4.183      4.776     11.404
REMARK INTER + INTRA:          -5.385
REMARK INTER:                  -4.787
REMARK INTRA:                  -0.598
REMARK UNBOUND:                -0.590
REMARK SMILES C=C(C)[C@@H]1CC[C@@]2(C(=O)[O-])CC[C@@]3(C)[C@H](CC[C@H]4[C@@]5(C)CC[C@H](O)C(C)(C)[C@H]5CC[C@@]43C)[C@@H]12
REMARK SMILES IDX 7 1 6 2 33 3 11 4 5 5 15 6 4 7 12 8 16 9 13 10 17 11 31 12
REMARK SMILES IDX 14 13 18 14 30 15 32 16 19 17 29 18 21 19 20 20 28 21 22 22
REMARK SMILES IDX 25 23 23 24 26 25 27 26 8 27 9 28 10 29 2 30 3 31 1 32 24 33
REMARK H PARENT 24 34
REMARK Flexibility Score: inf
ROOT
ATOM      1  C   UNL     1     -38.720  25.576  20.856  1.00  0.00     0.014 C 
ATOM      2  C   UNL     1     -39.848  25.127  19.889  1.00  0.00     0.014 C 
ATOM      3  C   UNL     1     -38.688  27.137  20.740  1.00  0.00     0.012 C 
ATOM      4  C   UNL     1     -37.363  24.930  20.449  1.00  0.00     0.014 C 
ATOM      5  C   UNL     1     -40.620  26.382  19.522  1.00  0.00     0.009 C 
ATOM      6  C   UNL     1     -37.257  27.799  20.763  1.00  0.00     0.000 C 
ATOM      7  C   UNL     1     -39.566  27.475  19.513  1.00  0.00     0.018 C 
ATOM      8  C   UNL     1     -36.623  25.713  19.352  1.00  0.00     0.008 C 
ATOM      9  C   UNL     1     -36.800  27.890  22.236  1.00  0.00     0.005 C 
ATOM     10  C   UNL     1     -36.173  27.157  19.780  1.00  0.00    -0.024 C 
ATOM     11  C   UNL     1     -35.418  28.532  22.459  1.00  0.00     0.005 C 
ATOM     12  C   UNL     1     -34.656  27.191  20.406  1.00  0.00    -0.024 C 
ATOM     13  C   UNL     1     -36.212  28.014  18.460  1.00  0.00     0.012 C 
ATOM     14  C   UNL     1     -34.487  28.542  21.208  1.00  0.00     0.002 C 
ATOM     15  C   UNL     1     -33.582  27.135  19.277  1.00  0.00     0.008 C 
ATOM     16  C   UNL     1     -34.372  25.951  21.326  1.00  0.00     0.012 C 
ATOM     17  C   UNL     1     -33.012  29.129  21.498  1.00  0.00    -0.026 C 
ATOM     18  C   UNL     1     -32.162  27.400  19.759  1.00  0.00     0.005 C 
ATOM     19  C   UNL     1     -32.426  28.571  22.838  1.00  0.00     0.010 C 
ATOM     20  C   UNL     1     -33.189  30.683  21.655  1.00  0.00     0.012 C 
ATOM     21  C   UNL     1     -32.000  28.843  20.300  1.00  0.00     0.003 C 
ATOM     22  C   UNL     1     -30.964  28.942  23.114  1.00  0.00     0.033 C 
ATOM     23  C   UNL     1     -30.469  29.188  20.606  1.00  0.00    -0.006 C 
ATOM     24  C   UNL     1     -30.034  28.555  21.963  1.00  0.00     0.120 C 
ATOM     25  C   UNL     1     -29.530  28.628  19.495  1.00  0.00     0.014 C 
ATOM     26  C   UNL     1     -30.219  30.724  20.599  1.00  0.00     0.014 C 
ENDROOT
BRANCH   1  27
ATOM     27  C   UNL     1     -39.108  25.137  22.269  1.00  0.00     0.048 C 
ATOM     28  O   UNL     1     -38.215  24.889  23.124  1.00  0.00    -0.550 OA
ATOM     29  O   UNL     1     -40.439  25.089  22.670  1.00  0.00    -0.550 OA
ENDBRANCH   1  27
BRANCH   7  30
ATOM     30  C   UNL     1     -40.193  28.869  19.430  1.00  0.00    -0.077 C 
ATOM     31  C   UNL     1     -39.869  29.727  18.233  1.00  0.00     0.039 C 
ATOM     32  C   UNL     1     -41.006  29.387  20.368  1.00  0.00     0.008 C 
ENDBRANCH   7  30
BRANCH  24  33
ATOM     33  O   UNL     1     -28.726  28.947  22.300  1.00  0.00    -0.393 OA
ATOM     34  H   UNL     1     -28.109  28.250  21.955  1.00  0.00     0.210 HD
ENDBRANCH  24  33
TORSDOF 3
ENDMDL
MODEL 9
REMARK VINA RESULT:    -4.174      2.070      3.835
REMARK INTER + INTRA:          -5.374
REMARK INTER:                  -4.905
REMARK INTRA:                  -0.469
REMARK UNBOUND:                -0.590
REMARK SMILES C=C(C)[C@@H]1CC[C@@]2(C(=O)[O-])CC[C@@]3(C)[C@H](CC[C@H]4[C@@]5(C)CC[C@H](O)C(C)(C)[C@H]5CC[C@@]43C)[C@@H]12
REMARK SMILES IDX 7 1 6 2 33 3 11 4 5 5 15 6 4 7 12 8 16 9 13 10 17 11 31 12
REMARK SMILES IDX 14 13 18 14 30 15 32 16 19 17 29 18 21 19 20 20 28 21 22 22
REMARK SMILES IDX 25 23 23 24 26 25 27 26 8 27 9 28 10 29 2 30 3 31 1 32 24 33
REMARK H PARENT 24 34
REMARK Flexibility Score: inf
ROOT
ATOM      1  C   UNL     1     -24.348  31.496  21.504  1.00  0.00     0.014 C 
ATOM      2  C   UNL     1     -23.589  32.638  22.232  1.00  0.00     0.014 C 
ATOM      3  C   UNL     1     -25.480  32.215  20.696  1.00  0.00     0.012 C 
ATOM      4  C   UNL     1     -24.920  30.478  22.533  1.00  0.00     0.014 C 
ATOM      5  C   UNL     1     -24.057  33.935  21.595  1.00  0.00     0.009 C 
ATOM      6  C   UNL     1     -26.871  31.474  20.652  1.00  0.00     0.000 C 
ATOM      7  C   UNL     1     -25.507  33.666  21.232  1.00  0.00     0.018 C 
ATOM      8  C   UNL     1     -26.280  30.900  23.114  1.00  0.00     0.008 C 
ATOM      9  C   UNL     1     -26.788  30.372  19.572  1.00  0.00     0.005 C 
ATOM     10  C   UNL     1     -27.440  30.970  22.058  1.00  0.00    -0.024 C 
ATOM     11  C   UNL     1     -28.071  29.546  19.372  1.00  0.00     0.005 C 
ATOM     12  C   UNL     1     -28.273  29.560  21.932  1.00  0.00    -0.024 C 
ATOM     13  C   UNL     1     -28.406  32.101  22.573  1.00  0.00     0.012 C 
ATOM     14  C   UNL     1     -29.071  29.583  20.569  1.00  0.00     0.002 C 
ATOM     15  C   UNL     1     -29.283  29.400  23.108  1.00  0.00     0.008 C 
ATOM     16  C   UNL     1     -27.326  28.311  22.009  1.00  0.00     0.012 C 
ATOM     17  C   UNL     1     -30.358  28.630  20.371  1.00  0.00    -0.026 C 
ATOM     18  C   UNL     1     -30.254  28.239  22.935  1.00  0.00     0.005 C 
ATOM     19  C   UNL     1     -29.952  27.228  19.803  1.00  0.00     0.010 C 
ATOM     20  C   UNL     1     -31.265  29.343  19.304  1.00  0.00     0.012 C 
ATOM     21  C   UNL     1     -31.191  28.450  21.719  1.00  0.00     0.003 C 
ATOM     22  C   UNL     1     -31.087  26.198  19.740  1.00  0.00     0.033 C 
ATOM     23  C   UNL     1     -32.343  27.343  21.665  1.00  0.00    -0.006 C 
ATOM     24  C   UNL     1     -31.781  26.008  21.089  1.00  0.00     0.120 C 
ATOM     25  C   UNL     1     -32.912  27.049  23.085  1.00  0.00     0.014 C 
ATOM     26  C   UNL     1     -33.568  27.838  20.841  1.00  0.00     0.014 C 
ENDROOT
BRANCH   1  27
ATOM     27  C   UNL     1     -23.361  30.798  20.566  1.00  0.00     0.048 C 
ATOM     28  O   UNL     1     -23.289  31.138  19.354  1.00  0.00    -0.550 OA
ATOM     29  O   UNL     1     -22.466  29.845  21.041  1.00  0.00    -0.550 OA
ENDBRANCH   1  27
BRANCH   7  30
ATOM     30  C   UNL     1     -26.080  34.762  20.330  1.00  0.00    -0.077 C 
ATOM     31  C   UNL     1     -27.482  34.591  19.801  1.00  0.00     0.039 C 
ATOM     32  C   UNL     1     -25.406  35.867  19.964  1.00  0.00     0.008 C 
ENDBRANCH   7  30
BRANCH  24  33
ATOM     33  O   UNL     1     -32.811  25.063  20.927  1.00  0.00    -0.393 OA
ATOM     34  H   UNL     1     -33.584  25.533  20.520  1.00  0.00     0.210 HD
ENDBRANCH  24  33
TORSDOF 3
ENDMDL
