MODEL 1
REMARK VINA RESULT:    -4.589      0.000      0.000
REMARK INTER + INTRA:          -9.259
REMARK INTER:                  -8.076
REMARK INTRA:                  -1.183
REMARK UNBOUND:                -1.183
REMARK SMILES CCCCCCC=CCCCCCCCC(=O)[O-]
REMARK SMILES IDX 10 1 11 2 12 3 13 4 14 5 15 6 16 7 17 8 18 9 9 10 8 11 7 12
REMARK SMILES IDX 6 13 5 14 4 15 3 16 2 17 1 18
REMARK H PARENT
REMARK Flexibility Score: inf
ROOT
ATOM      1  C   UNL     1      47.668  42.559  36.037  1.00  0.00     0.004 C 
ENDROOT
BRANCH   1   2
ATOM      2  C   UNL     1      47.464  42.968  37.504  1.00  0.00     0.000 C 
BRANCH   2   3
ATOM      3  C   UNL     1      48.043  41.939  38.491  1.00  0.00     0.000 C 
BRANCH   3   4
ATOM      4  C   UNL     1      48.707  40.748  37.781  1.00  0.00     0.000 C 
BRANCH   4   5
ATOM      5  C   UNL     1      48.250  39.393  38.349  1.00  0.00     0.006 C 
BRANCH   5   6
ATOM      6  C   UNL     1      47.787  39.502  39.807  1.00  0.00     0.053 C 
BRANCH   6   7
ATOM      7  C   UNL     1      47.199  38.218  40.303  1.00  0.00     0.041 C 
ATOM      8  O   UNL     1      46.093  38.218  40.906  1.00  0.00    -0.550 OA
ATOM      9  O   UNL     1      47.856  37.015  40.072  1.00  0.00    -0.550 OA
ENDBRANCH   6   7
ENDBRANCH   5   6
ENDBRANCH   4   5
ENDBRANCH   3   4
ENDBRANCH   2   3
ENDBRANCH   1   2
BRANCH   1  10
ATOM     10  C   UNL     1      46.724  43.301  35.080  1.00  0.00     0.027 C 
BRANCH  10  11
ATOM     11  C   UNL     1      47.351  43.473  33.724  1.00  0.00    -0.031 C 
ATOM     12  C   UNL     1      47.389  44.678  33.137  1.00  0.00    -0.031 C 
BRANCH  12  13
ATOM     13  C   UNL     1      48.012  44.877  31.781  1.00  0.00     0.027 C 
BRANCH  13  14
ATOM     14  C   UNL     1      47.344  44.015  30.697  1.00  0.00     0.004 C 
BRANCH  14  15
ATOM     15  C   UNL     1      45.884  44.429  30.448  1.00  0.00     0.000 C 
BRANCH  15  16
ATOM     16  C   UNL     1      44.950  43.222  30.264  1.00  0.00    -0.000 C 
BRANCH  16  17
ATOM     17  C   UNL     1      45.538  41.926  30.844  1.00  0.00    -0.003 C 
ATOM     18  C   UNL     1      44.736  41.452  32.052  1.00  0.00     0.004 C 
ENDBRANCH  16  17
ENDBRANCH  15  16
ENDBRANCH  14  15
ENDBRANCH  13  14
ENDBRANCH  12  13
ENDBRANCH  10  11
ENDBRANCH   1  10
TORSDOF 13
ENDMDL
MODEL 2
REMARK VINA RESULT:    -4.502      3.668      7.684
REMARK INTER + INTRA:          -9.106
REMARK INTER:                  -7.421
REMARK INTRA:                  -1.684
REMARK UNBOUND:                -1.183
REMARK SMILES CCCCCCC=CCCCCCCCC(=O)[O-]
REMARK SMILES IDX 10 1 11 2 12 3 13 4 14 5 15 6 16 7 17 8 18 9 9 10 8 11 7 12
REMARK SMILES IDX 6 13 5 14 4 15 3 16 2 17 1 18
REMARK H PARENT
REMARK Flexibility Score: inf
ROOT
ATOM      1  C   UNL     1      46.006  43.812  33.969  1.00  0.00     0.004 C 
ENDROOT
BRANCH   1   2
ATOM      2  C   UNL     1      47.094  44.780  33.477  1.00  0.00     0.000 C 
BRANCH   2   3
ATOM      3  C   UNL     1      47.707  44.346  32.134  1.00  0.00     0.000 C 
BRANCH   3   4
ATOM      4  C   UNL     1      46.910  44.862  30.926  1.00  0.00     0.000 C 
BRANCH   4   5
ATOM      5  C   UNL     1      46.630  43.760  29.889  1.00  0.00     0.006 C 
BRANCH   5   6
ATOM      6  C   UNL     1      47.055  42.373  30.389  1.00  0.00     0.053 C 
BRANCH   6   7
ATOM      7  C   UNL     1      45.876  41.483  30.635  1.00  0.00     0.041 C 
ATOM      8  O   UNL     1      44.809  41.959  31.104  1.00  0.00    -0.550 OA
ATOM      9  O   UNL     1      45.944  40.132  30.318  1.00  0.00    -0.550 OA
ENDBRANCH   6   7
ENDBRANCH   5   6
ENDBRANCH   4   5
ENDBRANCH   3   4
ENDBRANCH   2   3
ENDBRANCH   1   2
BRANCH   1  10
ATOM     10  C   UNL     1      46.539  42.391  34.200  1.00  0.00     0.027 C 
BRANCH  10  11
ATOM     11  C   UNL     1      47.218  42.278  35.538  1.00  0.00    -0.031 C 
ATOM     12  C   UNL     1      46.692  42.861  36.624  1.00  0.00    -0.031 C 
BRANCH  12  13
ATOM     13  C   UNL     1      47.351  42.761  37.973  1.00  0.00     0.027 C 
BRANCH  13  14
ATOM     14  C   UNL     1      48.475  41.712  37.999  1.00  0.00     0.004 C 
BRANCH  14  15
ATOM     15  C   UNL     1      48.277  40.681  39.123  1.00  0.00     0.000 C 
BRANCH  15  16
ATOM     16  C   UNL     1      48.001  39.268  38.586  1.00  0.00    -0.000 C 
BRANCH  16  17
ATOM     17  C   UNL     1      48.537  39.061  37.161  1.00  0.00    -0.003 C 
ATOM     18  C   UNL     1      47.422  38.638  36.211  1.00  0.00     0.004 C 
ENDBRANCH  16  17
ENDBRANCH  15  16
ENDBRANCH  14  15
ENDBRANCH  13  14
ENDBRANCH  12  13
ENDBRANCH  10  11
ENDBRANCH   1  10
TORSDOF 13
ENDMDL
MODEL 3
REMARK VINA RESULT:    -4.490      1.490      1.964
REMARK INTER + INTRA:          -9.086
REMARK INTER:                  -7.502
REMARK INTRA:                  -1.584
REMARK UNBOUND:                -1.183
REMARK SMILES CCCCCCC=CCCCCCCCC(=O)[O-]
REMARK SMILES IDX 10 1 11 2 12 3 13 4 14 5 15 6 16 7 17 8 18 9 9 10 8 11 7 12
REMARK SMILES IDX 6 13 5 14 4 15 3 16 2 17 1 18
REMARK H PARENT
REMARK Flexibility Score: inf
ROOT
ATOM      1  C   UNL     1      46.259  41.974  34.731  1.00  0.00     0.004 C 
ENDROOT
BRANCH   1   2
ATOM      2  C   UNL     1      47.114  41.414  35.878  1.00  0.00     0.000 C 
BRANCH   2   3
ATOM      3  C   UNL     1      47.875  42.513  36.639  1.00  0.00     0.000 C 
BRANCH   3   4
ATOM      4  C   UNL     1      47.911  42.266  38.156  1.00  0.00     0.000 C 
BRANCH   4   5
ATOM      5  C   UNL     1      48.679  40.985  38.527  1.00  0.00     0.006 C 
BRANCH   5   6
ATOM      6  C   UNL     1      47.879  40.086  39.478  1.00  0.00     0.053 C 
BRANCH   6   7
ATOM      7  C   UNL     1      47.875  40.617  40.878  1.00  0.00     0.041 C 
ATOM      8  O   UNL     1      48.881  41.226  41.328  1.00  0.00    -0.550 OA
ATOM      9  O   UNL     1      46.748  40.467  41.678  1.00  0.00    -0.550 OA
ENDBRANCH   6   7
ENDBRANCH   5   6
ENDBRANCH   4   5
ENDBRANCH   3   4
ENDBRANCH   2   3
ENDBRANCH   1   2
BRANCH   1  10
ATOM     10  C   UNL     1      45.825  43.427  34.973  1.00  0.00     0.027 C 
BRANCH  10  11
ATOM     11  C   UNL     1      46.244  44.316  33.833  1.00  0.00    -0.031 C 
ATOM     12  C   UNL     1      47.366  44.061  33.144  1.00  0.00    -0.031 C 
BRANCH  12  13
ATOM     13  C   UNL     1      47.806  44.934  32.000  1.00  0.00     0.027 C 
BRANCH  13  14
ATOM     14  C   UNL     1      46.947  44.727  30.741  1.00  0.00     0.004 C 
BRANCH  14  15
ATOM     15  C   UNL     1      47.029  43.283  30.218  1.00  0.00     0.000 C 
BRANCH  15  16
ATOM     16  C   UNL     1      45.648  42.701  29.875  1.00  0.00    -0.000 C 
BRANCH  16  17
ATOM     17  C   UNL     1      44.981  42.013  31.076  1.00  0.00    -0.003 C 
ATOM     18  C   UNL     1      43.782  42.815  31.572  1.00  0.00     0.004 C 
ENDBRANCH  16  17
ENDBRANCH  15  16
ENDBRANCH  14  15
ENDBRANCH  13  14
ENDBRANCH  12  13
ENDBRANCH  10  11
ENDBRANCH   1  10
TORSDOF 13
ENDMDL
MODEL 4
REMARK VINA RESULT:    -4.490      2.069      2.934
REMARK INTER + INTRA:          -9.085
REMARK INTER:                  -7.262
REMARK INTRA:                  -1.822
REMARK UNBOUND:                -1.183
REMARK SMILES CCCCCCC=CCCCCCCCC(=O)[O-]
REMARK SMILES IDX 10 1 11 2 12 3 13 4 14 5 15 6 16 7 17 8 18 9 9 10 8 11 7 12
REMARK SMILES IDX 6 13 5 14 4 15 3 16 2 17 1 18
REMARK H PARENT
REMARK Flexibility Score: inf
ROOT
ATOM      1  C   UNL     1      46.882  42.882  37.462  1.00  0.00     0.004 C 
ENDROOT
BRANCH   1   2
ATOM      2  C   UNL     1      47.619  42.970  38.808  1.00  0.00     0.000 C 
BRANCH   2   3
ATOM      3  C   UNL     1      47.612  41.636  39.574  1.00  0.00     0.000 C 
BRANCH   3   4
ATOM      4  C   UNL     1      48.708  40.672  39.093  1.00  0.00     0.000 C 
BRANCH   4   5
ATOM      5  C   UNL     1      48.138  39.338  38.579  1.00  0.00     0.006 C 
BRANCH   5   6
ATOM      6  C   UNL     1      48.130  39.265  37.047  1.00  0.00     0.053 C 
BRANCH   6   7
ATOM      7  C   UNL     1      46.742  39.347  36.491  1.00  0.00     0.041 C 
ATOM      8  O   UNL     1      45.761  39.524  37.259  1.00  0.00    -0.550 OA
ATOM      9  O   UNL     1      46.534  39.258  35.119  1.00  0.00    -0.550 OA
ENDBRANCH   6   7
ENDBRANCH   5   6
ENDBRANCH   4   5
ENDBRANCH   3   4
ENDBRANCH   2   3
ENDBRANCH   1   2
BRANCH   1  10
ATOM     10  C   UNL     1      47.841  42.872  36.264  1.00  0.00     0.027 C 
BRANCH  10  11
ATOM     11  C   UNL     1      47.085  42.797  34.965  1.00  0.00    -0.031 C 
ATOM     12  C   UNL     1      45.765  43.026  34.928  1.00  0.00    -0.031 C 
BRANCH  12  13
ATOM     13  C   UNL     1      44.987  42.958  33.641  1.00  0.00     0.027 C 
BRANCH  13  14
ATOM     14  C   UNL     1      44.646  44.352  33.089  1.00  0.00     0.004 C 
BRANCH  14  15
ATOM     15  C   UNL     1      45.318  44.616  31.731  1.00  0.00     0.000 C 
BRANCH  15  16
ATOM     16  C   UNL     1      46.076  43.389  31.199  1.00  0.00    -0.000 C 
BRANCH  16  17
ATOM     17  C   UNL     1      47.595  43.608  31.149  1.00  0.00    -0.003 C 
ATOM     18  C   UNL     1      47.980  44.939  31.786  1.00  0.00     0.004 C 
ENDBRANCH  16  17
ENDBRANCH  15  16
ENDBRANCH  14  15
ENDBRANCH  13  14
ENDBRANCH  12  13
ENDBRANCH  10  11
ENDBRANCH   1  10
TORSDOF 13
ENDMDL
MODEL 5
REMARK VINA RESULT:    -4.420      4.289      8.968
REMARK INTER + INTRA:          -8.962
REMARK INTER:                  -7.590
REMARK INTRA:                  -1.373
REMARK UNBOUND:                -1.183
REMARK SMILES CCCCCCC=CCCCCCCCC(=O)[O-]
REMARK SMILES IDX 10 1 11 2 12 3 13 4 14 5 15 6 16 7 17 8 18 9 9 10 8 11 7 12
REMARK SMILES IDX 6 13 5 14 4 15 3 16 2 17 1 18
REMARK H PARENT
REMARK Flexibility Score: inf
ROOT
ATOM      1  C   UNL     1      46.755  41.470  37.737  1.00  0.00     0.004 C 
ENDROOT
BRANCH   1   2
ATOM      2  C   UNL     1      46.533  42.739  36.900  1.00  0.00     0.000 C 
BRANCH   2   3
ATOM      3  C   UNL     1      47.557  42.882  35.760  1.00  0.00     0.000 C 
BRANCH   3   4
ATOM      4  C   UNL     1      46.902  42.858  34.370  1.00  0.00     0.000 C 
BRANCH   4   5
ATOM      5  C   UNL     1      46.720  44.267  33.778  1.00  0.00     0.006 C 
BRANCH   5   6
ATOM      6  C   UNL     1      45.875  44.252  32.498  1.00  0.00     0.053 C 
BRANCH   6   7
ATOM      7  C   UNL     1      46.708  44.491  31.277  1.00  0.00     0.041 C 
ATOM      8  O   UNL     1      46.184  44.447  30.133  1.00  0.00    -0.550 OA
ATOM      9  O   UNL     1      48.059  44.795  31.403  1.00  0.00    -0.550 OA
ENDBRANCH   6   7
ENDBRANCH   5   6
ENDBRANCH   4   5
ENDBRANCH   3   4
ENDBRANCH   2   3
ENDBRANCH   1   2
BRANCH   1  10
ATOM     10  C   UNL     1      48.214  40.994  37.713  1.00  0.00     0.027 C 
BRANCH  10  11
ATOM     11  C   UNL     1      48.754  40.827  39.107  1.00  0.00    -0.031 C 
ATOM     12  C   UNL     1      48.136  41.395  40.152  1.00  0.00    -0.031 C 
BRANCH  12  13
ATOM     13  C   UNL     1      48.656  41.241  41.556  1.00  0.00     0.027 C 
BRANCH  13  14
ATOM     14  C   UNL     1      47.804  40.274  42.394  1.00  0.00     0.004 C 
BRANCH  14  15
ATOM     15  C   UNL     1      46.356  40.188  41.882  1.00  0.00     0.000 C 
BRANCH  15  16
ATOM     16  C   UNL     1      45.971  38.768  41.435  1.00  0.00    -0.000 C 
BRANCH  16  17
ATOM     17  C   UNL     1      47.196  37.875  41.181  1.00  0.00    -0.003 C 
ATOM     18  C   UNL     1      47.262  37.436  39.722  1.00  0.00     0.004 C 
ENDBRANCH  16  17
ENDBRANCH  15  16
ENDBRANCH  14  15
ENDBRANCH  13  14
ENDBRANCH  12  13
ENDBRANCH  10  11
ENDBRANCH   1  10
TORSDOF 13
ENDMDL
MODEL 6
REMARK VINA RESULT:    -4.415      4.174      9.173
REMARK INTER + INTRA:          -8.953
REMARK INTER:                  -8.009
REMARK INTRA:                  -0.944
REMARK UNBOUND:                -1.183
REMARK SMILES CCCCCCC=CCCCCCCCC(=O)[O-]
REMARK SMILES IDX 10 1 11 2 12 3 13 4 14 5 15 6 16 7 17 8 18 9 9 10 8 11 7 12
REMARK SMILES IDX 6 13 5 14 4 15 3 16 2 17 1 18
REMARK H PARENT
REMARK Flexibility Score: inf
ROOT
ATOM      1  C   UNL     1      47.913  42.050  37.654  1.00  0.00     0.004 C 
ENDROOT
BRANCH   1   2
ATOM      2  C   UNL     1      47.926  42.640  36.235  1.00  0.00     0.000 C 
BRANCH   2   3
ATOM      3  C   UNL     1      46.709  42.203  35.402  1.00  0.00     0.000 C 
BRANCH   3   4
ATOM      4  C   UNL     1      45.831  43.388  34.971  1.00  0.00     0.000 C 
BRANCH   4   5
ATOM      5  C   UNL     1      46.469  44.216  33.842  1.00  0.00     0.006 C 
BRANCH   5   6
ATOM      6  C   UNL     1      46.893  43.343  32.654  1.00  0.00     0.053 C 
BRANCH   6   7
ATOM      7  C   UNL     1      47.535  44.151  31.569  1.00  0.00     0.041 C 
ATOM      8  O   UNL     1      48.437  44.985  31.848  1.00  0.00    -0.550 OA
ATOM      9  O   UNL     1      47.160  43.963  30.244  1.00  0.00    -0.550 OA
ENDBRANCH   6   7
ENDBRANCH   5   6
ENDBRANCH   4   5
ENDBRANCH   3   4
ENDBRANCH   2   3
ENDBRANCH   1   2
BRANCH   1  10
ATOM     10  C   UNL     1      48.684  40.726  37.750  1.00  0.00     0.027 C 
BRANCH  10  11
ATOM     11  C   UNL     1      47.994  39.762  38.676  1.00  0.00    -0.031 C 
ATOM     12  C   UNL     1      47.656  38.534  38.256  1.00  0.00    -0.031 C 
BRANCH  12  13
ATOM     13  C   UNL     1      46.966  37.550  39.162  1.00  0.00     0.027 C 
BRANCH  13  14
ATOM     14  C   UNL     1      47.540  37.566  40.589  1.00  0.00     0.004 C 
BRANCH  14  15
ATOM     15  C   UNL     1      46.541  38.144  41.607  1.00  0.00     0.000 C 
BRANCH  15  16
ATOM     16  C   UNL     1      47.219  39.042  42.654  1.00  0.00    -0.000 C 
BRANCH  16  17
ATOM     17  C   UNL     1      47.355  40.499  42.186  1.00  0.00    -0.003 C 
ATOM     18  C   UNL     1      48.686  41.097  42.630  1.00  0.00     0.004 C 
ENDBRANCH  16  17
ENDBRANCH  15  16
ENDBRANCH  14  15
ENDBRANCH  13  14
ENDBRANCH  12  13
ENDBRANCH  10  11
ENDBRANCH   1  10
TORSDOF 13
ENDMDL
MODEL 7
REMARK VINA RESULT:    -4.410      2.276      3.455
REMARK INTER + INTRA:          -8.944
REMARK INTER:                  -7.508
REMARK INTRA:                  -1.436
REMARK UNBOUND:                -1.183
REMARK SMILES CCCCCCC=CCCCCCCCC(=O)[O-]
REMARK SMILES IDX 10 1 11 2 12 3 13 4 14 5 15 6 16 7 17 8 18 9 9 10 8 11 7 12
REMARK SMILES IDX 6 13 5 14 4 15 3 16 2 17 1 18
REMARK H PARENT
REMARK Flexibility Score: inf
ROOT
ATOM      1  C   UNL     1      47.502  41.401  36.592  1.00  0.00     0.004 C 
ENDROOT
BRANCH   1   2
ATOM      2  C   UNL     1      48.790  40.935  37.290  1.00  0.00     0.000 C 
BRANCH   2   3
ATOM      3  C   UNL     1      48.534  39.814  38.313  1.00  0.00     0.000 C 
BRANCH   3   4
ATOM      4  C   UNL     1      47.696  40.287  39.511  1.00  0.00     0.000 C 
BRANCH   4   5
ATOM      5  C   UNL     1      48.502  41.160  40.489  1.00  0.00     0.006 C 
BRANCH   5   6
ATOM      6  C   UNL     1      47.700  42.374  40.977  1.00  0.00     0.053 C 
BRANCH   6   7
ATOM      7  C   UNL     1      47.186  43.198  39.838  1.00  0.00     0.041 C 
ATOM      8  O   UNL     1      45.950  43.269  39.612  1.00  0.00    -0.550 OA
ATOM      9  O   UNL     1      48.072  43.916  39.042  1.00  0.00    -0.550 OA
ENDBRANCH   6   7
ENDBRANCH   5   6
ENDBRANCH   4   5
ENDBRANCH   3   4
ENDBRANCH   2   3
ENDBRANCH   1   2
BRANCH   1  10
ATOM     10  C   UNL     1      47.676  42.744  35.869  1.00  0.00     0.027 C 
BRANCH  10  11
ATOM     11  C   UNL     1      46.519  43.017  34.946  1.00  0.00    -0.031 C 
ATOM     12  C   UNL     1      46.009  42.041  34.182  1.00  0.00    -0.031 C 
BRANCH  12  13
ATOM     13  C   UNL     1      44.852  42.290  33.252  1.00  0.00     0.027 C 
BRANCH  13  14
ATOM     14  C   UNL     1      45.303  42.499  31.797  1.00  0.00     0.004 C 
BRANCH  14  15
ATOM     15  C   UNL     1      45.069  43.944  31.322  1.00  0.00     0.000 C 
BRANCH  15  16
ATOM     16  C   UNL     1      46.289  44.532  30.597  1.00  0.00    -0.000 C 
BRANCH  16  17
ATOM     17  C   UNL     1      47.621  44.039  31.182  1.00  0.00    -0.003 C 
ATOM     18  C   UNL     1      48.203  45.056  32.158  1.00  0.00     0.004 C 
ENDBRANCH  16  17
ENDBRANCH  15  16
ENDBRANCH  14  15
ENDBRANCH  13  14
ENDBRANCH  12  13
ENDBRANCH  10  11
ENDBRANCH   1  10
TORSDOF 13
ENDMDL
MODEL 8
REMARK VINA RESULT:    -4.399      3.785      8.199
REMARK INTER + INTRA:          -8.924
REMARK INTER:                  -7.513
REMARK INTRA:                  -1.411
REMARK UNBOUND:                -1.183
REMARK SMILES CCCCCCC=CCCCCCCCC(=O)[O-]
REMARK SMILES IDX 10 1 11 2 12 3 13 4 14 5 15 6 16 7 17 8 18 9 9 10 8 11 7 12
REMARK SMILES IDX 6 13 5 14 4 15 3 16 2 17 1 18
REMARK H PARENT
REMARK Flexibility Score: inf
ROOT
ATOM      1  C   UNL     1      46.615  42.881  34.318  1.00  0.00     0.004 C 
ENDROOT
BRANCH   1   2
ATOM      2  C   UNL     1      46.335  44.277  33.741  1.00  0.00     0.000 C 
BRANCH   2   3
ATOM      3  C   UNL     1      47.608  44.966  33.218  1.00  0.00     0.000 C 
BRANCH   3   4
ATOM      4  C   UNL     1      47.995  44.500  31.805  1.00  0.00     0.000 C 
BRANCH   4   5
ATOM      5  C   UNL     1      46.881  44.751  30.774  1.00  0.00     0.006 C 
BRANCH   5   6
ATOM      6  C   UNL     1      46.638  43.532  29.875  1.00  0.00     0.053 C 
BRANCH   6   7
ATOM      7  C   UNL     1      45.645  42.585  30.475  1.00  0.00     0.041 C 
ATOM      8  O   UNL     1      45.913  41.359  30.564  1.00  0.00    -0.550 OA
ATOM      9  O   UNL     1      44.435  43.062  30.966  1.00  0.00    -0.550 OA
ENDBRANCH   6   7
ENDBRANCH   5   6
ENDBRANCH   4   5
ENDBRANCH   3   4
ENDBRANCH   2   3
ENDBRANCH   1   2
BRANCH   1  10
ATOM     10  C   UNL     1      47.616  42.912  35.481  1.00  0.00     0.027 C 
BRANCH  10  11
ATOM     11  C   UNL     1      46.976  42.451  36.762  1.00  0.00    -0.031 C 
ATOM     12  C   UNL     1      47.322  42.999  37.936  1.00  0.00    -0.031 C 
BRANCH  12  13
ATOM     13  C   UNL     1      46.695  42.556  39.230  1.00  0.00     0.027 C 
BRANCH  13  14
ATOM     14  C   UNL     1      47.742  42.248  40.313  1.00  0.00     0.004 C 
BRANCH  14  15
ATOM     15  C   UNL     1      48.608  41.029  39.949  1.00  0.00     0.000 C 
BRANCH  15  16
ATOM     16  C   UNL     1      47.784  39.737  39.822  1.00  0.00    -0.000 C 
BRANCH  16  17
ATOM     17  C   UNL     1      47.982  39.039  38.468  1.00  0.00    -0.003 C 
ATOM     18  C   UNL     1      46.663  38.928  37.709  1.00  0.00     0.004 C 
ENDBRANCH  16  17
ENDBRANCH  15  16
ENDBRANCH  14  15
ENDBRANCH  13  14
ENDBRANCH  12  13
ENDBRANCH  10  11
ENDBRANCH   1  10
TORSDOF 13
ENDMDL
MODEL 9
REMARK VINA RESULT:    -4.375      1.327      2.219
REMARK INTER + INTRA:          -8.884
REMARK INTER:                  -7.633
REMARK INTRA:                  -1.251
REMARK UNBOUND:                -1.183
REMARK SMILES CCCCCCC=CCCCCCCCC(=O)[O-]
REMARK SMILES IDX 10 1 11 2 12 3 13 4 14 5 15 6 16 7 17 8 18 9 9 10 8 11 7 12
REMARK SMILES IDX 6 13 5 14 4 15 3 16 2 17 1 18
REMARK H PARENT
REMARK Flexibility Score: inf
ROOT
ATOM      1  C   UNL     1      46.650  42.873  37.011  1.00  0.00     0.004 C 
ENDROOT
BRANCH   1   2
ATOM      2  C   UNL     1      47.650  42.937  38.176  1.00  0.00     0.000 C 
BRANCH   2   3
ATOM      3  C   UNL     1      47.502  41.753  39.147  1.00  0.00     0.000 C 
BRANCH   3   4
ATOM      4  C   UNL     1      48.136  40.462  38.606  1.00  0.00     0.000 C 
BRANCH   4   5
ATOM      5  C   UNL     1      47.196  39.249  38.724  1.00  0.00     0.006 C 
BRANCH   5   6
ATOM      6  C   UNL     1      47.655  38.265  39.808  1.00  0.00     0.053 C 
BRANCH   6   7
ATOM      7  C   UNL     1      46.972  38.519  41.116  1.00  0.00     0.041 C 
ATOM      8  O   UNL     1      45.889  37.938  41.390  1.00  0.00    -0.550 OA
ATOM      9  O   UNL     1      47.548  39.374  42.049  1.00  0.00    -0.550 OA
ENDBRANCH   6   7
ENDBRANCH   5   6
ENDBRANCH   4   5
ENDBRANCH   3   4
ENDBRANCH   2   3
ENDBRANCH   1   2
BRANCH   1  10
ATOM     10  C   UNL     1      47.335  42.649  35.656  1.00  0.00     0.027 C 
BRANCH  10  11
ATOM     11  C   UNL     1      46.443  43.070  34.520  1.00  0.00    -0.031 C 
ATOM     12  C   UNL     1      45.505  44.011  34.699  1.00  0.00    -0.031 C 
BRANCH  12  13
ATOM     13  C   UNL     1      44.601  44.450  33.578  1.00  0.00     0.027 C 
BRANCH  13  14
ATOM     14  C   UNL     1      44.874  43.684  32.273  1.00  0.00     0.004 C 
BRANCH  14  15
ATOM     15  C   UNL     1      45.382  44.611  31.155  1.00  0.00     0.000 C 
BRANCH  15  16
ATOM     16  C   UNL     1      46.538  43.991  30.354  1.00  0.00    -0.000 C 
BRANCH  16  17
ATOM     17  C   UNL     1      47.802  43.786  31.202  1.00  0.00    -0.003 C 
ATOM     18  C   UNL     1      48.202  45.074  31.914  1.00  0.00     0.004 C 
ENDBRANCH  16  17
ENDBRANCH  15  16
ENDBRANCH  14  15
ENDBRANCH  13  14
ENDBRANCH  12  13
ENDBRANCH  10  11
ENDBRANCH   1  10
TORSDOF 13
ENDMDL
