MODEL 1
REMARK VINA RESULT:    -5.613      0.000      0.000
REMARK INTER + INTRA:          -7.360
REMARK INTER:                  -7.090
REMARK INTRA:                  -0.270
REMARK UNBOUND:                -0.270
REMARK SMILES O=C(C=Cc1ccc(O)cc1)c1ccc(O)cc1O
REMARK SMILES IDX 4 1 3 2 5 3 6 4 7 5 8 6 11 7 10 8 9 9 2 11 1 12 12 13 18 14
REMARK SMILES IDX 13 15 17 16 14 17 15 18 19 19 16 21
REMARK H PARENT 9 10 19 20 16 22
REMARK Flexibility Score: inf
ROOT
ATOM      1  C   UNL     1      74.682  34.541  52.771  1.00  0.00     0.012 C 
ATOM      2  C   UNL     1      75.663  35.454  52.738  1.00  0.00     0.053 C 
ENDROOT
BRANCH   1   3
ATOM      3  C   UNL     1      73.629  34.499  53.816  1.00  0.00    -0.025 A 
ATOM      4  C   UNL     1      73.449  35.540  54.751  1.00  0.00     0.012 A 
ATOM      5  C   UNL     1      72.450  35.448  55.726  1.00  0.00     0.047 A 
ATOM      6  C   UNL     1      71.626  34.318  55.787  1.00  0.00     0.115 A 
ATOM      7  C   UNL     1      72.807  33.363  53.900  1.00  0.00     0.012 A 
ATOM      8  C   UNL     1      71.809  33.277  54.874  1.00  0.00     0.047 A 
BRANCH   6   9
ATOM      9  O   UNL     1      70.627  34.218  56.753  1.00  0.00    -0.508 OA
ATOM     10  H   UNL     1      69.826  34.839  56.753  1.00  0.00     0.293 HD
ENDBRANCH   6   9
ENDBRANCH   1   3
BRANCH   2  11
ATOM     11  C   UNL     1      76.687  35.474  51.672  1.00  0.00     0.189 C 
ATOM     12  O   UNL     1      76.450  36.051  50.575  1.00  0.00    -0.289 OA
BRANCH  11  13
ATOM     13  C   UNL     1      77.985  34.791  51.868  1.00  0.00     0.064 A 
ATOM     14  C   UNL     1      78.079  33.382  51.991  1.00  0.00     0.130 A 
ATOM     15  C   UNL     1      79.155  35.565  51.976  1.00  0.00     0.020 A 
ATOM     16  C   UNL     1      79.321  32.790  52.250  1.00  0.00     0.093 A 
ATOM     17  C   UNL     1      80.389  34.959  52.219  1.00  0.00     0.047 A 
ATOM     18  C   UNL     1      80.474  33.571  52.362  1.00  0.00     0.119 A 
BRANCH  14  19
ATOM     19  O   UNL     1      76.973  32.544  51.835  1.00  0.00    -0.507 OA
ATOM     20  H   UNL     1      76.186  32.539  52.470  1.00  0.00     0.293 HD
ENDBRANCH  14  19
BRANCH  18  21
ATOM     21  O   UNL     1      81.699  32.957  52.612  1.00  0.00    -0.508 OA
ATOM     22  H   UNL     1      82.141  33.008  53.523  1.00  0.00     0.293 HD
ENDBRANCH  18  21
ENDBRANCH  11  13
ENDBRANCH   2  11
TORSDOF 6
ENDMDL
MODEL 2
REMARK VINA RESULT:    -5.004      1.223      1.977
REMARK INTER + INTRA:          -6.590
REMARK INTER:                  -6.099
REMARK INTRA:                  -0.491
REMARK UNBOUND:                -0.270
REMARK SMILES O=C(C=Cc1ccc(O)cc1)c1ccc(O)cc1O
REMARK SMILES IDX 4 1 3 2 5 3 6 4 7 5 8 6 11 7 10 8 9 9 2 11 1 12 12 13 18 14
REMARK SMILES IDX 13 15 17 16 14 17 15 18 19 19 16 21
REMARK H PARENT 9 10 19 20 16 22
REMARK Flexibility Score: inf
ROOT
ATOM      1  C   UNL     1      74.662  35.363  52.799  1.00  0.00     0.012 C 
ATOM      2  C   UNL     1      75.684  34.631  52.334  1.00  0.00     0.053 C 
ENDROOT
BRANCH   1   3
ATOM      3  C   UNL     1      73.656  34.855  53.764  1.00  0.00    -0.025 A 
ATOM      4  C   UNL     1      72.971  33.637  53.574  1.00  0.00     0.012 A 
ATOM      5  C   UNL     1      72.022  33.207  54.506  1.00  0.00     0.047 A 
ATOM      6  C   UNL     1      71.737  33.986  55.634  1.00  0.00     0.115 A 
ATOM      7  C   UNL     1      73.348  35.636  54.891  1.00  0.00     0.012 A 
ATOM      8  C   UNL     1      72.401  35.201  55.822  1.00  0.00     0.047 A 
BRANCH   6   9
ATOM      9  O   UNL     1      70.795  33.564  56.569  1.00  0.00    -0.508 OA
ATOM     10  H   UNL     1      70.751  33.970  57.497  1.00  0.00     0.293 HD
ENDBRANCH   6   9
ENDBRANCH   1   3
BRANCH   2  11
ATOM     11  C   UNL     1      76.676  35.177  51.383  1.00  0.00     0.189 C 
ATOM     12  O   UNL     1      76.361  36.125  50.613  1.00  0.00    -0.289 OA
BRANCH  11  13
ATOM     13  C   UNL     1      78.035  34.597  51.304  1.00  0.00     0.064 A 
ATOM     14  C   UNL     1      78.977  35.024  50.336  1.00  0.00     0.130 A 
ATOM     15  C   UNL     1      78.389  33.563  52.192  1.00  0.00     0.020 A 
ATOM     16  C   UNL     1      80.224  34.392  50.255  1.00  0.00     0.093 A 
ATOM     17  C   UNL     1      79.642  32.953  52.109  1.00  0.00     0.047 A 
ATOM     18  C   UNL     1      80.560  33.362  51.137  1.00  0.00     0.119 A 
BRANCH  14  19
ATOM     19  O   UNL     1      78.721  36.083  49.463  1.00  0.00    -0.507 OA
ATOM     20  H   UNL     1      78.677  37.049  49.760  1.00  0.00     0.293 HD
ENDBRANCH  14  19
BRANCH  18  21
ATOM     21  O   UNL     1      81.810  32.754  51.041  1.00  0.00    -0.508 OA
ATOM     22  H   UNL     1      82.386  32.593  51.859  1.00  0.00     0.293 HD
ENDBRANCH  18  21
ENDBRANCH  11  13
ENDBRANCH   2  11
TORSDOF 6
ENDMDL
MODEL 3
REMARK VINA RESULT:    -4.515      1.821      7.271
REMARK INTER + INTRA:          -5.972
REMARK INTER:                  -6.040
REMARK INTRA:                   0.068
REMARK UNBOUND:                -0.270
REMARK SMILES O=C(C=Cc1ccc(O)cc1)c1ccc(O)cc1O
REMARK SMILES IDX 4 1 3 2 5 3 6 4 7 5 8 6 11 7 10 8 9 9 2 11 1 12 12 13 18 14
REMARK SMILES IDX 13 15 17 16 14 17 15 18 19 19 16 21
REMARK H PARENT 9 10 19 20 16 22
REMARK Flexibility Score: inf
ROOT
ATOM      1  C   UNL     1      75.698  35.690  52.013  1.00  0.00     0.012 C 
ATOM      2  C   UNL     1      74.932  34.831  52.701  1.00  0.00     0.053 C 
ENDROOT
BRANCH   1   3
ATOM      3  C   UNL     1      77.029  35.344  51.456  1.00  0.00    -0.025 A 
ATOM      4  C   UNL     1      77.635  36.089  50.422  1.00  0.00     0.012 A 
ATOM      5  C   UNL     1      78.886  35.714  49.921  1.00  0.00     0.047 A 
ATOM      6  C   UNL     1      79.544  34.591  50.436  1.00  0.00     0.115 A 
ATOM      7  C   UNL     1      77.693  34.209  51.951  1.00  0.00     0.012 A 
ATOM      8  C   UNL     1      78.944  33.840  51.449  1.00  0.00     0.047 A 
BRANCH   6   9
ATOM      9  O   UNL     1      80.791  34.212  49.944  1.00  0.00    -0.508 OA
ATOM     10  H   UNL     1      81.166  34.607  49.089  1.00  0.00     0.293 HD
ENDBRANCH   6   9
ENDBRANCH   1   3
BRANCH   2  11
ATOM     11  C   UNL     1      73.604  35.208  53.229  1.00  0.00     0.189 C 
ATOM     12  O   UNL     1      72.938  36.125  52.675  1.00  0.00    -0.289 OA
BRANCH  11  13
ATOM     13  C   UNL     1      73.058  34.536  54.429  1.00  0.00     0.064 A 
ATOM     14  C   UNL     1      73.281  33.160  54.683  1.00  0.00     0.130 A 
ATOM     15  C   UNL     1      72.261  35.276  55.323  1.00  0.00     0.020 A 
ATOM     16  C   UNL     1      72.681  32.554  55.795  1.00  0.00     0.093 A 
ATOM     17  C   UNL     1      71.682  34.661  56.435  1.00  0.00     0.047 A 
ATOM     18  C   UNL     1      71.886  33.298  56.670  1.00  0.00     0.119 A 
BRANCH  14  19
ATOM     19  O   UNL     1      74.109  32.377  53.877  1.00  0.00    -0.507 OA
ATOM     20  H   UNL     1      73.761  31.781  53.137  1.00  0.00     0.293 HD
ENDBRANCH  14  19
BRANCH  18  21
ATOM     21  O   UNL     1      71.307  32.673  57.772  1.00  0.00    -0.508 OA
ATOM     22  H   UNL     1      70.437  32.158  57.693  1.00  0.00     0.293 HD
ENDBRANCH  18  21
ENDBRANCH  11  13
ENDBRANCH   2  11
TORSDOF 6
ENDMDL
MODEL 4
REMARK VINA RESULT:    -4.317      1.332      1.722
REMARK INTER + INTRA:          -5.722
REMARK INTER:                  -5.314
REMARK INTRA:                  -0.408
REMARK UNBOUND:                -0.270
REMARK SMILES O=C(C=Cc1ccc(O)cc1)c1ccc(O)cc1O
REMARK SMILES IDX 4 1 3 2 5 3 6 4 7 5 8 6 11 7 10 8 9 9 2 11 1 12 12 13 18 14
REMARK SMILES IDX 13 15 17 16 14 17 15 18 19 19 16 21
REMARK H PARENT 9 10 19 20 16 22
REMARK Flexibility Score: inf
ROOT
ATOM      1  C   UNL     1      73.595  34.237  53.656  1.00  0.00     0.012 C 
ATOM      2  C   UNL     1      74.387  35.305  53.490  1.00  0.00     0.053 C 
ENDROOT
BRANCH   1   3
ATOM      3  C   UNL     1      72.847  33.950  54.905  1.00  0.00    -0.025 A 
ATOM      4  C   UNL     1      71.727  34.706  55.308  1.00  0.00     0.012 A 
ATOM      5  C   UNL     1      71.063  34.405  56.502  1.00  0.00     0.047 A 
ATOM      6  C   UNL     1      71.512  33.355  57.312  1.00  0.00     0.115 A 
ATOM      7  C   UNL     1      73.297  32.911  55.737  1.00  0.00     0.012 A 
ATOM      8  C   UNL     1      72.630  32.612  56.928  1.00  0.00     0.047 A 
BRANCH   6   9
ATOM      9  O   UNL     1      70.856  33.047  58.502  1.00  0.00    -0.508 OA
ATOM     10  H   UNL     1      70.358  32.172  58.622  1.00  0.00     0.293 HD
ENDBRANCH   6   9
ENDBRANCH   1   3
BRANCH   2  11
ATOM     11  C   UNL     1      75.105  35.566  52.224  1.00  0.00     0.189 C 
ATOM     12  O   UNL     1      74.511  36.124  51.261  1.00  0.00    -0.289 OA
BRANCH  11  13
ATOM     13  C   UNL     1      76.515  35.147  52.064  1.00  0.00     0.064 A 
ATOM     14  C   UNL     1      76.880  33.785  51.917  1.00  0.00     0.130 A 
ATOM     15  C   UNL     1      77.526  36.125  52.097  1.00  0.00     0.020 A 
ATOM     16  C   UNL     1      78.233  33.434  51.842  1.00  0.00     0.093 A 
ATOM     17  C   UNL     1      78.871  35.760  52.007  1.00  0.00     0.047 A 
ATOM     18  C   UNL     1      79.228  34.414  51.884  1.00  0.00     0.119 A 
BRANCH  14  19
ATOM     19  O   UNL     1      75.931  32.766  51.813  1.00  0.00    -0.507 OA
ATOM     20  H   UNL     1      74.978  32.923  51.514  1.00  0.00     0.293 HD
ENDBRANCH  14  19
BRANCH  18  21
ATOM     21  O   UNL     1      80.567  34.039  51.801  1.00  0.00    -0.508 OA
ATOM     22  H   UNL     1      81.173  34.395  51.071  1.00  0.00     0.293 HD
ENDBRANCH  18  21
ENDBRANCH  11  13
ENDBRANCH   2  11
TORSDOF 6
ENDMDL
MODEL 5
REMARK VINA RESULT:    -3.514     15.598     17.820
REMARK INTER + INTRA:          -4.708
REMARK INTER:                  -3.973
REMARK INTRA:                  -0.735
REMARK UNBOUND:                -0.270
REMARK SMILES O=C(C=Cc1ccc(O)cc1)c1ccc(O)cc1O
REMARK SMILES IDX 4 1 3 2 5 3 6 4 7 5 8 6 11 7 10 8 9 9 2 11 1 12 12 13 18 14
REMARK SMILES IDX 13 15 17 16 14 17 15 18 19 19 16 21
REMARK H PARENT 9 10 19 20 16 22
REMARK Flexibility Score: inf
ROOT
ATOM      1  C   UNL     1      87.314  28.814  64.688  1.00  0.00     0.012 C 
ATOM      2  C   UNL     1      87.339  30.007  64.076  1.00  0.00     0.053 C 
ENDROOT
BRANCH   1   3
ATOM      3  C   UNL     1      87.542  27.525  63.990  1.00  0.00    -0.025 A 
ATOM      4  C   UNL     1      87.931  27.455  62.636  1.00  0.00     0.012 A 
ATOM      5  C   UNL     1      88.121  26.214  62.019  1.00  0.00     0.047 A 
ATOM      6  C   UNL     1      87.917  25.030  62.737  1.00  0.00     0.115 A 
ATOM      7  C   UNL     1      87.324  26.329  64.694  1.00  0.00     0.012 A 
ATOM      8  C   UNL     1      87.516  25.091  64.074  1.00  0.00     0.047 A 
BRANCH   6   9
ATOM      9  O   UNL     1      88.105  23.790  62.131  1.00  0.00    -0.508 OA
ATOM     10  H   UNL     1      88.986  23.292  62.205  1.00  0.00     0.293 HD
ENDBRANCH   6   9
ENDBRANCH   1   3
BRANCH   2  11
ATOM     11  C   UNL     1      87.122  31.273  64.808  1.00  0.00     0.189 C 
ATOM     12  O   UNL     1      87.976  32.199  64.740  1.00  0.00    -0.289 OA
BRANCH  11  13
ATOM     13  C   UNL     1      85.919  31.454  65.649  1.00  0.00     0.064 A 
ATOM     14  C   UNL     1      86.009  31.793  67.022  1.00  0.00     0.130 A 
ATOM     15  C   UNL     1      84.649  31.245  65.080  1.00  0.00     0.020 A 
ATOM     16  C   UNL     1      84.843  31.881  67.793  1.00  0.00     0.093 A 
ATOM     17  C   UNL     1      83.494  31.351  65.858  1.00  0.00     0.047 A 
ATOM     18  C   UNL     1      83.589  31.664  67.217  1.00  0.00     0.119 A 
BRANCH  14  19
ATOM     19  O   UNL     1      87.228  32.075  67.642  1.00  0.00    -0.507 OA
ATOM     20  H   UNL     1      87.360  32.849  68.281  1.00  0.00     0.293 HD
ENDBRANCH  14  19
BRANCH  18  21
ATOM     21  O   UNL     1      82.444  31.764  68.004  1.00  0.00    -0.508 OA
ATOM     22  H   UNL     1      81.945  30.941  68.322  1.00  0.00     0.293 HD
ENDBRANCH  18  21
ENDBRANCH  11  13
ENDBRANCH   2  11
TORSDOF 6
ENDMDL
MODEL 6
REMARK VINA RESULT:    -3.428      2.073      2.626
REMARK INTER + INTRA:          -4.599
REMARK INTER:                  -4.067
REMARK INTRA:                  -0.532
REMARK UNBOUND:                -0.270
REMARK SMILES O=C(C=Cc1ccc(O)cc1)c1ccc(O)cc1O
REMARK SMILES IDX 4 1 3 2 5 3 6 4 7 5 8 6 11 7 10 8 9 9 2 11 1 12 12 13 18 14
REMARK SMILES IDX 13 15 17 16 14 17 15 18 19 19 16 21
REMARK H PARENT 9 10 19 20 16 22
REMARK Flexibility Score: inf
ROOT
ATOM      1  C   UNL     1      73.245  34.731  53.672  1.00  0.00     0.012 C 
ATOM      2  C   UNL     1      74.493  35.191  53.500  1.00  0.00     0.053 C 
ENDROOT
BRANCH   1   3
ATOM      3  C   UNL     1      72.737  34.186  54.955  1.00  0.00    -0.025 A 
ATOM      4  C   UNL     1      73.391  33.147  55.649  1.00  0.00     0.012 A 
ATOM      5  C   UNL     1      72.865  32.659  56.850  1.00  0.00     0.047 A 
ATOM      6  C   UNL     1      71.680  33.193  57.370  1.00  0.00     0.115 A 
ATOM      7  C   UNL     1      71.540  34.702  55.479  1.00  0.00     0.012 A 
ATOM      8  C   UNL     1      71.019  34.213  56.680  1.00  0.00     0.047 A 
BRANCH   6   9
ATOM      9  O   UNL     1      71.150  32.715  58.566  1.00  0.00    -0.508 OA
ATOM     10  H   UNL     1      70.213  32.332  58.615  1.00  0.00     0.293 HD
ENDBRANCH   6   9
ENDBRANCH   1   3
BRANCH   2  11
ATOM     11  C   UNL     1      74.959  35.740  52.209  1.00  0.00     0.189 C 
ATOM     12  O   UNL     1      74.126  36.061  51.318  1.00  0.00    -0.289 OA
BRANCH  11  13
ATOM     13  C   UNL     1      76.406  35.888  51.938  1.00  0.00     0.064 A 
ATOM     14  C   UNL     1      76.912  36.023  50.621  1.00  0.00     0.130 A 
ATOM     15  C   UNL     1      77.310  35.854  53.016  1.00  0.00     0.020 A 
ATOM     16  C   UNL     1      78.295  36.086  50.413  1.00  0.00     0.093 A 
ATOM     17  C   UNL     1      78.686  35.934  52.794  1.00  0.00     0.047 A 
ATOM     18  C   UNL     1      79.182  36.044  51.491  1.00  0.00     0.119 A 
BRANCH  14  19
ATOM     19  O   UNL     1      76.076  36.125  49.507  1.00  0.00    -0.507 OA
ATOM     20  H   UNL     1      76.082  35.459  48.746  1.00  0.00     0.293 HD
ENDBRANCH  14  19
BRANCH  18  21
ATOM     21  O   UNL     1      80.554  36.116  51.257  1.00  0.00    -0.508 OA
ATOM     22  H   UNL     1      80.986  36.956  50.892  1.00  0.00     0.293 HD
ENDBRANCH  18  21
ENDBRANCH  11  13
ENDBRANCH   2  11
TORSDOF 6
ENDMDL
MODEL 7
REMARK VINA RESULT:    -3.115      1.535      2.308
REMARK INTER + INTRA:          -4.205
REMARK INTER:                  -3.654
REMARK INTRA:                  -0.551
REMARK UNBOUND:                -0.270
REMARK SMILES O=C(C=Cc1ccc(O)cc1)c1ccc(O)cc1O
REMARK SMILES IDX 4 1 3 2 5 3 6 4 7 5 8 6 11 7 10 8 9 9 2 11 1 12 12 13 18 14
REMARK SMILES IDX 13 15 17 16 14 17 15 18 19 19 16 21
REMARK H PARENT 9 10 19 20 16 22
REMARK Flexibility Score: inf
ROOT
ATOM      1  C   UNL     1      73.500  33.975  53.649  1.00  0.00     0.012 C 
ATOM      2  C   UNL     1      74.474  34.893  53.573  1.00  0.00     0.053 C 
ENDROOT
BRANCH   1   3
ATOM      3  C   UNL     1      72.610  33.813  54.825  1.00  0.00    -0.025 A 
ATOM      4  C   UNL     1      73.086  33.393  56.085  1.00  0.00     0.012 A 
ATOM      5  C   UNL     1      72.204  33.243  57.160  1.00  0.00     0.047 A 
ATOM      6  C   UNL     1      70.838  33.502  56.993  1.00  0.00     0.115 A 
ATOM      7  C   UNL     1      71.234  34.053  54.667  1.00  0.00     0.012 A 
ATOM      8  C   UNL     1      70.357  33.904  55.745  1.00  0.00     0.047 A 
BRANCH   6   9
ATOM      9  O   UNL     1      69.953  33.358  58.058  1.00  0.00    -0.508 OA
ATOM     10  H   UNL     1      69.623  32.446  58.353  1.00  0.00     0.293 HD
ENDBRANCH   6   9
ENDBRANCH   1   3
BRANCH   2  11
ATOM     11  C   UNL     1      75.333  35.034  52.378  1.00  0.00     0.189 C 
ATOM     12  O   UNL     1      75.025  35.853  51.469  1.00  0.00    -0.289 OA
BRANCH  11  13
ATOM     13  C   UNL     1      76.543  34.196  52.223  1.00  0.00     0.064 A 
ATOM     14  C   UNL     1      77.796  34.749  51.860  1.00  0.00     0.130 A 
ATOM     15  C   UNL     1      76.436  32.804  52.402  1.00  0.00     0.020 A 
ATOM     16  C   UNL     1      78.893  33.904  51.655  1.00  0.00     0.093 A 
ATOM     17  C   UNL     1      77.544  31.976  52.208  1.00  0.00     0.047 A 
ATOM     18  C   UNL     1      78.773  32.523  51.829  1.00  0.00     0.119 A 
BRANCH  14  19
ATOM     19  O   UNL     1      77.993  36.125  51.724  1.00  0.00    -0.507 OA
ATOM     20  H   UNL     1      77.259  36.807  51.864  1.00  0.00     0.293 HD
ENDBRANCH  14  19
BRANCH  18  21
ATOM     21  O   UNL     1      79.882  31.705  51.624  1.00  0.00    -0.508 OA
ATOM     22  H   UNL     1      80.470  31.408  52.394  1.00  0.00     0.293 HD
ENDBRANCH  18  21
ENDBRANCH  11  13
ENDBRANCH   2  11
TORSDOF 6
ENDMDL
MODEL 8
REMARK VINA RESULT:    -2.628     15.113     17.572
REMARK INTER + INTRA:          -3.589
REMARK INTER:                  -3.303
REMARK INTRA:                  -0.286
REMARK UNBOUND:                -0.270
REMARK SMILES O=C(C=Cc1ccc(O)cc1)c1ccc(O)cc1O
REMARK SMILES IDX 4 1 3 2 5 3 6 4 7 5 8 6 11 7 10 8 9 9 2 11 1 12 12 13 18 14
REMARK SMILES IDX 13 15 17 16 14 17 15 18 19 19 16 21
REMARK H PARENT 9 10 19 20 16 22
REMARK Flexibility Score: inf
ROOT
ATOM      1  C   UNL     1      87.843  28.583  65.201  1.00  0.00     0.012 C 
ATOM      2  C   UNL     1      87.144  29.698  64.944  1.00  0.00     0.053 C 
ENDROOT
BRANCH   1   3
ATOM      3  C   UNL     1      87.898  27.416  64.286  1.00  0.00    -0.025 A 
ATOM      4  C   UNL     1      87.834  26.086  64.750  1.00  0.00     0.012 A 
ATOM      5  C   UNL     1      87.903  25.019  63.849  1.00  0.00     0.047 A 
ATOM      6  C   UNL     1      88.045  25.262  62.478  1.00  0.00     0.115 A 
ATOM      7  C   UNL     1      88.058  27.646  62.909  1.00  0.00     0.012 A 
ATOM      8  C   UNL     1      88.125  26.576  62.012  1.00  0.00     0.047 A 
BRANCH   6   9
ATOM      9  O   UNL     1      88.113  24.205  61.572  1.00  0.00    -0.508 OA
ATOM     10  H   UNL     1      87.981  24.350  60.578  1.00  0.00     0.293 HD
ENDBRANCH   6   9
ENDBRANCH   1   3
BRANCH   2  11
ATOM     11  C   UNL     1      87.125  30.848  65.873  1.00  0.00     0.189 C 
ATOM     12  O   UNL     1      87.178  30.657  67.119  1.00  0.00    -0.289 OA
BRANCH  11  13
ATOM     13  C   UNL     1      87.011  32.228  65.354  1.00  0.00     0.064 A 
ATOM     14  C   UNL     1      85.918  32.639  64.550  1.00  0.00     0.130 A 
ATOM     15  C   UNL     1      88.037  33.150  65.632  1.00  0.00     0.020 A 
ATOM     16  C   UNL     1      85.893  33.935  64.022  1.00  0.00     0.093 A 
ATOM     17  C   UNL     1      87.992  34.444  65.110  1.00  0.00     0.047 A 
ATOM     18  C   UNL     1      86.922  34.838  64.300  1.00  0.00     0.119 A 
BRANCH  14  19
ATOM     19  O   UNL     1      84.833  31.801  64.282  1.00  0.00    -0.507 OA
ATOM     20  H   UNL     1      83.871  32.109  64.322  1.00  0.00     0.293 HD
ENDBRANCH  14  19
BRANCH  18  21
ATOM     21  O   UNL     1      86.871  36.125  63.768  1.00  0.00    -0.508 OA
ATOM     22  H   UNL     1      86.006  36.520  63.418  1.00  0.00     0.293 HD
ENDBRANCH  18  21
ENDBRANCH  11  13
ENDBRANCH   2  11
TORSDOF 6
ENDMDL
