MODEL 1
REMARK VINA RESULT:    -3.699      0.000      0.000
REMARK INTER + INTRA:          -4.849
REMARK INTER:                  -4.780
REMARK INTRA:                  -0.069
REMARK UNBOUND:                -0.069
REMARK SMILES CCCCCCC(=O)[O-]
REMARK SMILES IDX 5 1 6 2 7 3 8 4 9 5 4 6 3 7 2 8 1 9
REMARK H PARENT
REMARK Flexibility Score: inf
ROOT
ATOM      1  C   UNL     1      17.541  11.625 -13.916  1.00  0.00     0.006 C 
ENDROOT
BRANCH   1   2
ATOM      2  C   UNL     1      16.222  11.954 -14.621  1.00  0.00     0.053 C 
BRANCH   2   3
ATOM      3  C   UNL     1      15.132  11.048 -14.143  1.00  0.00     0.041 C 
ATOM      4  O   UNL     1      14.085  11.529 -13.633  1.00  0.00    -0.550 OA
ATOM      5  O   UNL     1      15.291   9.670 -14.216  1.00  0.00    -0.550 OA
ENDBRANCH   2   3
ENDBRANCH   1   2
BRANCH   1   6
ATOM      6  C   UNL     1      18.708  12.396 -14.544  1.00  0.00     0.000 C 
BRANCH   6   7
ATOM      7  C   UNL     1      19.942  12.367 -13.628  1.00  0.00    -0.000 C 
BRANCH   7   8
ATOM      8  C   UNL     1      20.931  13.501 -13.934  1.00  0.00    -0.003 C 
ATOM      9  C   UNL     1      22.162  13.475 -13.028  1.00  0.00     0.004 C 
ENDBRANCH   7   8
ENDBRANCH   6   7
ENDBRANCH   1   6
TORSDOF 5
ENDMDL
MODEL 2
REMARK VINA RESULT:    -3.640      2.317      3.179
REMARK INTER + INTRA:          -4.773
REMARK INTER:                  -4.409
REMARK INTRA:                  -0.365
REMARK UNBOUND:                -0.069
REMARK SMILES CCCCCCC(=O)[O-]
REMARK SMILES IDX 5 1 6 2 7 3 8 4 9 5 4 6 3 7 2 8 1 9
REMARK H PARENT
REMARK Flexibility Score: inf
ROOT
ATOM      1  C   UNL     1      14.492  11.246 -13.814  1.00  0.00     0.006 C 
ENDROOT
BRANCH   1   2
ATOM      2  C   UNL     1      14.660  10.356 -15.049  1.00  0.00     0.053 C 
BRANCH   2   3
ATOM      3  C   UNL     1      15.222   9.025 -14.664  1.00  0.00     0.041 C 
ATOM      4  O   UNL     1      14.505   7.991 -14.731  1.00  0.00    -0.550 OA
ATOM      5  O   UNL     1      16.522   8.931 -14.183  1.00  0.00    -0.550 OA
ENDBRANCH   2   3
ENDBRANCH   1   2
BRANCH   1   6
ATOM      6  C   UNL     1      15.592  12.313 -13.750  1.00  0.00     0.000 C 
BRANCH   6   7
ATOM      7  C   UNL     1      16.271  12.485 -15.117  1.00  0.00    -0.000 C 
BRANCH   7   8
ATOM      8  C   UNL     1      17.804  12.462 -15.021  1.00  0.00    -0.003 C 
ATOM      9  C   UNL     1      18.307  11.864 -13.707  1.00  0.00     0.004 C 
ENDBRANCH   7   8
ENDBRANCH   6   7
ENDBRANCH   1   6
TORSDOF 5
ENDMDL
MODEL 3
REMARK VINA RESULT:    -3.626      0.761      1.317
REMARK INTER + INTRA:          -4.755
REMARK INTER:                  -4.628
REMARK INTRA:                  -0.127
REMARK UNBOUND:                -0.069
REMARK SMILES CCCCCCC(=O)[O-]
REMARK SMILES IDX 5 1 6 2 7 3 8 4 9 5 4 6 3 7 2 8 1 9
REMARK H PARENT
REMARK Flexibility Score: inf
ROOT
ATOM      1  C   UNL     1      17.060  12.138 -14.522  1.00  0.00     0.006 C 
ENDROOT
BRANCH   1   2
ATOM      2  C   UNL     1      15.948  11.374 -15.245  1.00  0.00     0.053 C 
BRANCH   2   3
ATOM      3  C   UNL     1      15.025  10.732 -14.259  1.00  0.00     0.041 C 
ATOM      4  O   UNL     1      14.983   9.477 -14.153  1.00  0.00    -0.550 OA
ATOM      5  O   UNL     1      14.174  11.516 -13.491  1.00  0.00    -0.550 OA
ENDBRANCH   2   3
ENDBRANCH   1   2
BRANCH   1   6
ATOM      6  C   UNL     1      18.337  11.293 -14.427  1.00  0.00     0.000 C 
BRANCH   6   7
ATOM      7  C   UNL     1      19.334  11.914 -13.436  1.00  0.00    -0.000 C 
BRANCH   7   8
ATOM      8  C   UNL     1      20.186  13.023 -14.073  1.00  0.00    -0.003 C 
ATOM      9  C   UNL     1      21.516  13.236 -13.351  1.00  0.00     0.004 C 
ENDBRANCH   7   8
ENDBRANCH   6   7
ENDBRANCH   1   6
TORSDOF 5
ENDMDL
MODEL 4
REMARK VINA RESULT:    -3.561      1.371      1.638
REMARK INTER + INTRA:          -4.670
REMARK INTER:                  -4.452
REMARK INTRA:                  -0.219
REMARK UNBOUND:                -0.069
REMARK SMILES CCCCCCC(=O)[O-]
REMARK SMILES IDX 5 1 6 2 7 3 8 4 9 5 4 6 3 7 2 8 1 9
REMARK H PARENT
REMARK Flexibility Score: inf
ROOT
ATOM      1  C   UNL     1      18.070  11.320 -13.806  1.00  0.00     0.006 C 
ENDROOT
BRANCH   1   2
ATOM      2  C   UNL     1      17.425  11.895 -15.070  1.00  0.00     0.053 C 
BRANCH   2   3
ATOM      3  C   UNL     1      16.044  12.388 -14.777  1.00  0.00     0.041 C 
ATOM      4  O   UNL     1      15.327  12.854 -15.702  1.00  0.00    -0.550 OA
ATOM      5  O   UNL     1      15.565  12.380 -13.472  1.00  0.00    -0.550 OA
ENDBRANCH   2   3
ENDBRANCH   1   2
BRANCH   1   6
ATOM      6  C   UNL     1      19.398  12.021 -13.498  1.00  0.00     0.000 C 
BRANCH   6   7
ATOM      7  C   UNL     1      19.754  13.032 -14.598  1.00  0.00    -0.000 C 
BRANCH   7   8
ATOM      8  C   UNL     1      20.982  13.885 -14.241  1.00  0.00    -0.003 C 
ATOM      9  C   UNL     1      21.846  13.252 -13.151  1.00  0.00     0.004 C 
ENDBRANCH   7   8
ENDBRANCH   6   7
ENDBRANCH   1   6
TORSDOF 5
ENDMDL
MODEL 5
REMARK VINA RESULT:    -3.546      2.697      4.920
REMARK INTER + INTRA:          -4.652
REMARK INTER:                  -4.245
REMARK INTRA:                  -0.406
REMARK UNBOUND:                -0.069
REMARK SMILES CCCCCCC(=O)[O-]
REMARK SMILES IDX 5 1 6 2 7 3 8 4 9 5 4 6 3 7 2 8 1 9
REMARK H PARENT
REMARK Flexibility Score: inf
ROOT
ATOM      1  C   UNL     1      16.270  12.394 -15.158  1.00  0.00     0.006 C 
ENDROOT
BRANCH   1   2
ATOM      2  C   UNL     1      17.779  12.545 -14.947  1.00  0.00     0.053 C 
BRANCH   2   3
ATOM      3  C   UNL     1      18.294  11.463 -14.052  1.00  0.00     0.041 C 
ATOM      4  O   UNL     1      18.885  11.756 -12.979  1.00  0.00    -0.550 OA
ATOM      5  O   UNL     1      18.166  10.131 -14.426  1.00  0.00    -0.550 OA
ENDBRANCH   2   3
ENDBRANCH   1   2
BRANCH   1   6
ATOM      6  C   UNL     1      15.521  12.423 -13.820  1.00  0.00     0.000 C 
BRANCH   6   7
ATOM      7  C   UNL     1      14.460  11.314 -13.760  1.00  0.00    -0.000 C 
BRANCH   7   8
ATOM      8  C   UNL     1      14.570  10.328 -14.933  1.00  0.00    -0.003 C 
ATOM      9  C   UNL     1      14.905   8.906 -14.483  1.00  0.00     0.004 C 
ENDBRANCH   7   8
ENDBRANCH   6   7
ENDBRANCH   1   6
TORSDOF 5
ENDMDL
MODEL 6
REMARK VINA RESULT:    -3.388      3.353      5.592
REMARK INTER + INTRA:          -4.448
REMARK INTER:                  -4.312
REMARK INTRA:                  -0.136
REMARK UNBOUND:                -0.069
REMARK SMILES CCCCCCC(=O)[O-]
REMARK SMILES IDX 5 1 6 2 7 3 8 4 9 5 4 6 3 7 2 8 1 9
REMARK H PARENT
REMARK Flexibility Score: inf
ROOT
ATOM      1  C   UNL     1      18.160  12.369 -14.549  1.00  0.00     0.006 C 
ENDROOT
BRANCH   1   2
ATOM      2  C   UNL     1      19.361  12.077 -13.645  1.00  0.00     0.053 C 
BRANCH   2   3
ATOM      3  C   UNL     1      20.422  13.114 -13.830  1.00  0.00     0.041 C 
ATOM      4  O   UNL     1      20.280  14.020 -14.694  1.00  0.00    -0.550 OA
ATOM      5  O   UNL     1      21.592  13.053 -13.083  1.00  0.00    -0.550 OA
ENDBRANCH   2   3
ENDBRANCH   1   2
BRANCH   1   6
ATOM      6  C   UNL     1      16.845  11.986 -13.860  1.00  0.00     0.000 C 
BRANCH   6   7
ATOM      7  C   UNL     1      15.678  11.999 -14.857  1.00  0.00    -0.000 C 
BRANCH   7   8
ATOM      8  C   UNL     1      14.546  11.041 -14.454  1.00  0.00    -0.003 C 
ATOM      9  C   UNL     1      15.015   9.593 -14.317  1.00  0.00     0.004 C 
ENDBRANCH   7   8
ENDBRANCH   6   7
ENDBRANCH   1   6
TORSDOF 5
ENDMDL
MODEL 7
REMARK VINA RESULT:    -3.364      3.891      5.914
REMARK INTER + INTRA:          -4.416
REMARK INTER:                  -4.338
REMARK INTRA:                  -0.078
REMARK UNBOUND:                -0.069
REMARK SMILES CCCCCCC(=O)[O-]
REMARK SMILES IDX 5 1 6 2 7 3 8 4 9 5 4 6 3 7 2 8 1 9
REMARK H PARENT
REMARK Flexibility Score: inf
ROOT
ATOM      1  C   UNL     1      19.232  12.762 -14.579  1.00  0.00     0.006 C 
ENDROOT
BRANCH   1   2
ATOM      2  C   UNL     1      20.488  12.900 -13.714  1.00  0.00     0.053 C 
BRANCH   2   3
ATOM      3  C   UNL     1      21.341  14.027 -14.203  1.00  0.00     0.041 C 
ATOM      4  O   UNL     1      22.478  14.226 -13.700  1.00  0.00    -0.550 OA
ATOM      5  O   UNL     1      20.860  14.890 -15.180  1.00  0.00    -0.550 OA
ENDBRANCH   2   3
ENDBRANCH   1   2
BRANCH   1   6
ATOM      6  C   UNL     1      18.161  11.928 -13.866  1.00  0.00     0.000 C 
BRANCH   6   7
ATOM      7  C   UNL     1      16.811  12.031 -14.592  1.00  0.00    -0.000 C 
BRANCH   7   8
ATOM      8  C   UNL     1      15.641  12.284 -13.629  1.00  0.00    -0.003 C 
ATOM      9  C   UNL     1      14.463  11.339 -13.867  1.00  0.00     0.004 C 
ENDBRANCH   7   8
ENDBRANCH   6   7
ENDBRANCH   1   6
TORSDOF 5
ENDMDL
MODEL 8
REMARK VINA RESULT:    -3.330      1.268      1.692
REMARK INTER + INTRA:          -4.372
REMARK INTER:                  -4.131
REMARK INTRA:                  -0.241
REMARK UNBOUND:                -0.069
REMARK SMILES CCCCCCC(=O)[O-]
REMARK SMILES IDX 5 1 6 2 7 3 8 4 9 5 4 6 3 7 2 8 1 9
REMARK H PARENT
REMARK Flexibility Score: inf
ROOT
ATOM      1  C   UNL     1      18.136  12.740 -15.067  1.00  0.00     0.006 C 
ENDROOT
BRANCH   1   2
ATOM      2  C   UNL     1      17.599  11.872 -13.926  1.00  0.00     0.053 C 
BRANCH   2   3
ATOM      3  C   UNL     1      17.035  10.594 -14.459  1.00  0.00     0.041 C 
ATOM      4  O   UNL     1      15.788  10.422 -14.505  1.00  0.00    -0.550 OA
ATOM      5  O   UNL     1      17.886   9.571 -14.860  1.00  0.00    -0.550 OA
ENDBRANCH   2   3
ENDBRANCH   1   2
BRANCH   1   6
ATOM      6  C   UNL     1      19.661  12.880 -14.983  1.00  0.00     0.000 C 
BRANCH   6   7
ATOM      7  C   UNL     1      20.161  12.599 -13.558  1.00  0.00    -0.000 C 
BRANCH   7   8
ATOM      8  C   UNL     1      21.585  13.123 -13.318  1.00  0.00    -0.003 C 
ATOM      9  C   UNL     1      21.888  14.397 -14.107  1.00  0.00     0.004 C 
ENDBRANCH   7   8
ENDBRANCH   6   7
ENDBRANCH   1   6
TORSDOF 5
ENDMDL
MODEL 9
REMARK VINA RESULT:    -3.319     11.722     12.960
REMARK INTER + INTRA:          -4.358
REMARK INTER:                  -4.024
REMARK INTRA:                  -0.333
REMARK UNBOUND:                -0.069
REMARK SMILES CCCCCCC(=O)[O-]
REMARK SMILES IDX 5 1 6 2 7 3 8 4 9 5 4 6 3 7 2 8 1 9
REMARK H PARENT
REMARK Flexibility Score: inf
ROOT
ATOM      1  C   UNL     1       7.007  10.107 -12.822  1.00  0.00     0.006 C 
ENDROOT
BRANCH   1   2
ATOM      2  C   UNL     1       6.605  10.181 -14.298  1.00  0.00     0.053 C 
BRANCH   2   3
ATOM      3  C   UNL     1       5.298  10.891 -14.450  1.00  0.00     0.041 C 
ATOM      4  O   UNL     1       4.400  10.764 -13.575  1.00  0.00    -0.550 OA
ATOM      5  O   UNL     1       5.050  11.655 -15.584  1.00  0.00    -0.550 OA
ENDBRANCH   2   3
ENDBRANCH   1   2
BRANCH   1   6
ATOM      6  C   UNL     1       7.324   8.665 -12.408  1.00  0.00     0.000 C 
BRANCH   6   7
ATOM      7  C   UNL     1       6.040   7.902 -12.049  1.00  0.00    -0.000 C 
BRANCH   7   8
ATOM      8  C   UNL     1       5.462   8.326 -10.690  1.00  0.00    -0.003 C 
ATOM      9  C   UNL     1       3.972   8.663 -10.759  1.00  0.00     0.004 C 
ENDBRANCH   7   8
ENDBRANCH   6   7
ENDBRANCH   1   6
TORSDOF 5
ENDMDL
