MODEL 1
REMARK VINA RESULT:    -0.853      0.000      0.000
REMARK INTER + INTRA:          -3.896
REMARK INTER:                  -1.650
REMARK INTRA:                  -2.246
REMARK UNBOUND:                -2.246
REMARK SMILES CCCCCCCCCCCCCCCCCC(=O)[O-]
REMARK SMILES IDX 10 1 11 2 12 3 13 4 14 5 15 6 16 7 17 8 18 9 19 10 20 11
REMARK SMILES IDX 9 12 8 13 7 14 6 15 5 16 4 17 3 18 2 19 1 20
REMARK H PARENT
REMARK Flexibility Score: inf
ROOT
ATOM      1  C   UNL     1     -53.096 122.971 -10.129  1.00  0.00     0.000 C 
ENDROOT
BRANCH   1   2
ATOM      2  C   UNL     1     -54.407 123.279 -10.875  1.00  0.00     0.000 C 
BRANCH   2   3
ATOM      3  C   UNL     1     -54.618 122.390 -12.113  1.00  0.00     0.000 C 
BRANCH   3   4
ATOM      4  C   UNL     1     -53.689 121.165 -12.123  1.00  0.00     0.000 C 
BRANCH   4   5
ATOM      5  C   UNL     1     -54.391 119.883 -11.642  1.00  0.00     0.000 C 
BRANCH   5   6
ATOM      6  C   UNL     1     -55.869 119.826 -12.061  1.00  0.00     0.000 C 
BRANCH   6   7
ATOM      7  C   UNL     1     -56.797 119.433 -10.898  1.00  0.00     0.006 C 
BRANCH   7   8
ATOM      8  C   UNL     1     -56.260 119.910  -9.542  1.00  0.00     0.053 C 
BRANCH   8   9
ATOM      9  C   UNL     1     -56.700 121.310  -9.234  1.00  0.00     0.041 C 
ATOM     10  O   UNL     1     -57.391 121.955 -10.065  1.00  0.00    -0.550 OA
ATOM     11  O   UNL     1     -56.375 121.887  -8.013  1.00  0.00    -0.550 OA
ENDBRANCH   8   9
ENDBRANCH   7   8
ENDBRANCH   6   7
ENDBRANCH   5   6
ENDBRANCH   4   5
ENDBRANCH   3   4
ENDBRANCH   2   3
ENDBRANCH   1   2
BRANCH   1  12
ATOM     12  C   UNL     1     -53.259 122.507  -8.670  1.00  0.00     0.000 C 
BRANCH  12  13
ATOM     13  C   UNL     1     -52.198 123.102  -7.729  1.00  0.00    -0.000 C 
BRANCH  13  14
ATOM     14  C   UNL     1     -51.533 124.368  -8.299  1.00  0.00    -0.000 C 
BRANCH  14  15
ATOM     15  C   UNL     1     -50.034 124.527  -7.972  1.00  0.00    -0.000 C 
BRANCH  15  16
ATOM     16  C   UNL     1     -49.106 124.671  -9.194  1.00  0.00    -0.000 C 
BRANCH  16  17
ATOM     17  C   UNL     1     -48.877 123.375  -9.991  1.00  0.00    -0.000 C 
BRANCH  17  18
ATOM     18  C   UNL     1     -49.667 123.337 -11.307  1.00  0.00    -0.000 C 
BRANCH  18  19
ATOM     19  C   UNL     1     -50.126 121.910 -11.631  1.00  0.00    -0.003 C 
ATOM     20  C   UNL     1     -50.104 121.028 -10.386  1.00  0.00     0.004 C 
ENDBRANCH  18  19
ENDBRANCH  17  18
ENDBRANCH  16  17
ENDBRANCH  15  16
ENDBRANCH  14  15
ENDBRANCH  13  14
ENDBRANCH  12  13
ENDBRANCH   1  12
TORSDOF 16
ENDMDL
MODEL 2
REMARK VINA RESULT:    -0.686      1.827      2.941
REMARK INTER + INTRA:          -3.574
REMARK INTER:                  -2.962
REMARK INTRA:                  -0.611
REMARK UNBOUND:                -2.246
REMARK SMILES CCCCCCCCCCCCCCCCCC(=O)[O-]
REMARK SMILES IDX 10 1 11 2 12 3 13 4 14 5 15 6 16 7 17 8 18 9 19 10 20 11
REMARK SMILES IDX 9 12 8 13 7 14 6 15 5 16 4 17 3 18 2 19 1 20
REMARK H PARENT
REMARK Flexibility Score: inf
ROOT
ATOM      1  C   UNL     1     -55.400 121.807  -8.434  1.00  0.00     0.000 C 
ENDROOT
BRANCH   1   2
ATOM      2  C   UNL     1     -56.710 121.676  -9.233  1.00  0.00     0.000 C 
BRANCH   2   3
ATOM      3  C   UNL     1     -57.076 120.217  -9.553  1.00  0.00     0.000 C 
BRANCH   3   4
ATOM      4  C   UNL     1     -57.796 120.072 -10.903  1.00  0.00     0.000 C 
BRANCH   4   5
ATOM      5  C   UNL     1     -56.913 120.480 -12.095  1.00  0.00     0.000 C 
BRANCH   5   6
ATOM      6  C   UNL     1     -55.573 119.728 -12.123  1.00  0.00     0.000 C 
BRANCH   6   7
ATOM      7  C   UNL     1     -54.363 120.677 -12.074  1.00  0.00     0.006 C 
BRANCH   7   8
ATOM      8  C   UNL     1     -53.062 119.939 -11.736  1.00  0.00     0.053 C 
BRANCH   8   9
ATOM      9  C   UNL     1     -52.910 119.732 -10.259  1.00  0.00     0.041 C 
ATOM     10  O   UNL     1     -52.120 120.454  -9.595  1.00  0.00    -0.550 OA
ATOM     11  O   UNL     1     -53.668 118.765  -9.611  1.00  0.00    -0.550 OA
ENDBRANCH   8   9
ENDBRANCH   7   8
ENDBRANCH   6   7
ENDBRANCH   5   6
ENDBRANCH   4   5
ENDBRANCH   3   4
ENDBRANCH   2   3
ENDBRANCH   1   2
BRANCH   1  12
ATOM     12  C   UNL     1     -54.236 122.483  -9.181  1.00  0.00     0.000 C 
BRANCH  12  13
ATOM     13  C   UNL     1     -53.341 123.328  -8.258  1.00  0.00    -0.000 C 
BRANCH  13  14
ATOM     14  C   UNL     1     -51.848 122.974  -8.384  1.00  0.00    -0.000 C 
BRANCH  14  15
ATOM     15  C   UNL     1     -50.903 124.176  -8.581  1.00  0.00    -0.000 C 
BRANCH  15  16
ATOM     16  C   UNL     1     -49.446 123.816  -8.936  1.00  0.00    -0.000 C 
BRANCH  16  17
ATOM     17  C   UNL     1     -48.875 124.553 -10.160  1.00  0.00    -0.000 C 
BRANCH  17  18
ATOM     18  C   UNL     1     -48.882 123.692 -11.431  1.00  0.00    -0.000 C 
BRANCH  18  19
ATOM     19  C   UNL     1     -49.906 122.556 -11.319  1.00  0.00    -0.003 C 
ATOM     20  C   UNL     1     -51.169 122.872 -12.113  1.00  0.00     0.004 C 
ENDBRANCH  18  19
ENDBRANCH  17  18
ENDBRANCH  16  17
ENDBRANCH  15  16
ENDBRANCH  14  15
ENDBRANCH  13  14
ENDBRANCH  12  13
ENDBRANCH   1  12
TORSDOF 16
ENDMDL
MODEL 3
REMARK VINA RESULT:    -0.664      1.513      2.247
REMARK INTER + INTRA:          -3.532
REMARK INTER:                  -1.657
REMARK INTRA:                  -1.875
REMARK UNBOUND:                -2.246
REMARK SMILES CCCCCCCCCCCCCCCCCC(=O)[O-]
REMARK SMILES IDX 10 1 11 2 12 3 13 4 14 5 15 6 16 7 17 8 18 9 19 10 20 11
REMARK SMILES IDX 9 12 8 13 7 14 6 15 5 16 4 17 3 18 2 19 1 20
REMARK H PARENT
REMARK Flexibility Score: inf
ROOT
ATOM      1  C   UNL     1     -54.194 120.894  -8.596  1.00  0.00     0.000 C 
ENDROOT
BRANCH   1   2
ATOM      2  C   UNL     1     -54.087 119.757  -9.629  1.00  0.00     0.000 C 
BRANCH   2   3
ATOM      3  C   UNL     1     -53.049 120.040 -10.729  1.00  0.00     0.000 C 
BRANCH   3   4
ATOM      4  C   UNL     1     -53.694 120.525 -12.037  1.00  0.00     0.000 C 
BRANCH   4   5
ATOM      5  C   UNL     1     -53.796 122.058 -12.117  1.00  0.00     0.000 C 
BRANCH   5   6
ATOM      6  C   UNL     1     -55.156 122.585 -11.631  1.00  0.00     0.000 C 
BRANCH   6   7
ATOM      7  C   UNL     1     -56.332 121.724 -12.122  1.00  0.00     0.006 C 
BRANCH   7   8
ATOM      8  C   UNL     1     -57.166 121.165 -10.962  1.00  0.00     0.053 C 
BRANCH   8   9
ATOM      9  C   UNL     1     -56.980 119.686 -10.808  1.00  0.00     0.041 C 
ATOM     10  O   UNL     1     -56.479 119.008 -11.744  1.00  0.00    -0.550 OA
ATOM     11  O   UNL     1     -57.327 119.062  -9.616  1.00  0.00    -0.550 OA
ENDBRANCH   8   9
ENDBRANCH   7   8
ENDBRANCH   6   7
ENDBRANCH   5   6
ENDBRANCH   4   5
ENDBRANCH   3   4
ENDBRANCH   2   3
ENDBRANCH   1   2
BRANCH   1  12
ATOM     12  C   UNL     1     -52.921 121.740  -8.410  1.00  0.00     0.000 C 
BRANCH  12  13
ATOM     13  C   UNL     1     -53.112 123.210  -8.821  1.00  0.00    -0.000 C 
BRANCH  13  14
ATOM     14  C   UNL     1     -52.069 124.148  -8.188  1.00  0.00    -0.000 C 
BRANCH  14  15
ATOM     15  C   UNL     1     -50.627 123.601  -8.156  1.00  0.00    -0.000 C 
BRANCH  15  16
ATOM     16  C   UNL     1     -49.578 124.471  -8.876  1.00  0.00    -0.000 C 
BRANCH  16  17
ATOM     17  C   UNL     1     -48.895 123.801 -10.081  1.00  0.00    -0.000 C 
BRANCH  17  18
ATOM     18  C   UNL     1     -48.962 122.268 -10.028  1.00  0.00    -0.000 C 
BRANCH  18  19
ATOM     19  C   UNL     1     -49.521 121.697 -11.337  1.00  0.00    -0.003 C 
ATOM     20  C   UNL     1     -50.278 122.762 -12.125  1.00  0.00     0.004 C 
ENDBRANCH  18  19
ENDBRANCH  17  18
ENDBRANCH  16  17
ENDBRANCH  15  16
ENDBRANCH  14  15
ENDBRANCH  13  14
ENDBRANCH  12  13
ENDBRANCH   1  12
TORSDOF 16
ENDMDL
MODEL 4
REMARK VINA RESULT:    -0.501      1.613      3.305
REMARK INTER + INTRA:          -3.216
REMARK INTER:                  -3.134
REMARK INTRA:                  -0.082
REMARK UNBOUND:                -2.246
REMARK SMILES CCCCCCCCCCCCCCCCCC(=O)[O-]
REMARK SMILES IDX 10 1 11 2 12 3 13 4 14 5 15 6 16 7 17 8 18 9 19 10 20 11
REMARK SMILES IDX 9 12 8 13 7 14 6 15 5 16 4 17 3 18 2 19 1 20
REMARK H PARENT
REMARK Flexibility Score: inf
ROOT
ATOM      1  C   UNL     1     -53.473 122.073  -8.116  1.00  0.00     0.000 C 
ENDROOT
BRANCH   1   2
ATOM      2  C   UNL     1     -54.830 122.358  -8.784  1.00  0.00     0.000 C 
BRANCH   2   3
ATOM      3  C   UNL     1     -55.755 121.129  -8.813  1.00  0.00     0.000 C 
BRANCH   3   4
ATOM      4  C   UNL     1     -57.149 121.453  -9.372  1.00  0.00     0.000 C 
BRANCH   4   5
ATOM      5  C   UNL     1     -57.930 120.194  -9.788  1.00  0.00     0.000 C 
BRANCH   5   6
ATOM      6  C   UNL     1     -57.430 119.601 -11.115  1.00  0.00     0.000 C 
BRANCH   6   7
ATOM      7  C   UNL     1     -56.985 120.682 -12.114  1.00  0.00     0.006 C 
BRANCH   7   8
ATOM      8  C   UNL     1     -55.463 120.872 -12.123  1.00  0.00     0.053 C 
BRANCH   8   9
ATOM      9  C   UNL     1     -55.085 122.320 -12.035  1.00  0.00     0.041 C 
ATOM     10  O   UNL     1     -55.968 123.197 -11.848  1.00  0.00    -0.550 OA
ATOM     11  O   UNL     1     -53.750 122.696 -12.125  1.00  0.00    -0.550 OA
ENDBRANCH   8   9
ENDBRANCH   7   8
ENDBRANCH   6   7
ENDBRANCH   5   6
ENDBRANCH   4   5
ENDBRANCH   3   4
ENDBRANCH   2   3
ENDBRANCH   1   2
BRANCH   1  12
ATOM     12  C   UNL     1     -52.235 122.485  -8.933  1.00  0.00     0.000 C 
BRANCH  12  13
ATOM     13  C   UNL     1     -51.509 121.287  -9.569  1.00  0.00    -0.000 C 
BRANCH  13  14
ATOM     14  C   UNL     1     -51.626 121.262 -11.103  1.00  0.00    -0.000 C 
BRANCH  14  15
ATOM     15  C   UNL     1     -50.289 121.129 -11.862  1.00  0.00    -0.000 C 
BRANCH  15  16
ATOM     16  C   UNL     1     -49.158 122.052 -11.365  1.00  0.00    -0.000 C 
BRANCH  16  17
ATOM     17  C   UNL     1     -49.206 123.489 -11.912  1.00  0.00    -0.000 C 
BRANCH  17  18
ATOM     18  C   UNL     1     -48.939 124.548 -10.832  1.00  0.00    -0.000 C 
BRANCH  18  19
ATOM     19  C   UNL     1     -49.458 124.082  -9.467  1.00  0.00    -0.003 C 
ATOM     20  C   UNL     1     -48.981 125.006  -8.351  1.00  0.00     0.004 C 
ENDBRANCH  18  19
ENDBRANCH  17  18
ENDBRANCH  16  17
ENDBRANCH  15  16
ENDBRANCH  14  15
ENDBRANCH  13  14
ENDBRANCH  12  13
ENDBRANCH   1  12
TORSDOF 16
ENDMDL
MODEL 5
REMARK VINA RESULT:    -0.142      1.657      3.362
REMARK INTER + INTRA:          -2.522
REMARK INTER:                  -0.627
REMARK INTRA:                  -1.894
REMARK UNBOUND:                -2.246
REMARK SMILES CCCCCCCCCCCCCCCCCC(=O)[O-]
REMARK SMILES IDX 10 1 11 2 12 3 13 4 14 5 15 6 16 7 17 8 18 9 19 10 20 11
REMARK SMILES IDX 9 12 8 13 7 14 6 15 5 16 4 17 3 18 2 19 1 20
REMARK H PARENT
REMARK Flexibility Score: inf
ROOT
ATOM      1  C   UNL     1     -54.140 119.916  -8.871  1.00  0.00     0.000 C 
ENDROOT
BRANCH   1   2
ATOM      2  C   UNL     1     -54.507 121.245  -8.187  1.00  0.00     0.000 C 
BRANCH   2   3
ATOM      3  C   UNL     1     -53.617 122.417  -8.635  1.00  0.00     0.000 C 
BRANCH   3   4
ATOM      4  C   UNL     1     -54.346 123.383  -9.582  1.00  0.00     0.000 C 
BRANCH   4   5
ATOM      5  C   UNL     1     -53.640 123.529 -10.941  1.00  0.00     0.000 C 
BRANCH   5   6
ATOM      6  C   UNL     1     -54.563 123.199 -12.125  1.00  0.00     0.000 C 
BRANCH   6   7
ATOM      7  C   UNL     1     -55.796 122.382 -11.701  1.00  0.00     0.006 C 
BRANCH   7   8
ATOM      8  C   UNL     1     -55.606 120.879 -11.946  1.00  0.00     0.053 C 
BRANCH   8   9
ATOM      9  C   UNL     1     -56.832 120.099 -11.576  1.00  0.00     0.041 C 
ATOM     10  O   UNL     1     -57.977 120.558 -11.828  1.00  0.00    -0.550 OA
ATOM     11  O   UNL     1     -56.707 118.848 -10.985  1.00  0.00    -0.550 OA
ENDBRANCH   8   9
ENDBRANCH   7   8
ENDBRANCH   6   7
ENDBRANCH   5   6
ENDBRANCH   4   5
ENDBRANCH   3   4
ENDBRANCH   2   3
ENDBRANCH   1   2
BRANCH   1  12
ATOM     12  C   UNL     1     -53.053 120.009  -9.957  1.00  0.00     0.000 C 
BRANCH  12  13
ATOM     13  C   UNL     1     -51.628 119.894  -9.393  1.00  0.00    -0.000 C 
BRANCH  13  14
ATOM     14  C   UNL     1     -50.591 120.677 -10.219  1.00  0.00    -0.000 C 
BRANCH  14  15
ATOM     15  C   UNL     1     -51.181 121.631 -11.277  1.00  0.00    -0.000 C 
BRANCH  15  16
ATOM     16  C   UNL     1     -50.144 122.405 -12.115  1.00  0.00    -0.000 C 
BRANCH  16  17
ATOM     17  C   UNL     1     -48.876 122.827 -11.350  1.00  0.00    -0.000 C 
BRANCH  17  18
ATOM     18  C   UNL     1     -48.913 124.294 -10.900  1.00  0.00    -0.000 C 
BRANCH  18  19
ATOM     19  C   UNL     1     -48.945 124.399  -9.371  1.00  0.00    -0.003 C 
ATOM     20  C   UNL     1     -50.289 123.939  -8.814  1.00  0.00     0.004 C 
ENDBRANCH  18  19
ENDBRANCH  17  18
ENDBRANCH  16  17
ENDBRANCH  15  16
ENDBRANCH  14  15
ENDBRANCH  13  14
ENDBRANCH  12  13
ENDBRANCH   1  12
TORSDOF 16
ENDMDL
MODEL 6
REMARK VINA RESULT:    -0.076      1.564      3.867
REMARK INTER + INTRA:          -2.393
REMARK INTER:                  -1.585
REMARK INTRA:                  -0.809
REMARK UNBOUND:                -2.246
REMARK SMILES CCCCCCCCCCCCCCCCCC(=O)[O-]
REMARK SMILES IDX 10 1 11 2 12 3 13 4 14 5 15 6 16 7 17 8 18 9 19 10 20 11
REMARK SMILES IDX 9 12 8 13 7 14 6 15 5 16 4 17 3 18 2 19 1 20
REMARK H PARENT
REMARK Flexibility Score: inf
ROOT
ATOM      1  C   UNL     1     -54.927 119.920 -11.239  1.00  0.00     0.000 C 
ENDROOT
BRANCH   1   2
ATOM      2  C   UNL     1     -56.266 119.637 -11.945  1.00  0.00     0.000 C 
BRANCH   2   3
ATOM      3  C   UNL     1     -57.465 120.298 -11.245  1.00  0.00     0.000 C 
BRANCH   3   4
ATOM      4  C   UNL     1     -57.320 120.316  -9.715  1.00  0.00     0.000 C 
BRANCH   4   5
ATOM      5  C   UNL     1     -56.886 121.689  -9.175  1.00  0.00     0.000 C 
BRANCH   5   6
ATOM      6  C   UNL     1     -55.859 121.579  -8.037  1.00  0.00     0.000 C 
BRANCH   6   7
ATOM      7  C   UNL     1     -54.485 121.090  -8.527  1.00  0.00     0.006 C 
BRANCH   7   8
ATOM      8  C   UNL     1     -53.424 122.197  -8.475  1.00  0.00     0.053 C 
BRANCH   8   9
ATOM      9  C   UNL     1     -53.807 123.371  -9.324  1.00  0.00     0.041 C 
ATOM     10  O   UNL     1     -54.206 123.198 -10.505  1.00  0.00    -0.550 OA
ATOM     11  O   UNL     1     -53.754 124.655  -8.798  1.00  0.00    -0.550 OA
ENDBRANCH   8   9
ENDBRANCH   7   8
ENDBRANCH   6   7
ENDBRANCH   5   6
ENDBRANCH   4   5
ENDBRANCH   3   4
ENDBRANCH   2   3
ENDBRANCH   1   2
BRANCH   1  12
ATOM     12  C   UNL     1     -53.896 120.706 -12.068  1.00  0.00     0.000 C 
BRANCH  12  13
ATOM     13  C   UNL     1     -52.512 120.037 -12.098  1.00  0.00    -0.000 C 
BRANCH  13  14
ATOM     14  C   UNL     1     -51.683 120.318 -10.831  1.00  0.00    -0.000 C 
BRANCH  14  15
ATOM     15  C   UNL     1     -50.298 120.949 -11.079  1.00  0.00    -0.000 C 
BRANCH  15  16
ATOM     16  C   UNL     1     -50.270 122.083 -12.123  1.00  0.00    -0.000 C 
BRANCH  16  17
ATOM     17  C   UNL     1     -49.026 122.988 -12.065  1.00  0.00    -0.000 C 
BRANCH  17  18
ATOM     18  C   UNL     1     -49.285 124.311 -11.331  1.00  0.00    -0.000 C 
BRANCH  18  19
ATOM     19  C   UNL     1     -48.877 124.211  -9.856  1.00  0.00    -0.003 C 
ATOM     20  C   UNL     1     -50.087 123.936  -8.968  1.00  0.00     0.004 C 
ENDBRANCH  18  19
ENDBRANCH  17  18
ENDBRANCH  16  17
ENDBRANCH  15  16
ENDBRANCH  14  15
ENDBRANCH  13  14
ENDBRANCH  12  13
ENDBRANCH   1  12
TORSDOF 16
ENDMDL
MODEL 7
REMARK VINA RESULT:     0.059      2.524      4.114
REMARK INTER + INTRA:          -2.131
REMARK INTER:                  -1.037
REMARK INTRA:                  -1.094
REMARK UNBOUND:                -2.246
REMARK SMILES CCCCCCCCCCCCCCCCCC(=O)[O-]
REMARK SMILES IDX 10 1 11 2 12 3 13 4 14 5 15 6 16 7 17 8 18 9 19 10 20 11
REMARK SMILES IDX 9 12 8 13 7 14 6 15 5 16 4 17 3 18 2 19 1 20
REMARK H PARENT
REMARK Flexibility Score: inf
ROOT
ATOM      1  C   UNL     1     -56.568 120.343  -9.218  1.00  0.00     0.000 C 
ENDROOT
BRANCH   1   2
ATOM      2  C   UNL     1     -57.388 120.316 -10.520  1.00  0.00     0.000 C 
BRANCH   2   3
ATOM      3  C   UNL     1     -56.563 120.709 -11.758  1.00  0.00     0.000 C 
BRANCH   3   4
ATOM      4  C   UNL     1     -56.480 122.231 -11.952  1.00  0.00     0.000 C 
BRANCH   4   5
ATOM      5  C   UNL     1     -55.035 122.731 -12.125  1.00  0.00     0.000 C 
BRANCH   5   6
ATOM      6  C   UNL     1     -54.009 121.586 -12.109  1.00  0.00     0.000 C 
BRANCH   6   7
ATOM      7  C   UNL     1     -52.721 121.960 -11.354  1.00  0.00     0.006 C 
BRANCH   7   8
ATOM      8  C   UNL     1     -51.992 120.726 -10.808  1.00  0.00     0.053 C 
BRANCH   8   9
ATOM      9  C   UNL     1     -50.503 120.899 -10.849  1.00  0.00     0.041 C 
ATOM     10  O   UNL     1     -49.958 121.474 -11.827  1.00  0.00    -0.550 OA
ATOM     11  O   UNL     1     -49.723 120.455  -9.789  1.00  0.00    -0.550 OA
ENDBRANCH   8   9
ENDBRANCH   7   8
ENDBRANCH   6   7
ENDBRANCH   5   6
ENDBRANCH   4   5
ENDBRANCH   3   4
ENDBRANCH   2   3
ENDBRANCH   1   2
BRANCH   1  12
ATOM     12  C   UNL     1     -56.136 121.740  -8.737  1.00  0.00     0.000 C 
BRANCH  12  13
ATOM     13  C   UNL     1     -54.706 121.766  -8.172  1.00  0.00    -0.000 C 
BRANCH  13  14
ATOM     14  C   UNL     1     -53.904 122.998  -8.628  1.00  0.00    -0.000 C 
BRANCH  14  15
ATOM     15  C   UNL     1     -52.504 123.141  -7.997  1.00  0.00    -0.000 C 
BRANCH  15  16
ATOM     16  C   UNL     1     -51.454 123.846  -8.879  1.00  0.00    -0.000 C 
BRANCH  16  17
ATOM     17  C   UNL     1     -50.202 124.337  -8.131  1.00  0.00    -0.000 C 
BRANCH  17  18
ATOM     18  C   UNL     1     -48.913 124.162  -8.946  1.00  0.00    -0.000 C 
BRANCH  18  19
ATOM     19  C   UNL     1     -48.951 125.010 -10.223  1.00  0.00    -0.003 C 
ATOM     20  C   UNL     1     -48.990 124.130 -11.469  1.00  0.00     0.004 C 
ENDBRANCH  18  19
ENDBRANCH  17  18
ENDBRANCH  16  17
ENDBRANCH  15  16
ENDBRANCH  14  15
ENDBRANCH  13  14
ENDBRANCH  12  13
ENDBRANCH   1  12
TORSDOF 16
ENDMDL
