MODEL 1
REMARK VINA RESULT:    -5.972      0.000      0.000
REMARK INTER + INTRA:          -6.849
REMARK INTER:                  -6.322
REMARK INTRA:                  -0.528
REMARK UNBOUND:                -0.528
REMARK SMILES CC1=C[C@@H]2C(=C(C)CC[C@@H]2C(C)C)CC1
REMARK SMILES IDX 1 1 2 2 3 3 4 4 10 5 9 6 8 7 6 8 5 9 14 10 15 11 7 12 11 13
REMARK SMILES IDX 12 14 13 15
REMARK H PARENT
REMARK Flexibility Score: inf
ROOT
ATOM      1  C   UNL     1     109.705 107.438 127.977  1.00  0.00     0.039 C 
ATOM      2  C   UNL     1     108.584 108.441 127.972  1.00  0.00    -0.076 C 
ATOM      3  C   UNL     1     108.180 108.968 126.801  1.00  0.00    -0.020 C 
ATOM      4  C   UNL     1     107.062 109.982 126.680  1.00  0.00     0.041 C 
ATOM      5  C   UNL     1     105.885 109.502 125.765  1.00  0.00     0.003 C 
ATOM      6  C   UNL     1     104.681 110.504 125.777  1.00  0.00     0.009 C 
ATOM      7  C   UNL     1     104.923 111.758 126.633  1.00  0.00     0.031 C 
ATOM      8  C   UNL     1     105.517 111.392 127.977  1.00  0.00    -0.073 C 
ATOM      9  C   UNL     1     106.556 110.516 128.008  1.00  0.00    -0.064 C 
ATOM     10  C   UNL     1     107.325 110.201 129.276  1.00  0.00     0.036 C 
ATOM     11  C   UNL     1     107.873 108.772 129.262  1.00  0.00     0.035 C 
ATOM     12  C   UNL     1     104.960 112.026 129.229  1.00  0.00     0.039 C 
ENDROOT
BRANCH   5  13
ATOM     13  C   UNL     1     105.439 108.014 125.989  1.00  0.00    -0.013 C 
ATOM     14  C   UNL     1     104.349 107.826 127.061  1.00  0.00     0.007 C 
ATOM     15  C   UNL     1     104.988 107.367 124.670  1.00  0.00     0.007 C 
ENDBRANCH   5  13
TORSDOF 1
ENDMDL
MODEL 2
REMARK VINA RESULT:    -5.947      3.147      5.561
REMARK INTER + INTRA:          -6.823
REMARK INTER:                  -6.295
REMARK INTRA:                  -0.528
REMARK UNBOUND:                -0.528
REMARK SMILES CC1=C[C@@H]2C(=C(C)CC[C@@H]2C(C)C)CC1
REMARK SMILES IDX 1 1 2 2 3 3 4 4 10 5 9 6 8 7 6 8 5 9 14 10 15 11 7 12 11 13
REMARK SMILES IDX 12 14 13 15
REMARK H PARENT
REMARK Flexibility Score: inf
ROOT
ATOM      1  C   UNL     1     105.151 109.596 127.964  1.00  0.00     0.039 C 
ATOM      2  C   UNL     1     104.112 108.508 127.954  1.00  0.00    -0.076 C 
ATOM      3  C   UNL     1     103.585 108.115 126.779  1.00  0.00    -0.020 C 
ATOM      4  C   UNL     1     102.537 107.030 126.653  1.00  0.00     0.041 C 
ATOM      5  C   UNL     1     102.988 105.832 125.751  1.00  0.00     0.003 C 
ATOM      6  C   UNL     1     101.947 104.662 125.757  1.00  0.00     0.009 C 
ATOM      7  C   UNL     1     100.692 104.949 126.598  1.00  0.00     0.031 C 
ATOM      8  C   UNL     1     101.062 105.540 127.943  1.00  0.00    -0.073 C 
ATOM      9  C   UNL     1     101.972 106.549 127.977  1.00  0.00    -0.064 C 
ATOM     10  C   UNL     1     102.298 107.315 129.245  1.00  0.00     0.036 C 
ATOM     11  C   UNL     1     103.743 107.816 129.244  1.00  0.00     0.035 C 
ATOM     12  C   UNL     1     100.397 105.010 129.190  1.00  0.00     0.039 C 
ENDROOT
BRANCH   5  13
ATOM     13  C   UNL     1     104.458 105.339 125.993  1.00  0.00    -0.013 C 
ATOM     14  C   UNL     1     104.594 104.222 127.044  1.00  0.00     0.007 C 
ATOM     15  C   UNL     1     105.119 104.899 124.677  1.00  0.00     0.007 C 
ENDBRANCH   5  13
TORSDOF 1
ENDMDL
MODEL 3
REMARK VINA RESULT:    -5.937      3.129      5.593
REMARK INTER + INTRA:          -6.812
REMARK INTER:                  -6.285
REMARK INTRA:                  -0.527
REMARK UNBOUND:                -0.528
REMARK SMILES CC1=C[C@@H]2C(=C(C)CC[C@@H]2C(C)C)CC1
REMARK SMILES IDX 1 1 2 2 3 3 4 4 10 5 9 6 8 7 6 8 5 9 14 10 15 11 7 12 11 13
REMARK SMILES IDX 12 14 13 15
REMARK H PARENT
REMARK Flexibility Score: inf
ROOT
ATOM      1  C   UNL     1     107.271 102.866 127.965  1.00  0.00     0.039 C 
ATOM      2  C   UNL     1     108.321 103.944 127.977  1.00  0.00    -0.076 C 
ATOM      3  C   UNL     1     108.879 104.328 126.814  1.00  0.00    -0.020 C 
ATOM      4  C   UNL     1     109.941 105.402 126.710  1.00  0.00     0.041 C 
ATOM      5  C   UNL     1     109.523 106.602 125.794  1.00  0.00     0.003 C 
ATOM      6  C   UNL     1     110.576 107.761 125.822  1.00  0.00     0.009 C 
ATOM      7  C   UNL     1     111.808 107.464 126.693  1.00  0.00     0.031 C 
ATOM      8  C   UNL     1     111.400 106.881 128.031  1.00  0.00    -0.073 C 
ATOM      9  C   UNL     1     110.480 105.881 128.046  1.00  0.00    -0.064 C 
ATOM     10  C   UNL     1     110.115 105.122 129.308  1.00  0.00     0.036 C 
ATOM     11  C   UNL     1     108.665 104.635 129.274  1.00  0.00     0.035 C 
ATOM     12  C   UNL     1     112.041 107.407 129.292  1.00  0.00     0.039 C 
ENDROOT
BRANCH   5  13
ATOM     13  C   UNL     1     108.054 107.110 126.001  1.00  0.00    -0.013 C 
ATOM     14  C   UNL     1     107.899 108.208 127.070  1.00  0.00     0.007 C 
ATOM     15  C   UNL     1     107.441 107.587 124.674  1.00  0.00     0.007 C 
ENDBRANCH   5  13
TORSDOF 1
ENDMDL
MODEL 4
REMARK VINA RESULT:    -5.923      5.326      7.879
REMARK INTER + INTRA:          -6.797
REMARK INTER:                  -6.269
REMARK INTRA:                  -0.528
REMARK UNBOUND:                -0.528
REMARK SMILES CC1=C[C@@H]2C(=C(C)CC[C@@H]2C(C)C)CC1
REMARK SMILES IDX 1 1 2 2 3 3 4 4 10 5 9 6 8 7 6 8 5 9 14 10 15 11 7 12 11 13
REMARK SMILES IDX 12 14 13 15
REMARK H PARENT
REMARK Flexibility Score: inf
ROOT
ATOM      1  C   UNL     1     102.930 105.216 127.953  1.00  0.00     0.039 C 
ATOM      2  C   UNL     1     103.994 104.152 127.965  1.00  0.00    -0.076 C 
ATOM      3  C   UNL     1     104.387 103.605 126.799  1.00  0.00    -0.020 C 
ATOM      4  C   UNL     1     105.449 102.531 126.695  1.00  0.00     0.041 C 
ATOM      5  C   UNL     1     106.666 102.945 125.801  1.00  0.00     0.003 C 
ATOM      6  C   UNL     1     107.812 101.877 125.831  1.00  0.00     0.009 C 
ATOM      7  C   UNL     1     107.487 100.639 126.681  1.00  0.00     0.031 C 
ATOM      8  C   UNL     1     106.892 101.036 128.016  1.00  0.00    -0.073 C 
ATOM      9  C   UNL     1     105.903 101.969 128.031  1.00  0.00    -0.064 C 
ATOM     10  C   UNL     1     105.132 102.326 129.287  1.00  0.00     0.036 C 
ATOM     11  C   UNL     1     104.664 103.782 129.266  1.00  0.00     0.035 C 
ATOM     12  C   UNL     1     107.393 100.372 129.276  1.00  0.00     0.039 C 
ENDROOT
BRANCH   5  13
ATOM     13  C   UNL     1     107.190 104.405 126.034  1.00  0.00    -0.013 C 
ATOM     14  C   UNL     1     108.271 104.533 127.123  1.00  0.00     0.007 C 
ATOM     15  C   UNL     1     107.697 105.027 124.723  1.00  0.00     0.007 C 
ENDBRANCH   5  13
TORSDOF 1
ENDMDL
MODEL 5
REMARK VINA RESULT:    -5.880      5.274      7.605
REMARK INTER + INTRA:          -6.752
REMARK INTER:                  -6.226
REMARK INTRA:                  -0.526
REMARK UNBOUND:                -0.528
REMARK SMILES CC1=C[C@@H]2C(=C(C)CC[C@@H]2C(C)C)CC1
REMARK SMILES IDX 1 1 2 2 3 3 4 4 10 5 9 6 8 7 6 8 5 9 14 10 15 11 7 12 11 13
REMARK SMILES IDX 12 14 13 15
REMARK H PARENT
REMARK Flexibility Score: inf
ROOT
ATOM      1  C   UNL     1     107.522 100.357 129.515  1.00  0.00     0.039 C 
ATOM      2  C   UNL     1     106.858 101.041 128.350  1.00  0.00    -0.076 C 
ATOM      3  C   UNL     1     105.699 101.697 128.549  1.00  0.00    -0.020 C 
ATOM      4  C   UNL     1     104.948 102.420 127.452  1.00  0.00     0.041 C 
ATOM      5  C   UNL     1     104.744 103.946 127.740  1.00  0.00     0.003 C 
ATOM      6  C   UNL     1     104.096 104.695 126.526  1.00  0.00     0.009 C 
ATOM      7  C   UNL     1     103.755 103.780 125.339  1.00  0.00     0.031 C 
ATOM      8  C   UNL     1     104.904 102.843 125.027  1.00  0.00    -0.073 C 
ATOM      9  C   UNL     1     105.498 102.184 126.056  1.00  0.00    -0.064 C 
ATOM     10  C   UNL     1     106.548 101.110 125.845  1.00  0.00     0.036 C 
ATOM     11  C   UNL     1     107.543 101.058 127.006  1.00  0.00     0.035 C 
ATOM     12  C   UNL     1     105.333 102.653 123.592  1.00  0.00     0.039 C 
ENDROOT
BRANCH   5  13
ATOM     13  C   UNL     1     106.005 104.685 128.307  1.00  0.00    -0.013 C 
ATOM     14  C   UNL     1     106.899 105.341 127.239  1.00  0.00     0.007 C 
ATOM     15  C   UNL     1     105.607 105.728 129.364  1.00  0.00     0.007 C 
ENDBRANCH   5  13
TORSDOF 1
ENDMDL
MODEL 6
REMARK VINA RESULT:    -5.873      3.661      6.093
REMARK INTER + INTRA:          -6.744
REMARK INTER:                  -6.217
REMARK INTRA:                  -0.527
REMARK UNBOUND:                -0.528
REMARK SMILES CC1=C[C@@H]2C(=C(C)CC[C@@H]2C(C)C)CC1
REMARK SMILES IDX 1 1 2 2 3 3 4 4 10 5 9 6 8 7 6 8 5 9 14 10 15 11 7 12 11 13
REMARK SMILES IDX 12 14 13 15
REMARK H PARENT
REMARK Flexibility Score: inf
ROOT
ATOM      1  C   UNL     1     112.024 107.523 129.521  1.00  0.00     0.039 C 
ATOM      2  C   UNL     1     111.392 106.879 128.316  1.00  0.00    -0.076 C 
ATOM      3  C   UNL     1     110.719 105.723 128.468  1.00  0.00    -0.020 C 
ATOM      4  C   UNL     1     110.045 104.991 127.327  1.00  0.00     0.041 C 
ATOM      5  C   UNL     1     108.506 104.795 127.539  1.00  0.00     0.003 C 
ATOM      6  C   UNL     1     107.811 104.169 126.282  1.00  0.00     0.009 C 
ATOM      7  C   UNL     1     108.780 103.836 125.136  1.00  0.00     0.031 C 
ATOM      8  C   UNL     1     109.739 104.982 124.884  1.00  0.00    -0.073 C 
ATOM      9  C   UNL     1     110.352 105.558 125.952  1.00  0.00    -0.064 C 
ATOM     10  C   UNL     1     111.442 106.602 125.806  1.00  0.00     0.036 C 
ATOM     11  C   UNL     1     111.445 107.581 126.981  1.00  0.00     0.035 C 
ATOM     12  C   UNL     1     110.001 105.428 123.467  1.00  0.00     0.039 C 
ENDROOT
BRANCH   5  13
ATOM     13  C   UNL     1     107.749 106.055 128.087  1.00  0.00    -0.013 C 
ATOM     14  C   UNL     1     107.171 106.980 126.999  1.00  0.00     0.007 C 
ATOM     15  C   UNL     1     106.638 105.650 129.069  1.00  0.00     0.007 C 
ENDBRANCH   5  13
TORSDOF 1
ENDMDL
MODEL 7
REMARK VINA RESULT:    -5.841      1.401      4.176
REMARK INTER + INTRA:          -6.710
REMARK INTER:                  -6.183
REMARK INTRA:                  -0.527
REMARK UNBOUND:                -0.528
REMARK SMILES CC1=C[C@@H]2C(=C(C)CC[C@@H]2C(C)C)CC1
REMARK SMILES IDX 1 1 2 2 3 3 4 4 10 5 9 6 8 7 6 8 5 9 14 10 15 11 7 12 11 13
REMARK SMILES IDX 12 14 13 15
REMARK H PARENT
REMARK Flexibility Score: inf
ROOT
ATOM      1  C   UNL     1     104.863 112.051 129.484  1.00  0.00     0.039 C 
ATOM      2  C   UNL     1     105.536 111.377 128.319  1.00  0.00    -0.076 C 
ATOM      3  C   UNL     1     106.712 110.751 128.514  1.00  0.00    -0.020 C 
ATOM      4  C   UNL     1     107.474 110.041 127.415  1.00  0.00     0.041 C 
ATOM      5  C   UNL     1     107.717 108.522 127.710  1.00  0.00     0.003 C 
ATOM      6  C   UNL     1     108.375 107.782 126.496  1.00  0.00     0.009 C 
ATOM      7  C   UNL     1     108.686 108.699 125.302  1.00  0.00     0.031 C 
ATOM      8  C   UNL     1     107.513 109.606 124.992  1.00  0.00    -0.073 C 
ATOM      9  C   UNL     1     106.909 110.256 126.022  1.00  0.00    -0.064 C 
ATOM     10  C   UNL     1     105.832 111.302 125.811  1.00  0.00     0.036 C 
ATOM     11  C   UNL     1     104.843 111.336 126.978  1.00  0.00     0.035 C 
ATOM     12  C   UNL     1     107.070 109.778 123.560  1.00  0.00     0.039 C 
ENDROOT
BRANCH   5  13
ATOM     13  C   UNL     1     106.477 107.755 128.289  1.00  0.00    -0.013 C 
ATOM     14  C   UNL     1     105.579 107.092 127.228  1.00  0.00     0.007 C 
ATOM     15  C   UNL     1     106.910 106.710 129.330  1.00  0.00     0.007 C 
ENDBRANCH   5  13
TORSDOF 1
ENDMDL
MODEL 8
REMARK VINA RESULT:    -5.837      3.058      6.120
REMARK INTER + INTRA:          -6.706
REMARK INTER:                  -6.188
REMARK INTRA:                  -0.519
REMARK UNBOUND:                -0.528
REMARK SMILES CC1=C[C@@H]2C(=C(C)CC[C@@H]2C(C)C)CC1
REMARK SMILES IDX 1 1 2 2 3 3 4 4 10 5 9 6 8 7 6 8 5 9 14 10 15 11 7 12 11 13
REMARK SMILES IDX 12 14 13 15
REMARK H PARENT
REMARK Flexibility Score: inf
ROOT
ATOM      1  C   UNL     1     100.380 104.888 129.274  1.00  0.00     0.039 C 
ATOM      2  C   UNL     1     101.080 105.584 128.139  1.00  0.00    -0.076 C 
ATOM      3  C   UNL     1     101.708 106.751 128.373  1.00  0.00    -0.020 C 
ATOM      4  C   UNL     1     102.444 107.535 127.307  1.00  0.00     0.041 C 
ATOM      5  C   UNL     1     103.958 107.762 127.636  1.00  0.00     0.003 C 
ATOM      6  C   UNL     1     104.725 108.444 126.453  1.00  0.00     0.009 C 
ATOM      7  C   UNL     1     103.833 108.788 125.249  1.00  0.00     0.031 C 
ATOM      8  C   UNL     1     102.926 107.628 124.894  1.00  0.00    -0.073 C 
ATOM      9  C   UNL     1     102.253 107.004 125.897  1.00  0.00    -0.064 C 
ATOM     10  C   UNL     1     101.205 105.939 125.641  1.00  0.00     0.036 C 
ATOM     11  C   UNL     1     101.143 104.923 126.783  1.00  0.00     0.035 C 
ATOM     12  C   UNL     1     102.779 107.220 123.449  1.00  0.00     0.039 C 
ENDROOT
BRANCH   5  13
ATOM     13  C   UNL     1     104.707 106.504 128.201  1.00  0.00    -0.013 C 
ATOM     14  C   UNL     1     105.511 105.712 127.153  1.00  0.00     0.007 C 
ATOM     15  C   UNL     1     105.620 106.885 129.378  1.00  0.00     0.007 C 
ENDBRANCH   5  13
TORSDOF 1
ENDMDL
MODEL 9
REMARK VINA RESULT:    -5.718      3.979      5.749
REMARK INTER + INTRA:          -6.580
REMARK INTER:                  -6.084
REMARK INTRA:                  -0.496
REMARK UNBOUND:                -0.528
REMARK SMILES CC1=C[C@@H]2C(=C(C)CC[C@@H]2C(C)C)CC1
REMARK SMILES IDX 1 1 2 2 3 3 4 4 10 5 9 6 8 7 6 8 5 9 14 10 15 11 7 12 11 13
REMARK SMILES IDX 12 14 13 15
REMARK H PARENT
REMARK Flexibility Score: inf
ROOT
ATOM      1  C   UNL     1     105.670 103.552 128.852  1.00  0.00     0.039 C 
ATOM      2  C   UNL     1     104.949 104.479 127.911  1.00  0.00    -0.076 C 
ATOM      3  C   UNL     1     103.784 104.084 127.365  1.00  0.00    -0.020 C 
ATOM      4  C   UNL     1     102.975 104.935 126.410  1.00  0.00     0.041 C 
ATOM      5  C   UNL     1     101.525 105.235 126.919  1.00  0.00     0.003 C 
ATOM      6  C   UNL     1     100.765 106.236 125.984  1.00  0.00     0.009 C 
ATOM      7  C   UNL     1     101.572 106.671 124.750  1.00  0.00     0.031 C 
ATOM      8  C   UNL     1     102.992 107.039 125.131  1.00  0.00    -0.073 C 
ATOM      9  C   UNL     1     103.679 106.200 125.951  1.00  0.00    -0.064 C 
ATOM     10  C   UNL     1     105.149 106.389 126.270  1.00  0.00     0.036 C 
ATOM     11  C   UNL     1     105.495 105.865 127.665  1.00  0.00     0.035 C 
ATOM     12  C   UNL     1     103.603 108.301 124.574  1.00  0.00     0.039 C 
ENDROOT
BRANCH   5  13
ATOM     13  C   UNL     1     101.425 105.625 128.435  1.00  0.00    -0.013 C 
ATOM     14  C   UNL     1     101.171 107.121 128.697  1.00  0.00     0.007 C 
ATOM     15  C   UNL     1     100.360 104.783 129.155  1.00  0.00     0.007 C 
ENDBRANCH   5  13
TORSDOF 1
ENDMDL
