MODEL 1
REMARK VINA RESULT:    -9.225      0.000      0.000
REMARK INTER + INTRA:         -10.734
REMARK INTER:                 -11.113
REMARK INTRA:                   0.379
REMARK UNBOUND:                 0.379
REMARK SMILES O=c1c(O)c(-c2ccc(O)c(O)c2)oc2cc(O)cc(O)c12
REMARK SMILES IDX 5 1 3 2 2 3 1 4 22 5 20 6 19 7 17 8 16 9 15 10 14 11 6 12
REMARK SMILES IDX 7 13 8 14 9 15 13 16 11 17 10 18 12 20 4 22 21 24 18 26
REMARK H PARENT 10 19 12 21 4 23 21 25 18 27
REMARK Flexibility Score: inf
ROOT
ATOM      1  C   UNL     1     149.411 148.997 150.187  1.00  0.00     0.180 A 
ATOM      2  C   UNL     1     149.478 147.860 149.362  1.00  0.00     0.208 A 
ATOM      3  C   UNL     1     150.703 147.525 148.763  1.00  0.00     0.238 A 
ATOM      4  O   UNL     1     150.744 146.539 147.983  1.00  0.00    -0.285 OA
ATOM      5  C   UNL     1     151.849 148.321 149.008  1.00  0.00     0.111 A 
ATOM      6  C   UNL     1     153.149 148.052 148.486  1.00  0.00     0.134 A 
ATOM      7  C   UNL     1     154.179 148.979 148.686  1.00  0.00     0.093 A 
ATOM      8  C   UNL     1     153.974 150.130 149.445  1.00  0.00     0.123 A 
ATOM      9  C   UNL     1     152.722 150.374 150.011  1.00  0.00     0.094 A 
ATOM     10  C   UNL     1     151.664 149.486 149.798  1.00  0.00     0.146 A 
ATOM     11  O   UNL     1     150.486 149.760 150.345  1.00  0.00    -0.452 OA
ENDROOT
BRANCH   1  12
ATOM     12  C   UNL     1     148.162 149.400 150.873  1.00  0.00     0.025 A 
ATOM     13  C   UNL     1     148.234 150.176 152.041  1.00  0.00     0.016 A 
ATOM     14  C   UNL     1     147.069 150.549 152.716  1.00  0.00     0.051 A 
ATOM     15  C   UNL     1     145.816 150.138 152.243  1.00  0.00     0.157 A 
ATOM     16  C   UNL     1     146.903 148.971 150.413  1.00  0.00     0.062 A 
ATOM     17  C   UNL     1     145.733 149.344 151.092  1.00  0.00     0.158 A 
BRANCH  15  18
ATOM     18  O   UNL     1     144.652 150.510 152.911  1.00  0.00    -0.504 OA
ATOM     19  H   UNL     1     144.590 150.483 153.923  1.00  0.00     0.293 HD
ENDBRANCH  15  18
BRANCH  17  20
ATOM     20  O   UNL     1     144.487 148.926 150.631  1.00  0.00    -0.504 OA
ATOM     21  H   UNL     1     144.320 148.734 149.649  1.00  0.00     0.293 HD
ENDBRANCH  17  20
ENDBRANCH   1  12
BRANCH   2  22
ATOM     22  O   UNL     1     148.331 147.101 149.117  1.00  0.00    -0.502 OA
ATOM     23  H   UNL     1     147.556 147.448 148.566  1.00  0.00     0.293 HD
ENDBRANCH   2  22
BRANCH   6  24
ATOM     24  O   UNL     1     153.485 146.886 147.791  1.00  0.00    -0.507 OA
ATOM     25  H   UNL     1     154.131 146.845 147.017  1.00  0.00     0.293 HD
ENDBRANCH   6  24
BRANCH   8  26
ATOM     26  O   UNL     1     155.026 151.023 149.637  1.00  0.00    -0.508 OA
ATOM     27  H   UNL     1     155.232 151.412 150.551  1.00  0.00     0.293 HD
ENDBRANCH   8  26
TORSDOF 6
ENDMDL
MODEL 2
REMARK VINA RESULT:    -8.910      0.986      6.713
REMARK INTER + INTRA:         -10.354
REMARK INTER:                 -10.802
REMARK INTRA:                   0.449
REMARK UNBOUND:                 0.379
REMARK SMILES O=c1c(O)c(-c2ccc(O)c(O)c2)oc2cc(O)cc(O)c12
REMARK SMILES IDX 5 1 3 2 2 3 1 4 22 5 20 6 19 7 17 8 16 9 15 10 14 11 6 12
REMARK SMILES IDX 7 13 8 14 9 15 13 16 11 17 10 18 12 20 4 22 21 24 18 26
REMARK H PARENT 10 19 12 21 4 23 21 25 18 27
REMARK Flexibility Score: inf
ROOT
ATOM      1  C   UNL     1     150.671 149.078 149.762  1.00  0.00     0.180 A 
ATOM      2  C   UNL     1     149.934 148.091 149.083  1.00  0.00     0.208 A 
ATOM      3  C   UNL     1     148.572 147.932 149.383  1.00  0.00     0.238 A 
ATOM      4  O   UNL     1     147.931 147.012 148.812  1.00  0.00    -0.285 OA
ATOM      5  C   UNL     1     147.959 148.770 150.346  1.00  0.00     0.111 A 
ATOM      6  C   UNL     1     146.578 148.724 150.700  1.00  0.00     0.134 A 
ATOM      7  C   UNL     1     146.109 149.510 151.759  1.00  0.00     0.093 A 
ATOM      8  C   UNL     1     146.955 150.389 152.432  1.00  0.00     0.123 A 
ATOM      9  C   UNL     1     148.296 150.487 152.055  1.00  0.00     0.094 A 
ATOM     10  C   UNL     1     148.801 149.688 151.027  1.00  0.00     0.146 A 
ATOM     11  O   UNL     1     150.084 149.804 150.706  1.00  0.00    -0.452 OA
ENDROOT
BRANCH   1  12
ATOM     12  C   UNL     1     152.104 149.323 149.482  1.00  0.00     0.025 A 
ATOM     13  C   UNL     1     152.705 150.507 149.937  1.00  0.00     0.016 A 
ATOM     14  C   UNL     1     154.051 150.768 149.666  1.00  0.00     0.051 A 
ATOM     15  C   UNL     1     154.811 149.856 148.923  1.00  0.00     0.157 A 
ATOM     16  C   UNL     1     152.866 148.419 148.718  1.00  0.00     0.062 A 
ATOM     17  C   UNL     1     154.217 148.682 148.445  1.00  0.00     0.158 A 
BRANCH  15  18
ATOM     18  O   UNL     1     156.154 150.110 148.653  1.00  0.00    -0.504 OA
ATOM     19  H   UNL     1     156.571 149.865 147.762  1.00  0.00     0.293 HD
ENDBRANCH  15  18
BRANCH  17  20
ATOM     20  O   UNL     1     154.971 147.783 147.694  1.00  0.00    -0.504 OA
ATOM     21  H   UNL     1     154.803 146.784 147.735  1.00  0.00     0.293 HD
ENDBRANCH  17  20
ENDBRANCH   1  12
BRANCH   2  22
ATOM     22  O   UNL     1     150.563 147.261 148.152  1.00  0.00    -0.502 OA
ATOM     23  H   UNL     1     151.555 147.061 148.183  1.00  0.00     0.293 HD
ENDBRANCH   2  22
BRANCH   6  24
ATOM     24  O   UNL     1     145.626 147.947 150.030  1.00  0.00    -0.507 OA
ATOM     25  H   UNL     1     145.546 147.877 149.027  1.00  0.00     0.293 HD
ENDBRANCH   6  24
BRANCH   8  26
ATOM     26  O   UNL     1     146.451 151.169 153.471  1.00  0.00    -0.508 OA
ATOM     27  H   UNL     1     145.454 151.256 153.633  1.00  0.00     0.293 HD
ENDBRANCH   8  26
TORSDOF 6
ENDMDL
MODEL 3
REMARK VINA RESULT:    -8.806      1.150      1.893
REMARK INTER + INTRA:         -10.228
REMARK INTER:                 -10.693
REMARK INTRA:                   0.464
REMARK UNBOUND:                 0.379
REMARK SMILES O=c1c(O)c(-c2ccc(O)c(O)c2)oc2cc(O)cc(O)c12
REMARK SMILES IDX 5 1 3 2 2 3 1 4 22 5 20 6 19 7 17 8 16 9 15 10 14 11 6 12
REMARK SMILES IDX 7 13 8 14 9 15 13 16 11 17 10 18 12 20 4 22 21 24 18 26
REMARK H PARENT 10 19 12 21 4 23 21 25 18 27
REMARK Flexibility Score: inf
ROOT
ATOM      1  C   UNL     1     150.065 148.479 149.440  1.00  0.00     0.180 A 
ATOM      2  C   UNL     1     150.570 147.570 148.494  1.00  0.00     0.208 A 
ATOM      3  C   UNL     1     151.928 147.634 148.144  1.00  0.00     0.238 A 
ATOM      4  O   UNL     1     152.361 146.854 147.258  1.00  0.00    -0.285 OA
ATOM      5  C   UNL     1     152.769 148.595 148.757  1.00  0.00     0.111 A 
ATOM      6  C   UNL     1     154.168 148.724 148.508  1.00  0.00     0.134 A 
ATOM      7  C   UNL     1     154.874 149.794 149.070  1.00  0.00     0.093 A 
ATOM      8  C   UNL     1     154.248 150.701 149.924  1.00  0.00     0.123 A 
ATOM      9  C   UNL     1     152.892 150.550 150.222  1.00  0.00     0.094 A 
ATOM     10  C   UNL     1     152.153 149.514 149.646  1.00  0.00     0.146 A 
ATOM     11  O   UNL     1     150.864 149.412 149.947  1.00  0.00    -0.452 OA
ENDROOT
BRANCH   1  12
ATOM     12  C   UNL     1     148.651 148.458 149.878  1.00  0.00     0.025 A 
ATOM     13  C   UNL     1     147.864 147.324 149.620  1.00  0.00     0.016 A 
ATOM     14  C   UNL     1     146.521 147.291 150.005  1.00  0.00     0.051 A 
ATOM     15  C   UNL     1     145.942 148.398 150.639  1.00  0.00     0.157 A 
ATOM     16  C   UNL     1     148.059 149.575 150.496  1.00  0.00     0.062 A 
ATOM     17  C   UNL     1     146.710 149.543 150.881  1.00  0.00     0.158 A 
BRANCH  15  18
ATOM     18  O   UNL     1     144.604 148.369 151.027  1.00  0.00    -0.504 OA
ATOM     19  H   UNL     1     144.001 149.176 150.913  1.00  0.00     0.293 HD
ENDBRANCH  15  18
BRANCH  17  20
ATOM     20  O   UNL     1     146.128 150.647 151.499  1.00  0.00    -0.504 OA
ATOM     21  H   UNL     1     145.903 151.490 150.981  1.00  0.00     0.293 HD
ENDBRANCH  17  20
ENDBRANCH   1  12
BRANCH   2  22
ATOM     22  O   UNL     1     149.718 146.643 147.887  1.00  0.00    -0.502 OA
ATOM     23  H   UNL     1     148.862 146.915 147.420  1.00  0.00     0.293 HD
ENDBRANCH   2  22
BRANCH   6  24
ATOM     24  O   UNL     1     154.911 147.819 147.744  1.00  0.00    -0.507 OA
ATOM     25  H   UNL     1     155.868 147.559 147.932  1.00  0.00     0.293 HD
ENDBRANCH   6  24
BRANCH   8  26
ATOM     26  O   UNL     1     154.985 151.745 150.478  1.00  0.00    -0.508 OA
ATOM     27  H   UNL     1     155.908 151.984 150.134  1.00  0.00     0.293 HD
ENDBRANCH   8  26
TORSDOF 6
ENDMDL
MODEL 4
REMARK VINA RESULT:    -8.533      1.434      7.177
REMARK INTER + INTRA:          -9.900
REMARK INTER:                 -10.286
REMARK INTRA:                   0.386
REMARK UNBOUND:                 0.379
REMARK SMILES O=c1c(O)c(-c2ccc(O)c(O)c2)oc2cc(O)cc(O)c12
REMARK SMILES IDX 5 1 3 2 2 3 1 4 22 5 20 6 19 7 17 8 16 9 15 10 14 11 6 12
REMARK SMILES IDX 7 13 8 14 9 15 13 16 11 17 10 18 12 20 4 22 21 24 18 26
REMARK H PARENT 10 19 12 21 4 23 21 25 18 27
REMARK Flexibility Score: inf
ROOT
ATOM      1  C   UNL     1     150.526 149.421 150.513  1.00  0.00     0.180 A 
ATOM      2  C   UNL     1     150.667 150.280 151.617  1.00  0.00     0.208 A 
ATOM      3  C   UNL     1     149.523 150.664 152.332  1.00  0.00     0.238 A 
ATOM      4  O   UNL     1     149.649 151.476 153.285  1.00  0.00    -0.285 OA
ATOM      5  C   UNL     1     148.252 150.172 151.947  1.00  0.00     0.111 A 
ATOM      6  C   UNL     1     147.030 150.463 152.624  1.00  0.00     0.134 A 
ATOM      7  C   UNL     1     145.816 150.029 152.077  1.00  0.00     0.093 A 
ATOM      8  C   UNL     1     145.785 149.259 150.915  1.00  0.00     0.123 A 
ATOM      9  C   UNL     1     146.978 148.917 150.277  1.00  0.00     0.094 A 
ATOM     10  C   UNL     1     148.202 149.367 150.778  1.00  0.00     0.146 A 
ATOM     11  O   UNL     1     149.314 149.029 150.136  1.00  0.00    -0.452 OA
ENDROOT
BRANCH   1  12
ATOM     12  C   UNL     1     151.688 148.952 149.724  1.00  0.00     0.025 A 
ATOM     13  C   UNL     1     152.852 149.736 149.676  1.00  0.00     0.016 A 
ATOM     14  C   UNL     1     153.952 149.322 148.921  1.00  0.00     0.051 A 
ATOM     15  C   UNL     1     153.899 148.128 148.190  1.00  0.00     0.157 A 
ATOM     16  C   UNL     1     151.631 147.764 148.972  1.00  0.00     0.062 A 
ATOM     17  C   UNL     1     152.735 147.350 148.212  1.00  0.00     0.158 A 
BRANCH  15  18
ATOM     18  O   UNL     1     154.995 147.711 147.438  1.00  0.00    -0.504 OA
ATOM     19  H   UNL     1     155.072 146.759 147.097  1.00  0.00     0.293 HD
ENDBRANCH  15  18
BRANCH  17  20
ATOM     20  O   UNL     1     152.680 146.170 147.474  1.00  0.00    -0.504 OA
ATOM     21  H   UNL     1     151.923 145.984 146.825  1.00  0.00     0.293 HD
ENDBRANCH  17  20
ENDBRANCH   1  12
BRANCH   2  22
ATOM     22  O   UNL     1     151.928 150.771 151.968  1.00  0.00    -0.502 OA
ATOM     23  H   UNL     1     152.623 150.201 152.432  1.00  0.00     0.293 HD
ENDBRANCH   2  22
BRANCH   6  24
ATOM     24  O   UNL     1     146.956 151.147 153.841  1.00  0.00    -0.507 OA
ATOM     25  H   UNL     1     147.708 151.686 154.243  1.00  0.00     0.293 HD
ENDBRANCH   6  24
BRANCH   8  26
ATOM     26  O   UNL     1     144.560 148.831 150.408  1.00  0.00    -0.508 OA
ATOM     27  H   UNL     1     144.280 147.857 150.450  1.00  0.00     0.293 HD
ENDBRANCH   8  26
TORSDOF 6
ENDMDL
MODEL 5
REMARK VINA RESULT:    -8.431      1.373      7.310
REMARK INTER + INTRA:          -9.777
REMARK INTER:                  -9.912
REMARK INTRA:                   0.136
REMARK UNBOUND:                 0.379
REMARK SMILES O=c1c(O)c(-c2ccc(O)c(O)c2)oc2cc(O)cc(O)c12
REMARK SMILES IDX 5 1 3 2 2 3 1 4 22 5 20 6 19 7 17 8 16 9 15 10 14 11 6 12
REMARK SMILES IDX 7 13 8 14 9 15 13 16 11 17 10 18 12 20 4 22 21 24 18 26
REMARK H PARENT 10 19 12 21 4 23 21 25 18 27
REMARK Flexibility Score: inf
ROOT
ATOM      1  C   UNL     1     150.293 149.200 150.354  1.00  0.00     0.180 A 
ATOM      2  C   UNL     1     150.386 150.038 151.479  1.00  0.00     0.208 A 
ATOM      3  C   UNL     1     149.219 150.352 152.192  1.00  0.00     0.238 A 
ATOM      4  O   UNL     1     149.300 151.145 153.166  1.00  0.00    -0.285 OA
ATOM      5  C   UNL     1     147.975 149.813 151.782  1.00  0.00     0.111 A 
ATOM      6  C   UNL     1     146.735 150.032 152.454  1.00  0.00     0.134 A 
ATOM      7  C   UNL     1     145.547 149.558 151.885  1.00  0.00     0.093 A 
ATOM      8  C   UNL     1     145.561 148.816 150.705  1.00  0.00     0.123 A 
ATOM      9  C   UNL     1     146.774 148.544 150.070  1.00  0.00     0.094 A 
ATOM     10  C   UNL     1     147.972 149.036 150.595  1.00  0.00     0.146 A 
ATOM     11  O   UNL     1     149.103 148.764 149.956  1.00  0.00    -0.452 OA
ENDROOT
BRANCH   1  12
ATOM     12  C   UNL     1     151.482 148.803 149.566  1.00  0.00     0.025 A 
ATOM     13  C   UNL     1     151.630 147.466 149.164  1.00  0.00     0.016 A 
ATOM     14  C   UNL     1     152.755 147.066 148.437  1.00  0.00     0.051 A 
ATOM     15  C   UNL     1     153.755 147.993 148.118  1.00  0.00     0.157 A 
ATOM     16  C   UNL     1     152.499 149.727 149.261  1.00  0.00     0.062 A 
ATOM     17  C   UNL     1     153.629 149.324 148.533  1.00  0.00     0.158 A 
BRANCH  15  18
ATOM     18  O   UNL     1     154.877 147.599 147.392  1.00  0.00    -0.504 OA
ATOM     19  H   UNL     1     155.733 147.311 147.853  1.00  0.00     0.293 HD
ENDBRANCH  15  18
BRANCH  17  20
ATOM     20  O   UNL     1     154.632 150.241 148.226  1.00  0.00    -0.504 OA
ATOM     21  H   UNL     1     155.613 150.022 148.361  1.00  0.00     0.293 HD
ENDBRANCH  17  20
ENDBRANCH   1  12
BRANCH   2  22
ATOM     22  O   UNL     1     151.620 150.575 151.854  1.00  0.00    -0.502 OA
ATOM     23  H   UNL     1     151.796 150.936 152.783  1.00  0.00     0.293 HD
ENDBRANCH   2  22
BRANCH   6  24
ATOM     24  O   UNL     1     146.620 150.683 153.687  1.00  0.00    -0.507 OA
ATOM     25  H   UNL     1     145.755 151.031 154.074  1.00  0.00     0.293 HD
ENDBRANCH   6  24
BRANCH   8  26
ATOM     26  O   UNL     1     144.361 148.346 150.175  1.00  0.00    -0.508 OA
ATOM     27  H   UNL     1     143.848 148.871 149.476  1.00  0.00     0.293 HD
ENDBRANCH   8  26
TORSDOF 6
ENDMDL
MODEL 6
REMARK VINA RESULT:    -8.414      1.448      3.253
REMARK INTER + INTRA:          -9.757
REMARK INTER:                 -10.231
REMARK INTRA:                   0.475
REMARK UNBOUND:                 0.379
REMARK SMILES O=c1c(O)c(-c2ccc(O)c(O)c2)oc2cc(O)cc(O)c12
REMARK SMILES IDX 5 1 3 2 2 3 1 4 22 5 20 6 19 7 17 8 16 9 15 10 14 11 6 12
REMARK SMILES IDX 7 13 8 14 9 15 13 16 11 17 10 18 12 20 4 22 21 24 18 26
REMARK H PARENT 10 19 12 21 4 23 21 25 18 27
REMARK Flexibility Score: inf
ROOT
ATOM      1  C   UNL     1     149.023 149.387 150.932  1.00  0.00     0.180 A 
ATOM      2  C   UNL     1     150.178 150.009 151.438  1.00  0.00     0.208 A 
ATOM      3  C   UNL     1     151.415 149.749 150.827  1.00  0.00     0.238 A 
ATOM      4  O   UNL     1     152.452 150.266 151.317  1.00  0.00    -0.285 OA
ATOM      5  C   UNL     1     151.481 148.883 149.708  1.00  0.00     0.111 A 
ATOM      6  C   UNL     1     152.674 148.579 148.987  1.00  0.00     0.134 A 
ATOM      7  C   UNL     1     152.644 147.607 147.980  1.00  0.00     0.093 A 
ATOM      8  C   UNL     1     151.453 146.977 147.623  1.00  0.00     0.123 A 
ATOM      9  C   UNL     1     150.268 147.309 148.281  1.00  0.00     0.094 A 
ATOM     10  C   UNL     1     150.273 148.248 149.316  1.00  0.00     0.146 A 
ATOM     11  O   UNL     1     149.127 148.528 149.924  1.00  0.00    -0.452 OA
ENDROOT
BRANCH   1  12
ATOM     12  C   UNL     1     147.680 149.630 151.506  1.00  0.00     0.025 A 
ATOM     13  C   UNL     1     146.559 149.015 150.927  1.00  0.00     0.016 A 
ATOM     14  C   UNL     1     145.280 149.249 151.441  1.00  0.00     0.051 A 
ATOM     15  C   UNL     1     145.103 150.112 152.529  1.00  0.00     0.157 A 
ATOM     16  C   UNL     1     147.496 150.513 152.587  1.00  0.00     0.062 A 
ATOM     17  C   UNL     1     146.212 150.748 153.101  1.00  0.00     0.158 A 
BRANCH  15  18
ATOM     18  O   UNL     1     143.830 150.345 153.046  1.00  0.00    -0.504 OA
ATOM     19  H   UNL     1     143.697 150.709 153.983  1.00  0.00     0.293 HD
ENDBRANCH  15  18
BRANCH  17  20
ATOM     20  O   UNL     1     146.031 151.617 154.175  1.00  0.00    -0.504 OA
ATOM     21  H   UNL     1     145.716 152.571 154.040  1.00  0.00     0.293 HD
ENDBRANCH  17  20
ENDBRANCH   1  12
BRANCH   2  22
ATOM     22  O   UNL     1     150.094 150.844 152.555  1.00  0.00    -0.502 OA
ATOM     23  H   UNL     1     150.780 151.562 152.751  1.00  0.00     0.293 HD
ENDBRANCH   2  22
BRANCH   6  24
ATOM     24  O   UNL     1     153.899 149.218 149.202  1.00  0.00    -0.507 OA
ATOM     25  H   UNL     1     154.391 149.764 148.510  1.00  0.00     0.293 HD
ENDBRANCH   6  24
BRANCH   8  26
ATOM     26  O   UNL     1     151.458 146.026 146.605  1.00  0.00    -0.508 OA
ATOM     27  H   UNL     1     150.601 145.590 146.282  1.00  0.00     0.293 HD
ENDBRANCH   8  26
TORSDOF 6
ENDMDL
MODEL 7
REMARK VINA RESULT:    -8.101      1.536      7.482
REMARK INTER + INTRA:          -9.379
REMARK INTER:                  -9.534
REMARK INTRA:                   0.155
REMARK UNBOUND:                 0.379
REMARK SMILES O=c1c(O)c(-c2ccc(O)c(O)c2)oc2cc(O)cc(O)c12
REMARK SMILES IDX 5 1 3 2 2 3 1 4 22 5 20 6 19 7 17 8 16 9 15 10 14 11 6 12
REMARK SMILES IDX 7 13 8 14 9 15 13 16 11 17 10 18 12 20 4 22 21 24 18 26
REMARK H PARENT 10 19 12 21 4 23 21 25 18 27
REMARK Flexibility Score: inf
ROOT
ATOM      1  C   UNL     1     148.781 148.572 150.374  1.00  0.00     0.180 A 
ATOM      2  C   UNL     1     148.819 149.607 151.325  1.00  0.00     0.208 A 
ATOM      3  C   UNL     1     147.631 149.982 151.972  1.00  0.00     0.238 A 
ATOM      4  O   UNL     1     147.662 150.944 152.782  1.00  0.00    -0.285 OA
ATOM      5  C   UNL     1     146.422 149.307 151.673  1.00  0.00     0.111 A 
ATOM      6  C   UNL     1     145.168 149.576 152.297  1.00  0.00     0.134 A 
ATOM      7  C   UNL     1     144.012 148.939 151.830  1.00  0.00     0.093 A 
ATOM      8  C   UNL     1     144.075 147.994 150.807  1.00  0.00     0.123 A 
ATOM      9  C   UNL     1     145.306 147.678 150.230  1.00  0.00     0.094 A 
ATOM     10  C   UNL     1     146.471 148.325 150.649  1.00  0.00     0.146 A 
ATOM     11  O   UNL     1     147.620 148.003 150.067  1.00  0.00    -0.452 OA
ENDROOT
BRANCH   1  12
ATOM     12  C   UNL     1     149.995 148.104 149.668  1.00  0.00     0.025 A 
ATOM     13  C   UNL     1     150.207 146.727 149.495  1.00  0.00     0.016 A 
ATOM     14  C   UNL     1     151.357 146.263 148.850  1.00  0.00     0.051 A 
ATOM     15  C   UNL     1     152.319 147.169 148.384  1.00  0.00     0.157 A 
ATOM     16  C   UNL     1     150.974 149.009 149.217  1.00  0.00     0.062 A 
ATOM     17  C   UNL     1     152.129 148.543 148.572  1.00  0.00     0.158 A 
BRANCH  15  18
ATOM     18  O   UNL     1     153.466 146.711 147.739  1.00  0.00    -0.504 OA
ATOM     19  H   UNL     1     153.692 146.997 146.793  1.00  0.00     0.293 HD
ENDBRANCH  15  18
BRANCH  17  20
ATOM     20  O   UNL     1     153.094 149.441 148.120  1.00  0.00    -0.504 OA
ATOM     21  H   UNL     1     153.778 149.848 148.748  1.00  0.00     0.293 HD
ENDBRANCH  17  20
ENDBRANCH   1  12
BRANCH   2  22
ATOM     22  O   UNL     1     150.018 150.273 151.589  1.00  0.00    -0.502 OA
ATOM     23  H   UNL     1     150.049 151.238 151.895  1.00  0.00     0.293 HD
ENDBRANCH   2  22
BRANCH   6  24
ATOM     24  O   UNL     1     145.008 150.436 153.389  1.00  0.00    -0.507 OA
ATOM     25  H   UNL     1     144.180 150.485 153.964  1.00  0.00     0.293 HD
ENDBRANCH   6  24
BRANCH   8  26
ATOM     26  O   UNL     1     142.908 147.367 150.378  1.00  0.00    -0.508 OA
ATOM     27  H   UNL     1     142.932 146.578 149.742  1.00  0.00     0.293 HD
ENDBRANCH   8  26
TORSDOF 6
ENDMDL
MODEL 8
REMARK VINA RESULT:    -8.043      1.945      3.448
REMARK INTER + INTRA:          -9.310
REMARK INTER:                  -9.453
REMARK INTRA:                   0.143
REMARK UNBOUND:                 0.379
REMARK SMILES O=c1c(O)c(-c2ccc(O)c(O)c2)oc2cc(O)cc(O)c12
REMARK SMILES IDX 5 1 3 2 2 3 1 4 22 5 20 6 19 7 17 8 16 9 15 10 14 11 6 12
REMARK SMILES IDX 7 13 8 14 9 15 13 16 11 17 10 18 12 20 4 22 21 24 18 26
REMARK H PARENT 10 19 12 21 4 23 21 25 18 27
REMARK Flexibility Score: inf
ROOT
ATOM      1  C   UNL     1     148.230 148.783 150.757  1.00  0.00     0.180 A 
ATOM      2  C   UNL     1     148.663 149.578 151.832  1.00  0.00     0.208 A 
ATOM      3  C   UNL     1     149.998 150.012 151.865  1.00  0.00     0.238 A 
ATOM      4  O   UNL     1     150.393 150.677 152.856  1.00  0.00    -0.285 OA
ATOM      5  C   UNL     1     150.879 149.660 150.813  1.00  0.00     0.111 A 
ATOM      6  C   UNL     1     152.241 150.077 150.722  1.00  0.00     0.134 A 
ATOM      7  C   UNL     1     153.056 149.561 149.708  1.00  0.00     0.093 A 
ATOM      8  C   UNL     1     152.543 148.696 148.742  1.00  0.00     0.123 A 
ATOM      9  C   UNL     1     151.196 148.328 148.786  1.00  0.00     0.094 A 
ATOM     10  C   UNL     1     150.368 148.797 149.808  1.00  0.00     0.146 A 
ATOM     11  O   UNL     1     149.097 148.415 149.820  1.00  0.00    -0.452 OA
ENDROOT
BRANCH   1  12
ATOM     12  C   UNL     1     146.832 148.308 150.640  1.00  0.00     0.025 A 
ATOM     13  C   UNL     1     145.778 149.177 150.965  1.00  0.00     0.016 A 
ATOM     14  C   UNL     1     144.452 148.742 150.882  1.00  0.00     0.051 A 
ATOM     15  C   UNL     1     144.163 147.429 150.490  1.00  0.00     0.157 A 
ATOM     16  C   UNL     1     146.538 146.984 150.266  1.00  0.00     0.062 A 
ATOM     17  C   UNL     1     145.207 146.547 150.185  1.00  0.00     0.158 A 
BRANCH  15  18
ATOM     18  O   UNL     1     142.843 146.992 150.403  1.00  0.00    -0.504 OA
ATOM     19  H   UNL     1     142.353 146.621 151.210  1.00  0.00     0.293 HD
ENDBRANCH  15  18
BRANCH  17  20
ATOM     20  O   UNL     1     144.917 145.238 149.808  1.00  0.00    -0.504 OA
ATOM     21  H   UNL     1     144.018 144.814 150.008  1.00  0.00     0.293 HD
ENDBRANCH  17  20
ENDBRANCH   1  12
BRANCH   2  22
ATOM     22  O   UNL     1     147.783 149.897 152.870  1.00  0.00    -0.502 OA
ATOM     23  H   UNL     1     147.691 149.326 153.700  1.00  0.00     0.293 HD
ENDBRANCH   2  22
BRANCH   6  24
ATOM     24  O   UNL     1     152.830 151.010 151.582  1.00  0.00    -0.507 OA
ATOM     25  H   UNL     1     152.564 151.981 151.645  1.00  0.00     0.293 HD
ENDBRANCH   6  24
BRANCH   8  26
ATOM     26  O   UNL     1     153.378 148.214 147.738  1.00  0.00    -0.508 OA
ATOM     27  H   UNL     1     153.828 148.838 147.077  1.00  0.00     0.293 HD
ENDBRANCH   8  26
TORSDOF 6
ENDMDL
