MODEL 1
REMARK VINA RESULT:    -4.423      0.000      0.000
REMARK INTER + INTRA:          -7.431
REMARK INTER:                  -6.750
REMARK INTRA:                  -0.681
REMARK UNBOUND:                -0.681
REMARK SMILES O=C([O-])CCCCCCCCC(=O)[O-]
REMARK SMILES IDX 7 1 6 2 5 3 4 4 2 5 1 6 3 7 8 8 9 9 10 10 11 11 12 12 13 13
REMARK SMILES IDX 14 14
REMARK H PARENT
REMARK Flexibility Score: inf
ROOT
ATOM      1  C   UNL     1     -25.722  62.638  31.144  1.00  0.00     0.000 C 
ENDROOT
BRANCH   1   2
ATOM      2  C   UNL     1     -25.907  61.114  31.238  1.00  0.00     0.000 C 
BRANCH   2   3
ATOM      3  C   UNL     1     -26.965  60.710  32.284  1.00  0.00     0.006 C 
BRANCH   3   4
ATOM      4  C   UNL     1     -27.294  61.825  33.292  1.00  0.00     0.053 C 
BRANCH   4   5
ATOM      5  C   UNL     1     -26.795  61.518  34.669  1.00  0.00     0.041 C 
ATOM      6  O   UNL     1     -27.416  61.945  35.679  1.00  0.00    -0.550 OA
ATOM      7  O   UNL     1     -25.654  60.744  34.840  1.00  0.00    -0.550 OA
ENDBRANCH   4   5
ENDBRANCH   3   4
ENDBRANCH   2   3
ENDBRANCH   1   2
BRANCH   1   8
ATOM      8  C   UNL     1     -24.474  63.035  30.340  1.00  0.00     0.000 C 
BRANCH   8   9
ATOM      9  C   UNL     1     -23.220  62.260  30.771  1.00  0.00     0.000 C 
BRANCH   9  10
ATOM     10  C   UNL     1     -22.438  61.759  29.550  1.00  0.00     0.006 C 
BRANCH  10  11
ATOM     11  C   UNL     1     -23.353  61.623  28.329  1.00  0.00     0.053 C 
BRANCH  11  12
ATOM     12  C   UNL     1     -23.528  60.183  27.963  1.00  0.00     0.041 C 
ATOM     13  O   UNL     1     -24.503  59.528  28.418  1.00  0.00    -0.550 OA
ATOM     14  O   UNL     1     -22.589  59.550  27.159  1.00  0.00    -0.550 OA
ENDBRANCH  11  12
ENDBRANCH  10  11
ENDBRANCH   9  10
ENDBRANCH   8   9
ENDBRANCH   1   8
TORSDOF 9
ENDMDL
MODEL 2
REMARK VINA RESULT:    -4.411      1.316      1.884
REMARK INTER + INTRA:          -7.413
REMARK INTER:                  -6.981
REMARK INTRA:                  -0.432
REMARK UNBOUND:                -0.681
REMARK SMILES O=C([O-])CCCCCCCCC(=O)[O-]
REMARK SMILES IDX 7 1 6 2 5 3 4 4 2 5 1 6 3 7 8 8 9 9 10 10 11 11 12 12 13 13
REMARK SMILES IDX 14 14
REMARK H PARENT
REMARK Flexibility Score: inf
ROOT
ATOM      1  C   UNL     1     -25.719  60.534  30.949  1.00  0.00     0.000 C 
ENDROOT
BRANCH   1   2
ATOM      2  C   UNL     1     -26.439  59.714  32.034  1.00  0.00     0.000 C 
BRANCH   2   3
ATOM      3  C   UNL     1     -27.526  60.527  32.764  1.00  0.00     0.006 C 
BRANCH   3   4
ATOM      4  C   UNL     1     -27.365  60.539  34.295  1.00  0.00     0.053 C 
BRANCH   4   5
ATOM      5  C   UNL     1     -27.644  61.884  34.889  1.00  0.00     0.041 C 
ATOM      6  O   UNL     1     -27.910  62.865  34.143  1.00  0.00    -0.550 OA
ATOM      7  O   UNL     1     -27.627  62.053  36.268  1.00  0.00    -0.550 OA
ENDBRANCH   4   5
ENDBRANCH   3   4
ENDBRANCH   2   3
ENDBRANCH   1   2
BRANCH   1   8
ATOM      8  C   UNL     1     -25.580  62.019  31.323  1.00  0.00     0.000 C 
BRANCH   8   9
ATOM      9  C   UNL     1     -24.700  62.799  30.335  1.00  0.00     0.000 C 
BRANCH   9  10
ATOM     10  C   UNL     1     -23.575  61.913  29.785  1.00  0.00     0.006 C 
BRANCH  10  11
ATOM     11  C   UNL     1     -23.594  61.886  28.253  1.00  0.00     0.053 C 
BRANCH  11  12
ATOM     12  C   UNL     1     -22.339  61.268  27.725  1.00  0.00     0.041 C 
ATOM     13  O   UNL     1     -21.287  61.954  27.626  1.00  0.00    -0.550 OA
ATOM     14  O   UNL     1     -22.341  59.946  27.295  1.00  0.00    -0.550 OA
ENDBRANCH  11  12
ENDBRANCH  10  11
ENDBRANCH   9  10
ENDBRANCH   8   9
ENDBRANCH   1   8
TORSDOF 9
ENDMDL
MODEL 3
REMARK VINA RESULT:    -4.396      1.194      6.650
REMARK INTER + INTRA:          -7.391
REMARK INTER:                  -6.799
REMARK INTRA:                  -0.592
REMARK UNBOUND:                -0.681
REMARK SMILES O=C([O-])CCCCCCCCC(=O)[O-]
REMARK SMILES IDX 7 1 6 2 5 3 4 4 2 5 1 6 3 7 8 8 9 9 10 10 11 11 12 12 13 13
REMARK SMILES IDX 14 14
REMARK H PARENT
REMARK Flexibility Score: inf
ROOT
ATOM      1  C   UNL     1     -24.489  61.555  31.762  1.00  0.00     0.000 C 
ENDROOT
BRANCH   1   2
ATOM      2  C   UNL     1     -23.641  62.326  30.736  1.00  0.00     0.000 C 
BRANCH   2   3
ATOM      3  C   UNL     1     -24.311  62.398  29.349  1.00  0.00     0.006 C 
BRANCH   3   4
ATOM      4  C   UNL     1     -24.030  61.171  28.463  1.00  0.00     0.053 C 
BRANCH   4   5
ATOM      5  C   UNL     1     -22.584  61.048  28.098  1.00  0.00     0.041 C 
ATOM      6  O   UNL     1     -21.896  60.090  28.543  1.00  0.00    -0.550 OA
ATOM      7  O   UNL     1     -21.999  61.980  27.250  1.00  0.00    -0.550 OA
ENDBRANCH   4   5
ENDBRANCH   3   4
ENDBRANCH   2   3
ENDBRANCH   1   2
BRANCH   1   8
ATOM      8  C   UNL     1     -25.981  61.917  31.688  1.00  0.00     0.000 C 
BRANCH   8   9
ATOM      9  C   UNL     1     -26.897  60.696  31.862  1.00  0.00     0.000 C 
BRANCH   9  10
ATOM     10  C   UNL     1     -27.913  60.928  32.987  1.00  0.00     0.006 C 
BRANCH  10  11
ATOM     11  C   UNL     1     -27.562  62.182  33.795  1.00  0.00     0.053 C 
BRANCH  11  12
ATOM     12  C   UNL     1     -27.093  61.808  35.165  1.00  0.00     0.041 C 
ATOM     13  O   UNL     1     -27.839  61.993  36.163  1.00  0.00    -0.550 OA
ATOM     14  O   UNL     1     -25.813  61.299  35.348  1.00  0.00    -0.550 OA
ENDBRANCH  11  12
ENDBRANCH  10  11
ENDBRANCH   9  10
ENDBRANCH   8   9
ENDBRANCH   1   8
TORSDOF 9
ENDMDL
MODEL 4
REMARK VINA RESULT:    -4.393      2.088      2.794
REMARK INTER + INTRA:          -7.386
REMARK INTER:                  -6.666
REMARK INTRA:                  -0.720
REMARK UNBOUND:                -0.681
REMARK SMILES O=C([O-])CCCCCCCCC(=O)[O-]
REMARK SMILES IDX 7 1 6 2 5 3 4 4 2 5 1 6 3 7 8 8 9 9 10 10 11 11 12 12 13 13
REMARK SMILES IDX 14 14
REMARK H PARENT
REMARK Flexibility Score: inf
ROOT
ATOM      1  C   UNL     1     -25.355  59.154  30.627  1.00  0.00     0.000 C 
ENDROOT
BRANCH   1   2
ATOM      2  C   UNL     1     -26.229  59.402  31.869  1.00  0.00     0.000 C 
BRANCH   2   3
ATOM      3  C   UNL     1     -26.527  60.898  32.093  1.00  0.00     0.006 C 
BRANCH   3   4
ATOM      4  C   UNL     1     -27.944  61.173  32.627  1.00  0.00     0.053 C 
BRANCH   4   5
ATOM      5  C   UNL     1     -27.960  61.423  34.102  1.00  0.00     0.041 C 
ATOM      6  O   UNL     1     -28.116  60.466  34.907  1.00  0.00    -0.550 OA
ATOM      7  O   UNL     1     -27.787  62.712  34.592  1.00  0.00    -0.550 OA
ENDBRANCH   4   5
ENDBRANCH   3   4
ENDBRANCH   2   3
ENDBRANCH   1   2
BRANCH   1   8
ATOM      8  C   UNL     1     -25.519  60.249  29.560  1.00  0.00     0.000 C 
BRANCH   8   9
ATOM      9  C   UNL     1     -24.294  60.368  28.641  1.00  0.00     0.000 C 
BRANCH   9  10
ATOM     10  C   UNL     1     -23.707  61.785  28.691  1.00  0.00     0.006 C 
BRANCH  10  11
ATOM     11  C   UNL     1     -23.902  62.412  30.075  1.00  0.00     0.053 C 
BRANCH  11  12
ATOM     12  C   UNL     1     -22.780  62.027  30.987  1.00  0.00     0.041 C 
ATOM     13  O   UNL     1     -23.018  61.688  32.177  1.00  0.00    -0.550 OA
ATOM     14  O   UNL     1     -21.466  62.089  30.539  1.00  0.00    -0.550 OA
ENDBRANCH  11  12
ENDBRANCH  10  11
ENDBRANCH   9  10
ENDBRANCH   8   9
ENDBRANCH   1   8
TORSDOF 9
ENDMDL
MODEL 5
REMARK VINA RESULT:    -4.372      1.362      2.123
REMARK INTER + INTRA:          -7.354
REMARK INTER:                  -6.850
REMARK INTRA:                  -0.504
REMARK UNBOUND:                -0.681
REMARK SMILES O=C([O-])CCCCCCCCC(=O)[O-]
REMARK SMILES IDX 7 1 6 2 5 3 4 4 2 5 1 6 3 7 8 8 9 9 10 10 11 11 12 12 13 13
REMARK SMILES IDX 14 14
REMARK H PARENT
REMARK Flexibility Score: inf
ROOT
ATOM      1  C   UNL     1     -24.114  62.759  30.332  1.00  0.00     0.000 C 
ENDROOT
BRANCH   1   2
ATOM      2  C   UNL     1     -25.535  62.826  30.919  1.00  0.00     0.000 C 
BRANCH   2   3
ATOM      3  C   UNL     1     -25.859  61.619  31.822  1.00  0.00     0.006 C 
BRANCH   3   4
ATOM      4  C   UNL     1     -27.048  61.857  32.769  1.00  0.00     0.053 C 
BRANCH   4   5
ATOM      5  C   UNL     1     -26.916  61.103  34.055  1.00  0.00     0.041 C 
ATOM      6  O   UNL     1     -26.147  60.108  34.130  1.00  0.00    -0.550 OA
ATOM      7  O   UNL     1     -27.628  61.510  35.177  1.00  0.00    -0.550 OA
ENDBRANCH   4   5
ENDBRANCH   3   4
ENDBRANCH   2   3
ENDBRANCH   1   2
BRANCH   1   8
ATOM      8  C   UNL     1     -23.179  61.851  31.147  1.00  0.00     0.000 C 
BRANCH   8   9
ATOM      9  C   UNL     1     -21.694  62.129  30.869  1.00  0.00     0.000 C 
BRANCH   9  10
ATOM     10  C   UNL     1     -21.085  61.028  29.992  1.00  0.00     0.006 C 
BRANCH  10  11
ATOM     11  C   UNL     1     -20.607  61.595  28.651  1.00  0.00     0.053 C 
BRANCH  11  12
ATOM     12  C   UNL     1     -21.684  61.478  27.620  1.00  0.00     0.041 C 
ATOM     13  O   UNL     1     -21.678  62.230  26.609  1.00  0.00    -0.550 OA
ATOM     14  O   UNL     1     -22.722  60.572  27.797  1.00  0.00    -0.550 OA
ENDBRANCH  11  12
ENDBRANCH  10  11
ENDBRANCH   9  10
ENDBRANCH   8   9
ENDBRANCH   1   8
TORSDOF 9
ENDMDL
MODEL 6
REMARK VINA RESULT:    -4.353      2.138      5.964
REMARK INTER + INTRA:          -7.324
REMARK INTER:                  -6.371
REMARK INTRA:                  -0.953
REMARK UNBOUND:                -0.681
REMARK SMILES O=C([O-])CCCCCCCCC(=O)[O-]
REMARK SMILES IDX 7 1 6 2 5 3 4 4 2 5 1 6 3 7 8 8 9 9 10 10 11 11 12 12 13 13
REMARK SMILES IDX 14 14
REMARK H PARENT
REMARK Flexibility Score: inf
ROOT
ATOM      1  C   UNL     1     -22.698  61.849  31.469  1.00  0.00     0.000 C 
ENDROOT
BRANCH   1   2
ATOM      2  C   UNL     1     -21.277  62.209  30.999  1.00  0.00     0.000 C 
BRANCH   2   3
ATOM      3  C   UNL     1     -20.679  61.144  30.058  1.00  0.00     0.006 C 
BRANCH   3   4
ATOM      4  C   UNL     1     -20.596  61.595  28.589  1.00  0.00     0.053 C 
BRANCH   4   5
ATOM      5  C   UNL     1     -21.800  61.193  27.797  1.00  0.00     0.041 C 
ATOM      6  O   UNL     1     -22.510  62.069  27.233  1.00  0.00    -0.550 OA
ATOM      7  O   UNL     1     -22.130  59.850  27.666  1.00  0.00    -0.550 OA
ENDBRANCH   4   5
ENDBRANCH   3   4
ENDBRANCH   2   3
ENDBRANCH   1   2
BRANCH   1   8
ATOM      8  C   UNL     1     -23.788  62.602  30.688  1.00  0.00     0.000 C 
BRANCH   8   9
ATOM      9  C   UNL     1     -24.747  61.657  29.950  1.00  0.00     0.000 C 
BRANCH   9  10
ATOM     10  C   UNL     1     -24.466  60.194  30.316  1.00  0.00     0.006 C 
BRANCH  10  11
ATOM     11  C   UNL     1     -25.769  59.435  30.587  1.00  0.00     0.053 C 
BRANCH  11  12
ATOM     12  C   UNL     1     -26.308  59.785  31.938  1.00  0.00     0.041 C 
ATOM     13  O   UNL     1     -25.836  59.236  32.969  1.00  0.00    -0.550 OA
ATOM     14  O   UNL     1     -27.363  60.680  32.056  1.00  0.00    -0.550 OA
ENDBRANCH  11  12
ENDBRANCH  10  11
ENDBRANCH   9  10
ENDBRANCH   8   9
ENDBRANCH   1   8
TORSDOF 9
ENDMDL
MODEL 7
REMARK VINA RESULT:    -4.330      1.372      2.025
REMARK INTER + INTRA:          -7.289
REMARK INTER:                  -6.405
REMARK INTRA:                  -0.884
REMARK UNBOUND:                -0.681
REMARK SMILES O=C([O-])CCCCCCCCC(=O)[O-]
REMARK SMILES IDX 7 1 6 2 5 3 4 4 2 5 1 6 3 7 8 8 9 9 10 10 11 11 12 12 13 13
REMARK SMILES IDX 14 14
REMARK H PARENT
REMARK Flexibility Score: inf
ROOT
ATOM      1  C   UNL     1     -24.111  62.798  30.365  1.00  0.00     0.000 C 
ENDROOT
BRANCH   1   2
ATOM      2  C   UNL     1     -25.423  62.342  31.027  1.00  0.00     0.000 C 
BRANCH   2   3
ATOM      3  C   UNL     1     -25.248  61.056  31.860  1.00  0.00     0.006 C 
BRANCH   3   4
ATOM      4  C   UNL     1     -25.873  61.140  33.264  1.00  0.00     0.053 C 
BRANCH   4   5
ATOM      5  C   UNL     1     -27.351  61.369  33.220  1.00  0.00     0.041 C 
ATOM      6  O   UNL     1     -28.104  60.543  32.639  1.00  0.00    -0.550 OA
ATOM      7  O   UNL     1     -27.900  62.487  33.835  1.00  0.00    -0.550 OA
ENDBRANCH   4   5
ENDBRANCH   3   4
ENDBRANCH   2   3
ENDBRANCH   1   2
BRANCH   1   8
ATOM      8  C   UNL     1     -22.887  62.024  30.880  1.00  0.00     0.000 C 
BRANCH   8   9
ATOM      9  C   UNL     1     -21.979  61.528  29.744  1.00  0.00     0.000 C 
BRANCH   9  10
ATOM     10  C   UNL     1     -22.696  61.616  28.391  1.00  0.00     0.006 C 
BRANCH  10  11
ATOM     11  C   UNL     1     -22.854  60.228  27.761  1.00  0.00     0.053 C 
BRANCH  11  12
ATOM     12  C   UNL     1     -23.873  59.427  28.508  1.00  0.00     0.041 C 
ATOM     13  O   UNL     1     -23.540  58.356  29.082  1.00  0.00    -0.550 OA
ATOM     14  O   UNL     1     -25.200  59.837  28.531  1.00  0.00    -0.550 OA
ENDBRANCH  11  12
ENDBRANCH  10  11
ENDBRANCH   9  10
ENDBRANCH   8   9
ENDBRANCH   1   8
TORSDOF 9
ENDMDL
MODEL 8
REMARK VINA RESULT:    -4.299      2.468      3.452
REMARK INTER + INTRA:          -7.241
REMARK INTER:                  -6.473
REMARK INTRA:                  -0.768
REMARK UNBOUND:                -0.681
REMARK SMILES O=C([O-])CCCCCCCCC(=O)[O-]
REMARK SMILES IDX 7 1 6 2 5 3 4 4 2 5 1 6 3 7 8 8 9 9 10 10 11 11 12 12 13 13
REMARK SMILES IDX 14 14
REMARK H PARENT
REMARK Flexibility Score: inf
ROOT
ATOM      1  C   UNL     1     -24.156  61.450  28.811  1.00  0.00     0.000 C 
ENDROOT
BRANCH   1   2
ATOM      2  C   UNL     1     -24.394  62.670  29.719  1.00  0.00     0.000 C 
BRANCH   2   3
ATOM      3  C   UNL     1     -25.221  62.321  30.972  1.00  0.00     0.006 C 
BRANCH   3   4
ATOM      4  C   UNL     1     -25.726  60.867  30.994  1.00  0.00     0.053 C 
BRANCH   4   5
ATOM      5  C   UNL     1     -26.639  60.597  32.149  1.00  0.00     0.041 C 
ATOM      6  O   UNL     1     -27.776  61.139  32.200  1.00  0.00    -0.550 OA
ATOM      7  O   UNL     1     -26.244  59.732  33.161  1.00  0.00    -0.550 OA
ENDBRANCH   4   5
ENDBRANCH   3   4
ENDBRANCH   2   3
ENDBRANCH   1   2
BRANCH   1   8
ATOM      8  C   UNL     1     -23.017  61.675  27.803  1.00  0.00     0.000 C 
BRANCH   8   9
ATOM      9  C   UNL     1     -21.774  60.830  28.116  1.00  0.00     0.000 C 
BRANCH   9  10
ATOM     10  C   UNL     1     -20.626  61.711  28.626  1.00  0.00     0.006 C 
BRANCH  10  11
ATOM     11  C   UNL     1     -20.145  61.244  30.004  1.00  0.00     0.053 C 
BRANCH  11  12
ATOM     12  C   UNL     1     -21.115  61.660  31.065  1.00  0.00     0.041 C 
ATOM     13  O   UNL     1     -21.129  62.849  31.480  1.00  0.00    -0.550 OA
ATOM     14  O   UNL     1     -21.971  60.723  31.631  1.00  0.00    -0.550 OA
ENDBRANCH  11  12
ENDBRANCH  10  11
ENDBRANCH   9  10
ENDBRANCH   8   9
ENDBRANCH   1   8
TORSDOF 9
ENDMDL
MODEL 9
REMARK VINA RESULT:    -4.296      0.985      5.981
REMARK INTER + INTRA:          -7.238
REMARK INTER:                  -6.509
REMARK INTRA:                  -0.728
REMARK UNBOUND:                -0.681
REMARK SMILES O=C([O-])CCCCCCCCC(=O)[O-]
REMARK SMILES IDX 7 1 6 2 5 3 4 4 2 5 1 6 3 7 8 8 9 9 10 10 11 11 12 12 13 13
REMARK SMILES IDX 14 14
REMARK H PARENT
REMARK Flexibility Score: inf
ROOT
ATOM      1  C   UNL     1     -23.132  62.084  30.771  1.00  0.00     0.000 C 
ENDROOT
BRANCH   1   2
ATOM      2  C   UNL     1     -22.137  61.626  29.690  1.00  0.00     0.000 C 
BRANCH   2   3
ATOM      3  C   UNL     1     -22.772  61.576  28.286  1.00  0.00     0.006 C 
BRANCH   3   4
ATOM      4  C   UNL     1     -22.919  60.150  27.726  1.00  0.00     0.053 C 
BRANCH   4   5
ATOM      5  C   UNL     1     -23.931  59.342  28.475  1.00  0.00     0.041 C 
ATOM      6  O   UNL     1     -23.595  58.263  29.033  1.00  0.00    -0.550 OA
ATOM      7  O   UNL     1     -25.243  59.789  28.574  1.00  0.00    -0.550 OA
ENDBRANCH   4   5
ENDBRANCH   3   4
ENDBRANCH   2   3
ENDBRANCH   1   2
BRANCH   1   8
ATOM      8  C   UNL     1     -24.338  62.838  30.185  1.00  0.00     0.000 C 
BRANCH   8   9
ATOM      9  C   UNL     1     -25.571  62.785  31.100  1.00  0.00     0.000 C 
BRANCH   9  10
ATOM     10  C   UNL     1     -25.755  61.382  31.692  1.00  0.00     0.006 C 
BRANCH  10  11
ATOM     11  C   UNL     1     -27.166  61.207  32.261  1.00  0.00     0.053 C 
BRANCH  11  12
ATOM     12  C   UNL     1     -27.187  61.533  33.721  1.00  0.00     0.041 C 
ATOM     13  O   UNL     1     -27.742  62.588  34.127  1.00  0.00    -0.550 OA
ATOM     14  O   UNL     1     -26.550  60.697  34.630  1.00  0.00    -0.550 OA
ENDBRANCH  11  12
ENDBRANCH  10  11
ENDBRANCH   9  10
ENDBRANCH   8   9
ENDBRANCH   1   8
TORSDOF 9
ENDMDL
