MODEL 1
REMARK VINA RESULT:    -4.507      0.000      0.000
REMARK INTER + INTRA:          -6.825
REMARK INTER:                  -6.878
REMARK INTRA:                   0.053
REMARK UNBOUND:                 0.053
REMARK SMILES CC1=CCC[C@@H](C)C(=O)C[C@@H](C(C)C)C(=O)C1
REMARK SMILES IDX 8 1 9 2 6 3 7 4 5 5 4 6 3 7 2 8 1 9 10 11 11 12 15 13 16 14
REMARK SMILES IDX 17 15 12 17 13 18 14 19
REMARK H PARENT
REMARK Flexibility Score: 70.00
ROOT
ATOM      1  C   UNL     1      16.278 -29.556  21.798  1.00  0.00     0.136 C 
ATOM      2  O   UNL     1      16.256 -28.344  21.637  1.00  0.00    -0.299 OA
ENDROOT
BRANCH   1   3
ATOM      3  C   UNL     1      17.591 -30.208  22.193  1.00  0.00     0.053 C 
ATOM      4  C   UNL     1      18.701 -29.159  22.348  1.00  0.00     0.016 C 
BRANCH   3   5
ATOM      5  C   UNL     1      17.981 -31.288  21.154  1.00  0.00     0.015 C 
BRANCH   5   6
ATOM      6  C   UNL     1      18.094 -32.700  21.772  1.00  0.00     0.028 C 
BRANCH   6   7
ATOM      7  C   UNL     1      17.676 -33.779  20.799  1.00  0.00    -0.028 C 
ATOM      8  C   UNL     1      16.477 -34.409  20.801  1.00  0.00    -0.070 CG0
ATOM      9  C   UNL     1      16.219 -35.445  19.737  1.00  0.00     0.039 C 
ATOM     10  G   UNL     1      15.383 -34.118  21.815  1.00  0.00     0.000 G0
ENDBRANCH   6   7
ENDBRANCH   5   6
ENDBRANCH   3   5
ENDBRANCH   1   3
BRANCH   1  11
ATOM     11  C   UNL     1      14.985 -30.319  21.557  1.00  0.00     0.087 C 
BRANCH  11  12
ATOM     12  C   UNL     1      14.761 -31.611  22.394  1.00  0.00     0.066 C 
BRANCH  12  13
ATOM     13  C   UNL     1      14.616 -32.839  21.508  1.00  0.00     0.140 C 
ATOM     14  O   UNL     1      13.825 -32.824  20.576  1.00  0.00    -0.299 OA
BRANCH  13  15
ATOM     15  C   UNL     1      15.378 -34.106  21.826  1.00  0.00     0.106 CG0
ATOM     16  G   UNL     1      16.459 -34.410  20.801  1.00  0.00     0.000 G0
ENDBRANCH  13  15
ENDBRANCH  12  13
BRANCH  12  17
ATOM     17  C   UNL     1      13.555 -31.509  23.385  1.00  0.00    -0.006 C 
ATOM     18  C   UNL     1      13.734 -32.434  24.600  1.00  0.00     0.008 C 
ATOM     19  C   UNL     1      13.244 -30.080  23.859  1.00  0.00     0.008 C 
ENDBRANCH  12  17
ENDBRANCH  11  12
ENDBRANCH   1  11
TORSDOF 1
ENDMDL
MODEL 2
REMARK VINA RESULT:    -4.361      1.764      3.713
REMARK INTER + INTRA:          -6.602
REMARK INTER:                  -6.411
REMARK INTRA:                  -0.191
REMARK UNBOUND:                 0.053
REMARK SMILES CC1=CCC[C@@H](C)C(=O)C[C@@H](C(C)C)C(=O)C1
REMARK SMILES IDX 8 1 9 2 6 3 7 4 5 5 4 6 3 7 2 8 1 9 10 11 11 12 15 13 16 14
REMARK SMILES IDX 17 15 12 17 13 18 14 19
REMARK H PARENT
REMARK Flexibility Score: 70.00
ROOT
ATOM      1  C   UNL     1      16.140 -29.672  23.069  1.00  0.00     0.136 C 
ATOM      2  O   UNL     1      16.712 -28.598  22.949  1.00  0.00    -0.299 OA
ENDROOT
BRANCH   1   3
ATOM      3  C   UNL     1      14.658 -29.742  22.747  1.00  0.00     0.053 C 
ATOM      4  C   UNL     1      13.890 -30.481  23.852  1.00  0.00     0.016 C 
BRANCH   3   5
ATOM      5  C   UNL     1      14.446 -30.416  21.369  1.00  0.00     0.015 C 
BRANCH   5   6
ATOM      6  C   UNL     1      13.587 -31.698  21.455  1.00  0.00     0.028 C 
BRANCH   6   7
ATOM      7  C   UNL     1      14.225 -32.858  20.725  1.00  0.00    -0.028 C 
ATOM      8  C   UNL     1      15.053 -33.771  21.285  1.00  0.00    -0.070 CG0
ATOM      9  C   UNL     1      15.580 -34.881  20.411  1.00  0.00     0.039 C 
ATOM     10  G   UNL     1      15.469 -33.735  22.747  1.00  0.00     0.000 G0
ENDBRANCH   6   7
ENDBRANCH   5   6
ENDBRANCH   3   5
ENDBRANCH   1   3
BRANCH   1  11
ATOM     11  C   UNL     1      16.961 -30.852  23.565  1.00  0.00     0.087 C 
BRANCH  11  12
ATOM     12  C   UNL     1      17.383 -31.913  22.509  1.00  0.00     0.066 C 
BRANCH  12  13
ATOM     13  C   UNL     1      16.928 -33.311  22.901  1.00  0.00     0.140 C 
ATOM     14  O   UNL     1      17.752 -34.135  23.273  1.00  0.00    -0.299 OA
BRANCH  13  15
ATOM     15  C   UNL     1      15.479 -33.714  22.750  1.00  0.00     0.106 CG0
ATOM     16  G   UNL     1      15.043 -33.790  21.296  1.00  0.00     0.000 G0
ENDBRANCH  13  15
ENDBRANCH  12  13
BRANCH  12  17
ATOM     17  C   UNL     1      18.916 -31.907  22.199  1.00  0.00    -0.006 C 
ATOM     18  C   UNL     1      19.193 -31.869  20.686  1.00  0.00     0.008 C 
ATOM     19  C   UNL     1      19.700 -30.785  22.900  1.00  0.00     0.008 C 
ENDBRANCH  12  17
ENDBRANCH  11  12
ENDBRANCH   1  11
TORSDOF 1
ENDMDL
MODEL 3
REMARK VINA RESULT:    -4.200      1.828      2.162
REMARK INTER + INTRA:          -6.357
REMARK INTER:                  -6.329
REMARK INTRA:                  -0.029
REMARK UNBOUND:                 0.053
REMARK SMILES CC1=CCC[C@@H](C)C(=O)C[C@@H](C(C)C)C(=O)C1
REMARK SMILES IDX 8 1 9 2 6 3 7 4 5 5 4 6 3 7 2 8 1 9 10 11 11 12 15 13 16 14
REMARK SMILES IDX 17 15 12 17 13 18 14 19
REMARK H PARENT
REMARK Flexibility Score: 70.00
ROOT
ATOM      1  C   UNL     1      16.696 -29.255  22.021  1.00  0.00     0.136 C 
ATOM      2  O   UNL     1      16.308 -28.131  22.310  1.00  0.00    -0.299 OA
ENDROOT
BRANCH   1   3
ATOM      3  C   UNL     1      18.149 -29.438  21.623  1.00  0.00     0.053 C 
ATOM      4  C   UNL     1      18.606 -28.314  20.682  1.00  0.00     0.016 C 
BRANCH   3   5
ATOM      5  C   UNL     1      18.350 -30.830  20.974  1.00  0.00     0.015 C 
BRANCH   5   6
ATOM      6  C   UNL     1      19.085 -31.823  21.903  1.00  0.00     0.028 C 
BRANCH   6   7
ATOM      7  C   UNL     1      18.379 -33.157  21.975  1.00  0.00    -0.028 C 
ATOM      8  C   UNL     1      17.432 -33.490  22.884  1.00  0.00    -0.070 CG0
ATOM      9  C   UNL     1      16.812 -34.862  22.793  1.00  0.00     0.039 C 
ATOM     10  G   UNL     1      16.962 -32.550  23.982  1.00  0.00     0.000 G0
ENDBRANCH   6   7
ENDBRANCH   5   6
ENDBRANCH   3   5
ENDBRANCH   1   3
BRANCH   1  11
ATOM     11  C   UNL     1      15.673 -30.380  22.056  1.00  0.00     0.087 C 
BRANCH  11  12
ATOM     12  C   UNL     1      15.093 -30.764  23.447  1.00  0.00     0.066 C 
BRANCH  12  13
ATOM     13  C   UNL     1      15.491 -32.176  23.854  1.00  0.00     0.140 C 
ATOM     14  O   UNL     1      14.626 -32.993  24.135  1.00  0.00    -0.299 OA
BRANCH  13  15
ATOM     15  C   UNL     1      16.949 -32.547  23.998  1.00  0.00     0.106 CG0
ATOM     16  G   UNL     1      17.430 -33.467  22.888  1.00  0.00     0.000 G0
ENDBRANCH  13  15
ENDBRANCH  12  13
BRANCH  12  17
ATOM     17  C   UNL     1      13.542 -30.587  23.545  1.00  0.00    -0.006 C 
ATOM     18  C   UNL     1      13.160 -29.281  24.262  1.00  0.00     0.008 C 
ATOM     19  C   UNL     1      12.808 -30.674  22.196  1.00  0.00     0.008 C 
ENDBRANCH  12  17
ENDBRANCH  11  12
ENDBRANCH   1  11
TORSDOF 1
ENDMDL
MODEL 4
REMARK VINA RESULT:    -4.188      2.541      2.975
REMARK INTER + INTRA:          -6.339
REMARK INTER:                  -6.216
REMARK INTRA:                  -0.122
REMARK UNBOUND:                 0.053
REMARK SMILES CC1=CCC[C@@H](C)C(=O)C[C@@H](C(C)C)C(=O)C1
REMARK SMILES IDX 8 1 9 2 6 3 7 4 5 5 4 6 3 7 2 8 1 9 10 11 11 12 15 13 16 14
REMARK SMILES IDX 17 15 12 17 13 18 14 19
REMARK H PARENT
REMARK Flexibility Score: 70.00
ROOT
ATOM      1  C   UNL     1      17.972 -31.831  24.254  1.00  0.00     0.136 C 
ATOM      2  O   UNL     1      18.824 -32.053  23.405  1.00  0.00    -0.299 OA
ENDROOT
BRANCH   1   3
ATOM      3  C   UNL     1      18.036 -32.603  25.561  1.00  0.00     0.053 C 
ATOM      4  C   UNL     1      19.224 -32.138  26.415  1.00  0.00     0.016 C 
BRANCH   3   5
ATOM      5  C   UNL     1      18.110 -34.123  25.276  1.00  0.00     0.015 C 
BRANCH   5   6
ATOM      6  C   UNL     1      16.846 -34.662  24.568  1.00  0.00     0.028 C 
BRANCH   6   7
ATOM      7  C   UNL     1      17.143 -35.135  23.163  1.00  0.00    -0.028 C 
ATOM      8  C   UNL     1      16.510 -34.706  22.046  1.00  0.00    -0.070 CG0
ATOM      9  C   UNL     1      16.954 -35.268  20.719  1.00  0.00     0.039 C 
ATOM     10  G   UNL     1      15.383 -33.686  22.065  1.00  0.00     0.000 G0
ENDBRANCH   6   7
ENDBRANCH   5   6
ENDBRANCH   3   5
ENDBRANCH   1   3
BRANCH   1  11
ATOM     11  C   UNL     1      16.892 -30.815  23.916  1.00  0.00     0.087 C 
BRANCH  11  12
ATOM     12  C   UNL     1      15.579 -31.363  23.286  1.00  0.00     0.066 C 
BRANCH  12  13
ATOM     13  C   UNL     1      15.859 -32.247  22.080  1.00  0.00     0.140 C 
ATOM     14  O   UNL     1      16.425 -31.778  21.102  1.00  0.00    -0.299 OA
BRANCH  13  15
ATOM     15  C   UNL     1      15.365 -33.675  22.047  1.00  0.00     0.106 CG0
ATOM     16  G   UNL     1      16.500 -34.686  22.024  1.00  0.00     0.000 G0
ENDBRANCH  13  15
ENDBRANCH  12  13
BRANCH  12  17
ATOM     17  C   UNL     1      14.554 -30.243  22.914  1.00  0.00    -0.006 C 
ATOM     18  C   UNL     1      13.408 -30.155  23.935  1.00  0.00     0.008 C 
ATOM     19  C   UNL     1      15.180 -28.852  22.712  1.00  0.00     0.008 C 
ENDBRANCH  12  17
ENDBRANCH  11  12
ENDBRANCH   1  11
TORSDOF 1
ENDMDL
MODEL 5
REMARK VINA RESULT:    -4.071      1.854      2.528
REMARK INTER + INTRA:          -6.160
REMARK INTER:                  -6.277
REMARK INTRA:                   0.117
REMARK UNBOUND:                 0.053
REMARK SMILES CC1=CCC[C@@H](C)C(=O)C[C@@H](C(C)C)C(=O)C1
REMARK SMILES IDX 8 1 9 2 6 3 7 4 5 5 4 6 3 7 2 8 1 9 10 11 11 12 15 13 16 14
REMARK SMILES IDX 17 15 12 17 13 18 14 19
REMARK H PARENT
REMARK Flexibility Score: 70.00
ROOT
ATOM      1  C   UNL     1      17.433 -31.122  21.426  1.00  0.00     0.136 C 
ATOM      2  O   UNL     1      17.794 -29.969  21.236  1.00  0.00    -0.299 OA
ENDROOT
BRANCH   1   3
ATOM      3  C   UNL     1      18.488 -32.213  21.460  1.00  0.00     0.053 C 
ATOM      4  C   UNL     1      19.891 -31.628  21.245  1.00  0.00     0.016 C 
BRANCH   3   5
ATOM      5  C   UNL     1      18.164 -33.297  20.403  1.00  0.00     0.015 C 
BRANCH   5   6
ATOM      6  C   UNL     1      17.761 -34.649  21.035  1.00  0.00     0.028 C 
BRANCH   6   7
ATOM      7  C   UNL     1      17.815 -34.605  22.545  1.00  0.00    -0.028 C 
ATOM      8  C   UNL     1      16.768 -34.321  23.355  1.00  0.00    -0.070 CG0
ATOM      9  C   UNL     1      16.996 -34.348  24.845  1.00  0.00     0.039 C 
ATOM     10  G   UNL     1      15.379 -33.984  22.837  1.00  0.00     0.000 G0
ENDBRANCH   6   7
ENDBRANCH   5   6
ENDBRANCH   3   5
ENDBRANCH   1   3
BRANCH   1  11
ATOM     11  C   UNL     1      15.941 -31.373  21.584  1.00  0.00     0.087 C 
BRANCH  11  12
ATOM     12  C   UNL     1      15.368 -31.341  23.030  1.00  0.00     0.066 C 
BRANCH  12  13
ATOM     13  C   UNL     1      14.827 -32.699  23.452  1.00  0.00     0.140 C 
ATOM     14  O   UNL     1      13.995 -32.770  24.345  1.00  0.00    -0.299 OA
BRANCH  13  15
ATOM     15  C   UNL     1      15.377 -33.966  22.837  1.00  0.00     0.106 CG0
ATOM     16  G   UNL     1      16.761 -34.316  23.360  1.00  0.00     0.000 G0
ENDBRANCH  13  15
ENDBRANCH  12  13
BRANCH  12  17
ATOM     17  C   UNL     1      14.286 -30.233  23.245  1.00  0.00    -0.006 C 
ATOM     18  C   UNL     1      14.888 -28.821  23.158  1.00  0.00     0.008 C 
ATOM     19  C   UNL     1      13.073 -30.341  22.305  1.00  0.00     0.008 C 
ENDBRANCH  12  17
ENDBRANCH  11  12
ENDBRANCH   1  11
TORSDOF 1
ENDMDL
MODEL 6
REMARK VINA RESULT:    -4.009      2.420      4.299
REMARK INTER + INTRA:          -6.065
REMARK INTER:                  -6.081
REMARK INTRA:                   0.016
REMARK UNBOUND:                 0.053
REMARK SMILES CC1=CCC[C@@H](C)C(=O)C[C@@H](C(C)C)C(=O)C1
REMARK SMILES IDX 8 1 9 2 6 3 7 4 5 5 4 6 3 7 2 8 1 9 10 11 11 12 15 13 16 14
REMARK SMILES IDX 17 15 12 17 13 18 14 19
REMARK H PARENT
REMARK Flexibility Score: 70.00
ROOT
ATOM      1  C   UNL     1      16.496 -34.579  21.741  1.00  0.00     0.136 C 
ATOM      2  O   UNL     1      17.209 -35.223  22.498  1.00  0.00    -0.299 OA
ENDROOT
BRANCH   1   3
ATOM      3  C   UNL     1      16.839 -34.568  20.262  1.00  0.00     0.053 C 
ATOM      4  C   UNL     1      16.593 -35.945  19.630  1.00  0.00     0.016 C 
BRANCH   3   5
ATOM      5  C   UNL     1      18.306 -34.113  20.061  1.00  0.00     0.015 C 
BRANCH   5   6
ATOM      6  C   UNL     1      18.496 -32.594  20.274  1.00  0.00     0.028 C 
BRANCH   6   7
ATOM      7  C   UNL     1      19.470 -32.297  21.392  1.00  0.00    -0.028 C 
ATOM      8  C   UNL     1      19.179 -31.598  22.514  1.00  0.00    -0.070 CG0
ATOM      9  C   UNL     1      20.270 -31.419  23.540  1.00  0.00     0.039 C 
ATOM     10  G   UNL     1      17.813 -30.993  22.791  1.00  0.00     0.000 G0
ENDBRANCH   6   7
ENDBRANCH   5   6
ENDBRANCH   3   5
ENDBRANCH   1   3
BRANCH   1  11
ATOM     11  C   UNL     1      15.334 -33.813  22.353  1.00  0.00     0.087 C 
BRANCH  11  12
ATOM     12  C   UNL     1      15.537 -32.288  22.583  1.00  0.00     0.066 C 
BRANCH  12  13
ATOM     13  C   UNL     1      16.824 -31.999  23.340  1.00  0.00     0.140 C 
ATOM     14  O   UNL     1      17.027 -32.535  24.421  1.00  0.00    -0.299 OA
BRANCH  13  15
ATOM     15  C   UNL     1      17.814 -30.987  22.808  1.00  0.00     0.106 CG0
ATOM     16  G   UNL     1      19.173 -31.599  22.511  1.00  0.00     0.000 G0
ENDBRANCH  13  15
ENDBRANCH  12  13
BRANCH  12  17
ATOM     17  C   UNL     1      14.324 -31.599  23.290  1.00  0.00    -0.006 C 
ATOM     18  C   UNL     1      13.183 -31.298  22.303  1.00  0.00     0.008 C 
ATOM     19  C   UNL     1      13.774 -32.371  24.501  1.00  0.00     0.008 C 
ENDBRANCH  12  17
ENDBRANCH  11  12
ENDBRANCH   1  11
TORSDOF 1
ENDMDL
MODEL 7
REMARK VINA RESULT:    -3.976      2.527      4.902
REMARK INTER + INTRA:          -6.015
REMARK INTER:                  -5.731
REMARK INTRA:                  -0.284
REMARK UNBOUND:                 0.053
REMARK SMILES CC1=CCC[C@@H](C)C(=O)C[C@@H](C(C)C)C(=O)C1
REMARK SMILES IDX 8 1 9 2 6 3 7 4 5 5 4 6 3 7 2 8 1 9 10 11 11 12 15 13 16 14
REMARK SMILES IDX 17 15 12 17 13 18 14 19
REMARK H PARENT
REMARK Flexibility Score: 70.00
ROOT
ATOM      1  C   UNL     1      17.452 -33.832  21.002  1.00  0.00     0.136 C 
ATOM      2  O   UNL     1      17.880 -33.189  20.053  1.00  0.00    -0.299 OA
ENDROOT
BRANCH   1   3
ATOM      3  C   UNL     1      16.213 -34.684  20.797  1.00  0.00     0.053 C 
ATOM      4  C   UNL     1      16.489 -35.826  19.809  1.00  0.00     0.016 C 
BRANCH   3   5
ATOM      5  C   UNL     1      15.034 -33.801  20.319  1.00  0.00     0.015 C 
BRANCH   5   6
ATOM      6  C   UNL     1      14.423 -32.951  21.456  1.00  0.00     0.028 C 
BRANCH   6   7
ATOM      7  C   UNL     1      14.867 -31.508  21.385  1.00  0.00    -0.028 C 
ATOM      8  C   UNL     1      15.449 -30.821  22.396  1.00  0.00    -0.070 CG0
ATOM      9  C   UNL     1      15.854 -29.391  22.142  1.00  0.00     0.039 C 
ATOM     10  G   UNL     1      15.719 -31.421  23.766  1.00  0.00     0.000 G0
ENDBRANCH   6   7
ENDBRANCH   5   6
ENDBRANCH   3   5
ENDBRANCH   1   3
BRANCH   1  11
ATOM     11  C   UNL     1      18.186 -33.699  22.328  1.00  0.00     0.087 C 
BRANCH  11  12
ATOM     12  C   UNL     1      17.314 -33.502  23.601  1.00  0.00     0.066 C 
BRANCH  12  13
ATOM     13  C   UNL     1      17.090 -32.028  23.908  1.00  0.00     0.140 C 
ATOM     14  O   UNL     1      18.014 -31.349  24.332  1.00  0.00    -0.299 OA
BRANCH  13  15
ATOM     15  C   UNL     1      15.711 -31.421  23.776  1.00  0.00     0.106 CG0
ATOM     16  G   UNL     1      15.461 -30.833  22.397  1.00  0.00     0.000 G0
ENDBRANCH  13  15
ENDBRANCH  12  13
BRANCH  12  17
ATOM     17  C   UNL     1      17.875 -34.240  24.859  1.00  0.00    -0.006 C 
ATOM     18  C   UNL     1      16.946 -35.377  25.317  1.00  0.00     0.008 C 
ATOM     19  C   UNL     1      19.308 -34.774  24.694  1.00  0.00     0.008 C 
ENDBRANCH  12  17
ENDBRANCH  11  12
ENDBRANCH   1  11
TORSDOF 1
ENDMDL
MODEL 8
REMARK VINA RESULT:    -3.969      3.523      5.406
REMARK INTER + INTRA:          -6.004
REMARK INTER:                  -5.759
REMARK INTRA:                  -0.245
REMARK UNBOUND:                 0.053
REMARK SMILES CC1=CCC[C@@H](C)C(=O)C[C@@H](C(C)C)C(=O)C1
REMARK SMILES IDX 8 1 9 2 6 3 7 4 5 5 4 6 3 7 2 8 1 9 10 11 11 12 15 13 16 14
REMARK SMILES IDX 17 15 12 17 13 18 14 19
REMARK H PARENT
REMARK Flexibility Score: 70.00
ROOT
ATOM      1  C   UNL     1      16.213 -33.016  22.649  1.00  0.00     0.136 C 
ATOM      2  O   UNL     1      15.631 -32.114  22.063  1.00  0.00    -0.299 OA
ENDROOT
BRANCH   1   3
ATOM      3  C   UNL     1      15.555 -33.621  23.877  1.00  0.00     0.053 C 
ATOM      4  C   UNL     1      14.260 -32.877  24.229  1.00  0.00     0.016 C 
BRANCH   3   5
ATOM      5  C   UNL     1      16.547 -33.616  25.067  1.00  0.00     0.015 C 
BRANCH   5   6
ATOM      6  C   UNL     1      16.945 -35.038  25.520  1.00  0.00     0.028 C 
BRANCH   6   7
ATOM      7  C   UNL     1      18.434 -35.162  25.752  1.00  0.00    -0.028 C 
ATOM      8  C   UNL     1      19.306 -35.769  24.913  1.00  0.00    -0.070 CG0
ATOM      9  C   UNL     1      20.766 -35.777  25.291  1.00  0.00     0.039 C 
ATOM     10  G   UNL     1      18.887 -36.436  23.613  1.00  0.00     0.000 G0
ENDBRANCH   6   7
ENDBRANCH   5   6
ENDBRANCH   3   5
ENDBRANCH   1   3
BRANCH   1  11
ATOM     11  C   UNL     1      17.571 -33.440  22.113  1.00  0.00     0.087 C 
BRANCH  11  12
ATOM     12  C   UNL     1      17.753 -34.943  21.756  1.00  0.00     0.066 C 
BRANCH  12  13
ATOM     13  C   UNL     1      18.999 -35.529  22.402  1.00  0.00     0.140 C 
ATOM     14  O   UNL     1      20.096 -35.322  21.902  1.00  0.00    -0.299 OA
BRANCH  13  15
ATOM     15  C   UNL     1      18.882 -36.438  23.605  1.00  0.00     0.106 CG0
ATOM     16  G   UNL     1      19.311 -35.758  24.894  1.00  0.00     0.000 G0
ENDBRANCH  13  15
ENDBRANCH  12  13
BRANCH  12  17
ATOM     17  C   UNL     1      17.755 -35.220  20.217  1.00  0.00    -0.006 C 
ATOM     18  C   UNL     1      16.440 -35.868  19.752  1.00  0.00     0.008 C 
ATOM     19  C   UNL     1      18.064 -33.988  19.352  1.00  0.00     0.008 C 
ENDBRANCH  12  17
ENDBRANCH  11  12
ENDBRANCH   1  11
TORSDOF 1
ENDMDL
MODEL 9
REMARK VINA RESULT:    -3.942      2.516      4.737
REMARK INTER + INTRA:          -5.963
REMARK INTER:                  -5.833
REMARK INTRA:                  -0.130
REMARK UNBOUND:                 0.053
REMARK SMILES CC1=CCC[C@@H](C)C(=O)C[C@@H](C(C)C)C(=O)C1
REMARK SMILES IDX 8 1 9 2 6 3 7 4 5 5 4 6 3 7 2 8 1 9 10 11 11 12 15 13 16 14
REMARK SMILES IDX 17 15 12 17 13 18 14 19
REMARK H PARENT
REMARK Flexibility Score: 70.00
ROOT
ATOM      1  C   UNL     1      14.471 -31.071  21.963  1.00  0.00     0.136 C 
ATOM      2  O   UNL     1      13.527 -31.123  21.188  1.00  0.00    -0.299 OA
ENDROOT
BRANCH   1   3
ATOM      3  C   UNL     1      14.513 -29.940  22.976  1.00  0.00     0.053 C 
ATOM      4  C   UNL     1      13.112 -29.649  23.532  1.00  0.00     0.016 C 
BRANCH   3   5
ATOM      5  C   UNL     1      15.137 -28.676  22.335  1.00  0.00     0.015 C 
BRANCH   5   6
ATOM      6  C   UNL     1      16.421 -28.211  23.058  1.00  0.00     0.028 C 
BRANCH   6   7
ATOM      7  C   UNL     1      17.590 -28.084  22.107  1.00  0.00    -0.028 C 
ATOM      8  C   UNL     1      18.590 -28.988  21.977  1.00  0.00    -0.070 CG0
ATOM      9  C   UNL     1      19.666 -28.713  20.957  1.00  0.00     0.039 C 
ATOM     10  G   UNL     1      18.676 -30.262  22.801  1.00  0.00     0.000 G0
ENDBRANCH   6   7
ENDBRANCH   5   6
ENDBRANCH   3   5
ENDBRANCH   1   3
BRANCH   1  11
ATOM     11  C   UNL     1      15.551 -32.133  21.827  1.00  0.00     0.087 C 
BRANCH  11  12
ATOM     12  C   UNL     1      16.751 -32.052  22.813  1.00  0.00     0.066 C 
BRANCH  12  13
ATOM     13  C   UNL     1      17.978 -31.434  22.158  1.00  0.00     0.140 C 
ATOM     14  O   UNL     1      18.436 -31.931  21.138  1.00  0.00    -0.299 OA
BRANCH  13  15
ATOM     15  C   UNL     1      18.685 -30.266  22.807  1.00  0.00     0.106 CG0
ATOM     16  G   UNL     1      18.599 -28.997  21.976  1.00  0.00     0.000 G0
ENDBRANCH  13  15
ENDBRANCH  12  13
BRANCH  12  17
ATOM     17  C   UNL     1      17.116 -33.426  23.464  1.00  0.00    -0.006 C 
ATOM     18  C   UNL     1      16.375 -33.642  24.795  1.00  0.00     0.008 C 
ATOM     19  C   UNL     1      16.900 -34.640  22.545  1.00  0.00     0.008 C 
ENDBRANCH  12  17
ENDBRANCH  11  12
ENDBRANCH   1  11
TORSDOF 1
ENDMDL
