MODEL 1
REMARK VINA RESULT:    -1.883      0.000      0.000
REMARK INTER + INTRA:          -1.883
REMARK INTER:                  -1.883
REMARK INTRA:                   0.000
REMARK UNBOUND:                 0.000
REMARK SMILES CC(=O)[O-]
REMARK SMILES IDX 1 1 2 2 3 3 4 4
REMARK H PARENT
REMARK Flexibility Score: inf
ROOT
ATOM      1  C   UNL     1       4.377  -7.179  31.928  1.00  0.00     0.063 C 
ATOM      2  C   UNL     1       5.468  -7.912  31.223  1.00  0.00     0.038 C 
ATOM      3  O   UNL     1       5.830  -7.553  30.072  1.00  0.00    -0.550 OA
ATOM      4  O   UNL     1       6.125  -8.960  31.855  1.00  0.00    -0.550 OA
ENDROOT
TORSDOF 0
ENDMDL
MODEL 2
REMARK VINA RESULT:    -1.791      1.377      1.780
REMARK INTER + INTRA:          -1.791
REMARK INTER:                  -1.791
REMARK INTRA:                   0.000
REMARK UNBOUND:                 0.000
REMARK SMILES CC(=O)[O-]
REMARK SMILES IDX 1 1 2 2 3 3 4 4
REMARK H PARENT
REMARK Flexibility Score: inf
ROOT
ATOM      1  C   UNL     1       6.125  -8.715  32.101  1.00  0.00     0.063 C 
ATOM      2  C   UNL     1       5.571  -7.682  31.180  1.00  0.00     0.038 C 
ATOM      3  O   UNL     1       5.827  -7.730  29.948  1.00  0.00    -0.550 OA
ATOM      4  O   UNL     1       4.726  -6.694  31.669  1.00  0.00    -0.550 OA
ENDROOT
TORSDOF 0
ENDMDL
MODEL 3
REMARK VINA RESULT:    -0.436     17.347     17.491
REMARK INTER + INTRA:          -0.436
REMARK INTER:                  -0.436
REMARK INTRA:                   0.000
REMARK UNBOUND:                 0.000
REMARK SMILES CC(=O)[O-]
REMARK SMILES IDX 1 1 2 2 3 3 4 4
REMARK H PARENT
REMARK Flexibility Score: inf
ROOT
ATOM      1  C   UNL     1      -7.408 -17.287  27.069  1.00  0.00     0.063 C 
ATOM      2  C   UNL     1      -8.783 -17.181  27.637  1.00  0.00     0.038 C 
ATOM      3  O   UNL     1      -9.197 -18.042  28.456  1.00  0.00    -0.550 OA
ATOM      4  O   UNL     1      -9.591 -16.101  27.305  1.00  0.00    -0.550 OA
ENDROOT
TORSDOF 0
ENDMDL
MODEL 4
REMARK VINA RESULT:    -0.220      2.270      2.426
REMARK INTER + INTRA:          -0.220
REMARK INTER:                  -0.220
REMARK INTRA:                   0.000
REMARK UNBOUND:                 0.000
REMARK SMILES CC(=O)[O-]
REMARK SMILES IDX 1 1 2 2 3 3 4 4
REMARK H PARENT
REMARK Flexibility Score: inf
ROOT
ATOM      1  C   UNL     1       5.582  -6.936  32.110  1.00  0.00     0.063 C 
ATOM      2  C   UNL     1       4.112  -7.157  31.992  1.00  0.00     0.038 C 
ATOM      3  O   UNL     1       3.315  -6.191  32.125  1.00  0.00    -0.550 OA
ATOM      4  O   UNL     1       3.620  -8.418  31.683  1.00  0.00    -0.550 OA
ENDROOT
TORSDOF 0
ENDMDL
MODEL 5
REMARK VINA RESULT:     0.117     16.865     16.927
REMARK INTER + INTRA:           0.117
REMARK INTER:                   0.117
REMARK INTRA:                   0.000
REMARK UNBOUND:                 0.000
REMARK SMILES CC(=O)[O-]
REMARK SMILES IDX 1 1 2 2 3 3 4 4
REMARK H PARENT
REMARK Flexibility Score: inf
ROOT
ATOM      1  C   UNL     1      -9.117 -17.834  28.048  1.00  0.00     0.063 C 
ATOM      2  C   UNL     1      -8.128 -17.069  27.236  1.00  0.00     0.038 C 
ATOM      3  O   UNL     1      -8.397 -15.903  26.846  1.00  0.00    -0.550 OA
ATOM      4  O   UNL     1      -6.885 -17.620  26.954  1.00  0.00    -0.550 OA
ENDROOT
TORSDOF 0
ENDMDL
MODEL 6
REMARK VINA RESULT:     0.280     17.241     17.341
REMARK INTER + INTRA:           0.280
REMARK INTER:                   0.280
REMARK INTRA:                   0.000
REMARK UNBOUND:                 0.000
REMARK SMILES CC(=O)[O-]
REMARK SMILES IDX 1 1 2 2 3 3 4 4
REMARK H PARENT
REMARK Flexibility Score: inf
ROOT
ATOM      1  C   UNL     1      -9.255 -18.279  28.087  1.00  0.00     0.063 C 
ATOM      2  C   UNL     1      -8.534 -17.153  27.425  1.00  0.00     0.038 C 
ATOM      3  O   UNL     1      -7.338 -17.296  27.058  1.00  0.00    -0.550 OA
ATOM      4  O   UNL     1      -9.197 -15.961  27.163  1.00  0.00    -0.550 OA
ENDROOT
TORSDOF 0
ENDMDL
MODEL 7
REMARK VINA RESULT:     1.041     25.624     25.887
REMARK INTER + INTRA:           1.041
REMARK INTER:                   1.041
REMARK INTRA:                   0.000
REMARK UNBOUND:                 0.000
REMARK SMILES CC(=O)[O-]
REMARK SMILES IDX 1 1 2 2 3 3 4 4
REMARK H PARENT
REMARK Flexibility Score: inf
ROOT
ATOM      1  C   UNL     1      -6.379 -20.118  13.437  1.00  0.00     0.063 C 
ATOM      2  C   UNL     1      -6.697 -21.468  12.888  1.00  0.00     0.038 C 
ATOM      3  O   UNL     1      -7.846 -21.958  13.043  1.00  0.00    -0.550 OA
ATOM      4  O   UNL     1      -5.743 -22.165  12.159  1.00  0.00    -0.550 OA
ENDROOT
TORSDOF 0
ENDMDL
