MODEL 1
REMARK VINA RESULT:    -4.589      0.000      0.000
REMARK INTER + INTRA:          -5.960
REMARK INTER:                  -5.662
REMARK INTRA:                  -0.299
REMARK UNBOUND:                -0.299
REMARK SMILES C=CCc1ccc(OC)c(OC)c1
REMARK SMILES IDX 7 1 10 2 13 3 4 4 5 5 6 6 8 7 9 8 11 9 12 10 3 11 2 12 1 13
REMARK H PARENT
REMARK Flexibility Score: inf
ROOT
ATOM      1  C   UNL     1      15.697   9.115  10.937  1.00  0.00     0.160 A 
ATOM      2  C   UNL     1      16.572   8.581   9.979  1.00  0.00     0.160 A 
ATOM      3  C   UNL     1      16.063   7.771   8.944  1.00  0.00     0.054 A 
ATOM      4  C   UNL     1      14.689   7.499   8.862  1.00  0.00    -0.040 A 
ATOM      5  C   UNL     1      13.823   8.027   9.828  1.00  0.00     0.008 A 
ATOM      6  C   UNL     1      14.319   8.832  10.856  1.00  0.00     0.051 A 
ENDROOT
BRANCH   1   7
ATOM      7  O   UNL     1      16.232   9.919  11.955  1.00  0.00    -0.493 OA
ATOM      8  C   UNL     1      15.911   9.793  13.337  1.00  0.00     0.278 C 
ENDBRANCH   1   7
BRANCH   2   9
ATOM      9  O   UNL     1      17.940   8.876  10.089  1.00  0.00    -0.493 OA
ATOM     10  C   UNL     1      18.935   7.948  10.509  1.00  0.00     0.278 C 
ENDBRANCH   2   9
BRANCH   4  11
ATOM     11  C   UNL     1      14.158   6.608   7.770  1.00  0.00     0.062 C 
BRANCH  11  12
ATOM     12  C   UNL     1      12.853   7.133   7.240  1.00  0.00    -0.030 C 
ATOM     13  C   UNL     1      12.724   7.542   5.975  1.00  0.00     0.004 C 
ENDBRANCH  11  12
ENDBRANCH   4  11
TORSDOF 4
ENDMDL
MODEL 2
REMARK VINA RESULT:    -4.563     10.494     13.476
REMARK INTER + INTRA:          -5.928
REMARK INTER:                  -5.644
REMARK INTRA:                  -0.284
REMARK UNBOUND:                -0.299
REMARK SMILES C=CCc1ccc(OC)c(OC)c1
REMARK SMILES IDX 7 1 10 2 13 3 4 4 5 5 6 6 8 7 9 8 11 9 12 10 3 11 2 12 1 13
REMARK H PARENT
REMARK Flexibility Score: inf
ROOT
ATOM      1  C   UNL     1      15.340  19.690  14.886  1.00  0.00     0.160 A 
ATOM      2  C   UNL     1      15.166  18.653  15.816  1.00  0.00     0.160 A 
ATOM      3  C   UNL     1      16.060  18.530  16.898  1.00  0.00     0.054 A 
ATOM      4  C   UNL     1      17.118  19.438  17.056  1.00  0.00    -0.040 A 
ATOM      5  C   UNL     1      17.291  20.463  16.118  1.00  0.00     0.008 A 
ATOM      6  C   UNL     1      16.409  20.593  15.044  1.00  0.00     0.051 A 
ENDROOT
BRANCH   1   7
ATOM      7  O   UNL     1      14.433  19.788  13.819  1.00  0.00    -0.493 OA
ATOM      8  C   UNL     1      14.747  19.486  12.463  1.00  0.00     0.278 C 
ENDBRANCH   1   7
BRANCH   2   9
ATOM      9  O   UNL     1      14.095  17.765  15.630  1.00  0.00    -0.493 OA
ATOM     10  C   UNL     1      14.237  16.375  15.352  1.00  0.00     0.278 C 
ENDBRANCH   2   9
BRANCH   4  11
ATOM     11  C   UNL     1      18.087  19.280  18.199  1.00  0.00     0.062 C 
BRANCH  11  12
ATOM     12  C   UNL     1      17.961  17.917  18.819  1.00  0.00    -0.030 C 
ATOM     13  C   UNL     1      17.961  17.746  20.144  1.00  0.00     0.004 C 
ENDBRANCH  11  12
ENDBRANCH   4  11
TORSDOF 4
ENDMDL
MODEL 3
REMARK VINA RESULT:    -4.308      3.857      7.138
REMARK INTER + INTRA:          -5.614
REMARK INTER:                  -5.358
REMARK INTRA:                  -0.256
REMARK UNBOUND:                -0.299
REMARK SMILES C=CCc1ccc(OC)c(OC)c1
REMARK SMILES IDX 7 1 10 2 13 3 4 4 5 5 6 6 8 7 9 8 11 9 12 10 3 11 2 12 1 13
REMARK H PARENT
REMARK Flexibility Score: inf
ROOT
ATOM      1  C   UNL     1      18.123  10.185  11.680  1.00  0.00     0.160 A 
ATOM      2  C   UNL     1      17.236  10.600  12.686  1.00  0.00     0.160 A 
ATOM      3  C   UNL     1      17.232  11.946  13.100  1.00  0.00     0.054 A 
ATOM      4  C   UNL     1      18.102  12.876  12.511  1.00  0.00    -0.040 A 
ATOM      5  C   UNL     1      18.991  12.453  11.515  1.00  0.00     0.008 A 
ATOM      6  C   UNL     1      19.001  11.121  11.098  1.00  0.00     0.051 A 
ENDROOT
BRANCH   1   7
ATOM      7  O   UNL     1      18.104   8.838  11.287  1.00  0.00    -0.493 OA
ATOM      8  C   UNL     1      18.975   8.269  10.313  1.00  0.00     0.278 C 
ENDBRANCH   1   7
BRANCH   2   9
ATOM      9  O   UNL     1      16.377   9.644  13.250  1.00  0.00    -0.493 OA
ATOM     10  C   UNL     1      15.020   9.451  12.863  1.00  0.00     0.278 C 
ENDBRANCH   2   9
BRANCH   4  11
ATOM     11  C   UNL     1      18.111  14.307  12.982  1.00  0.00     0.062 C 
BRANCH  11  12
ATOM     12  C   UNL     1      18.809  14.428  14.308  1.00  0.00    -0.030 C 
ATOM     13  C   UNL     1      18.213  14.985  15.366  1.00  0.00     0.004 C 
ENDBRANCH  11  12
ENDBRANCH   4  11
TORSDOF 4
ENDMDL
MODEL 4
REMARK VINA RESULT:    -4.308     13.324     14.357
REMARK INTER + INTRA:          -5.614
REMARK INTER:                  -5.296
REMARK INTRA:                  -0.318
REMARK UNBOUND:                -0.299
REMARK SMILES C=CCc1ccc(OC)c(OC)c1
REMARK SMILES IDX 7 1 10 2 13 3 4 4 5 5 6 6 8 7 9 8 11 9 12 10 3 11 2 12 1 13
REMARK H PARENT
REMARK Flexibility Score: inf
ROOT
ATOM      1  C   UNL     1      19.302  22.709   9.111  1.00  0.00     0.160 A 
ATOM      2  C   UNL     1      20.534  22.482   8.477  1.00  0.00     0.160 A 
ATOM      3  C   UNL     1      20.899  21.171   8.114  1.00  0.00     0.054 A 
ATOM      4  C   UNL     1      20.041  20.092   8.376  1.00  0.00    -0.040 A 
ATOM      5  C   UNL     1      18.819  20.326   9.019  1.00  0.00     0.008 A 
ATOM      6  C   UNL     1      18.448  21.622   9.381  1.00  0.00     0.051 A 
ENDROOT
BRANCH   1   7
ATOM      7  O   UNL     1      18.964  24.026   9.460  1.00  0.00    -0.493 OA
ATOM      8  C   UNL     1      17.927  24.783   8.842  1.00  0.00     0.278 C 
ENDBRANCH   1   7
BRANCH   2   9
ATOM      9  O   UNL     1      21.366  23.585   8.226  1.00  0.00    -0.493 OA
ATOM     10  C   UNL     1      21.828  23.969   6.935  1.00  0.00     0.278 C 
ENDBRANCH   2   9
BRANCH   4  11
ATOM     11  C   UNL     1      20.454  18.690   8.012  1.00  0.00     0.062 C 
BRANCH  11  12
ATOM     12  C   UNL     1      20.187  17.744   9.148  1.00  0.00    -0.030 C 
ATOM     13  C   UNL     1      20.956  17.725  10.241  1.00  0.00     0.004 C 
ENDBRANCH  11  12
ENDBRANCH   4  11
TORSDOF 4
ENDMDL
MODEL 5
REMARK VINA RESULT:    -4.293     13.483     14.556
REMARK INTER + INTRA:          -5.596
REMARK INTER:                  -5.307
REMARK INTRA:                  -0.289
REMARK UNBOUND:                -0.299
REMARK SMILES C=CCc1ccc(OC)c(OC)c1
REMARK SMILES IDX 7 1 10 2 13 3 4 4 5 5 6 6 8 7 9 8 11 9 12 10 3 11 2 12 1 13
REMARK H PARENT
REMARK Flexibility Score: inf
ROOT
ATOM      1  C   UNL     1      20.424  22.809   8.420  1.00  0.00     0.160 A 
ATOM      2  C   UNL     1      20.202  21.455   8.720  1.00  0.00     0.160 A 
ATOM      3  C   UNL     1      19.028  21.076   9.399  1.00  0.00     0.054 A 
ATOM      4  C   UNL     1      18.077  22.039   9.772  1.00  0.00    -0.040 A 
ATOM      5  C   UNL     1      18.311  23.388   9.478  1.00  0.00     0.008 A 
ATOM      6  C   UNL     1      19.471  23.772   8.804  1.00  0.00     0.051 A 
ENDROOT
BRANCH   1   7
ATOM      7  O   UNL     1      21.603  23.157   7.741  1.00  0.00    -0.493 OA
ATOM      8  C   UNL     1      21.654  24.006   6.598  1.00  0.00     0.278 C 
ENDBRANCH   1   7
BRANCH   2   9
ATOM      9  O   UNL     1      21.172  20.519   8.329  1.00  0.00    -0.493 OA
ATOM     10  C   UNL     1      20.882  19.223   7.816  1.00  0.00     0.278 C 
ENDBRANCH   2   9
BRANCH   4  11
ATOM     11  C   UNL     1      16.838  21.627  10.525  1.00  0.00     0.062 C 
BRANCH  11  12
ATOM     12  C   UNL     1      15.637  21.642   9.622  1.00  0.00    -0.030 C 
ATOM     13  C   UNL     1      15.143  20.520   9.092  1.00  0.00     0.004 C 
ENDBRANCH  11  12
ENDBRANCH   4  11
TORSDOF 4
ENDMDL
MODEL 6
REMARK VINA RESULT:    -4.271     12.465     13.855
REMARK INTER + INTRA:          -5.568
REMARK INTER:                  -5.290
REMARK INTRA:                  -0.278
REMARK UNBOUND:                -0.299
REMARK SMILES C=CCc1ccc(OC)c(OC)c1
REMARK SMILES IDX 7 1 10 2 13 3 4 4 5 5 6 6 8 7 9 8 11 9 12 10 3 11 2 12 1 13
REMARK H PARENT
REMARK Flexibility Score: inf
ROOT
ATOM      1  C   UNL     1      18.765  19.109   8.341  1.00  0.00     0.160 A 
ATOM      2  C   UNL     1      18.354  20.294   8.971  1.00  0.00     0.160 A 
ATOM      3  C   UNL     1      19.253  21.373   9.081  1.00  0.00     0.054 A 
ATOM      4  C   UNL     1      20.553  21.275   8.562  1.00  0.00    -0.040 A 
ATOM      5  C   UNL     1      20.958  20.085   7.943  1.00  0.00     0.008 A 
ATOM      6  C   UNL     1      20.073  19.012   7.829  1.00  0.00     0.051 A 
ENDROOT
BRANCH   1   7
ATOM      7  O   UNL     1      17.847  18.052   8.244  1.00  0.00    -0.493 OA
ATOM      8  C   UNL     1      17.966  16.815   8.941  1.00  0.00     0.278 C 
ENDBRANCH   1   7
BRANCH   2   9
ATOM      9  O   UNL     1      17.045  20.360   9.476  1.00  0.00    -0.493 OA
ATOM     10  C   UNL     1      16.432  21.544   9.976  1.00  0.00     0.278 C 
ENDBRANCH   2   9
BRANCH   4  11
ATOM     11  C   UNL     1      21.517  22.423   8.711  1.00  0.00     0.062 C 
BRANCH  11  12
ATOM     12  C   UNL     1      21.108  23.578   7.841  1.00  0.00    -0.030 C 
ATOM     13  C   UNL     1      21.760  23.870   6.712  1.00  0.00     0.004 C 
ENDBRANCH  11  12
ENDBRANCH   4  11
TORSDOF 4
ENDMDL
MODEL 7
REMARK VINA RESULT:    -4.243      4.889      8.045
REMARK INTER + INTRA:          -5.534
REMARK INTER:                  -5.251
REMARK INTRA:                  -0.282
REMARK UNBOUND:                -0.299
REMARK SMILES C=CCc1ccc(OC)c(OC)c1
REMARK SMILES IDX 7 1 10 2 13 3 4 4 5 5 6 6 8 7 9 8 11 9 12 10 3 11 2 12 1 13
REMARK H PARENT
REMARK Flexibility Score: inf
ROOT
ATOM      1  C   UNL     1      18.047  12.102  11.887  1.00  0.00     0.160 A 
ATOM      2  C   UNL     1      18.840  13.259  11.840  1.00  0.00     0.160 A 
ATOM      3  C   UNL     1      18.873  14.127  12.949  1.00  0.00     0.054 A 
ATOM      4  C   UNL     1      18.124  13.841  14.101  1.00  0.00    -0.040 A 
ATOM      5  C   UNL     1      17.327  12.691  14.136  1.00  0.00     0.008 A 
ATOM      6  C   UNL     1      17.289  11.824  13.042  1.00  0.00     0.051 A 
ENDROOT
BRANCH   1   7
ATOM      7  O   UNL     1      18.035  11.256  10.768  1.00  0.00    -0.493 OA
ATOM      8  C   UNL     1      18.699   9.997  10.701  1.00  0.00     0.278 C 
ENDBRANCH   1   7
BRANCH   2   9
ATOM      9  O   UNL     1      19.580  13.512  10.674  1.00  0.00    -0.493 OA
ATOM     10  C   UNL     1      20.948  13.906  10.656  1.00  0.00     0.278 C 
ENDBRANCH   2   9
BRANCH   4  11
ATOM     11  C   UNL     1      18.142  14.791  15.270  1.00  0.00     0.062 C 
BRANCH  11  12
ATOM     12  C   UNL     1      17.115  15.874  15.093  1.00  0.00    -0.030 C 
ATOM     13  C   UNL     1      17.464  17.159  14.977  1.00  0.00     0.004 C 
ENDBRANCH  11  12
ENDBRANCH   4  11
TORSDOF 4
ENDMDL
MODEL 8
REMARK VINA RESULT:    -4.231     12.803     14.101
REMARK INTER + INTRA:          -5.519
REMARK INTER:                  -5.250
REMARK INTRA:                  -0.269
REMARK UNBOUND:                -0.299
REMARK SMILES C=CCc1ccc(OC)c(OC)c1
REMARK SMILES IDX 7 1 10 2 13 3 4 4 5 5 6 6 8 7 9 8 11 9 12 10 3 11 2 12 1 13
REMARK H PARENT
REMARK Flexibility Score: inf
ROOT
ATOM      1  C   UNL     1      19.267  22.836   9.099  1.00  0.00     0.160 A 
ATOM      2  C   UNL     1      18.422  21.743   9.349  1.00  0.00     0.160 A 
ATOM      3  C   UNL     1      18.847  20.442   9.016  1.00  0.00     0.054 A 
ATOM      4  C   UNL     1      20.110  20.230   8.442  1.00  0.00    -0.040 A 
ATOM      5  C   UNL     1      20.943  21.326   8.186  1.00  0.00     0.008 A 
ATOM      6  C   UNL     1      20.530  22.619   8.514  1.00  0.00     0.051 A 
ENDROOT
BRANCH   1   7
ATOM      7  O   UNL     1      18.816  24.120   9.443  1.00  0.00    -0.493 OA
ATOM      8  C   UNL     1      18.247  25.048   8.524  1.00  0.00     0.278 C 
ENDBRANCH   1   7
BRANCH   2   9
ATOM      9  O   UNL     1      17.167  21.991   9.928  1.00  0.00    -0.493 OA
ATOM     10  C   UNL     1      16.550  21.158  10.904  1.00  0.00     0.278 C 
ENDBRANCH   2   9
BRANCH   4  11
ATOM     11  C   UNL     1      20.544  18.838   8.062  1.00  0.00     0.062 C 
BRANCH  11  12
ATOM     12  C   UNL     1      20.166  17.851   9.130  1.00  0.00    -0.030 C 
ATOM     13  C   UNL     1      20.916  17.678  10.223  1.00  0.00     0.004 C 
ENDBRANCH  11  12
ENDBRANCH   4  11
TORSDOF 4
ENDMDL
MODEL 9
REMARK VINA RESULT:    -4.170     13.931     15.027
REMARK INTER + INTRA:          -5.443
REMARK INTER:                  -5.171
REMARK INTRA:                  -0.272
REMARK UNBOUND:                -0.299
REMARK SMILES C=CCc1ccc(OC)c(OC)c1
REMARK SMILES IDX 7 1 10 2 13 3 4 4 5 5 6 6 8 7 9 8 11 9 12 10 3 11 2 12 1 13
REMARK H PARENT
REMARK Flexibility Score: inf
ROOT
ATOM      1  C   UNL     1      18.672  21.494   9.406  1.00  0.00     0.160 A 
ATOM      2  C   UNL     1      19.848  20.886   8.939  1.00  0.00     0.160 A 
ATOM      3  C   UNL     1      20.852  21.675   8.344  1.00  0.00     0.054 A 
ATOM      4  C   UNL     1      20.689  23.064   8.221  1.00  0.00    -0.040 A 
ATOM      5  C   UNL     1      19.508  23.661   8.680  1.00  0.00     0.008 A 
ATOM      6  C   UNL     1      18.509  22.887   9.271  1.00  0.00     0.051 A 
ENDROOT
BRANCH   1   7
ATOM      7  O   UNL     1      17.690  20.683   9.995  1.00  0.00    -0.493 OA
ATOM      8  C   UNL     1      16.888  21.067  11.108  1.00  0.00     0.278 C 
ENDBRANCH   1   7
BRANCH   2   9
ATOM      9  O   UNL     1      19.981  19.496   9.082  1.00  0.00    -0.493 OA
ATOM     10  C   UNL     1      20.590  18.640   8.121  1.00  0.00     0.278 C 
ENDBRANCH   2   9
BRANCH   4  11
ATOM     11  C   UNL     1      21.755  23.895   7.556  1.00  0.00     0.062 C 
BRANCH  11  12
ATOM     12  C   UNL     1      21.321  24.317   6.181  1.00  0.00    -0.030 C 
ATOM     13  C   UNL     1      21.109  25.601   5.875  1.00  0.00     0.004 C 
ENDBRANCH  11  12
ENDBRANCH   4  11
TORSDOF 4
ENDMDL
