MODEL 1
REMARK VINA RESULT:    -6.651      0.000      0.000
REMARK INTER + INTRA:          -6.651
REMARK INTER:                  -6.651
REMARK INTRA:                   0.000
REMARK UNBOUND:                 0.000
REMARK SMILES CC1=CC[C@@]2(C)CCCC(C)(C)[C@@]23C[C@@H]13
REMARK SMILES IDX 1 1 2 2 3 3 4 4 5 5 7 6 8 7 9 8 10 9 13 10 15 11 14 12 11 13
REMARK SMILES IDX 12 14 6 15
REMARK H PARENT
REMARK Flexibility Score: inf
ROOT
ATOM      1  C   UNL     1      10.488  32.757  26.449  1.00  0.00     0.039 C 
ATOM      2  C   UNL     1      10.178  33.217  25.053  1.00  0.00    -0.074 C 
ATOM      3  C   UNL     1       9.539  34.394  24.875  1.00  0.00    -0.027 C 
ATOM      4  C   UNL     1       9.206  34.922  23.503  1.00  0.00     0.034 C 
ATOM      5  C   UNL     1       8.868  33.761  22.522  1.00  0.00    -0.022 C 
ATOM      6  C   UNL     1       8.712  34.338  21.095  1.00  0.00     0.008 C 
ATOM      7  C   UNL     1       8.524  33.255  20.018  1.00  0.00     0.001 C 
ATOM      8  C   UNL     1       9.665  32.225  20.013  1.00  0.00     0.007 C 
ATOM      9  C   UNL     1       9.932  31.540  21.383  1.00  0.00    -0.029 C 
ATOM     10  C   UNL     1      10.016  32.672  22.493  1.00  0.00    -0.012 C 
ATOM     11  C   UNL     1      10.592  32.343  23.880  1.00  0.00     0.022 C 
ATOM     12  C   UNL     1      11.459  33.101  22.878  1.00  0.00     0.017 C 
ATOM     13  C   UNL     1      11.233  30.701  21.209  1.00  0.00     0.012 C 
ATOM     14  C   UNL     1       8.811  30.522  21.716  1.00  0.00     0.012 C 
ATOM     15  C   UNL     1       7.516  33.154  23.011  1.00  0.00     0.012 C 
ENDROOT
TORSDOF 0
ENDMDL
MODEL 2
REMARK VINA RESULT:    -6.522      1.188      1.741
REMARK INTER + INTRA:          -6.522
REMARK INTER:                  -6.522
REMARK INTRA:                   0.000
REMARK UNBOUND:                 0.000
REMARK SMILES CC1=CC[C@@]2(C)CCCC(C)(C)[C@@]23C[C@@H]13
REMARK SMILES IDX 1 1 2 2 3 3 4 4 5 5 7 6 8 7 9 8 10 9 13 10 15 11 14 12 11 13
REMARK SMILES IDX 12 14 6 15
REMARK H PARENT
REMARK Flexibility Score: inf
ROOT
ATOM      1  C   UNL     1      10.367  32.375  26.508  1.00  0.00     0.039 C 
ATOM      2  C   UNL     1       9.529  32.761  25.322  1.00  0.00    -0.074 C 
ATOM      3  C   UNL     1       8.191  32.861  25.468  1.00  0.00    -0.027 C 
ATOM      4  C   UNL     1       7.290  33.254  24.324  1.00  0.00     0.034 C 
ATOM      5  C   UNL     1       7.831  32.705  22.971  1.00  0.00    -0.022 C 
ATOM      6  C   UNL     1       6.978  33.284  21.817  1.00  0.00     0.008 C 
ATOM      7  C   UNL     1       7.518  32.924  20.421  1.00  0.00     0.001 C 
ATOM      8  C   UNL     1       8.978  33.363  20.224  1.00  0.00     0.007 C 
ATOM      9  C   UNL     1       9.968  32.840  21.303  1.00  0.00    -0.029 C 
ATOM     10  C   UNL     1       9.337  33.128  22.732  1.00  0.00    -0.012 C 
ATOM     11  C   UNL     1      10.214  33.027  23.990  1.00  0.00     0.022 C 
ATOM     12  C   UNL     1       9.871  34.407  23.435  1.00  0.00     0.017 C 
ATOM     13  C   UNL     1      11.326  33.553  21.037  1.00  0.00     0.012 C 
ATOM     14  C   UNL     1      10.238  31.326  21.114  1.00  0.00     0.012 C 
ATOM     15  C   UNL     1       7.675  31.153  23.034  1.00  0.00     0.012 C 
ENDROOT
TORSDOF 0
ENDMDL
MODEL 3
REMARK VINA RESULT:    -6.477      1.320      3.966
REMARK INTER + INTRA:          -6.477
REMARK INTER:                  -6.477
REMARK INTRA:                   0.000
REMARK UNBOUND:                 0.000
REMARK SMILES CC1=CC[C@@]2(C)CCCC(C)(C)[C@@]23C[C@@H]13
REMARK SMILES IDX 1 1 2 2 3 3 4 4 5 5 7 6 8 7 9 8 10 9 13 10 15 11 14 12 11 13
REMARK SMILES IDX 12 14 6 15
REMARK H PARENT
REMARK Flexibility Score: inf
ROOT
ATOM      1  C   UNL     1      13.132  33.807  20.395  1.00  0.00     0.039 C 
ATOM      2  C   UNL     1      11.855  33.254  20.961  1.00  0.00    -0.074 C 
ATOM      3  C   UNL     1      10.928  32.747  20.121  1.00  0.00    -0.027 C 
ATOM      4  C   UNL     1       9.629  32.167  20.621  1.00  0.00     0.034 C 
ATOM      5  C   UNL     1       9.122  32.929  21.881  1.00  0.00    -0.022 C 
ATOM      6  C   UNL     1       7.893  32.187  22.456  1.00  0.00     0.008 C 
ATOM      7  C   UNL     1       7.400  32.772  23.792  1.00  0.00     0.001 C 
ATOM      8  C   UNL     1       8.503  32.806  24.862  1.00  0.00     0.007 C 
ATOM      9  C   UNL     1       9.805  33.540  24.435  1.00  0.00    -0.029 C 
ATOM     10  C   UNL     1      10.233  32.995  23.006  1.00  0.00    -0.012 C 
ATOM     11  C   UNL     1      11.643  33.283  22.467  1.00  0.00     0.022 C 
ATOM     12  C   UNL     1      11.334  31.898  23.030  1.00  0.00     0.017 C 
ATOM     13  C   UNL     1      10.845  33.287  25.566  1.00  0.00     0.012 C 
ATOM     14  C   UNL     1       9.583  35.074  24.396  1.00  0.00     0.012 C 
ATOM     15  C   UNL     1       8.715  34.355  21.394  1.00  0.00     0.012 C 
ENDROOT
TORSDOF 0
ENDMDL
MODEL 4
REMARK VINA RESULT:    -6.026      1.405      2.271
REMARK INTER + INTRA:          -6.026
REMARK INTER:                  -6.026
REMARK INTRA:                   0.000
REMARK UNBOUND:                 0.000
REMARK SMILES CC1=CC[C@@]2(C)CCCC(C)(C)[C@@]23C[C@@H]13
REMARK SMILES IDX 1 1 2 2 3 3 4 4 5 5 7 6 8 7 9 8 10 9 13 10 15 11 14 12 11 13
REMARK SMILES IDX 12 14 6 15
REMARK H PARENT
REMARK Flexibility Score: inf
ROOT
ATOM      1  C   UNL     1       8.108  31.786  25.372  1.00  0.00     0.039 C 
ATOM      2  C   UNL     1       8.354  32.454  24.050  1.00  0.00    -0.074 C 
ATOM      3  C   UNL     1       7.298  32.840  23.301  1.00  0.00    -0.027 C 
ATOM      4  C   UNL     1       7.471  33.525  21.969  1.00  0.00     0.034 C 
ATOM      5  C   UNL     1       8.730  32.992  21.224  1.00  0.00    -0.022 C 
ATOM      6  C   UNL     1       8.963  33.847  19.956  1.00  0.00     0.008 C 
ATOM      7  C   UNL     1      10.270  33.501  19.220  1.00  0.00     0.001 C 
ATOM      8  C   UNL     1      11.505  33.617  20.128  1.00  0.00     0.007 C 
ATOM      9  C   UNL     1      11.427  32.791  21.443  1.00  0.00    -0.029 C 
ATOM     10  C   UNL     1      10.025  33.084  22.129  1.00  0.00    -0.012 C 
ATOM     11  C   UNL     1       9.787  32.677  23.591  1.00  0.00     0.022 C 
ATOM     12  C   UNL     1      10.064  34.143  23.265  1.00  0.00     0.017 C 
ATOM     13  C   UNL     1      12.665  33.201  22.294  1.00  0.00     0.012 C 
ATOM     14  C   UNL     1      11.593  31.277  21.153  1.00  0.00     0.012 C 
ATOM     15  C   UNL     1       8.411  31.515  20.829  1.00  0.00     0.012 C 
ENDROOT
TORSDOF 0
ENDMDL
MODEL 5
REMARK VINA RESULT:    -5.974      1.700      4.011
REMARK INTER + INTRA:          -5.974
REMARK INTER:                  -5.974
REMARK INTRA:                   0.000
REMARK UNBOUND:                 0.000
REMARK SMILES CC1=CC[C@@]2(C)CCCC(C)(C)[C@@]23C[C@@H]13
REMARK SMILES IDX 1 1 2 2 3 3 4 4 5 5 7 6 8 7 9 8 10 9 13 10 15 11 14 12 11 13
REMARK SMILES IDX 12 14 6 15
REMARK H PARENT
REMARK Flexibility Score: inf
ROOT
ATOM      1  C   UNL     1       6.139  32.986  20.864  1.00  0.00     0.039 C 
ATOM      2  C   UNL     1       7.542  33.467  20.627  1.00  0.00    -0.074 C 
ATOM      3  C   UNL     1       7.819  34.160  19.501  1.00  0.00    -0.027 C 
ATOM      4  C   UNL     1       9.202  34.682  19.204  1.00  0.00     0.034 C 
ATOM      5  C   UNL     1      10.295  33.712  19.743  1.00  0.00    -0.022 C 
ATOM      6  C   UNL     1      11.682  34.376  19.575  1.00  0.00     0.008 C 
ATOM      7  C   UNL     1      12.825  33.566  20.211  1.00  0.00     0.001 C 
ATOM      8  C   UNL     1      12.588  33.287  21.705  1.00  0.00     0.007 C 
ATOM      9  C   UNL     1      11.233  32.600  22.034  1.00  0.00    -0.029 C 
ATOM     10  C   UNL     1      10.082  33.392  21.278  1.00  0.00    -0.012 C 
ATOM     11  C   UNL     1       8.612  33.159  21.663  1.00  0.00     0.022 C 
ATOM     12  C   UNL     1       9.316  34.422  22.154  1.00  0.00     0.017 C 
ATOM     13  C   UNL     1      11.107  32.595  23.585  1.00  0.00     0.012 C 
ATOM     14  C   UNL     1      11.252  31.111  21.603  1.00  0.00     0.012 C 
ATOM     15  C   UNL     1      10.203  32.421  18.870  1.00  0.00     0.012 C 
ENDROOT
TORSDOF 0
ENDMDL
MODEL 6
REMARK VINA RESULT:    -5.746      1.721      3.761
REMARK INTER + INTRA:          -5.746
REMARK INTER:                  -5.746
REMARK INTRA:                   0.000
REMARK UNBOUND:                 0.000
REMARK SMILES CC1=CC[C@@]2(C)CCCC(C)(C)[C@@]23C[C@@H]13
REMARK SMILES IDX 1 1 2 2 3 3 4 4 5 5 7 6 8 7 9 8 10 9 13 10 15 11 14 12 11 13
REMARK SMILES IDX 12 14 6 15
REMARK H PARENT
REMARK Flexibility Score: inf
ROOT
ATOM      1  C   UNL     1       6.574  29.454  24.699  1.00  0.00     0.039 C 
ATOM      2  C   UNL     1       7.014  30.404  23.622  1.00  0.00    -0.074 C 
ATOM      3  C   UNL     1       6.669  30.152  22.341  1.00  0.00    -0.027 C 
ATOM      4  C   UNL     1       7.068  31.068  21.211  1.00  0.00     0.034 C 
ATOM      5  C   UNL     1       8.466  31.704  21.472  1.00  0.00    -0.022 C 
ATOM      6  C   UNL     1       8.746  32.765  20.382  1.00  0.00     0.008 C 
ATOM      7  C   UNL     1      10.039  33.564  20.627  1.00  0.00     0.001 C 
ATOM      8  C   UNL     1      10.053  34.252  22.002  1.00  0.00     0.007 C 
ATOM      9  C   UNL     1       9.802  33.304  23.209  1.00  0.00    -0.029 C 
ATOM     10  C   UNL     1       8.526  32.416  22.884  1.00  0.00    -0.012 C 
ATOM     11  C   UNL     1       7.838  31.624  24.006  1.00  0.00     0.022 C 
ATOM     12  C   UNL     1       7.201  32.923  23.519  1.00  0.00     0.017 C 
ATOM     13  C   UNL     1       9.657  34.216  24.463  1.00  0.00     0.012 C 
ATOM     14  C   UNL     1      11.042  32.411  23.473  1.00  0.00     0.012 C 
ATOM     15  C   UNL     1       9.501  30.540  21.373  1.00  0.00     0.012 C 
ENDROOT
TORSDOF 0
ENDMDL
MODEL 7
REMARK VINA RESULT:    -5.713      2.830      5.870
REMARK INTER + INTRA:          -5.713
REMARK INTER:                  -5.713
REMARK INTRA:                   0.000
REMARK UNBOUND:                 0.000
REMARK SMILES CC1=CC[C@@]2(C)CCCC(C)(C)[C@@]23C[C@@H]13
REMARK SMILES IDX 1 1 2 2 3 3 4 4 5 5 7 6 8 7 9 8 10 9 13 10 15 11 14 12 11 13
REMARK SMILES IDX 12 14 6 15
REMARK H PARENT
REMARK Flexibility Score: inf
ROOT
ATOM      1  C   UNL     1      12.099  27.025  21.177  1.00  0.00     0.039 C 
ATOM      2  C   UNL     1      12.778  28.330  20.870  1.00  0.00    -0.074 C 
ATOM      3  C   UNL     1      14.107  28.338  20.627  1.00  0.00    -0.027 C 
ATOM      4  C   UNL     1      14.851  29.609  20.302  1.00  0.00     0.034 C 
ATOM      5  C   UNL     1      14.248  30.823  21.068  1.00  0.00    -0.022 C 
ATOM      6  C   UNL     1      14.925  32.120  20.565  1.00  0.00     0.008 C 
ATOM      7  C   UNL     1      14.300  33.399  21.150  1.00  0.00     0.001 C 
ATOM      8  C   UNL     1      12.790  33.493  20.879  1.00  0.00     0.007 C 
ATOM      9  C   UNL     1      11.964  32.261  21.349  1.00  0.00    -0.029 C 
ATOM     10  C   UNL     1      12.690  30.950  20.822  1.00  0.00    -0.012 C 
ATOM     11  C   UNL     1      11.949  29.604  20.842  1.00  0.00     0.022 C 
ATOM     12  C   UNL     1      12.091  30.353  19.519  1.00  0.00     0.017 C 
ATOM     13  C   UNL     1      10.520  32.466  20.807  1.00  0.00     0.012 C 
ATOM     14  C   UNL     1      11.840  32.240  22.894  1.00  0.00     0.012 C 
ATOM     15  C   UNL     1      14.574  30.593  22.577  1.00  0.00     0.012 C 
ENDROOT
TORSDOF 0
ENDMDL
MODEL 8
REMARK VINA RESULT:    -5.698      3.231      4.789
REMARK INTER + INTRA:          -5.698
REMARK INTER:                  -5.698
REMARK INTRA:                   0.000
REMARK UNBOUND:                 0.000
REMARK SMILES CC1=CC[C@@]2(C)CCCC(C)(C)[C@@]23C[C@@H]13
REMARK SMILES IDX 1 1 2 2 3 3 4 4 5 5 7 6 8 7 9 8 10 9 13 10 15 11 14 12 11 13
REMARK SMILES IDX 12 14 6 15
REMARK H PARENT
REMARK Flexibility Score: inf
ROOT
ATOM      1  C   UNL     1      15.655  29.793  23.817  1.00  0.00     0.039 C 
ATOM      2  C   UNL     1      15.145  30.666  22.706  1.00  0.00    -0.074 C 
ATOM      3  C   UNL     1      15.665  31.902  22.549  1.00  0.00    -0.027 C 
ATOM      4  C   UNL     1      15.207  32.827  21.449  1.00  0.00     0.034 C 
ATOM      5  C   UNL     1      13.691  32.637  21.151  1.00  0.00    -0.022 C 
ATOM      6  C   UNL     1      13.316  33.472  19.903  1.00  0.00     0.008 C 
ATOM      7  C   UNL     1      11.870  33.241  19.429  1.00  0.00     0.001 C 
ATOM      8  C   UNL     1      11.575  31.760  19.140  1.00  0.00     0.007 C 
ATOM      9  C   UNL     1      11.886  30.791  20.316  1.00  0.00    -0.029 C 
ATOM     10  C   UNL     1      13.342  31.122  20.857  1.00  0.00    -0.012 C 
ATOM     11  C   UNL     1      14.056  30.130  21.789  1.00  0.00     0.022 C 
ATOM     12  C   UNL     1      14.463  30.191  20.318  1.00  0.00     0.017 C 
ATOM     13  C   UNL     1      11.712  29.349  19.756  1.00  0.00     0.012 C 
ATOM     14  C   UNL     1      10.832  30.940  21.444  1.00  0.00     0.012 C 
ATOM     15  C   UNL     1      12.929  33.167  22.406  1.00  0.00     0.012 C 
ENDROOT
TORSDOF 0
ENDMDL
MODEL 9
REMARK VINA RESULT:    -5.586      2.548      4.506
REMARK INTER + INTRA:          -5.586
REMARK INTER:                  -5.586
REMARK INTRA:                   0.000
REMARK UNBOUND:                 0.000
REMARK SMILES CC1=CC[C@@]2(C)CCCC(C)(C)[C@@]23C[C@@H]13
REMARK SMILES IDX 1 1 2 2 3 3 4 4 5 5 7 6 8 7 9 8 10 9 13 10 15 11 14 12 11 13
REMARK SMILES IDX 12 14 6 15
REMARK H PARENT
REMARK Flexibility Score: inf
ROOT
ATOM      1  C   UNL     1      10.413  33.495  23.662  1.00  0.00     0.039 C 
ATOM      2  C   UNL     1      11.043  32.995  22.393  1.00  0.00    -0.074 C 
ATOM      3  C   UNL     1      10.264  32.789  21.310  1.00  0.00    -0.027 C 
ATOM      4  C   UNL     1      10.830  32.299  20.001  1.00  0.00     0.034 C 
ATOM      5  C   UNL     1      12.017  31.319  20.235  1.00  0.00    -0.022 C 
ATOM      6  C   UNL     1      12.674  30.990  18.873  1.00  0.00     0.008 C 
ATOM      7  C   UNL     1      13.953  30.143  19.003  1.00  0.00     0.001 C 
ATOM      8  C   UNL     1      15.004  30.801  19.912  1.00  0.00     0.007 C 
ATOM      9  C   UNL     1      14.495  31.176  21.333  1.00  0.00    -0.029 C 
ATOM     10  C   UNL     1      13.120  31.955  21.175  1.00  0.00    -0.012 C 
ATOM     11  C   UNL     1      12.541  32.736  22.366  1.00  0.00     0.022 C 
ATOM     12  C   UNL     1      13.236  33.503  21.244  1.00  0.00     0.017 C 
ATOM     13  C   UNL     1      15.634  31.997  22.006  1.00  0.00     0.012 C 
ATOM     14  C   UNL     1      14.313  29.907  22.204  1.00  0.00     0.012 C 
ATOM     15  C   UNL     1      11.402  30.030  20.865  1.00  0.00     0.012 C 
ENDROOT
TORSDOF 0
ENDMDL
