MODEL 1
REMARK VINA RESULT:    -4.942      0.000      0.000
REMARK INTER + INTRA:          -8.842
REMARK INTER:                  -7.253
REMARK INTRA:                  -1.589
REMARK UNBOUND:                -1.589
REMARK SMILES O=c1c(O[C@H]2O[C@@H](CO)[C@H](O)[C@@H](O)[C@H]2O)c(-c2ccc(O)c(O)c2)oc2cc(O)cc(O)c12
REMARK SMILES IDX 4 1 3 2 16 3 25 4 2 5 26 6 1 7 33 8 27 9 31 10 28 11 30 12
REMARK SMILES IDX 17 13 18 14 19 15 20 16 24 17 22 18 21 19 23 21 32 23 29 25
REMARK SMILES IDX 5 27 14 28 6 29 12 30 7 31 10 32 15 33 13 35 8 37 9 38 11 40
REMARK H PARENT 21 20 23 22 32 24 29 26 15 34 13 36 9 39 11 41
REMARK Flexibility Score: inf
ROOT
ATOM      1  O   UNL     1       6.842   9.843  10.197  1.00  0.00    -0.454 OA
ENDROOT
BRANCH   1   2
ATOM      2  C   UNL     1       7.676   9.737   9.064  1.00  0.00     0.214 A 
ATOM      3  C   UNL     1       7.437  10.602   7.979  1.00  0.00     0.180 A 
ATOM      4  O   UNL     1       8.148  10.487   6.865  1.00  0.00    -0.452 OA
ATOM      5  C   UNL     1       8.709   8.780   8.943  1.00  0.00     0.239 A 
ATOM      6  C   UNL     1       9.138   9.619   6.716  1.00  0.00     0.146 A 
ATOM      7  O   UNL     1       8.874   7.923   9.848  1.00  0.00    -0.285 OA
ATOM      8  C   UNL     1       9.507   8.749   7.773  1.00  0.00     0.111 A 
ATOM      9  C   UNL     1       9.809   9.573   5.492  1.00  0.00     0.094 A 
ATOM     10  C   UNL     1      10.617   7.873   7.577  1.00  0.00     0.134 A 
ATOM     11  C   UNL     1      10.847   8.667   5.287  1.00  0.00     0.123 A 
ATOM     12  C   UNL     1      11.244   7.822   6.326  1.00  0.00     0.093 A 
BRANCH   3  13
ATOM     13  C   UNL     1       6.385  11.641   8.028  1.00  0.00     0.025 A 
ATOM     14  C   UNL     1       5.056  11.353   7.674  1.00  0.00     0.016 A 
ATOM     15  C   UNL     1       4.075  12.346   7.740  1.00  0.00     0.051 A 
ATOM     16  C   UNL     1       4.402  13.634   8.175  1.00  0.00     0.157 A 
ATOM     17  C   UNL     1       6.705  12.930   8.488  1.00  0.00     0.062 A 
ATOM     18  C   UNL     1       5.722  13.928   8.556  1.00  0.00     0.158 A 
BRANCH  16  19
ATOM     19  O   UNL     1       3.402  14.605   8.227  1.00  0.00    -0.504 OA
ATOM     20  H   UNL     1       2.530  14.505   7.723  1.00  0.00     0.293 HD
ENDBRANCH  16  19
BRANCH  18  21
ATOM     21  O   UNL     1       6.053  15.207   8.999  1.00  0.00    -0.504 OA
ATOM     22  H   UNL     1       5.679  15.583   9.862  1.00  0.00     0.293 HD
ENDBRANCH  18  21
ENDBRANCH   3  13
BRANCH  10  23
ATOM     23  O   UNL     1      11.158   7.067   8.583  1.00  0.00    -0.507 OA
ATOM     24  H   UNL     1      11.231   6.062   8.531  1.00  0.00     0.293 HD
ENDBRANCH  10  23
BRANCH  11  25
ATOM     25  O   UNL     1      11.486   8.624   4.050  1.00  0.00    -0.508 OA
ATOM     26  H   UNL     1      12.444   8.935   3.938  1.00  0.00     0.293 HD
ENDBRANCH  11  25
ENDBRANCH   1   2
BRANCH   1  27
ATOM     27  C   UNL     1       7.182  10.414  11.460  1.00  0.00     0.339 C 
ATOM     28  C   UNL     1       5.911  10.987  12.141  1.00  0.00     0.214 C 
ATOM     29  O   UNL     1       8.140  11.439  11.269  1.00  0.00    -0.332 OA
ATOM     30  C   UNL     1       6.222  12.292  12.910  1.00  0.00     0.180 C 
ATOM     31  C   UNL     1       8.705  11.821  12.515  1.00  0.00     0.179 C 
ATOM     32  C   UNL     1       7.619  12.216  13.568  1.00  0.00     0.177 C 
BRANCH  28  33
ATOM     33  O   UNL     1       4.901  11.218  11.190  1.00  0.00    -0.384 OA
ATOM     34  H   UNL     1       4.457  12.069  11.444  1.00  0.00     0.211 HD
ENDBRANCH  28  33
BRANCH  30  35
ATOM     35  O   UNL     1       6.170  13.388  12.030  1.00  0.00    -0.387 OA
ATOM     36  H   UNL     1       6.742  14.099  12.420  1.00  0.00     0.211 HD
ENDBRANCH  30  35
BRANCH  31  37
ATOM     37  C   UNL     1       9.705  12.960  12.267  1.00  0.00     0.191 C 
BRANCH  37  38
ATOM     38  O   UNL     1      10.869  12.480  11.647  1.00  0.00    -0.394 OA
ATOM     39  H   UNL     1      11.220  13.216  11.080  1.00  0.00     0.210 HD
ENDBRANCH  37  38
ENDBRANCH  31  37
BRANCH  32  40
ATOM     40  O   UNL     1       7.603  11.256  14.595  1.00  0.00    -0.387 OA
ATOM     41  H   UNL     1       8.441  11.373  15.115  1.00  0.00     0.211 HD
ENDBRANCH  32  40
ENDBRANCH   1  27
TORSDOF 12
ENDMDL
MODEL 2
REMARK VINA RESULT:    -4.850      2.135      6.289
REMARK INTER + INTRA:          -8.707
REMARK INTER:                  -6.974
REMARK INTRA:                  -1.733
REMARK UNBOUND:                -1.589
REMARK SMILES O=c1c(O[C@H]2O[C@@H](CO)[C@H](O)[C@@H](O)[C@H]2O)c(-c2ccc(O)c(O)c2)oc2cc(O)cc(O)c12
REMARK SMILES IDX 4 1 3 2 16 3 25 4 2 5 26 6 1 7 33 8 27 9 31 10 28 11 30 12
REMARK SMILES IDX 17 13 18 14 19 15 20 16 24 17 22 18 21 19 23 21 32 23 29 25
REMARK SMILES IDX 5 27 14 28 6 29 12 30 7 31 10 32 15 33 13 35 8 37 9 38 11 40
REMARK H PARENT 21 20 23 22 32 24 29 26 15 34 13 36 9 39 11 41
REMARK Flexibility Score: inf
ROOT
ATOM      1  O   UNL     1       9.141  10.659   9.841  1.00  0.00    -0.454 OA
ENDROOT
BRANCH   1   2
ATOM      2  C   UNL     1       8.158  11.540   9.347  1.00  0.00     0.214 A 
ATOM      3  C   UNL     1       7.710  11.362   8.024  1.00  0.00     0.180 A 
ATOM      4  O   UNL     1       6.841  12.213   7.493  1.00  0.00    -0.452 OA
ATOM      5  C   UNL     1       7.631  12.620  10.093  1.00  0.00     0.239 A 
ATOM      6  C   UNL     1       6.307  13.225   8.162  1.00  0.00     0.146 A 
ATOM      7  O   UNL     1       8.091  12.870  11.235  1.00  0.00    -0.285 OA
ATOM      8  C   UNL     1       6.637  13.452   9.522  1.00  0.00     0.111 A 
ATOM      9  C   UNL     1       5.415  14.070   7.497  1.00  0.00     0.094 A 
ATOM     10  C   UNL     1       5.990  14.522  10.209  1.00  0.00     0.134 A 
ATOM     11  C   UNL     1       4.840  15.153   8.158  1.00  0.00     0.123 A 
ATOM     12  C   UNL     1       5.131  15.376   9.506  1.00  0.00     0.093 A 
BRANCH   3  13
ATOM     13  C   UNL     1       8.198  10.250   7.179  1.00  0.00     0.025 A 
ATOM     14  C   UNL     1       7.450   9.072   7.019  1.00  0.00     0.016 A 
ATOM     15  C   UNL     1       7.923   8.038   6.207  1.00  0.00     0.051 A 
ATOM     16  C   UNL     1       9.139   8.172   5.529  1.00  0.00     0.157 A 
ATOM     17  C   UNL     1       9.408  10.391   6.478  1.00  0.00     0.062 A 
ATOM     18  C   UNL     1       9.885   9.356   5.662  1.00  0.00     0.158 A 
BRANCH  16  19
ATOM     19  O   UNL     1       9.587   7.122   4.728  1.00  0.00    -0.504 OA
ATOM     20  H   UNL     1       8.957   6.417   4.364  1.00  0.00     0.293 HD
ENDBRANCH  16  19
BRANCH  18  21
ATOM     21  O   UNL     1      11.093   9.500   4.983  1.00  0.00    -0.504 OA
ATOM     22  H   UNL     1      11.545   8.714   4.530  1.00  0.00     0.293 HD
ENDBRANCH  18  21
ENDBRANCH   3  13
BRANCH  10  23
ATOM     23  O   UNL     1       6.130  14.764  11.579  1.00  0.00    -0.507 OA
ATOM     24  H   UNL     1       6.612  14.151  12.220  1.00  0.00     0.293 HD
ENDBRANCH  10  23
BRANCH  11  25
ATOM     25  O   UNL     1       3.971  15.995   7.468  1.00  0.00    -0.508 OA
ATOM     26  H   UNL     1       2.986  15.777   7.373  1.00  0.00     0.293 HD
ENDBRANCH  11  25
ENDBRANCH   1   2
BRANCH   1  27
ATOM     27  C   UNL     1       8.923   9.484  10.623  1.00  0.00     0.339 C 
ATOM     28  C   UNL     1       9.342   9.744  12.095  1.00  0.00     0.214 C 
ATOM     29  O   UNL     1       9.675   8.414  10.081  1.00  0.00    -0.332 OA
ATOM     30  C   UNL     1       9.994   8.491  12.726  1.00  0.00     0.180 C 
ATOM     31  C   UNL     1       9.259   7.183  10.654  1.00  0.00     0.179 C 
ATOM     32  C   UNL     1       9.304   7.205  12.217  1.00  0.00     0.177 C 
BRANCH  28  33
ATOM     33  O   UNL     1      10.224  10.837  12.174  1.00  0.00    -0.384 OA
ATOM     34  H   UNL     1       9.821  11.569  11.637  1.00  0.00     0.211 HD
ENDBRANCH  28  33
BRANCH  30  35
ATOM     35  O   UNL     1      11.363   8.455  12.406  1.00  0.00    -0.387 OA
ATOM     36  H   UNL     1      11.663   9.397  12.321  1.00  0.00     0.211 HD
ENDBRANCH  30  35
BRANCH  31  37
ATOM     37  C   UNL     1      10.126   6.057  10.070  1.00  0.00     0.191 C 
BRANCH  37  38
ATOM     38  O   UNL     1      11.491   6.332  10.246  1.00  0.00    -0.394 OA
ATOM     39  H   UNL     1      11.833   6.669   9.377  1.00  0.00     0.210 HD
ENDBRANCH  37  38
ENDBRANCH  31  37
BRANCH  32  40
ATOM     40  O   UNL     1       7.991   7.147  12.715  1.00  0.00    -0.387 OA
ATOM     41  H   UNL     1       7.400   7.546  12.024  1.00  0.00     0.211 HD
ENDBRANCH  32  40
ENDBRANCH   1  27
TORSDOF 12
ENDMDL
MODEL 3
REMARK VINA RESULT:    -4.612      4.452      9.166
REMARK INTER + INTRA:          -8.358
REMARK INTER:                  -6.768
REMARK INTRA:                  -1.590
REMARK UNBOUND:                -1.589
REMARK SMILES O=c1c(O[C@H]2O[C@@H](CO)[C@H](O)[C@@H](O)[C@H]2O)c(-c2ccc(O)c(O)c2)oc2cc(O)cc(O)c12
REMARK SMILES IDX 4 1 3 2 16 3 25 4 2 5 26 6 1 7 33 8 27 9 31 10 28 11 30 12
REMARK SMILES IDX 17 13 18 14 19 15 20 16 24 17 22 18 21 19 23 21 32 23 29 25
REMARK SMILES IDX 5 27 14 28 6 29 12 30 7 31 10 32 15 33 13 35 8 37 9 38 11 40
REMARK H PARENT 21 20 23 22 32 24 29 26 15 34 13 36 9 39 11 41
REMARK Flexibility Score: inf
ROOT
ATOM      1  O   UNL     1      10.382   7.190   3.156  1.00  0.00    -0.454 OA
ENDROOT
BRANCH   1   2
ATOM      2  C   UNL     1      11.667   7.765   3.239  1.00  0.00     0.214 A 
ATOM      3  C   UNL     1      11.989   8.512   4.388  1.00  0.00     0.180 A 
ATOM      4  O   UNL     1      13.158   9.131   4.476  1.00  0.00    -0.452 OA
ATOM      5  C   UNL     1      12.633   7.668   2.211  1.00  0.00     0.239 A 
ATOM      6  C   UNL     1      14.100   9.051   3.546  1.00  0.00     0.146 A 
ATOM      7  O   UNL     1      12.335   7.103   1.128  1.00  0.00    -0.285 OA
ATOM      8  C   UNL     1      13.905   8.268   2.380  1.00  0.00     0.111 A 
ATOM      9  C   UNL     1      15.288   9.760   3.734  1.00  0.00     0.094 A 
ATOM     10  C   UNL     1      14.973   8.172   1.439  1.00  0.00     0.134 A 
ATOM     11  C   UNL     1      16.299   9.714   2.777  1.00  0.00     0.123 A 
ATOM     12  C   UNL     1      16.137   8.925   1.636  1.00  0.00     0.093 A 
BRANCH   3  13
ATOM     13  C   UNL     1      11.042   8.651   5.517  1.00  0.00     0.025 A 
ATOM     14  C   UNL     1      10.088   9.683   5.546  1.00  0.00     0.016 A 
ATOM     15  C   UNL     1       9.195   9.789   6.615  1.00  0.00     0.051 A 
ATOM     16  C   UNL     1       9.229   8.860   7.660  1.00  0.00     0.157 A 
ATOM     17  C   UNL     1      11.058   7.706   6.556  1.00  0.00     0.062 A 
ATOM     18  C   UNL     1      10.162   7.810   7.630  1.00  0.00     0.158 A 
BRANCH  16  19
ATOM     19  O   UNL     1       8.327   8.995   8.716  1.00  0.00    -0.504 OA
ATOM     20  H   UNL     1       8.384   8.419   9.548  1.00  0.00     0.293 HD
ENDBRANCH  16  19
BRANCH  18  21
ATOM     21  O   UNL     1      10.196   6.876   8.663  1.00  0.00    -0.504 OA
ATOM     22  H   UNL     1      10.361   7.153   9.624  1.00  0.00     0.293 HD
ENDBRANCH  18  21
ENDBRANCH   3  13
BRANCH  10  23
ATOM     23  O   UNL     1      14.953   7.330   0.323  1.00  0.00    -0.507 OA
ATOM     24  H   UNL     1      15.004   7.648  -0.633  1.00  0.00     0.293 HD
ENDBRANCH  10  23
BRANCH  11  25
ATOM     25  O   UNL     1      17.467  10.447   2.976  1.00  0.00    -0.508 OA
ATOM     26  H   UNL     1      17.823  11.077   2.266  1.00  0.00     0.293 HD
ENDBRANCH  11  25
ENDBRANCH   1   2
BRANCH   1  27
ATOM     27  C   UNL     1       9.292   7.641   2.352  1.00  0.00     0.339 C 
ATOM     28  C   UNL     1       7.994   7.695   3.201  1.00  0.00     0.214 C 
ATOM     29  O   UNL     1       9.124   6.762   1.255  1.00  0.00    -0.332 OA
ATOM     30  C   UNL     1       6.759   7.273   2.372  1.00  0.00     0.180 C 
ATOM     31  C   UNL     1       8.250   7.337   0.294  1.00  0.00     0.179 C 
ATOM     32  C   UNL     1       6.883   7.775   0.916  1.00  0.00     0.177 C 
BRANCH  28  33
ATOM     33  O   UNL     1       8.113   6.878   4.340  1.00  0.00    -0.384 OA
ATOM     34  H   UNL     1       8.794   7.301   4.926  1.00  0.00     0.211 HD
ENDBRANCH  28  33
BRANCH  30  35
ATOM     35  O   UNL     1       6.635   5.872   2.383  1.00  0.00    -0.387 OA
ATOM     36  H   UNL     1       7.523   5.502   2.139  1.00  0.00     0.211 HD
ENDBRANCH  30  35
BRANCH  31  37
ATOM     37  C   UNL     1       8.062   6.335  -0.855  1.00  0.00     0.191 C 
BRANCH  37  38
ATOM     38  O   UNL     1       7.522   5.128  -0.386  1.00  0.00    -0.394 OA
ATOM     39  H   UNL     1       7.563   4.480  -1.136  1.00  0.00     0.210 HD
ENDBRANCH  37  38
ENDBRANCH  31  37
BRANCH  32  40
ATOM     40  O   UNL     1       6.797   9.178   0.894  1.00  0.00    -0.387 OA
ATOM     41  H   UNL     1       6.880   9.459  -0.055  1.00  0.00     0.211 HD
ENDBRANCH  32  40
ENDBRANCH   1  27
TORSDOF 12
ENDMDL
MODEL 4
REMARK VINA RESULT:    -4.598      2.525      6.963
REMARK INTER + INTRA:          -8.337
REMARK INTER:                  -6.956
REMARK INTRA:                  -1.381
REMARK UNBOUND:                -1.589
REMARK SMILES O=c1c(O[C@H]2O[C@@H](CO)[C@H](O)[C@@H](O)[C@H]2O)c(-c2ccc(O)c(O)c2)oc2cc(O)cc(O)c12
REMARK SMILES IDX 4 1 3 2 16 3 25 4 2 5 26 6 1 7 33 8 27 9 31 10 28 11 30 12
REMARK SMILES IDX 17 13 18 14 19 15 20 16 24 17 22 18 21 19 23 21 32 23 29 25
REMARK SMILES IDX 5 27 14 28 6 29 12 30 7 31 10 32 15 33 13 35 8 37 9 38 11 40
REMARK H PARENT 21 20 23 22 32 24 29 26 15 34 13 36 9 39 11 41
REMARK Flexibility Score: inf
ROOT
ATOM      1  O   UNL     1       6.197  14.995   9.892  1.00  0.00    -0.454 OA
ENDROOT
BRANCH   1   2
ATOM      2  C   UNL     1       5.237  15.131   8.868  1.00  0.00     0.214 A 
ATOM      3  C   UNL     1       5.307  14.252   7.770  1.00  0.00     0.180 A 
ATOM      4  O   UNL     1       4.471  14.391   6.750  1.00  0.00    -0.452 OA
ATOM      5  C   UNL     1       4.237  16.130   8.863  1.00  0.00     0.239 A 
ATOM      6  C   UNL     1       3.507  15.300   6.713  1.00  0.00     0.146 A 
ATOM      7  O   UNL     1       4.219  16.997   9.773  1.00  0.00    -0.285 OA
ATOM      8  C   UNL     1       3.305  16.189   7.798  1.00  0.00     0.111 A 
ATOM      9  C   UNL     1       2.695  15.368   5.579  1.00  0.00     0.094 A 
ATOM     10  C   UNL     1       2.217  17.110   7.730  1.00  0.00     0.134 A 
ATOM     11  C   UNL     1       1.677  16.315   5.493  1.00  0.00     0.123 A 
ATOM     12  C   UNL     1       1.445  17.182   6.564  1.00  0.00     0.093 A 
BRANCH   3  13
ATOM     13  C   UNL     1       6.313  13.169   7.702  1.00  0.00     0.025 A 
ATOM     14  C   UNL     1       5.952  11.824   7.892  1.00  0.00     0.016 A 
ATOM     15  C   UNL     1       6.915  10.816   7.811  1.00  0.00     0.051 A 
ATOM     16  C   UNL     1       8.246  11.132   7.523  1.00  0.00     0.157 A 
ATOM     17  C   UNL     1       7.647  13.481   7.389  1.00  0.00     0.062 A 
ATOM     18  C   UNL     1       8.615  12.470   7.307  1.00  0.00     0.158 A 
BRANCH  16  19
ATOM     19  O   UNL     1       9.187  10.103   7.451  1.00  0.00    -0.504 OA
ATOM     20  H   UNL     1       9.202   9.441   6.684  1.00  0.00     0.293 HD
ENDBRANCH  16  19
BRANCH  18  21
ATOM     21  O   UNL     1       9.939  12.791   7.011  1.00  0.00    -0.504 OA
ATOM     22  H   UNL     1      10.678  12.100   7.066  1.00  0.00     0.293 HD
ENDBRANCH  18  21
ENDBRANCH   3  13
BRANCH  10  23
ATOM     23  O   UNL     1       1.835  17.943   8.786  1.00  0.00    -0.507 OA
ATOM     24  H   UNL     1       2.417  18.157   9.583  1.00  0.00     0.293 HD
ENDBRANCH  10  23
BRANCH  11  25
ATOM     25  O   UNL     1       0.895  16.380   4.342  1.00  0.00    -0.508 OA
ATOM     26  H   UNL     1       0.839  15.602   3.695  1.00  0.00     0.293 HD
ENDBRANCH  11  25
ENDBRANCH   1   2
BRANCH   1  27
ATOM     27  C   UNL     1       6.205  14.020  10.935  1.00  0.00     0.339 C 
ATOM     28  C   UNL     1       5.865  14.693  12.291  1.00  0.00     0.214 C 
ATOM     29  O   UNL     1       7.482  13.411  10.996  1.00  0.00    -0.332 OA
ATOM     30  C   UNL     1       6.678  14.070  13.450  1.00  0.00     0.180 C 
ATOM     31  C   UNL     1       7.433  12.252  11.817  1.00  0.00     0.179 C 
ATOM     32  C   UNL     1       6.851  12.549  13.237  1.00  0.00     0.177 C 
BRANCH  28  33
ATOM     33  O   UNL     1       6.100  16.079  12.229  1.00  0.00    -0.384 OA
ATOM     34  H   UNL     1       6.751  16.227  11.494  1.00  0.00     0.211 HD
ENDBRANCH  28  33
BRANCH  30  35
ATOM     35  O   UNL     1       7.940  14.686  13.531  1.00  0.00    -0.387 OA
ATOM     36  H   UNL     1       8.507  14.106  14.104  1.00  0.00     0.211 HD
ENDBRANCH  30  35
BRANCH  31  37
ATOM     37  C   UNL     1       8.844  11.648  11.890  1.00  0.00     0.191 C 
BRANCH  37  38
ATOM     38  O   UNL     1       9.803  12.553  11.410  1.00  0.00    -0.394 OA
ATOM     39  H   UNL     1       9.330  13.404  11.219  1.00  0.00     0.210 HD
ENDBRANCH  37  38
ENDBRANCH  31  37
BRANCH  32  40
ATOM     40  O   UNL     1       5.604  11.913  13.365  1.00  0.00    -0.387 OA
ATOM     41  H   UNL     1       5.067  12.451  14.003  1.00  0.00     0.211 HD
ENDBRANCH  32  40
ENDBRANCH   1  27
TORSDOF 12
ENDMDL
MODEL 5
REMARK VINA RESULT:    -4.509      1.173      2.254
REMARK INTER + INTRA:          -8.207
REMARK INTER:                  -6.496
REMARK INTRA:                  -1.710
REMARK UNBOUND:                -1.589
REMARK SMILES O=c1c(O[C@H]2O[C@@H](CO)[C@H](O)[C@@H](O)[C@H]2O)c(-c2ccc(O)c(O)c2)oc2cc(O)cc(O)c12
REMARK SMILES IDX 4 1 3 2 16 3 25 4 2 5 26 6 1 7 33 8 27 9 31 10 28 11 30 12
REMARK SMILES IDX 17 13 18 14 19 15 20 16 24 17 22 18 21 19 23 21 32 23 29 25
REMARK SMILES IDX 5 27 14 28 6 29 12 30 7 31 10 32 15 33 13 35 8 37 9 38 11 40
REMARK H PARENT 21 20 23 22 32 24 29 26 15 34 13 36 9 39 11 41
REMARK Flexibility Score: inf
ROOT
ATOM      1  O   UNL     1       7.276   9.915  10.117  1.00  0.00    -0.454 OA
ENDROOT
BRANCH   1   2
ATOM      2  C   UNL     1       8.053   9.735   8.955  1.00  0.00     0.214 A 
ATOM      3  C   UNL     1       7.790  10.560   7.844  1.00  0.00     0.180 A 
ATOM      4  O   UNL     1       8.446  10.376   6.706  1.00  0.00    -0.452 OA
ATOM      5  C   UNL     1       9.051   8.741   8.829  1.00  0.00     0.239 A 
ATOM      6  C   UNL     1       9.402   9.471   6.551  1.00  0.00     0.146 A 
ATOM      7  O   UNL     1       9.232   7.919   9.762  1.00  0.00    -0.285 OA
ATOM      8  C   UNL     1       9.793   8.635   7.627  1.00  0.00     0.111 A 
ATOM      9  C   UNL     1      10.014   9.352   5.301  1.00  0.00     0.094 A 
ATOM     10  C   UNL     1      10.866   7.717   7.420  1.00  0.00     0.134 A 
ATOM     11  C   UNL     1      11.014   8.406   5.090  1.00  0.00     0.123 A 
ATOM     12  C   UNL     1      11.432   7.593   6.146  1.00  0.00     0.093 A 
BRANCH   3  13
ATOM     13  C   UNL     1       6.773  11.634   7.895  1.00  0.00     0.025 A 
ATOM     14  C   UNL     1       7.141  12.980   8.064  1.00  0.00     0.016 A 
ATOM     15  C   UNL     1       6.166  13.980   8.096  1.00  0.00     0.051 A 
ATOM     16  C   UNL     1       4.815  13.655   7.944  1.00  0.00     0.157 A 
ATOM     17  C   UNL     1       5.417  11.313   7.718  1.00  0.00     0.062 A 
ATOM     18  C   UNL     1       4.437  12.316   7.750  1.00  0.00     0.158 A 
BRANCH  16  19
ATOM     19  O   UNL     1       3.864  14.675   7.984  1.00  0.00    -0.504 OA
ATOM     20  H   UNL     1       4.126  15.650   8.067  1.00  0.00     0.293 HD
ENDBRANCH  16  19
BRANCH  18  21
ATOM     21  O   UNL     1       3.092  11.985   7.589  1.00  0.00    -0.504 OA
ATOM     22  H   UNL     1       2.704  11.134   7.979  1.00  0.00     0.293 HD
ENDBRANCH  18  21
ENDBRANCH   3  13
BRANCH  10  23
ATOM     23  O   UNL     1      11.428   6.938   8.435  1.00  0.00    -0.507 OA
ATOM     24  H   UNL     1      10.963   6.163   8.884  1.00  0.00     0.293 HD
ENDBRANCH  10  23
BRANCH  11  25
ATOM     25  O   UNL     1      11.594   8.289   3.829  1.00  0.00    -0.508 OA
ATOM     26  H   UNL     1      11.643   9.078   3.194  1.00  0.00     0.293 HD
ENDBRANCH  11  25
ENDBRANCH   1   2
BRANCH   1  27
ATOM     27  C   UNL     1       7.529  10.831  11.183  1.00  0.00     0.339 C 
ATOM     28  C   UNL     1       8.098  10.071  12.410  1.00  0.00     0.214 C 
ATOM     29  O   UNL     1       6.324  11.490  11.530  1.00  0.00    -0.332 OA
ATOM     30  C   UNL     1       7.568  10.663  13.737  1.00  0.00     0.180 C 
ATOM     31  C   UNL     1       6.597  12.599  12.375  1.00  0.00     0.179 C 
ATOM     32  C   UNL     1       7.436  12.199  13.632  1.00  0.00     0.177 C 
BRANCH  28  33
ATOM     33  O   UNL     1       7.783   8.702  12.334  1.00  0.00    -0.384 OA
ATOM     34  H   UNL     1       7.128   8.599  11.595  1.00  0.00     0.211 HD
ENDBRANCH  28  33
BRANCH  30  35
ATOM     35  O   UNL     1       6.317  10.099  14.044  1.00  0.00    -0.387 OA
ATOM     36  H   UNL     1       5.852   9.942  13.181  1.00  0.00     0.211 HD
ENDBRANCH  30  35
BRANCH  31  37
ATOM     37  C   UNL     1       5.264  13.257  12.760  1.00  0.00     0.191 C 
BRANCH  37  38
ATOM     38  O   UNL     1       4.438  12.354  13.446  1.00  0.00    -0.394 OA
ATOM     39  H   UNL     1       4.983  11.547  13.634  1.00  0.00     0.210 HD
ENDBRANCH  37  38
ENDBRANCH  31  37
BRANCH  32  40
ATOM     40  O   UNL     1       8.716  12.775  13.533  1.00  0.00    -0.387 OA
ATOM     41  H   UNL     1       9.372  12.061  13.748  1.00  0.00     0.211 HD
ENDBRANCH  32  40
ENDBRANCH   1  27
TORSDOF 12
ENDMDL
MODEL 6
REMARK VINA RESULT:    -4.506      3.931      8.695
REMARK INTER + INTRA:          -8.202
REMARK INTER:                  -6.688
REMARK INTRA:                  -1.514
REMARK UNBOUND:                -1.589
REMARK SMILES O=c1c(O[C@H]2O[C@@H](CO)[C@H](O)[C@@H](O)[C@H]2O)c(-c2ccc(O)c(O)c2)oc2cc(O)cc(O)c12
REMARK SMILES IDX 4 1 3 2 16 3 25 4 2 5 26 6 1 7 33 8 27 9 31 10 28 11 30 12
REMARK SMILES IDX 17 13 18 14 19 15 20 16 24 17 22 18 21 19 23 21 32 23 29 25
REMARK SMILES IDX 5 27 14 28 6 29 12 30 7 31 10 32 15 33 13 35 8 37 9 38 11 40
REMARK H PARENT 21 20 23 22 32 24 29 26 15 34 13 36 9 39 11 41
REMARK Flexibility Score: inf
ROOT
ATOM      1  O   UNL     1      10.081   6.522   4.330  1.00  0.00    -0.454 OA
ENDROOT
BRANCH   1   2
ATOM      2  C   UNL     1      11.289   7.207   4.089  1.00  0.00     0.214 A 
ATOM      3  C   UNL     1      11.567   8.355   4.855  1.00  0.00     0.180 A 
ATOM      4  O   UNL     1      12.656   9.073   4.612  1.00  0.00    -0.452 OA
ATOM      5  C   UNL     1      12.215   6.829   3.089  1.00  0.00     0.239 A 
ATOM      6  C   UNL     1      13.559   8.744   3.700  1.00  0.00     0.146 A 
ATOM      7  O   UNL     1      11.942   5.876   2.317  1.00  0.00    -0.285 OA
ATOM      8  C   UNL     1      13.411   7.569   2.921  1.00  0.00     0.111 A 
ATOM      9  C   UNL     1      14.660   9.583   3.515  1.00  0.00     0.094 A 
ATOM     10  C   UNL     1      14.442   7.233   1.992  1.00  0.00     0.134 A 
ATOM     11  C   UNL     1      15.628   9.283   2.559  1.00  0.00     0.123 A 
ATOM     12  C   UNL     1      15.513   8.115   1.802  1.00  0.00     0.093 A 
BRANCH   3  13
ATOM     13  C   UNL     1      10.659   8.812   5.931  1.00  0.00     0.025 A 
ATOM     14  C   UNL     1       9.792   9.901   5.741  1.00  0.00     0.016 A 
ATOM     15  C   UNL     1       8.934  10.309   6.765  1.00  0.00     0.051 A 
ATOM     16  C   UNL     1       8.916   9.627   7.985  1.00  0.00     0.157 A 
ATOM     17  C   UNL     1      10.622   8.114   7.150  1.00  0.00     0.062 A 
ATOM     18  C   UNL     1       9.761   8.521   8.179  1.00  0.00     0.158 A 
BRANCH  16  19
ATOM     19  O   UNL     1       8.051  10.059   8.991  1.00  0.00    -0.504 OA
ATOM     20  H   UNL     1       7.581  10.956   8.946  1.00  0.00     0.293 HD
ENDBRANCH  16  19
BRANCH  18  21
ATOM     21  O   UNL     1       9.742   7.830   9.389  1.00  0.00    -0.504 OA
ATOM     22  H   UNL     1      10.503   7.220   9.665  1.00  0.00     0.293 HD
ENDBRANCH  18  21
ENDBRANCH   3  13
BRANCH  10  23
ATOM     23  O   UNL     1      14.476   6.039   1.267  1.00  0.00    -0.507 OA
ATOM     24  H   UNL     1      15.069   5.874   0.466  1.00  0.00     0.293 HD
ENDBRANCH  10  23
BRANCH  11  25
ATOM     25  O   UNL     1      16.705  10.147   2.377  1.00  0.00    -0.508 OA
ATOM     26  H   UNL     1      16.611  11.005   1.847  1.00  0.00     0.293 HD
ENDBRANCH  11  25
ENDBRANCH   1   2
BRANCH   1  27
ATOM     27  C   UNL     1       8.854   6.672   3.616  1.00  0.00     0.339 C 
ATOM     28  C   UNL     1       8.367   5.290   3.105  1.00  0.00     0.214 C 
ATOM     29  O   UNL     1       9.050   7.555   2.527  1.00  0.00    -0.332 OA
ATOM     30  C   UNL     1       7.707   5.403   1.711  1.00  0.00     0.180 C 
ATOM     31  C   UNL     1       7.799   7.945   1.980  1.00  0.00     0.179 C 
ATOM     32  C   UNL     1       6.907   6.720   1.594  1.00  0.00     0.177 C 
BRANCH  28  33
ATOM     33  O   UNL     1       9.434   4.374   3.059  1.00  0.00    -0.384 OA
ATOM     34  H   UNL     1       9.111   3.582   2.555  1.00  0.00     0.211 HD
ENDBRANCH  28  33
BRANCH  30  35
ATOM     35  O   UNL     1       8.695   5.356   0.711  1.00  0.00    -0.387 OA
ATOM     36  H   UNL     1       9.059   4.433   0.710  1.00  0.00     0.211 HD
ENDBRANCH  30  35
BRANCH  31  37
ATOM     37  C   UNL     1       8.058   8.867   0.779  1.00  0.00     0.191 C 
BRANCH  37  38
ATOM     38  O   UNL     1       6.866   9.147   0.094  1.00  0.00    -0.394 OA
ATOM     39  H   UNL     1       6.238   9.542   0.753  1.00  0.00     0.210 HD
ENDBRANCH  37  38
ENDBRANCH  31  37
BRANCH  32  40
ATOM     40  O   UNL     1       5.795   6.673   2.453  1.00  0.00    -0.387 OA
ATOM     41  H   UNL     1       6.090   7.032   3.330  1.00  0.00     0.211 HD
ENDBRANCH  32  40
ENDBRANCH   1  27
TORSDOF 12
ENDMDL
MODEL 7
REMARK VINA RESULT:    -4.439      1.896      6.568
REMARK INTER + INTRA:          -8.103
REMARK INTER:                  -6.402
REMARK INTRA:                  -1.701
REMARK UNBOUND:                -1.589
REMARK SMILES O=c1c(O[C@H]2O[C@@H](CO)[C@H](O)[C@@H](O)[C@H]2O)c(-c2ccc(O)c(O)c2)oc2cc(O)cc(O)c12
REMARK SMILES IDX 4 1 3 2 16 3 25 4 2 5 26 6 1 7 33 8 27 9 31 10 28 11 30 12
REMARK SMILES IDX 17 13 18 14 19 15 20 16 24 17 22 18 21 19 23 21 32 23 29 25
REMARK SMILES IDX 5 27 14 28 6 29 12 30 7 31 10 32 15 33 13 35 8 37 9 38 11 40
REMARK H PARENT 21 20 23 22 32 24 29 26 15 34 13 36 9 39 11 41
REMARK Flexibility Score: inf
ROOT
ATOM      1  O   UNL     1       7.873  13.279  10.217  1.00  0.00    -0.454 OA
ENDROOT
BRANCH   1   2
ATOM      2  C   UNL     1       6.829  13.744   9.392  1.00  0.00     0.214 A 
ATOM      3  C   UNL     1       6.657  13.138   8.133  1.00  0.00     0.180 A 
ATOM      4  O   UNL     1       5.735  13.593   7.294  1.00  0.00    -0.452 OA
ATOM      5  C   UNL     1       5.976  14.816   9.742  1.00  0.00     0.239 A 
ATOM      6  C   UNL     1       4.902  14.580   7.588  1.00  0.00     0.146 A 
ATOM      7  O   UNL     1       6.177  15.449  10.809  1.00  0.00    -0.285 OA
ATOM      8  C   UNL     1       4.945  15.214   8.856  1.00  0.00     0.111 A 
ATOM      9  C   UNL     1       3.982  14.991   6.620  1.00  0.00     0.094 A 
ATOM     10  C   UNL     1       3.987  16.233   9.139  1.00  0.00     0.134 A 
ATOM     11  C   UNL     1       3.095  16.032   6.883  1.00  0.00     0.123 A 
ATOM     12  C   UNL     1       3.104  16.650   8.136  1.00  0.00     0.093 A 
BRANCH   3  13
ATOM     13  C   UNL     1       7.496  12.001   7.694  1.00  0.00     0.025 A 
ATOM     14  C   UNL     1       8.795  12.202   7.196  1.00  0.00     0.016 A 
ATOM     15  C   UNL     1       9.576  11.114   6.798  1.00  0.00     0.051 A 
ATOM     16  C   UNL     1       9.080   9.812   6.908  1.00  0.00     0.157 A 
ATOM     17  C   UNL     1       7.011  10.689   7.825  1.00  0.00     0.062 A 
ATOM     18  C   UNL     1       7.793   9.596   7.427  1.00  0.00     0.158 A 
BRANCH  16  19
ATOM     19  O   UNL     1       9.882   8.745   6.500  1.00  0.00    -0.504 OA
ATOM     20  H   UNL     1       9.771   7.813   6.881  1.00  0.00     0.293 HD
ENDBRANCH  16  19
BRANCH  18  21
ATOM     21  O   UNL     1       7.296   8.299   7.548  1.00  0.00    -0.504 OA
ATOM     22  H   UNL     1       6.356   8.120   7.880  1.00  0.00     0.293 HD
ENDBRANCH  18  21
ENDBRANCH   3  13
BRANCH  10  23
ATOM     23  O   UNL     1       3.842  16.837  10.392  1.00  0.00    -0.507 OA
ATOM     24  H   UNL     1       4.074  16.394  11.269  1.00  0.00     0.293 HD
ENDBRANCH  10  23
BRANCH  11  25
ATOM     25  O   UNL     1       2.202  16.440   5.894  1.00  0.00    -0.508 OA
ATOM     26  H   UNL     1       1.463  15.830   5.565  1.00  0.00     0.293 HD
ENDBRANCH  11  25
ENDBRANCH   1   2
BRANCH   1  27
ATOM     27  C   UNL     1       7.750  12.428  11.356  1.00  0.00     0.339 C 
ATOM     28  C   UNL     1       9.102  11.720  11.637  1.00  0.00     0.214 C 
ATOM     29  O   UNL     1       6.736  11.469  11.117  1.00  0.00    -0.332 OA
ATOM     30  C   UNL     1       8.890  10.270  12.130  1.00  0.00     0.180 C 
ATOM     31  C   UNL     1       6.395  10.803  12.325  1.00  0.00     0.179 C 
ATOM     32  C   UNL     1       7.641  10.181  13.036  1.00  0.00     0.177 C 
BRANCH  28  33
ATOM     33  O   UNL     1       9.912  11.725  10.487  1.00  0.00    -0.384 OA
ATOM     34  H   UNL     1       9.334  11.447   9.729  1.00  0.00     0.211 HD
ENDBRANCH  28  33
BRANCH  30  35
ATOM     35  O   UNL     1       8.739   9.410  11.027  1.00  0.00    -0.387 OA
ATOM     36  H   UNL     1       7.799   9.093  11.036  1.00  0.00     0.211 HD
ENDBRANCH  30  35
BRANCH  31  37
ATOM     37  C   UNL     1       5.326   9.746  12.013  1.00  0.00     0.191 C 
BRANCH  37  38
ATOM     38  O   UNL     1       5.725   8.928  10.945  1.00  0.00    -0.394 OA
ATOM     39  H   UNL     1       6.281   9.487  10.343  1.00  0.00     0.210 HD
ENDBRANCH  37  38
ENDBRANCH  31  37
BRANCH  32  40
ATOM     40  O   UNL     1       7.880  10.876  14.235  1.00  0.00    -0.387 OA
ATOM     41  H   UNL     1       7.224  11.620  14.275  1.00  0.00     0.211 HD
ENDBRANCH  32  40
ENDBRANCH   1  27
TORSDOF 12
ENDMDL
MODEL 8
REMARK VINA RESULT:    -4.409      3.214      9.151
REMARK INTER + INTRA:          -8.059
REMARK INTER:                  -6.305
REMARK INTRA:                  -1.754
REMARK UNBOUND:                -1.589
REMARK SMILES O=c1c(O[C@H]2O[C@@H](CO)[C@H](O)[C@@H](O)[C@H]2O)c(-c2ccc(O)c(O)c2)oc2cc(O)cc(O)c12
REMARK SMILES IDX 4 1 3 2 16 3 25 4 2 5 26 6 1 7 33 8 27 9 31 10 28 11 30 12
REMARK SMILES IDX 17 13 18 14 19 15 20 16 24 17 22 18 21 19 23 21 32 23 29 25
REMARK SMILES IDX 5 27 14 28 6 29 12 30 7 31 10 32 15 33 13 35 8 37 9 38 11 40
REMARK H PARENT 21 20 23 22 32 24 29 26 15 34 13 36 9 39 11 41
REMARK Flexibility Score: inf
ROOT
ATOM      1  O   UNL     1       8.648   6.533   5.273  1.00  0.00    -0.454 OA
ENDROOT
BRANCH   1   2
ATOM      2  C   UNL     1       8.629   7.738   6.005  1.00  0.00     0.214 A 
ATOM      3  C   UNL     1       9.856   8.378   6.265  1.00  0.00     0.180 A 
ATOM      4  O   UNL     1       9.892   9.474   7.012  1.00  0.00    -0.452 OA
ATOM      5  C   UNL     1       7.448   8.314   6.529  1.00  0.00     0.239 A 
ATOM      6  C   UNL     1       8.809  10.058   7.506  1.00  0.00     0.146 A 
ATOM      7  O   UNL     1       6.354   7.709   6.408  1.00  0.00    -0.285 OA
ATOM      8  C   UNL     1       7.518   9.534   7.245  1.00  0.00     0.111 A 
ATOM      9  C   UNL     1       8.967  11.199   8.296  1.00  0.00     0.094 A 
ATOM     10  C   UNL     1       6.384  10.236   7.755  1.00  0.00     0.134 A 
ATOM     11  C   UNL     1       7.857  11.838   8.845  1.00  0.00     0.123 A 
ATOM     12  C   UNL     1       6.575  11.354   8.576  1.00  0.00     0.093 A 
BRANCH   3  13
ATOM     13  C   UNL     1      11.135   7.851   5.742  1.00  0.00     0.025 A 
ATOM     14  C   UNL     1      11.831   6.828   6.409  1.00  0.00     0.016 A 
ATOM     15  C   UNL     1      13.031   6.336   5.891  1.00  0.00     0.051 A 
ATOM     16  C   UNL     1      13.546   6.843   4.694  1.00  0.00     0.157 A 
ATOM     17  C   UNL     1      11.642   8.342   4.527  1.00  0.00     0.062 A 
ATOM     18  C   UNL     1      12.847   7.849   4.005  1.00  0.00     0.158 A 
BRANCH  16  19
ATOM     19  O   UNL     1      14.748   6.334   4.204  1.00  0.00    -0.504 OA
ATOM     20  H   UNL     1      15.211   5.542   4.633  1.00  0.00     0.293 HD
ENDBRANCH  16  19
BRANCH  18  21
ATOM     21  O   UNL     1      13.349   8.353   2.807  1.00  0.00    -0.504 OA
ATOM     22  H   UNL     1      13.053   9.251   2.443  1.00  0.00     0.293 HD
ENDBRANCH  18  21
ENDBRANCH   3  13
BRANCH  10  23
ATOM     23  O   UNL     1       5.061   9.896   7.456  1.00  0.00    -0.507 OA
ATOM     24  H   UNL     1       4.256  10.430   7.746  1.00  0.00     0.293 HD
ENDBRANCH  10  23
BRANCH  11  25
ATOM     25  O   UNL     1       8.040  12.961   9.648  1.00  0.00    -0.508 OA
ATOM     26  H   UNL     1       8.193  12.879  10.647  1.00  0.00     0.293 HD
ENDBRANCH  11  25
ENDBRANCH   1   2
BRANCH   1  27
ATOM     27  C   UNL     1       8.150   6.326   3.951  1.00  0.00     0.339 C 
ATOM     28  C   UNL     1       9.016   5.264   3.221  1.00  0.00     0.214 C 
ATOM     29  O   UNL     1       8.177   7.551   3.242  1.00  0.00    -0.332 OA
ATOM     30  C   UNL     1       9.188   5.609   1.723  1.00  0.00     0.180 C 
ATOM     31  C   UNL     1       7.428   7.439   2.040  1.00  0.00     0.179 C 
ATOM     32  C   UNL     1       7.893   6.235   1.157  1.00  0.00     0.177 C 
BRANCH  28  33
ATOM     33  O   UNL     1      10.275   5.144   3.835  1.00  0.00    -0.384 OA
ATOM     34  H   UNL     1      10.908   5.694   3.302  1.00  0.00     0.211 HD
ENDBRANCH  28  33
BRANCH  30  35
ATOM     35  O   UNL     1      10.259   6.505   1.561  1.00  0.00    -0.387 OA
ATOM     36  H   UNL     1       9.865   7.390   1.343  1.00  0.00     0.211 HD
ENDBRANCH  30  35
BRANCH  31  37
ATOM     37  C   UNL     1       7.518   8.773   1.285  1.00  0.00     0.191 C 
BRANCH  37  38
ATOM     38  O   UNL     1       8.853   9.179   1.140  1.00  0.00    -0.394 OA
ATOM     39  H   UNL     1       9.204   8.739   0.323  1.00  0.00     0.210 HD
ENDBRANCH  37  38
ENDBRANCH  31  37
BRANCH  32  40
ATOM     40  O   UNL     1       6.875   5.266   1.130  1.00  0.00    -0.387 OA
ATOM     41  H   UNL     1       7.281   4.410   1.431  1.00  0.00     0.211 HD
ENDBRANCH  32  40
ENDBRANCH   1  27
TORSDOF 12
ENDMDL
MODEL 9
REMARK VINA RESULT:    -4.351      2.092      6.359
REMARK INTER + INTRA:          -7.975
REMARK INTER:                  -6.300
REMARK INTRA:                  -1.675
REMARK UNBOUND:                -1.589
REMARK SMILES O=c1c(O[C@H]2O[C@@H](CO)[C@H](O)[C@@H](O)[C@H]2O)c(-c2ccc(O)c(O)c2)oc2cc(O)cc(O)c12
REMARK SMILES IDX 4 1 3 2 16 3 25 4 2 5 26 6 1 7 33 8 27 9 31 10 28 11 30 12
REMARK SMILES IDX 17 13 18 14 19 15 20 16 24 17 22 18 21 19 23 21 32 23 29 25
REMARK SMILES IDX 5 27 14 28 6 29 12 30 7 31 10 32 15 33 13 35 8 37 9 38 11 40
REMARK H PARENT 21 20 23 22 32 24 29 26 15 34 13 36 9 39 11 41
REMARK Flexibility Score: inf
ROOT
ATOM      1  O   UNL     1       9.090  10.311   9.829  1.00  0.00    -0.454 OA
ENDROOT
BRANCH   1   2
ATOM      2  C   UNL     1       8.158  11.257   9.354  1.00  0.00     0.214 A 
ATOM      3  C   UNL     1       7.762  11.181   8.005  1.00  0.00     0.180 A 
ATOM      4  O   UNL     1       6.945  12.095   7.497  1.00  0.00    -0.452 OA
ATOM      5  C   UNL     1       7.636  12.304  10.148  1.00  0.00     0.239 A 
ATOM      6  C   UNL     1       6.417  13.080   8.209  1.00  0.00     0.146 A 
ATOM      7  O   UNL     1       8.054  12.464  11.322  1.00  0.00    -0.285 OA
ATOM      8  C   UNL     1       6.695  13.207   9.593  1.00  0.00     0.111 A 
ATOM      9  C   UNL     1       5.582  13.997   7.565  1.00  0.00     0.094 A 
ATOM     10  C   UNL     1       6.054  14.253  10.323  1.00  0.00     0.134 A 
ATOM     11  C   UNL     1       5.015  15.055   8.272  1.00  0.00     0.123 A 
ATOM     12  C   UNL     1       5.255  15.180   9.643  1.00  0.00     0.093 A 
BRANCH   3  13
ATOM     13  C   UNL     1       8.250  10.109   7.109  1.00  0.00     0.025 A 
ATOM     14  C   UNL     1       7.494   8.946   6.885  1.00  0.00     0.016 A 
ATOM     15  C   UNL     1       7.967   7.951   6.025  1.00  0.00     0.051 A 
ATOM     16  C   UNL     1       9.189   8.110   5.365  1.00  0.00     0.157 A 
ATOM     17  C   UNL     1       9.466  10.277   6.426  1.00  0.00     0.062 A 
ATOM     18  C   UNL     1       9.942   9.280   5.562  1.00  0.00     0.158 A 
BRANCH  16  19
ATOM     19  O   UNL     1       9.637   7.099   4.515  1.00  0.00    -0.504 OA
ATOM     20  H   UNL     1       9.037   6.334   4.228  1.00  0.00     0.293 HD
ENDBRANCH  16  19
BRANCH  18  21
ATOM     21  O   UNL     1      11.157   9.449   4.900  1.00  0.00    -0.504 OA
ATOM     22  H   UNL     1      11.205   9.861   3.976  1.00  0.00     0.293 HD
ENDBRANCH  18  21
ENDBRANCH   3  13
BRANCH  10  23
ATOM     23  O   UNL     1       6.143  14.400  11.710  1.00  0.00    -0.507 OA
ATOM     24  H   UNL     1       5.565  13.907  12.374  1.00  0.00     0.293 HD
ENDBRANCH  10  23
BRANCH  11  25
ATOM     25  O   UNL     1       4.205  15.970   7.605  1.00  0.00    -0.508 OA
ATOM     26  H   UNL     1       3.382  15.674   7.093  1.00  0.00     0.293 HD
ENDBRANCH  11  25
ENDBRANCH   1   2
BRANCH   1  27
ATOM     27  C   UNL     1       8.838   9.248  10.747  1.00  0.00     0.339 C 
ATOM     28  C   UNL     1       9.668   7.998  10.350  1.00  0.00     0.214 C 
ATOM     29  O   UNL     1       7.456   8.940  10.741  1.00  0.00    -0.332 OA
ATOM     30  C   UNL     1       8.880   6.692  10.606  1.00  0.00     0.180 C 
ATOM     31  C   UNL     1       7.135   8.099  11.840  1.00  0.00     0.179 C 
ATOM     32  C   UNL     1       8.026   6.815  11.888  1.00  0.00     0.177 C 
BRANCH  28  33
ATOM     33  O   UNL     1      10.055   8.070   8.999  1.00  0.00    -0.384 OA
ATOM     34  H   UNL     1      10.979   7.707   8.947  1.00  0.00     0.211 HD
ENDBRANCH  28  33
BRANCH  30  35
ATOM     35  O   UNL     1       8.049   6.414   9.506  1.00  0.00    -0.387 OA
ATOM     36  H   UNL     1       8.318   7.032   8.778  1.00  0.00     0.211 HD
ENDBRANCH  30  35
BRANCH  31  37
ATOM     37  C   UNL     1       5.640   7.757  11.771  1.00  0.00     0.191 C 
BRANCH  37  38
ATOM     38  O   UNL     1       5.272   7.371  10.473  1.00  0.00    -0.394 OA
ATOM     39  H   UNL     1       5.612   6.449  10.336  1.00  0.00     0.210 HD
ENDBRANCH  37  38
ENDBRANCH  31  37
BRANCH  32  40
ATOM     40  O   UNL     1       8.871   6.884  13.010  1.00  0.00    -0.387 OA
ATOM     41  H   UNL     1       8.290   7.023  13.803  1.00  0.00     0.211 HD
ENDBRANCH  32  40
ENDBRANCH   1  27
TORSDOF 12
ENDMDL
