MODEL 1
REMARK VINA RESULT:    -6.212      0.000      0.000
REMARK INTER + INTRA:          -8.501
REMARK INTER:                  -7.846
REMARK INTRA:                  -0.655
REMARK UNBOUND:                -0.655
REMARK SMILES O=C(C=Cc1ccc(O)cc1)c1ccc(O)cc1O
REMARK SMILES IDX 4 1 3 2 5 3 6 4 7 5 8 6 11 7 10 8 9 9 2 11 1 12 12 13 18 14
REMARK SMILES IDX 13 15 17 16 14 17 15 18 19 19 16 21
REMARK H PARENT 9 10 19 20 16 22
REMARK Flexibility Score: inf
ROOT
ATOM      1  C   UNL     1     -18.966  22.433  13.192  1.00  0.00     0.012 C 
ATOM      2  C   UNL     1     -20.015  22.678  12.393  1.00  0.00     0.053 C 
ENDROOT
BRANCH   1   3
ATOM      3  C   UNL     1     -19.045  22.394  14.673  1.00  0.00    -0.025 A 
ATOM      4  C   UNL     1     -18.143  21.652  15.464  1.00  0.00     0.012 A 
ATOM      5  C   UNL     1     -18.255  21.658  16.858  1.00  0.00     0.047 A 
ATOM      6  C   UNL     1     -19.256  22.406  17.483  1.00  0.00     0.115 A 
ATOM      7  C   UNL     1     -20.038  23.155  15.313  1.00  0.00     0.012 A 
ATOM      8  C   UNL     1     -20.147  23.157  16.707  1.00  0.00     0.047 A 
BRANCH   6   9
ATOM      9  O   UNL     1     -19.355  22.399  18.872  1.00  0.00    -0.508 OA
ATOM     10  H   UNL     1     -20.175  22.762  19.346  1.00  0.00     0.293 HD
ENDBRANCH   6   9
ENDBRANCH   1   3
BRANCH   2  11
ATOM     11  C   UNL     1     -19.910  22.708  10.918  1.00  0.00     0.189 C 
ATOM     12  O   UNL     1     -20.944  22.993  10.256  1.00  0.00    -0.289 OA
BRANCH  11  13
ATOM     13  C   UNL     1     -18.642  22.448  10.195  1.00  0.00     0.064 A 
ATOM     14  C   UNL     1     -17.862  23.514   9.702  1.00  0.00     0.130 A 
ATOM     15  C   UNL     1     -18.181  21.130  10.033  1.00  0.00     0.020 A 
ATOM     16  C   UNL     1     -16.651  23.250   9.045  1.00  0.00     0.093 A 
ATOM     17  C   UNL     1     -16.975  20.875   9.376  1.00  0.00     0.047 A 
ATOM     18  C   UNL     1     -16.207  21.935   8.879  1.00  0.00     0.119 A 
BRANCH  14  19
ATOM     19  O   UNL     1     -18.297  24.832   9.853  1.00  0.00    -0.507 OA
ATOM     20  H   UNL     1     -18.711  25.158  10.718  1.00  0.00     0.293 HD
ENDBRANCH  14  19
BRANCH  18  21
ATOM     21  O   UNL     1     -15.004  21.693   8.221  1.00  0.00    -0.508 OA
ATOM     22  H   UNL     1     -14.117  21.990   8.614  1.00  0.00     0.293 HD
ENDBRANCH  18  21
ENDBRANCH  11  13
ENDBRANCH   2  11
TORSDOF 6
ENDMDL
MODEL 2
REMARK VINA RESULT:    -6.200      0.109      1.115
REMARK INTER + INTRA:          -8.487
REMARK INTER:                  -7.804
REMARK INTRA:                  -0.683
REMARK UNBOUND:                -0.655
REMARK SMILES O=C(C=Cc1ccc(O)cc1)c1ccc(O)cc1O
REMARK SMILES IDX 4 1 3 2 5 3 6 4 7 5 8 6 11 7 10 8 9 9 2 11 1 12 12 13 18 14
REMARK SMILES IDX 13 15 17 16 14 17 15 18 19 19 16 21
REMARK H PARENT 9 10 19 20 16 22
REMARK Flexibility Score: inf
ROOT
ATOM      1  C   UNL     1     -19.038  22.624  13.192  1.00  0.00     0.012 C 
ATOM      2  C   UNL     1     -20.092  22.722  12.369  1.00  0.00     0.053 C 
ENDROOT
BRANCH   1   3
ATOM      3  C   UNL     1     -19.144  22.566  14.671  1.00  0.00    -0.025 A 
ATOM      4  C   UNL     1     -20.141  23.257  15.390  1.00  0.00     0.012 A 
ATOM      5  C   UNL     1     -20.202  23.160  16.784  1.00  0.00     0.047 A 
ATOM      6  C   UNL     1     -19.283  22.370  17.478  1.00  0.00     0.115 A 
ATOM      7  C   UNL     1     -18.234  21.762  15.378  1.00  0.00     0.012 A 
ATOM      8  C   UNL     1     -18.299  21.669  16.772  1.00  0.00     0.047 A 
BRANCH   6   9
ATOM      9  O   UNL     1     -19.357  22.286  18.866  1.00  0.00    -0.508 OA
ATOM     10  H   UNL     1     -20.146  21.848  19.329  1.00  0.00     0.293 HD
ENDBRANCH   6   9
ENDBRANCH   1   3
BRANCH   2  11
ATOM     11  C   UNL     1     -19.958  22.775  10.897  1.00  0.00     0.189 C 
ATOM     12  O   UNL     1     -20.969  23.106  10.221  1.00  0.00    -0.289 OA
BRANCH  11  13
ATOM     13  C   UNL     1     -18.686  22.486  10.193  1.00  0.00     0.064 A 
ATOM     14  C   UNL     1     -17.873  23.534   9.713  1.00  0.00     0.130 A 
ATOM     15  C   UNL     1     -18.253  21.157  10.036  1.00  0.00     0.020 A 
ATOM     16  C   UNL     1     -16.659  23.241   9.074  1.00  0.00     0.093 A 
ATOM     17  C   UNL     1     -17.045  20.875   9.396  1.00  0.00     0.047 A 
ATOM     18  C   UNL     1     -16.244  21.917   8.912  1.00  0.00     0.119 A 
BRANCH  14  19
ATOM     19  O   UNL     1     -18.279  24.861   9.859  1.00  0.00    -0.507 OA
ATOM     20  H   UNL     1     -17.748  25.626   9.458  1.00  0.00     0.293 HD
ENDBRANCH  14  19
BRANCH  18  21
ATOM     21  O   UNL     1     -15.037  21.648   8.272  1.00  0.00    -0.508 OA
ATOM     22  H   UNL     1     -14.440  22.393   7.933  1.00  0.00     0.293 HD
ENDBRANCH  18  21
ENDBRANCH  11  13
ENDBRANCH   2  11
TORSDOF 6
ENDMDL
MODEL 3
REMARK VINA RESULT:    -6.023      1.717      7.214
REMARK INTER + INTRA:          -8.263
REMARK INTER:                  -7.613
REMARK INTRA:                  -0.650
REMARK UNBOUND:                -0.655
REMARK SMILES O=C(C=Cc1ccc(O)cc1)c1ccc(O)cc1O
REMARK SMILES IDX 4 1 3 2 5 3 6 4 7 5 8 6 11 7 10 8 9 9 2 11 1 12 12 13 18 14
REMARK SMILES IDX 13 15 17 16 14 17 15 18 19 19 16 21
REMARK H PARENT 9 10 19 20 16 22
REMARK Flexibility Score: inf
ROOT
ATOM      1  C   UNL     1     -17.770  23.756   9.677  1.00  0.00     0.012 C 
ATOM      2  C   UNL     1     -18.576  22.799  10.161  1.00  0.00     0.053 C 
ENDROOT
BRANCH   1   3
ATOM      3  C   UNL     1     -16.515  23.485   8.932  1.00  0.00    -0.025 A 
ATOM      4  C   UNL     1     -16.433  23.561   7.527  1.00  0.00     0.012 A 
ATOM      5  C   UNL     1     -15.222  23.305   6.875  1.00  0.00     0.047 A 
ATOM      6  C   UNL     1     -14.079  22.980   7.610  1.00  0.00     0.115 A 
ATOM      7  C   UNL     1     -15.357  23.172   9.663  1.00  0.00     0.012 A 
ATOM      8  C   UNL     1     -14.148  22.916   9.007  1.00  0.00     0.047 A 
BRANCH   6   9
ATOM      9  O   UNL     1     -12.882  22.726   6.945  1.00  0.00    -0.508 OA
ATOM     10  H   UNL     1     -12.570  23.308   6.176  1.00  0.00     0.293 HD
ENDBRANCH   6   9
ENDBRANCH   1   3
BRANCH   2  11
ATOM     11  C   UNL     1     -19.823  23.097  10.897  1.00  0.00     0.189 C 
ATOM     12  O   UNL     1     -20.883  23.246  10.231  1.00  0.00    -0.289 OA
BRANCH  11  13
ATOM     13  C   UNL     1     -19.882  23.199  12.375  1.00  0.00     0.064 A 
ATOM     14  C   UNL     1     -20.503  24.302  12.997  1.00  0.00     0.130 A 
ATOM     15  C   UNL     1     -19.358  22.168  13.174  1.00  0.00     0.020 A 
ATOM     16  C   UNL     1     -20.574  24.367  14.396  1.00  0.00     0.093 A 
ATOM     17  C   UNL     1     -19.431  22.242  14.567  1.00  0.00     0.047 A 
ATOM     18  C   UNL     1     -20.039  23.343  15.182  1.00  0.00     0.119 A 
BRANCH  14  19
ATOM     19  O   UNL     1     -21.034  25.337  12.226  1.00  0.00    -0.507 OA
ATOM     20  H   UNL     1     -21.843  25.865  12.531  1.00  0.00     0.293 HD
ENDBRANCH  14  19
BRANCH  18  21
ATOM     21  O   UNL     1     -20.117  23.428  16.570  1.00  0.00    -0.508 OA
ATOM     22  H   UNL     1     -19.834  22.657  17.164  1.00  0.00     0.293 HD
ENDBRANCH  18  21
ENDBRANCH  11  13
ENDBRANCH   2  11
TORSDOF 6
ENDMDL
MODEL 4
REMARK VINA RESULT:    -5.985      1.133      1.368
REMARK INTER + INTRA:          -8.214
REMARK INTER:                  -7.562
REMARK INTRA:                  -0.652
REMARK UNBOUND:                -0.655
REMARK SMILES O=C(C=Cc1ccc(O)cc1)c1ccc(O)cc1O
REMARK SMILES IDX 4 1 3 2 5 3 6 4 7 5 8 6 11 7 10 8 9 9 2 11 1 12 12 13 18 14
REMARK SMILES IDX 13 15 17 16 14 17 15 18 19 19 16 21
REMARK H PARENT 9 10 19 20 16 22
REMARK Flexibility Score: inf
ROOT
ATOM      1  C   UNL     1     -17.865  22.299  13.232  1.00  0.00     0.012 C 
ATOM      2  C   UNL     1     -19.092  22.405  12.702  1.00  0.00     0.053 C 
ENDROOT
BRANCH   1   3
ATOM      3  C   UNL     1     -17.587  22.321  14.690  1.00  0.00    -0.025 A 
ATOM      4  C   UNL     1     -16.335  22.694  15.221  1.00  0.00     0.012 A 
ATOM      5  C   UNL     1     -16.130  22.707  16.605  1.00  0.00     0.047 A 
ATOM      6  C   UNL     1     -17.165  22.359  17.476  1.00  0.00     0.115 A 
ATOM      7  C   UNL     1     -18.626  21.987  15.575  1.00  0.00     0.012 A 
ATOM      8  C   UNL     1     -18.416  22.001  16.958  1.00  0.00     0.047 A 
BRANCH   6   9
ATOM      9  O   UNL     1     -16.943  22.376  18.850  1.00  0.00    -0.508 OA
ATOM     10  H   UNL     1     -17.674  22.128  19.508  1.00  0.00     0.293 HD
ENDBRANCH   6   9
ENDBRANCH   1   3
BRANCH   2  11
ATOM     11  C   UNL     1     -19.341  22.377  11.245  1.00  0.00     0.189 C 
ATOM     12  O   UNL     1     -20.531  22.488  10.845  1.00  0.00    -0.289 OA
BRANCH  11  13
ATOM     13  C   UNL     1     -18.254  22.255  10.244  1.00  0.00     0.064 A 
ATOM     14  C   UNL     1     -17.738  23.398   9.596  1.00  0.00     0.130 A 
ATOM     15  C   UNL     1     -17.693  20.998   9.962  1.00  0.00     0.020 A 
ATOM     16  C   UNL     1     -16.691  23.266   8.673  1.00  0.00     0.093 A 
ATOM     17  C   UNL     1     -16.652  20.875   9.039  1.00  0.00     0.047 A 
ATOM     18  C   UNL     1     -16.149  22.010   8.391  1.00  0.00     0.119 A 
BRANCH  14  19
ATOM     19  O   UNL     1     -18.277  24.658   9.861  1.00  0.00    -0.507 OA
ATOM     20  H   UNL     1     -18.145  25.114  10.757  1.00  0.00     0.293 HD
ENDBRANCH  14  19
BRANCH  18  21
ATOM     21  O   UNL     1     -15.111  21.899   7.469  1.00  0.00    -0.508 OA
ATOM     22  H   UNL     1     -15.288  21.677   6.496  1.00  0.00     0.293 HD
ENDBRANCH  18  21
ENDBRANCH  11  13
ENDBRANCH   2  11
TORSDOF 6
ENDMDL
MODEL 5
REMARK VINA RESULT:    -5.883      2.026      2.734
REMARK INTER + INTRA:          -8.085
REMARK INTER:                  -7.658
REMARK INTRA:                  -0.428
REMARK UNBOUND:                -0.655
REMARK SMILES O=C(C=Cc1ccc(O)cc1)c1ccc(O)cc1O
REMARK SMILES IDX 4 1 3 2 5 3 6 4 7 5 8 6 11 7 10 8 9 9 2 11 1 12 12 13 18 14
REMARK SMILES IDX 13 15 17 16 14 17 15 18 19 19 16 21
REMARK H PARENT 9 10 19 20 16 22
REMARK Flexibility Score: inf
ROOT
ATOM      1  C   UNL     1     -17.021  22.882  14.449  1.00  0.00     0.012 C 
ATOM      2  C   UNL     1     -17.050  22.158  13.321  1.00  0.00     0.053 C 
ENDROOT
BRANCH   1   3
ATOM      3  C   UNL     1     -17.994  22.728  15.558  1.00  0.00    -0.025 A 
ATOM      4  C   UNL     1     -17.604  22.402  16.874  1.00  0.00     0.012 A 
ATOM      5  C   UNL     1     -18.562  22.278  17.885  1.00  0.00     0.047 A 
ATOM      6  C   UNL     1     -19.915  22.486  17.605  1.00  0.00     0.115 A 
ATOM      7  C   UNL     1     -19.356  22.949  15.291  1.00  0.00     0.012 A 
ATOM      8  C   UNL     1     -20.310  22.824  16.305  1.00  0.00     0.047 A 
BRANCH   6   9
ATOM      9  O   UNL     1     -20.856  22.357  18.624  1.00  0.00    -0.508 OA
ATOM     10  H   UNL     1     -21.839  22.211  18.421  1.00  0.00     0.293 HD
ENDBRANCH   6   9
ENDBRANCH   1   3
BRANCH   2  11
ATOM     11  C   UNL     1     -16.065  22.329  12.231  1.00  0.00     0.189 C 
ATOM     12  O   UNL     1     -14.855  22.083  12.482  1.00  0.00    -0.289 OA
BRANCH  11  13
ATOM     13  C   UNL     1     -16.445  22.748  10.860  1.00  0.00     0.064 A 
ATOM     14  C   UNL     1     -15.468  23.206   9.950  1.00  0.00     0.130 A 
ATOM     15  C   UNL     1     -17.781  22.649  10.437  1.00  0.00     0.020 A 
ATOM     16  C   UNL     1     -15.842  23.571   8.649  1.00  0.00     0.093 A 
ATOM     17  C   UNL     1     -18.145  23.017   9.140  1.00  0.00     0.047 A 
ATOM     18  C   UNL     1     -17.175  23.480   8.242  1.00  0.00     0.119 A 
BRANCH  14  19
ATOM     19  O   UNL     1     -14.134  23.310  10.345  1.00  0.00    -0.507 OA
ATOM     20  H   UNL     1     -13.497  23.960   9.898  1.00  0.00     0.293 HD
ENDBRANCH  14  19
BRANCH  18  21
ATOM     21  O   UNL     1     -17.526  23.850   6.946  1.00  0.00    -0.508 OA
ATOM     22  H   UNL     1     -17.634  24.823   6.684  1.00  0.00     0.293 HD
ENDBRANCH  18  21
ENDBRANCH  11  13
ENDBRANCH   2  11
TORSDOF 6
ENDMDL
MODEL 6
REMARK VINA RESULT:    -5.720      2.312      6.943
REMARK INTER + INTRA:          -7.880
REMARK INTER:                  -7.320
REMARK INTRA:                  -0.561
REMARK UNBOUND:                -0.655
REMARK SMILES O=C(C=Cc1ccc(O)cc1)c1ccc(O)cc1O
REMARK SMILES IDX 4 1 3 2 5 3 6 4 7 5 8 6 11 7 10 8 9 9 2 11 1 12 12 13 18 14
REMARK SMILES IDX 13 15 17 16 14 17 15 18 19 19 16 21
REMARK H PARENT 9 10 19 20 16 22
REMARK Flexibility Score: inf
ROOT
ATOM      1  C   UNL     1     -16.719  22.619  12.354  1.00  0.00     0.012 C 
ATOM      2  C   UNL     1     -17.884  21.991  12.135  1.00  0.00     0.053 C 
ENDROOT
BRANCH   1   3
ATOM      3  C   UNL     1     -15.455  22.290  11.649  1.00  0.00    -0.025 A 
ATOM      4  C   UNL     1     -14.434  21.516  12.239  1.00  0.00     0.012 A 
ATOM      5  C   UNL     1     -13.266  21.226  11.526  1.00  0.00     0.047 A 
ATOM      6  C   UNL     1     -13.102  21.693  10.219  1.00  0.00     0.115 A 
ATOM      7  C   UNL     1     -15.287  22.741  10.330  1.00  0.00     0.012 A 
ATOM      8  C   UNL     1     -14.117  22.449   9.621  1.00  0.00     0.047 A 
BRANCH   6   9
ATOM      9  O   UNL     1     -11.932  21.397   9.524  1.00  0.00    -0.508 OA
ATOM     10  H   UNL     1     -11.340  22.129   9.149  1.00  0.00     0.293 HD
ENDBRANCH   6   9
ENDBRANCH   1   3
BRANCH   2  11
ATOM     11  C   UNL     1     -19.130  22.341  12.850  1.00  0.00     0.189 C 
ATOM     12  O   UNL     1     -20.173  22.528  12.167  1.00  0.00    -0.289 OA
BRANCH  11  13
ATOM     13  C   UNL     1     -19.209  22.451  14.327  1.00  0.00     0.064 A 
ATOM     14  C   UNL     1     -20.089  23.371  14.935  1.00  0.00     0.130 A 
ATOM     15  C   UNL     1     -18.436  21.604  15.139  1.00  0.00     0.020 A 
ATOM     16  C   UNL     1     -20.170  23.442  16.333  1.00  0.00     0.093 A 
ATOM     17  C   UNL     1     -18.521  21.682  16.531  1.00  0.00     0.047 A 
ATOM     18  C   UNL     1     -19.389  22.603  17.132  1.00  0.00     0.119 A 
BRANCH  14  19
ATOM     19  O   UNL     1     -20.869  24.222  14.150  1.00  0.00    -0.507 OA
ATOM     20  H   UNL     1     -20.456  24.978  13.616  1.00  0.00     0.293 HD
ENDBRANCH  14  19
BRANCH  18  21
ATOM     21  O   UNL     1     -19.482  22.690  18.519  1.00  0.00    -0.508 OA
ATOM     22  H   UNL     1     -19.479  23.585  18.994  1.00  0.00     0.293 HD
ENDBRANCH  18  21
ENDBRANCH  11  13
ENDBRANCH   2  11
TORSDOF 6
ENDMDL
MODEL 7
REMARK VINA RESULT:    -5.695      2.073      7.691
REMARK INTER + INTRA:          -7.848
REMARK INTER:                  -7.188
REMARK INTRA:                  -0.660
REMARK UNBOUND:                -0.655
REMARK SMILES O=C(C=Cc1ccc(O)cc1)c1ccc(O)cc1O
REMARK SMILES IDX 4 1 3 2 5 3 6 4 7 5 8 6 11 7 10 8 9 9 2 11 1 12 12 13 18 14
REMARK SMILES IDX 13 15 17 16 14 17 15 18 19 19 16 21
REMARK H PARENT 9 10 19 20 16 22
REMARK Flexibility Score: inf
ROOT
ATOM      1  C   UNL     1     -17.139  21.725  12.469  1.00  0.00     0.012 C 
ATOM      2  C   UNL     1     -16.852  22.359  13.615  1.00  0.00     0.053 C 
ENDROOT
BRANCH   1   3
ATOM      3  C   UNL     1     -17.119  22.374  11.135  1.00  0.00    -0.025 A 
ATOM      4  C   UNL     1     -18.296  22.703  10.431  1.00  0.00     0.012 A 
ATOM      5  C   UNL     1     -18.221  23.324   9.180  1.00  0.00     0.047 A 
ATOM      6  C   UNL     1     -16.980  23.634   8.618  1.00  0.00     0.115 A 
ATOM      7  C   UNL     1     -15.877  22.703  10.568  1.00  0.00     0.012 A 
ATOM      8  C   UNL     1     -15.806  23.323   9.316  1.00  0.00     0.047 A 
BRANCH   6   9
ATOM      9  O   UNL     1     -16.923  24.250   7.371  1.00  0.00    -0.508 OA
ATOM     10  H   UNL     1     -16.794  23.713   6.520  1.00  0.00     0.293 HD
ENDBRANCH   6   9
ENDBRANCH   1   3
BRANCH   2  11
ATOM     11  C   UNL     1     -16.876  21.687  14.932  1.00  0.00     0.189 C 
ATOM     12  O   UNL     1     -15.890  20.970  15.250  1.00  0.00    -0.289 OA
BRANCH  11  13
ATOM     13  C   UNL     1     -17.991  21.845  15.897  1.00  0.00     0.064 A 
ATOM     14  C   UNL     1     -17.739  22.217  17.234  1.00  0.00     0.130 A 
ATOM     15  C   UNL     1     -19.320  21.667  15.474  1.00  0.00     0.020 A 
ATOM     16  C   UNL     1     -18.809  22.389  18.125  1.00  0.00     0.093 A 
ATOM     17  C   UNL     1     -20.378  21.837  16.369  1.00  0.00     0.047 A 
ATOM     18  C   UNL     1     -20.125  22.198  17.698  1.00  0.00     0.119 A 
BRANCH  14  19
ATOM     19  O   UNL     1     -16.429  22.403  17.677  1.00  0.00    -0.507 OA
ATOM     20  H   UNL     1     -16.215  23.010  18.460  1.00  0.00     0.293 HD
ENDBRANCH  14  19
BRANCH  18  21
ATOM     21  O   UNL     1     -21.173  22.371  18.599  1.00  0.00    -0.508 OA
ATOM     22  H   UNL     1     -21.603  21.581  19.068  1.00  0.00     0.293 HD
ENDBRANCH  18  21
ENDBRANCH  11  13
ENDBRANCH   2  11
TORSDOF 6
ENDMDL
MODEL 8
REMARK VINA RESULT:    -5.578      1.765      7.280
REMARK INTER + INTRA:          -7.700
REMARK INTER:                  -7.439
REMARK INTRA:                  -0.261
REMARK UNBOUND:                -0.655
REMARK SMILES O=C(C=Cc1ccc(O)cc1)c1ccc(O)cc1O
REMARK SMILES IDX 4 1 3 2 5 3 6 4 7 5 8 6 11 7 10 8 9 9 2 11 1 12 12 13 18 14
REMARK SMILES IDX 13 15 17 16 14 17 15 18 19 19 16 21
REMARK H PARENT 9 10 19 20 16 22
REMARK Flexibility Score: inf
ROOT
ATOM      1  C   UNL     1     -18.682  21.982  12.185  1.00  0.00     0.012 C 
ATOM      2  C   UNL     1     -19.486  22.797  12.883  1.00  0.00     0.053 C 
ENDROOT
BRANCH   1   3
ATOM      3  C   UNL     1     -18.147  22.301  10.838  1.00  0.00    -0.025 A 
ATOM      4  C   UNL     1     -18.364  23.544  10.207  1.00  0.00     0.012 A 
ATOM      5  C   UNL     1     -17.829  23.797   8.940  1.00  0.00     0.047 A 
ATOM      6  C   UNL     1     -17.065  22.824   8.289  1.00  0.00     0.115 A 
ATOM      7  C   UNL     1     -17.365  21.336  10.181  1.00  0.00     0.012 A 
ATOM      8  C   UNL     1     -16.832  21.593   8.914  1.00  0.00     0.047 A 
BRANCH   6   9
ATOM      9  O   UNL     1     -16.541  23.092   7.027  1.00  0.00    -0.508 OA
ATOM     10  H   UNL     1     -16.881  23.864   6.465  1.00  0.00     0.293 HD
ENDBRANCH   6   9
ENDBRANCH   1   3
BRANCH   2  11
ATOM     11  C   UNL     1     -20.003  22.456  14.226  1.00  0.00     0.189 C 
ATOM     12  O   UNL     1     -21.213  22.121  14.328  1.00  0.00    -0.289 OA
BRANCH  11  13
ATOM     13  C   UNL     1     -19.154  22.463  15.442  1.00  0.00     0.064 A 
ATOM     14  C   UNL     1     -19.687  22.094  16.695  1.00  0.00     0.130 A 
ATOM     15  C   UNL     1     -17.791  22.796  15.349  1.00  0.00     0.020 A 
ATOM     16  C   UNL     1     -18.862  22.080  17.829  1.00  0.00     0.093 A 
ATOM     17  C   UNL     1     -16.978  22.781  16.484  1.00  0.00     0.047 A 
ATOM     18  C   UNL     1     -17.512  22.424  17.728  1.00  0.00     0.119 A 
BRANCH  14  19
ATOM     19  O   UNL     1     -21.036  21.757  16.813  1.00  0.00    -0.507 OA
ATOM     20  H   UNL     1     -21.710  22.398  17.215  1.00  0.00     0.293 HD
ENDBRANCH  14  19
BRANCH  18  21
ATOM     21  O   UNL     1     -16.710  22.406  18.866  1.00  0.00    -0.508 OA
ATOM     22  H   UNL     1     -17.068  22.694  19.771  1.00  0.00     0.293 HD
ENDBRANCH  18  21
ENDBRANCH  11  13
ENDBRANCH   2  11
TORSDOF 6
ENDMDL
MODEL 9
REMARK VINA RESULT:    -5.179      1.655      2.239
REMARK INTER + INTRA:          -7.197
REMARK INTER:                  -6.830
REMARK INTRA:                  -0.367
REMARK UNBOUND:                -0.655
REMARK SMILES O=C(C=Cc1ccc(O)cc1)c1ccc(O)cc1O
REMARK SMILES IDX 4 1 3 2 5 3 6 4 7 5 8 6 11 7 10 8 9 9 2 11 1 12 12 13 18 14
REMARK SMILES IDX 13 15 17 16 14 17 15 18 19 19 16 21
REMARK H PARENT 9 10 19 20 16 22
REMARK Flexibility Score: inf
ROOT
ATOM      1  C   UNL     1     -19.075  22.653  12.283  1.00  0.00     0.012 C 
ATOM      2  C   UNL     1     -18.199  21.800  11.733  1.00  0.00     0.053 C 
ENDROOT
BRANCH   1   3
ATOM      3  C   UNL     1     -19.371  22.714  13.736  1.00  0.00    -0.025 A 
ATOM      4  C   UNL     1     -18.882  21.761  14.654  1.00  0.00     0.012 A 
ATOM      5  C   UNL     1     -19.183  21.871  16.015  1.00  0.00     0.047 A 
ATOM      6  C   UNL     1     -19.964  22.930  16.482  1.00  0.00     0.115 A 
ATOM      7  C   UNL     1     -20.144  23.784  14.219  1.00  0.00     0.012 A 
ATOM      8  C   UNL     1     -20.443  23.889  15.581  1.00  0.00     0.047 A 
BRANCH   6   9
ATOM      9  O   UNL     1     -20.256  23.023  17.841  1.00  0.00    -0.508 OA
ATOM     10  H   UNL     1     -20.441  22.198  18.400  1.00  0.00     0.293 HD
ENDBRANCH   6   9
ENDBRANCH   1   3
BRANCH   2  11
ATOM     11  C   UNL     1     -17.920  21.762  10.282  1.00  0.00     0.189 C 
ATOM     12  O   UNL     1     -18.832  21.358   9.513  1.00  0.00    -0.289 OA
BRANCH  11  13
ATOM     13  C   UNL     1     -16.631  22.206   9.697  1.00  0.00     0.064 A 
ATOM     14  C   UNL     1     -16.419  22.160   8.303  1.00  0.00     0.130 A 
ATOM     15  C   UNL     1     -15.620  22.721  10.526  1.00  0.00     0.020 A 
ATOM     16  C   UNL     1     -15.204  22.609   7.765  1.00  0.00     0.093 A 
ATOM     17  C   UNL     1     -14.413  23.164   9.983  1.00  0.00     0.047 A 
ATOM     18  C   UNL     1     -14.201  23.108   8.600  1.00  0.00     0.119 A 
BRANCH  14  19
ATOM     19  O   UNL     1     -17.408  21.656   7.458  1.00  0.00    -0.507 OA
ATOM     20  H   UNL     1     -17.507  21.982   6.503  1.00  0.00     0.293 HD
ENDBRANCH  14  19
BRANCH  18  21
ATOM     21  O   UNL     1     -13.000  23.547   8.047  1.00  0.00    -0.508 OA
ATOM     22  H   UNL     1     -12.112  23.142   8.320  1.00  0.00     0.293 HD
ENDBRANCH  18  21
ENDBRANCH  11  13
ENDBRANCH   2  11
TORSDOF 6
ENDMDL
