MODEL 1
REMARK VINA RESULT:    -4.272      0.000      0.000
REMARK INTER + INTRA:          -7.254
REMARK INTER:                  -6.770
REMARK INTRA:                  -0.484
REMARK UNBOUND:                -0.484
REMARK SMILES CCCCCCCCCCCC(=O)[O-]
REMARK SMILES IDX 7 1 8 2 9 3 10 4 11 5 12 6 13 7 14 8 6 9 5 10 4 11 3 12 2 13
REMARK SMILES IDX 1 14
REMARK H PARENT
REMARK Flexibility Score: inf
ROOT
ATOM      1  C   UNL     1     -18.143  33.954 -11.490  1.00  0.00     0.000 C 
ENDROOT
BRANCH   1   2
ATOM      2  C   UNL     1     -16.831  33.612 -12.208  1.00  0.00     0.000 C 
BRANCH   2   3
ATOM      3  C   UNL     1     -15.702  33.228 -11.236  1.00  0.00     0.000 C 
BRANCH   3   4
ATOM      4  C   UNL     1     -14.755  34.400 -10.893  1.00  0.00     0.006 C 
BRANCH   4   5
ATOM      5  C   UNL     1     -14.415  34.486  -9.396  1.00  0.00     0.053 C 
BRANCH   5   6
ATOM      6  C   UNL     1     -13.351  35.506  -9.129  1.00  0.00     0.041 C 
ATOM      7  O   UNL     1     -12.516  35.802 -10.023  1.00  0.00    -0.550 OA
ATOM      8  O   UNL     1     -13.268  36.113  -7.882  1.00  0.00    -0.550 OA
ENDBRANCH   5   6
ENDBRANCH   4   5
ENDBRANCH   3   4
ENDBRANCH   2   3
ENDBRANCH   1   2
BRANCH   1   9
ATOM      9  C   UNL     1     -18.203  33.297 -10.106  1.00  0.00     0.000 C 
BRANCH   9  10
ATOM     10  C   UNL     1     -18.987  34.171  -9.116  1.00  0.00    -0.000 C 
BRANCH  10  11
ATOM     11  C   UNL     1     -20.045  33.380  -8.325  1.00  0.00    -0.000 C 
BRANCH  11  12
ATOM     12  C   UNL     1     -21.169  34.234  -7.710  1.00  0.00    -0.000 C 
BRANCH  12  13
ATOM     13  C   UNL     1     -22.417  33.413  -7.354  1.00  0.00    -0.003 C 
ATOM     14  C   UNL     1     -23.693  34.168  -7.716  1.00  0.00     0.004 C 
ENDBRANCH  12  13
ENDBRANCH  11  12
ENDBRANCH  10  11
ENDBRANCH   9  10
ENDBRANCH   1   9
TORSDOF 10
ENDMDL
MODEL 2
REMARK VINA RESULT:    -4.187     13.426     15.935
REMARK INTER + INTRA:          -7.118
REMARK INTER:                  -6.280
REMARK INTRA:                  -0.838
REMARK UNBOUND:                -0.484
REMARK SMILES CCCCCCCCCCCC(=O)[O-]
REMARK SMILES IDX 7 1 8 2 9 3 10 4 11 5 12 6 13 7 14 8 6 9 5 10 4 11 3 12 2 13
REMARK SMILES IDX 1 14
REMARK H PARENT
REMARK Flexibility Score: inf
ROOT
ATOM      1  C   UNL     1      -4.684  34.455   0.212  1.00  0.00     0.000 C 
ENDROOT
BRANCH   1   2
ATOM      2  C   UNL     1      -5.665  34.384   1.391  1.00  0.00     0.000 C 
BRANCH   2   3
ATOM      3  C   UNL     1      -7.130  34.252   0.942  1.00  0.00     0.000 C 
BRANCH   3   4
ATOM      4  C   UNL     1      -7.601  32.788   0.791  1.00  0.00     0.006 C 
BRANCH   4   5
ATOM      5  C   UNL     1      -6.795  31.800   1.650  1.00  0.00     0.053 C 
BRANCH   5   6
ATOM      6  C   UNL     1      -7.418  30.438   1.658  1.00  0.00     0.041 C 
ATOM      7  O   UNL     1      -7.702  29.863   0.574  1.00  0.00    -0.550 OA
ATOM      8  O   UNL     1      -7.707  29.813   2.864  1.00  0.00    -0.550 OA
ENDBRANCH   5   6
ENDBRANCH   4   5
ENDBRANCH   3   4
ENDBRANCH   2   3
ENDBRANCH   1   2
BRANCH   1   9
ATOM      9  C   UNL     1      -4.383  35.910  -0.167  1.00  0.00     0.000 C 
BRANCH   9  10
ATOM     10  C   UNL     1      -4.459  36.826   1.063  1.00  0.00    -0.000 C 
BRANCH  10  11
ATOM     11  C   UNL     1      -5.478  37.968   0.899  1.00  0.00    -0.000 C 
BRANCH  11  12
ATOM     12  C   UNL     1      -6.315  37.913  -0.392  1.00  0.00    -0.000 C 
BRANCH  12  13
ATOM     13  C   UNL     1      -7.816  38.122  -0.141  1.00  0.00    -0.003 C 
ATOM     14  C   UNL     1      -8.634  37.766  -1.379  1.00  0.00     0.004 C 
ENDBRANCH  12  13
ENDBRANCH  11  12
ENDBRANCH  10  11
ENDBRANCH   9  10
ENDBRANCH   1   9
TORSDOF 10
ENDMDL
MODEL 3
REMARK VINA RESULT:    -3.814      4.119      7.160
REMARK INTER + INTRA:          -6.528
REMARK INTER:                  -6.011
REMARK INTRA:                  -0.516
REMARK UNBOUND:                -0.484
REMARK SMILES CCCCCCCCCCCC(=O)[O-]
REMARK SMILES IDX 7 1 8 2 9 3 10 4 11 5 12 6 13 7 14 8 6 9 5 10 4 11 3 12 2 13
REMARK SMILES IDX 1 14
REMARK H PARENT
REMARK Flexibility Score: inf
ROOT
ATOM      1  C   UNL     1     -18.078  34.049 -11.159  1.00  0.00     0.000 C 
ENDROOT
BRANCH   1   2
ATOM      2  C   UNL     1     -18.510  33.199  -9.957  1.00  0.00     0.000 C 
BRANCH   2   3
ATOM      3  C   UNL     1     -19.116  34.038  -8.819  1.00  0.00     0.000 C 
BRANCH   3   4
ATOM      4  C   UNL     1     -20.339  33.375  -8.145  1.00  0.00     0.006 C 
BRANCH   4   5
ATOM      5  C   UNL     1     -21.339  34.392  -7.571  1.00  0.00     0.053 C 
BRANCH   5   6
ATOM      6  C   UNL     1     -22.716  33.811  -7.463  1.00  0.00     0.041 C 
ATOM      7  O   UNL     1     -22.904  32.735  -6.838  1.00  0.00    -0.550 OA
ATOM      8  O   UNL     1     -23.789  34.449  -8.072  1.00  0.00    -0.550 OA
ENDBRANCH   5   6
ENDBRANCH   4   5
ENDBRANCH   3   4
ENDBRANCH   2   3
ENDBRANCH   1   2
BRANCH   1   9
ATOM      9  C   UNL     1     -17.315  33.203 -12.187  1.00  0.00     0.000 C 
BRANCH   9  10
ATOM     10  C   UNL     1     -15.823  33.565 -12.196  1.00  0.00    -0.000 C 
BRANCH  10  11
ATOM     11  C   UNL     1     -15.213  33.637 -10.784  1.00  0.00    -0.000 C 
BRANCH  11  12
ATOM     12  C   UNL     1     -14.176  34.757 -10.580  1.00  0.00    -0.000 C 
BRANCH  12  13
ATOM     13  C   UNL     1     -13.898  35.052  -9.099  1.00  0.00    -0.003 C 
ATOM     14  C   UNL     1     -15.008  34.497  -8.211  1.00  0.00     0.004 C 
ENDBRANCH  12  13
ENDBRANCH  11  12
ENDBRANCH  10  11
ENDBRANCH   9  10
ENDBRANCH   1   9
TORSDOF 10
ENDMDL
MODEL 4
REMARK VINA RESULT:    -3.564     11.943     15.085
REMARK INTER + INTRA:          -6.131
REMARK INTER:                  -5.337
REMARK INTRA:                  -0.794
REMARK UNBOUND:                -0.484
REMARK SMILES CCCCCCCCCCCC(=O)[O-]
REMARK SMILES IDX 7 1 8 2 9 3 10 4 11 5 12 6 13 7 14 8 6 9 5 10 4 11 3 12 2 13
REMARK SMILES IDX 1 14
REMARK H PARENT
REMARK Flexibility Score: inf
ROOT
ATOM      1  C   UNL     1      -6.084  36.977   0.742  1.00  0.00     0.000 C 
ENDROOT
BRANCH   1   2
ATOM      2  C   UNL     1      -6.927  38.093   0.111  1.00  0.00     0.000 C 
BRANCH   2   3
ATOM      3  C   UNL     1      -6.839  38.113  -1.425  1.00  0.00     0.000 C 
BRANCH   3   4
ATOM      4  C   UNL     1      -8.180  37.799  -2.126  1.00  0.00     0.006 C 
BRANCH   4   5
ATOM      5  C   UNL     1      -9.384  37.824  -1.170  1.00  0.00     0.053 C 
BRANCH   5   6
ATOM      6  C   UNL     1     -10.042  36.481  -1.074  1.00  0.00     0.041 C 
ATOM      7  O   UNL     1     -11.203  36.309  -1.529  1.00  0.00    -0.550 OA
ATOM      8  O   UNL     1      -9.379  35.426  -0.460  1.00  0.00    -0.550 OA
ENDBRANCH   5   6
ENDBRANCH   4   5
ENDBRANCH   3   4
ENDBRANCH   2   3
ENDBRANCH   1   2
BRANCH   1   9
ATOM      9  C   UNL     1      -4.816  36.713  -0.080  1.00  0.00     0.000 C 
BRANCH   9  10
ATOM     10  C   UNL     1      -4.486  35.213  -0.114  1.00  0.00    -0.000 C 
BRANCH  10  11
ATOM     11  C   UNL     1      -4.175  34.634   1.278  1.00  0.00    -0.000 C 
BRANCH  11  12
ATOM     12  C   UNL     1      -5.141  33.535   1.757  1.00  0.00    -0.000 C 
BRANCH  12  13
ATOM     13  C   UNL     1      -6.455  33.506   0.962  1.00  0.00    -0.003 C 
ATOM     14  C   UNL     1      -7.192  32.186   1.168  1.00  0.00     0.004 C 
ENDBRANCH  12  13
ENDBRANCH  11  12
ENDBRANCH  10  11
ENDBRANCH   9  10
ENDBRANCH   1   9
TORSDOF 10
ENDMDL
MODEL 5
REMARK VINA RESULT:    -3.132     13.253     15.511
REMARK INTER + INTRA:          -5.446
REMARK INTER:                  -5.272
REMARK INTRA:                  -0.174
REMARK UNBOUND:                -0.484
REMARK SMILES CCCCCCCCCCCC(=O)[O-]
REMARK SMILES IDX 7 1 8 2 9 3 10 4 11 5 12 6 13 7 14 8 6 9 5 10 4 11 3 12 2 13
REMARK SMILES IDX 1 14
REMARK H PARENT
REMARK Flexibility Score: inf
ROOT
ATOM      1  C   UNL     1      -4.124  34.938  -0.322  1.00  0.00     0.000 C 
ENDROOT
BRANCH   1   2
ATOM      2  C   UNL     1      -3.926  36.075  -1.334  1.00  0.00     0.000 C 
BRANCH   2   3
ATOM      3  C   UNL     1      -4.255  37.459  -0.750  1.00  0.00     0.000 C 
BRANCH   3   4
ATOM      4  C   UNL     1      -5.491  38.125  -1.394  1.00  0.00     0.006 C 
BRANCH   4   5
ATOM      5  C   UNL     1      -6.809  37.770  -0.686  1.00  0.00     0.053 C 
BRANCH   5   6
ATOM      6  C   UNL     1      -7.968  37.787  -1.634  1.00  0.00     0.041 C 
ATOM      7  O   UNL     1      -7.789  38.052  -2.852  1.00  0.00    -0.550 OA
ATOM      8  O   UNL     1      -9.251  37.532  -1.168  1.00  0.00    -0.550 OA
ENDBRANCH   5   6
ENDBRANCH   4   5
ENDBRANCH   3   4
ENDBRANCH   2   3
ENDBRANCH   1   2
BRANCH   1   9
ATOM      9  C   UNL     1      -4.028  35.458   1.117  1.00  0.00     0.000 C 
BRANCH   9  10
ATOM     10  C   UNL     1      -4.315  34.338   2.127  1.00  0.00    -0.000 C 
BRANCH  10  11
ATOM     11  C   UNL     1      -5.218  33.230   1.555  1.00  0.00    -0.000 C 
BRANCH  11  12
ATOM     12  C   UNL     1      -6.506  33.728   0.873  1.00  0.00    -0.000 C 
BRANCH  12  13
ATOM     13  C   UNL     1      -7.697  32.782   1.081  1.00  0.00    -0.003 C 
ATOM     14  C   UNL     1      -7.225  31.359   1.366  1.00  0.00     0.004 C 
ENDBRANCH  12  13
ENDBRANCH  11  12
ENDBRANCH  10  11
ENDBRANCH   9  10
ENDBRANCH   1   9
TORSDOF 10
ENDMDL
MODEL 6
REMARK VINA RESULT:    -3.019     13.222     15.184
REMARK INTER + INTRA:          -5.267
REMARK INTER:                  -4.757
REMARK INTRA:                  -0.510
REMARK UNBOUND:                -0.484
REMARK SMILES CCCCCCCCCCCC(=O)[O-]
REMARK SMILES IDX 7 1 8 2 9 3 10 4 11 5 12 6 13 7 14 8 6 9 5 10 4 11 3 12 2 13
REMARK SMILES IDX 1 14
REMARK H PARENT
REMARK Flexibility Score: inf
ROOT
ATOM      1  C   UNL     1      -5.006  34.846  -0.111  1.00  0.00     0.000 C 
ENDROOT
BRANCH   1   2
ATOM      2  C   UNL     1      -4.621  36.330  -0.183  1.00  0.00     0.000 C 
BRANCH   2   3
ATOM      3  C   UNL     1      -5.345  37.187   0.869  1.00  0.00     0.000 C 
BRANCH   3   4
ATOM      4  C   UNL     1      -6.510  38.022   0.291  1.00  0.00     0.006 C 
BRANCH   4   5
ATOM      5  C   UNL     1      -6.479  38.125  -1.243  1.00  0.00     0.053 C 
BRANCH   5   6
ATOM      6  C   UNL     1      -7.829  37.869  -1.841  1.00  0.00     0.041 C 
ATOM      7  O   UNL     1      -8.832  37.702  -1.099  1.00  0.00    -0.550 OA
ATOM      8  O   UNL     1      -7.975  37.794  -3.221  1.00  0.00    -0.550 OA
ENDBRANCH   5   6
ENDBRANCH   4   5
ENDBRANCH   3   4
ENDBRANCH   2   3
ENDBRANCH   1   2
BRANCH   1   9
ATOM      9  C   UNL     1      -5.533  34.481   1.283  1.00  0.00     0.000 C 
BRANCH   9  10
ATOM     10  C   UNL     1      -7.065  34.379   1.282  1.00  0.00    -0.000 C 
BRANCH  10  11
ATOM     11  C   UNL     1      -7.573  32.959   0.973  1.00  0.00    -0.000 C 
BRANCH  11  12
ATOM     12  C   UNL     1      -6.645  31.821   1.436  1.00  0.00    -0.000 C 
BRANCH  12  13
ATOM     13  C   UNL     1      -7.298  30.435   1.329  1.00  0.00    -0.003 C 
ATOM     14  C   UNL     1      -8.019  30.068   2.623  1.00  0.00     0.004 C 
ENDBRANCH  12  13
ENDBRANCH  11  12
ENDBRANCH  10  11
ENDBRANCH   9  10
ENDBRANCH   1   9
TORSDOF 10
ENDMDL
MODEL 7
REMARK VINA RESULT:    -2.687     11.413     13.017
REMARK INTER + INTRA:          -4.741
REMARK INTER:                  -4.058
REMARK INTRA:                  -0.683
REMARK UNBOUND:                -0.484
REMARK SMILES CCCCCCCCCCCC(=O)[O-]
REMARK SMILES IDX 7 1 8 2 9 3 10 4 11 5 12 6 13 7 14 8 6 9 5 10 4 11 3 12 2 13
REMARK SMILES IDX 1 14
REMARK H PARENT
REMARK Flexibility Score: inf
ROOT
ATOM      1  C   UNL     1     -21.820  25.025  -6.450  1.00  0.00     0.000 C 
ENDROOT
BRANCH   1   2
ATOM      2  C   UNL     1     -20.903  24.533  -5.323  1.00  0.00     0.000 C 
BRANCH   2   3
ATOM      3  C   UNL     1     -19.773  23.619  -5.828  1.00  0.00     0.000 C 
BRANCH   3   4
ATOM      4  C   UNL     1     -19.599  22.331  -4.993  1.00  0.00     0.006 C 
BRANCH   4   5
ATOM      5  C   UNL     1     -20.343  22.374  -3.648  1.00  0.00     0.053 C 
BRANCH   5   6
ATOM      6  C   UNL     1     -20.366  21.031  -2.985  1.00  0.00     0.041 C 
ATOM      7  O   UNL     1     -20.135  19.989  -3.653  1.00  0.00    -0.550 OA
ATOM      8  O   UNL     1     -20.665  20.929  -1.633  1.00  0.00    -0.550 OA
ENDBRANCH   5   6
ENDBRANCH   4   5
ENDBRANCH   3   4
ENDBRANCH   2   3
ENDBRANCH   1   2
BRANCH   1   9
ATOM      9  C   UNL     1     -22.180  26.504  -6.262  1.00  0.00     0.000 C 
BRANCH   9  10
ATOM     10  C   UNL     1     -22.460  26.818  -4.785  1.00  0.00    -0.000 C 
BRANCH  10  11
ATOM     11  C   UNL     1     -23.874  26.401  -4.340  1.00  0.00    -0.000 C 
BRANCH  11  12
ATOM     12  C   UNL     1     -23.922  25.465  -3.118  1.00  0.00    -0.000 C 
BRANCH  12  13
ATOM     13  C   UNL     1     -22.533  25.177  -2.530  1.00  0.00    -0.003 C 
ATOM     14  C   UNL     1     -22.553  23.921  -1.663  1.00  0.00     0.004 C 
ENDBRANCH  12  13
ENDBRANCH  11  12
ENDBRANCH  10  11
ENDBRANCH   9  10
ENDBRANCH   1   9
TORSDOF 10
ENDMDL
MODEL 8
REMARK VINA RESULT:    -2.564     14.943     16.048
REMARK INTER + INTRA:          -4.546
REMARK INTER:                  -4.136
REMARK INTRA:                  -0.410
REMARK UNBOUND:                -0.484
REMARK SMILES CCCCCCCCCCCC(=O)[O-]
REMARK SMILES IDX 7 1 8 2 9 3 10 4 11 5 12 6 13 7 14 8 6 9 5 10 4 11 3 12 2 13
REMARK SMILES IDX 1 14
REMARK H PARENT
REMARK Flexibility Score: inf
ROOT
ATOM      1  C   UNL     1      -5.082  34.713   1.710  1.00  0.00     0.000 C 
ENDROOT
BRANCH   1   2
ATOM      2  C   UNL     1      -4.421  36.066   2.006  1.00  0.00     0.000 C 
BRANCH   2   3
ATOM      3  C   UNL     1      -5.430  37.225   2.058  1.00  0.00     0.000 C 
BRANCH   3   4
ATOM      4  C   UNL     1      -5.720  37.857   0.678  1.00  0.00     0.006 C 
BRANCH   4   5
ATOM      5  C   UNL     1      -4.449  38.125  -0.145  1.00  0.00     0.053 C 
BRANCH   5   6
ATOM      6  C   UNL     1      -4.465  37.382  -1.446  1.00  0.00     0.041 C 
ATOM      7  O   UNL     1      -4.733  37.986  -2.518  1.00  0.00    -0.550 OA
ATOM      8  O   UNL     1      -4.208  36.018  -1.471  1.00  0.00    -0.550 OA
ENDBRANCH   5   6
ENDBRANCH   4   5
ENDBRANCH   3   4
ENDBRANCH   2   3
ENDBRANCH   1   2
BRANCH   1   9
ATOM      9  C   UNL     1      -6.608  34.847   1.651  1.00  0.00     0.000 C 
BRANCH   9  10
ATOM     10  C   UNL     1      -7.237  33.648   0.925  1.00  0.00    -0.000 C 
BRANCH  10  11
ATOM     11  C   UNL     1      -6.650  32.298   1.374  1.00  0.00    -0.000 C 
BRANCH  11  12
ATOM     12  C   UNL     1      -7.625  31.108   1.304  1.00  0.00    -0.000 C 
BRANCH  12  13
ATOM     13  C   UNL     1      -7.148  29.896   2.117  1.00  0.00    -0.003 C 
ATOM     14  C   UNL     1      -7.999  29.706   3.370  1.00  0.00     0.004 C 
ENDBRANCH  12  13
ENDBRANCH  11  12
ENDBRANCH  10  11
ENDBRANCH   9  10
ENDBRANCH   1   9
TORSDOF 10
ENDMDL
