MODEL 1
REMARK VINA RESULT:    -5.829      0.000      0.000
REMARK INTER + INTRA:          -6.648
REMARK INTER:                  -6.511
REMARK INTRA:                  -0.138
REMARK UNBOUND:                -0.138
REMARK SMILES COc1cc2ccc(=O)oc2cc1OC
REMARK SMILES IDX 3 1 13 2 12 3 11 4 5 5 4 6 6 7 7 8 8 9 9 10 10 11 2 12 1 13
REMARK SMILES IDX 14 14 15 15
REMARK H PARENT
REMARK Flexibility Score: inf
ROOT
ATOM      1  C   UNL     1      13.711  45.098   4.875  1.00  0.00     0.161 A 
ATOM      2  C   UNL     1      13.460  43.715   4.919  1.00  0.00     0.164 A 
ATOM      3  C   UNL     1      14.223  42.893   5.772  1.00  0.00     0.098 A 
ATOM      4  C   UNL     1      15.226  43.442   6.573  1.00  0.00     0.142 A 
ATOM      5  C   UNL     1      15.479  44.828   6.530  1.00  0.00     0.022 A 
ATOM      6  C   UNL     1      14.724  45.651   5.684  1.00  0.00     0.062 A 
ATOM      7  C   UNL     1      16.491  45.347   7.344  1.00  0.00     0.019 A 
ATOM      8  C   UNL     1      17.215  44.489   8.169  1.00  0.00     0.094 A 
ATOM      9  C   UNL     1      16.908  43.123   8.160  1.00  0.00     0.336 A 
ATOM     10  O   UNL     1      17.551  42.331   8.897  1.00  0.00    -0.246 OA
ATOM     11  O   UNL     1      15.941  42.656   7.375  1.00  0.00    -0.423 OA
ENDROOT
BRANCH   1  12
ATOM     12  O   UNL     1      12.932  45.887   4.015  1.00  0.00    -0.493 OA
ATOM     13  C   UNL     1      11.842  46.704   4.433  1.00  0.00     0.278 C 
ENDBRANCH   1  12
BRANCH   2  14
ATOM     14  O   UNL     1      12.444  43.197   4.100  1.00  0.00    -0.493 OA
ATOM     15  C   UNL     1      12.669  42.416   2.932  1.00  0.00     0.278 C 
ENDBRANCH   2  14
TORSDOF 2
ENDMDL
MODEL 2
REMARK VINA RESULT:    -5.778      1.941      2.599
REMARK INTER + INTRA:          -6.591
REMARK INTER:                  -6.444
REMARK INTRA:                  -0.147
REMARK UNBOUND:                -0.138
REMARK SMILES COc1cc2ccc(=O)oc2cc1OC
REMARK SMILES IDX 3 1 13 2 12 3 11 4 5 5 4 6 6 7 7 8 8 9 9 10 10 11 2 12 1 13
REMARK SMILES IDX 14 14 15 15
REMARK H PARENT
REMARK Flexibility Score: inf
ROOT
ATOM      1  C   UNL     1      13.710  46.172   5.725  1.00  0.00     0.161 A 
ATOM      2  C   UNL     1      13.347  46.023   7.075  1.00  0.00     0.164 A 
ATOM      3  C   UNL     1      14.160  45.261   7.938  1.00  0.00     0.098 A 
ATOM      4  C   UNL     1      15.323  44.652   7.461  1.00  0.00     0.142 A 
ATOM      5  C   UNL     1      15.687  44.801   6.106  1.00  0.00     0.022 A 
ATOM      6  C   UNL     1      14.883  45.557   5.244  1.00  0.00     0.062 A 
ATOM      7  C   UNL     1      16.857  44.179   5.659  1.00  0.00     0.019 A 
ATOM      8  C   UNL     1      17.625  43.436   6.555  1.00  0.00     0.094 A 
ATOM      9  C   UNL     1      17.201  43.333   7.885  1.00  0.00     0.336 A 
ATOM     10  O   UNL     1      17.879  42.666   8.710  1.00  0.00    -0.246 OA
ATOM     11  O   UNL     1      16.083  43.934   8.283  1.00  0.00    -0.423 OA
ENDROOT
BRANCH   1  12
ATOM     12  O   UNL     1      12.877  46.938   4.895  1.00  0.00    -0.493 OA
ATOM     13  C   UNL     1      12.224  46.444   3.729  1.00  0.00     0.278 C 
ENDBRANCH   1  12
BRANCH   2  14
ATOM     14  O   UNL     1      12.172  46.649   7.521  1.00  0.00    -0.493 OA
ATOM     15  C   UNL     1      10.942  45.975   7.765  1.00  0.00     0.278 C 
ENDBRANCH   2  14
TORSDOF 2
ENDMDL
MODEL 3
REMARK VINA RESULT:    -5.646      0.980      2.663
REMARK INTER + INTRA:          -6.443
REMARK INTER:                  -6.348
REMARK INTRA:                  -0.095
REMARK UNBOUND:                -0.138
REMARK SMILES COc1cc2ccc(=O)oc2cc1OC
REMARK SMILES IDX 3 1 13 2 12 3 11 4 5 5 4 6 6 7 7 8 8 9 9 10 10 11 2 12 1 13
REMARK SMILES IDX 14 14 15 15
REMARK H PARENT
REMARK Flexibility Score: inf
ROOT
ATOM      1  C   UNL     1      13.534  44.029   4.783  1.00  0.00     0.161 A 
ATOM      2  C   UNL     1      13.725  45.351   5.222  1.00  0.00     0.164 A 
ATOM      3  C   UNL     1      14.650  45.619   6.250  1.00  0.00     0.098 A 
ATOM      4  C   UNL     1      15.378  44.582   6.837  1.00  0.00     0.142 A 
ATOM      5  C   UNL     1      15.186  43.255   6.397  1.00  0.00     0.022 A 
ATOM      6  C   UNL     1      14.268  42.982   5.376  1.00  0.00     0.062 A 
ATOM      7  C   UNL     1      15.930  42.238   7.005  1.00  0.00     0.019 A 
ATOM      8  C   UNL     1      16.832  42.560   8.018  1.00  0.00     0.094 A 
ATOM      9  C   UNL     1      16.969  43.899   8.402  1.00  0.00     0.336 A 
ATOM     10  O   UNL     1      17.777  44.210   9.315  1.00  0.00    -0.246 OA
ATOM     11  O   UNL     1      16.249  44.846   7.807  1.00  0.00    -0.423 OA
ENDROOT
BRANCH   1  12
ATOM     12  O   UNL     1      12.604  43.798   3.757  1.00  0.00    -0.493 OA
ATOM     13  C   UNL     1      12.590  42.641   2.926  1.00  0.00     0.278 C 
ENDBRANCH   1  12
BRANCH   2  14
ATOM     14  O   UNL     1      12.977  46.369   4.610  1.00  0.00    -0.493 OA
ATOM     15  C   UNL     1      11.725  46.849   5.089  1.00  0.00     0.278 C 
ENDBRANCH   2  14
TORSDOF 2
ENDMDL
MODEL 4
REMARK VINA RESULT:    -5.552      2.474      5.627
REMARK INTER + INTRA:          -6.339
REMARK INTER:                  -6.184
REMARK INTRA:                  -0.155
REMARK UNBOUND:                -0.138
REMARK SMILES COc1cc2ccc(=O)oc2cc1OC
REMARK SMILES IDX 3 1 13 2 12 3 11 4 5 5 4 6 6 7 7 8 8 9 9 10 10 11 2 12 1 13
REMARK SMILES IDX 14 14 15 15
REMARK H PARENT
REMARK Flexibility Score: inf
ROOT
ATOM      1  C   UNL     1      14.581  44.752   7.840  1.00  0.00     0.161 A 
ATOM      2  C   UNL     1      15.012  45.273   6.607  1.00  0.00     0.164 A 
ATOM      3  C   UNL     1      14.127  46.038   5.823  1.00  0.00     0.098 A 
ATOM      4  C   UNL     1      12.823  46.281   6.261  1.00  0.00     0.142 A 
ATOM      5  C   UNL     1      12.390  45.759   7.497  1.00  0.00     0.022 A 
ATOM      6  C   UNL     1      13.266  44.998   8.281  1.00  0.00     0.062 A 
ATOM      7  C   UNL     1      11.078  46.020   7.908  1.00  0.00     0.019 A 
ATOM      8  C   UNL     1      10.244  46.783   7.093  1.00  0.00     0.094 A 
ATOM      9  C   UNL     1      10.743  47.269   5.879  1.00  0.00     0.336 A 
ATOM     10  O   UNL     1      10.006  47.959   5.128  1.00  0.00    -0.246 OA
ATOM     11  O   UNL     1      11.994  47.005   5.513  1.00  0.00    -0.423 OA
ENDROOT
BRANCH   1  12
ATOM     12  O   UNL     1      15.490  43.995   8.595  1.00  0.00    -0.493 OA
ATOM     13  C   UNL     1      15.366  42.598   8.845  1.00  0.00     0.278 C 
ENDBRANCH   1  12
BRANCH   2  14
ATOM     14  O   UNL     1      16.329  45.009   6.198  1.00  0.00    -0.493 OA
ATOM     15  C   UNL     1      16.702  43.969   5.300  1.00  0.00     0.278 C 
ENDBRANCH   2  14
TORSDOF 2
ENDMDL
MODEL 5
REMARK VINA RESULT:    -5.539      1.962      5.265
REMARK INTER + INTRA:          -6.324
REMARK INTER:                  -6.186
REMARK INTRA:                  -0.138
REMARK UNBOUND:                -0.138
REMARK SMILES COc1cc2ccc(=O)oc2cc1OC
REMARK SMILES IDX 3 1 13 2 12 3 11 4 5 5 4 6 6 7 7 8 8 9 9 10 10 11 2 12 1 13
REMARK SMILES IDX 14 14 15 15
REMARK H PARENT
REMARK Flexibility Score: inf
ROOT
ATOM      1  C   UNL     1      16.325  42.647   7.593  1.00  0.00     0.161 A 
ATOM      2  C   UNL     1      15.050  42.169   7.938  1.00  0.00     0.164 A 
ATOM      3  C   UNL     1      14.004  42.223   6.996  1.00  0.00     0.098 A 
ATOM      4  C   UNL     1      14.226  42.749   5.722  1.00  0.00     0.142 A 
ATOM      5  C   UNL     1      15.505  43.230   5.375  1.00  0.00     0.022 A 
ATOM      6  C   UNL     1      16.549  43.179   6.307  1.00  0.00     0.062 A 
ATOM      7  C   UNL     1      15.695  43.751   4.091  1.00  0.00     0.019 A 
ATOM      8  C   UNL     1      14.626  43.780   3.197  1.00  0.00     0.094 A 
ATOM      9  C   UNL     1      13.384  43.285   3.612  1.00  0.00     0.336 A 
ATOM     10  O   UNL     1      12.406  43.303   2.821  1.00  0.00    -0.246 OA
ATOM     11  O   UNL     1      13.231  42.795   4.839  1.00  0.00    -0.423 OA
ENDROOT
BRANCH   1  12
ATOM     12  O   UNL     1      17.344  42.578   8.557  1.00  0.00    -0.493 OA
ATOM     13  C   UNL     1      17.784  43.678   9.348  1.00  0.00     0.278 C 
ENDBRANCH   1  12
BRANCH   2  14
ATOM     14  O   UNL     1      14.862  41.646   9.228  1.00  0.00    -0.493 OA
ATOM     15  C   UNL     1      14.749  40.259   9.528  1.00  0.00     0.278 C 
ENDBRANCH   2  14
TORSDOF 2
ENDMDL
MODEL 6
REMARK VINA RESULT:    -5.498      1.927      5.370
REMARK INTER + INTRA:          -6.279
REMARK INTER:                  -6.163
REMARK INTRA:                  -0.115
REMARK UNBOUND:                -0.138
REMARK SMILES COc1cc2ccc(=O)oc2cc1OC
REMARK SMILES IDX 3 1 13 2 12 3 11 4 5 5 4 6 6 7 7 8 8 9 9 10 10 11 2 12 1 13
REMARK SMILES IDX 14 14 15 15
REMARK H PARENT
REMARK Flexibility Score: inf
ROOT
ATOM      1  C   UNL     1      15.297  44.004   5.662  1.00  0.00     0.161 A 
ATOM      2  C   UNL     1      15.091  44.379   7.001  1.00  0.00     0.164 A 
ATOM      3  C   UNL     1      14.059  45.281   7.325  1.00  0.00     0.098 A 
ATOM      4  C   UNL     1      13.238  45.806   6.324  1.00  0.00     0.142 A 
ATOM      5  C   UNL     1      13.444  45.431   4.980  1.00  0.00     0.022 A 
ATOM      6  C   UNL     1      14.469  44.535   4.653  1.00  0.00     0.062 A 
ATOM      7  C   UNL     1      12.605  45.975   4.001  1.00  0.00     0.019 A 
ATOM      8  C   UNL     1      11.599  46.863   4.377  1.00  0.00     0.094 A 
ATOM      9  C   UNL     1      11.454  47.189   5.730  1.00  0.00     0.336 A 
ATOM     10  O   UNL     1      10.553  47.990   6.090  1.00  0.00    -0.246 OA
ATOM     11  O   UNL     1      12.266  46.658   6.640  1.00  0.00    -0.423 OA
ENDROOT
BRANCH   1  12
ATOM     12  O   UNL     1      16.334  43.103   5.376  1.00  0.00    -0.493 OA
ATOM     13  C   UNL     1      17.115  43.122   4.184  1.00  0.00     0.278 C 
ENDBRANCH   1  12
BRANCH   2  14
ATOM     14  O   UNL     1      15.935  43.832   7.981  1.00  0.00    -0.493 OA
ATOM     15  C   UNL     1      17.088  44.480   8.507  1.00  0.00     0.278 C 
ENDBRANCH   2  14
TORSDOF 2
ENDMDL
MODEL 7
REMARK VINA RESULT:    -5.444      3.239      4.965
REMARK INTER + INTRA:          -6.219
REMARK INTER:                  -6.096
REMARK INTRA:                  -0.123
REMARK UNBOUND:                -0.138
REMARK SMILES COc1cc2ccc(=O)oc2cc1OC
REMARK SMILES IDX 3 1 13 2 12 3 11 4 5 5 4 6 6 7 7 8 8 9 9 10 10 11 2 12 1 13
REMARK SMILES IDX 14 14 15 15
REMARK H PARENT
REMARK Flexibility Score: inf
ROOT
ATOM      1  C   UNL     1      14.467  45.197   6.928  1.00  0.00     0.161 A 
ATOM      2  C   UNL     1      13.929  44.817   5.686  1.00  0.00     0.164 A 
ATOM      3  C   UNL     1      12.570  44.459   5.592  1.00  0.00     0.098 A 
ATOM      4  C   UNL     1      11.753  44.478   6.725  1.00  0.00     0.142 A 
ATOM      5  C   UNL     1      12.292  44.857   7.972  1.00  0.00     0.022 A 
ATOM      6  C   UNL     1      13.642  45.215   8.071  1.00  0.00     0.062 A 
ATOM      7  C   UNL     1      11.448  44.866   9.087  1.00  0.00     0.019 A 
ATOM      8  C   UNL     1      10.111  44.502   8.938  1.00  0.00     0.094 A 
ATOM      9  C   UNL     1       9.646  44.136   7.670  1.00  0.00     0.336 A 
ATOM     10  O   UNL     1       8.443  43.804   7.514  1.00  0.00    -0.246 OA
ATOM     11  O   UNL     1      10.471  44.137   6.626  1.00  0.00    -0.423 OA
ENDROOT
BRANCH   1  12
ATOM     12  O   UNL     1      15.825  45.548   6.985  1.00  0.00    -0.493 OA
ATOM     13  C   UNL     1      16.790  44.909   7.816  1.00  0.00     0.278 C 
ENDBRANCH   1  12
BRANCH   2  14
ATOM     14  O   UNL     1      14.779  44.810   4.568  1.00  0.00    -0.493 OA
ATOM     15  C   UNL     1      14.872  43.741   3.632  1.00  0.00     0.278 C 
ENDBRANCH   2  14
TORSDOF 2
ENDMDL
MODEL 8
REMARK VINA RESULT:    -5.406      2.678      3.728
REMARK INTER + INTRA:          -6.176
REMARK INTER:                  -6.049
REMARK INTRA:                  -0.127
REMARK UNBOUND:                -0.138
REMARK SMILES COc1cc2ccc(=O)oc2cc1OC
REMARK SMILES IDX 3 1 13 2 12 3 11 4 5 5 4 6 6 7 7 8 8 9 9 10 10 11 2 12 1 13
REMARK SMILES IDX 14 14 15 15
REMARK H PARENT
REMARK Flexibility Score: inf
ROOT
ATOM      1  C   UNL     1      11.635  45.865   6.122  1.00  0.00     0.161 A 
ATOM      2  C   UNL     1      12.223  45.368   7.298  1.00  0.00     0.164 A 
ATOM      3  C   UNL     1      13.461  44.700   7.233  1.00  0.00     0.098 A 
ATOM      4  C   UNL     1      14.108  44.526   6.007  1.00  0.00     0.142 A 
ATOM      5  C   UNL     1      13.519  45.023   4.827  1.00  0.00     0.022 A 
ATOM      6  C   UNL     1      12.288  45.689   4.886  1.00  0.00     0.062 A 
ATOM      7  C   UNL     1      14.192  44.833   3.615  1.00  0.00     0.019 A 
ATOM      8  C   UNL     1      15.414  44.165   3.607  1.00  0.00     0.094 A 
ATOM      9  C   UNL     1      15.939  43.699   4.819  1.00  0.00     0.336 A 
ATOM     10  O   UNL     1      17.041  43.092   4.833  1.00  0.00    -0.246 OA
ATOM     11  O   UNL     1      15.277  43.893   5.956  1.00  0.00    -0.423 OA
ENDROOT
BRANCH   1  12
ATOM     12  O   UNL     1      10.401  46.526   6.225  1.00  0.00    -0.493 OA
ATOM     13  C   UNL     1      10.189  47.896   5.896  1.00  0.00     0.278 C 
ENDBRANCH   1  12
BRANCH   2  14
ATOM     14  O   UNL     1      11.545  45.561   8.513  1.00  0.00    -0.493 OA
ATOM     15  C   UNL     1      11.233  44.523   9.436  1.00  0.00     0.278 C 
ENDBRANCH   2  14
TORSDOF 2
ENDMDL
MODEL 9
REMARK VINA RESULT:    -5.401      2.281      2.961
REMARK INTER + INTRA:          -6.170
REMARK INTER:                  -6.033
REMARK INTRA:                  -0.137
REMARK UNBOUND:                -0.138
REMARK SMILES COc1cc2ccc(=O)oc2cc1OC
REMARK SMILES IDX 3 1 13 2 12 3 11 4 5 5 4 6 6 7 7 8 8 9 9 10 10 11 2 12 1 13
REMARK SMILES IDX 14 14 15 15
REMARK H PARENT
REMARK Flexibility Score: inf
ROOT
ATOM      1  C   UNL     1      12.614  46.112   7.366  1.00  0.00     0.161 A 
ATOM      2  C   UNL     1      13.069  46.409   6.070  1.00  0.00     0.164 A 
ATOM      3  C   UNL     1      14.337  45.959   5.653  1.00  0.00     0.098 A 
ATOM      4  C   UNL     1      15.145  45.219   6.518  1.00  0.00     0.142 A 
ATOM      5  C   UNL     1      14.690  44.920   7.819  1.00  0.00     0.022 A 
ATOM      6  C   UNL     1      13.431  45.366   8.239  1.00  0.00     0.062 A 
ATOM      7  C   UNL     1      15.524  44.178   8.662  1.00  0.00     0.019 A 
ATOM      8  C   UNL     1      16.769  43.757   8.199  1.00  0.00     0.094 A 
ATOM      9  C   UNL     1      17.154  44.090   6.895  1.00  0.00     0.336 A 
ATOM     10  O   UNL     1      18.274  43.721   6.457  1.00  0.00    -0.246 OA
ATOM     11  O   UNL     1      16.341  44.798   6.115  1.00  0.00    -0.423 OA
ENDROOT
BRANCH   1  12
ATOM     12  O   UNL     1      11.346  46.576   7.748  1.00  0.00    -0.493 OA
ATOM     13  C   UNL     1      10.163  45.783   7.751  1.00  0.00     0.278 C 
ENDBRANCH   1  12
BRANCH   2  14
ATOM     14  O   UNL     1      12.230  47.155   5.226  1.00  0.00    -0.493 OA
ATOM     15  C   UNL     1      11.858  46.765   3.908  1.00  0.00     0.278 C 
ENDBRANCH   2  14
TORSDOF 2
ENDMDL
