MODEL 1
REMARK VINA RESULT:    -5.484      0.000      0.000
REMARK INTER + INTRA:          -7.679
REMARK INTER:                  -7.407
REMARK INTRA:                  -0.271
REMARK UNBOUND:                -0.271
REMARK SMILES CCCCCCC=CC(=O)[O-]
REMARK SMILES IDX 5 1 6 2 7 3 8 4 9 5 10 6 11 7 4 8 3 9 2 10 1 11
REMARK H PARENT
REMARK Flexibility Score: inf
ROOT
ATOM      1  C   UNL     1     124.410 134.118 127.512  1.00  0.00     0.004 C 
ENDROOT
BRANCH   1   2
ATOM      2  C   UNL     1     124.494 132.701 126.914  1.00  0.00     0.027 C 
BRANCH   2   3
ATOM      3  C   UNL     1     125.855 132.390 126.348  1.00  0.00    -0.025 C 
ATOM      4  C   UNL     1     126.190 132.388 125.048  1.00  0.00     0.020 C 
BRANCH   4   5
ATOM      5  C   UNL     1     125.286 132.629 123.905  1.00  0.00     0.064 C 
ATOM      6  O   UNL     1     125.379 133.713 123.274  1.00  0.00    -0.545 OA
ATOM      7  O   UNL     1     124.363 131.682 123.478  1.00  0.00    -0.545 OA
ENDBRANCH   4   5
ENDBRANCH   2   3
ENDBRANCH   1   2
BRANCH   1   8
ATOM      8  C   UNL     1     123.253 134.313 128.510  1.00  0.00     0.000 C 
BRANCH   8   9
ATOM      9  C   UNL     1     122.688 135.741 128.497  1.00  0.00    -0.000 C 
BRANCH   9  10
ATOM     10  C   UNL     1     121.203 135.740 128.116  1.00  0.00    -0.003 C 
ATOM     11  C   UNL     1     120.875 136.888 127.166  1.00  0.00     0.004 C 
ENDBRANCH   9  10
ENDBRANCH   8   9
ENDBRANCH   1   8
TORSDOF 6
ENDMDL
MODEL 2
REMARK VINA RESULT:    -4.962      2.997      5.259
REMARK INTER + INTRA:          -6.973
REMARK INTER:                  -6.623
REMARK INTRA:                  -0.350
REMARK UNBOUND:                -0.271
REMARK SMILES CCCCCCC=CC(=O)[O-]
REMARK SMILES IDX 5 1 6 2 7 3 8 4 9 5 10 6 11 7 4 8 3 9 2 10 1 11
REMARK H PARENT
REMARK Flexibility Score: inf
ROOT
ATOM      1  C   UNL     1     125.348 132.126 125.696  1.00  0.00     0.004 C 
ENDROOT
BRANCH   1   2
ATOM      2  C   UNL     1     124.831 132.678 127.037  1.00  0.00     0.027 C 
BRANCH   2   3
ATOM      3  C   UNL     1     125.167 134.133 127.234  1.00  0.00    -0.025 C 
ATOM      4  C   UNL     1     124.403 135.045 127.858  1.00  0.00     0.020 C 
BRANCH   4   5
ATOM      5  C   UNL     1     123.055 134.826 128.423  1.00  0.00     0.064 C 
ATOM      6  O   UNL     1     122.910 133.973 129.336  1.00  0.00    -0.545 OA
ATOM      7  O   UNL     1     121.951 135.558 128.008  1.00  0.00    -0.545 OA
ENDBRANCH   4   5
ENDBRANCH   2   3
ENDBRANCH   1   2
BRANCH   1   8
ATOM      8  C   UNL     1     124.237 131.701 124.718  1.00  0.00     0.000 C 
BRANCH   8   9
ATOM      9  C   UNL     1     124.528 132.113 123.267  1.00  0.00    -0.000 C 
BRANCH   9  10
ATOM     10  C   UNL     1     125.671 133.133 123.205  1.00  0.00    -0.003 C 
ATOM     11  C   UNL     1     125.147 134.532 122.898  1.00  0.00     0.004 C 
ENDBRANCH   9  10
ENDBRANCH   8   9
ENDBRANCH   1   8
TORSDOF 6
ENDMDL
MODEL 3
REMARK VINA RESULT:    -4.921      2.929      5.479
REMARK INTER + INTRA:          -6.919
REMARK INTER:                  -6.509
REMARK INTRA:                  -0.410
REMARK UNBOUND:                -0.271
REMARK SMILES CCCCCCC=CC(=O)[O-]
REMARK SMILES IDX 5 1 6 2 7 3 8 4 9 5 10 6 11 7 4 8 3 9 2 10 1 11
REMARK H PARENT
REMARK Flexibility Score: inf
ROOT
ATOM      1  C   UNL     1     124.924 132.439 127.030  1.00  0.00     0.004 C 
ENDROOT
BRANCH   1   2
ATOM      2  C   UNL     1     123.932 133.617 126.998  1.00  0.00     0.027 C 
BRANCH   2   3
ATOM      3  C   UNL     1     124.138 134.581 128.137  1.00  0.00    -0.025 C 
ATOM      4  C   UNL     1     123.218 135.420 128.640  1.00  0.00     0.020 C 
BRANCH   4   5
ATOM      5  C   UNL     1     121.840 135.616 128.143  1.00  0.00     0.064 C 
ATOM      6  O   UNL     1     120.875 135.333 128.900  1.00  0.00    -0.545 OA
ATOM      7  O   UNL     1     121.573 136.139 126.885  1.00  0.00    -0.545 OA
ENDBRANCH   4   5
ENDBRANCH   2   3
ENDBRANCH   1   2
BRANCH   1   8
ATOM      8  C   UNL     1     125.963 132.458 125.894  1.00  0.00     0.000 C 
BRANCH   8   9
ATOM      9  C   UNL     1     125.623 133.472 124.791  1.00  0.00    -0.000 C 
BRANCH   9  10
ATOM     10  C   UNL     1     125.595 132.797 123.415  1.00  0.00    -0.003 C 
ATOM     11  C   UNL     1     124.631 131.614 123.400  1.00  0.00     0.004 C 
ENDBRANCH   9  10
ENDBRANCH   8   9
ENDBRANCH   1   8
TORSDOF 6
ENDMDL
MODEL 4
REMARK VINA RESULT:    -4.685      1.460      2.440
REMARK INTER + INTRA:          -6.599
REMARK INTER:                  -6.418
REMARK INTRA:                  -0.181
REMARK UNBOUND:                -0.271
REMARK SMILES CCCCCCC=CC(=O)[O-]
REMARK SMILES IDX 5 1 6 2 7 3 8 4 9 5 10 6 11 7 4 8 3 9 2 10 1 11
REMARK H PARENT
REMARK Flexibility Score: inf
ROOT
ATOM      1  C   UNL     1     125.074 132.546 126.074  1.00  0.00     0.004 C 
ENDROOT
BRANCH   1   2
ATOM      2  C   UNL     1     124.360 131.987 124.829  1.00  0.00     0.027 C 
BRANCH   2   3
ATOM      3  C   UNL     1     125.250 131.956 123.615  1.00  0.00    -0.025 C 
ATOM      4  C   UNL     1     125.714 133.023 122.945  1.00  0.00     0.020 C 
BRANCH   4   5
ATOM      5  C   UNL     1     125.399 134.441 123.220  1.00  0.00     0.064 C 
ATOM      6  O   UNL     1     124.276 134.892 122.875  1.00  0.00    -0.545 OA
ATOM      7  O   UNL     1     126.284 135.282 123.881  1.00  0.00    -0.545 OA
ENDBRANCH   4   5
ENDBRANCH   2   3
ENDBRANCH   1   2
BRANCH   1   8
ATOM      8  C   UNL     1     124.133 132.860 127.253  1.00  0.00     0.000 C 
BRANCH   8   9
ATOM      9  C   UNL     1     124.221 134.322 127.714  1.00  0.00    -0.000 C 
BRANCH   9  10
ATOM     10  C   UNL     1     123.143 134.633 128.759  1.00  0.00    -0.003 C 
ATOM     11  C   UNL     1     121.972 135.388 128.138  1.00  0.00     0.004 C 
ENDBRANCH   9  10
ENDBRANCH   8   9
ENDBRANCH   1   8
TORSDOF 6
ENDMDL
MODEL 5
REMARK VINA RESULT:    -3.726      1.540      2.548
REMARK INTER + INTRA:          -5.304
REMARK INTER:                  -4.997
REMARK INTRA:                  -0.307
REMARK UNBOUND:                -0.271
REMARK SMILES CCCCCCC=CC(=O)[O-]
REMARK SMILES IDX 5 1 6 2 7 3 8 4 9 5 10 6 11 7 4 8 3 9 2 10 1 11
REMARK H PARENT
REMARK Flexibility Score: inf
ROOT
ATOM      1  C   UNL     1     125.385 134.219 126.011  1.00  0.00     0.004 C 
ENDROOT
BRANCH   1   2
ATOM      2  C   UNL     1     126.204 133.852 124.760  1.00  0.00     0.027 C 
BRANCH   2   3
ATOM      3  C   UNL     1     125.401 133.956 123.489  1.00  0.00    -0.025 C 
ATOM      4  C   UNL     1     124.631 132.992 122.959  1.00  0.00     0.020 C 
BRANCH   4   5
ATOM      5  C   UNL     1     124.461 131.617 123.473  1.00  0.00     0.064 C 
ATOM      6  O   UNL     1     125.034 130.670 122.875  1.00  0.00    -0.545 OA
ATOM      7  O   UNL     1     123.723 131.340 124.616  1.00  0.00    -0.545 OA
ENDBRANCH   4   5
ENDBRANCH   2   3
ENDBRANCH   1   2
BRANCH   1   8
ATOM      8  C   UNL     1     125.027 133.017 126.905  1.00  0.00     0.000 C 
BRANCH   8   9
ATOM      9  C   UNL     1     123.870 133.314 127.870  1.00  0.00    -0.000 C 
BRANCH   9  10
ATOM     10  C   UNL     1     123.749 134.820 128.134  1.00  0.00    -0.003 C 
ATOM     11  C   UNL     1     122.288 135.260 128.163  1.00  0.00     0.004 C 
ENDBRANCH   9  10
ENDBRANCH   8   9
ENDBRANCH   1   8
TORSDOF 6
ENDMDL
MODEL 6
REMARK VINA RESULT:    -3.064      2.308      3.706
REMARK INTER + INTRA:          -4.410
REMARK INTER:                  -4.132
REMARK INTRA:                  -0.277
REMARK UNBOUND:                -0.271
REMARK SMILES CCCCCCC=CC(=O)[O-]
REMARK SMILES IDX 5 1 6 2 7 3 8 4 9 5 10 6 11 7 4 8 3 9 2 10 1 11
REMARK H PARENT
REMARK Flexibility Score: inf
ROOT
ATOM      1  C   UNL     1     123.886 133.243 127.990  1.00  0.00     0.004 C 
ENDROOT
BRANCH   1   2
ATOM      2  C   UNL     1     124.944 133.750 126.992  1.00  0.00     0.027 C 
BRANCH   2   3
ATOM      3  C   UNL     1     125.886 132.663 126.543  1.00  0.00    -0.025 C 
ATOM      4  C   UNL     1     126.150 132.321 125.271  1.00  0.00     0.020 C 
BRANCH   4   5
ATOM      5  C   UNL     1     125.529 132.892 124.058  1.00  0.00     0.064 C 
ATOM      6  O   UNL     1     124.801 132.156 123.343  1.00  0.00    -0.545 OA
ATOM      7  O   UNL     1     125.690 134.225 123.701  1.00  0.00    -0.545 OA
ENDBRANCH   4   5
ENDBRANCH   2   3
ENDBRANCH   1   2
BRANCH   1   8
ATOM      8  C   UNL     1     123.668 131.718 127.957  1.00  0.00     0.000 C 
BRANCH   8   9
ATOM      9  C   UNL     1     123.031 131.178 129.246  1.00  0.00    -0.000 C 
BRANCH   9  10
ATOM     10  C   UNL     1     123.110 129.648 129.297  1.00  0.00    -0.003 C 
ATOM     11  C   UNL     1     121.741 129.016 129.062  1.00  0.00     0.004 C 
ENDBRANCH   9  10
ENDBRANCH   8   9
ENDBRANCH   1   8
TORSDOF 6
ENDMDL
