MODEL 1
REMARK VINA RESULT:    -5.686      0.000      0.000
REMARK INTER + INTRA:          -5.686
REMARK INTER:                  -5.686
REMARK INTRA:                   0.000
REMARK UNBOUND:                 0.000
REMARK SMILES C=C1CCCC(C)(C)[C@@]12CC=C(C)CC2
REMARK SMILES IDX 13 1 12 2 11 3 10 4 9 5 15 6 14 7 2 8 1 9 3 10 4 11 5 12
REMARK SMILES IDX 6 13 7 14 8 15
REMARK H PARENT
REMARK Flexibility Score: inf
ROOT
ATOM      1  C   UNL     1     162.610 168.994 198.949  1.00  0.00     0.039 C 
ATOM      2  C   UNL     1     163.942 168.672 199.568  1.00  0.00    -0.077 C 
ATOM      3  C   UNL     1     164.578 167.535 199.249  1.00  0.00    -0.027 C 
ATOM      4  C   UNL     1     165.915 167.231 199.874  1.00  0.00     0.039 C 
ATOM      5  C   UNL     1     166.905 168.461 199.878  1.00  0.00    -0.000 C 
ATOM      6  C   UNL     1     166.089 169.823 199.964  1.00  0.00     0.017 C 
ATOM      7  C   UNL     1     164.647 169.652 200.470  1.00  0.00     0.031 C 
ATOM      8  C   UNL     1     167.811 168.267 201.124  1.00  0.00    -0.070 C 
ATOM      9  C   UNL     1     167.528 168.808 202.329  1.00  0.00     0.008 C 
ATOM     10  C   UNL     1     168.867 167.180 201.091  1.00  0.00     0.031 C 
ATOM     11  C   UNL     1     169.728 167.276 199.841  1.00  0.00     0.005 C 
ATOM     12  C   UNL     1     168.863 167.296 198.581  1.00  0.00     0.008 C 
ATOM     13  C   UNL     1     167.837 168.473 198.569  1.00  0.00    -0.026 C 
ATOM     14  C   UNL     1     167.013 168.325 197.261  1.00  0.00     0.012 C 
ATOM     15  C   UNL     1     168.640 169.804 198.467  1.00  0.00     0.012 C 
ENDROOT
TORSDOF 0
ENDMDL
MODEL 2
REMARK VINA RESULT:    -5.677      4.187      6.643
REMARK INTER + INTRA:          -5.677
REMARK INTER:                  -5.677
REMARK INTRA:                   0.000
REMARK UNBOUND:                 0.000
REMARK SMILES C=C1CCCC(C)(C)[C@@]12CC=C(C)CC2
REMARK SMILES IDX 13 1 12 2 11 3 10 4 9 5 15 6 14 7 2 8 1 9 3 10 4 11 5 12
REMARK SMILES IDX 6 13 7 14 8 15
REMARK H PARENT
REMARK Flexibility Score: inf
ROOT
ATOM      1  C   UNL     1     169.378 163.013 198.960  1.00  0.00     0.039 C 
ATOM      2  C   UNL     1     168.049 163.340 199.582  1.00  0.00    -0.077 C 
ATOM      3  C   UNL     1     167.405 164.469 199.249  1.00  0.00    -0.027 C 
ATOM      4  C   UNL     1     166.071 164.777 199.877  1.00  0.00     0.039 C 
ATOM      5  C   UNL     1     165.086 163.543 199.908  1.00  0.00    -0.000 C 
ATOM      6  C   UNL     1     165.909 162.186 200.011  1.00  0.00     0.017 C 
ATOM      7  C   UNL     1     167.353 162.372 200.505  1.00  0.00     0.031 C 
ATOM      8  C   UNL     1     164.188 163.753 201.156  1.00  0.00    -0.070 C 
ATOM      9  C   UNL     1     164.480 163.234 202.368  1.00  0.00     0.008 C 
ATOM     10  C   UNL     1     163.126 164.835 201.112  1.00  0.00     0.031 C 
ATOM     11  C   UNL     1     162.258 164.715 199.869  1.00  0.00     0.005 C 
ATOM     12  C   UNL     1     163.115 164.678 198.605  1.00  0.00     0.008 C 
ATOM     13  C   UNL     1     164.147 163.505 198.605  1.00  0.00    -0.026 C 
ATOM     14  C   UNL     1     164.962 163.635 197.289  1.00  0.00     0.012 C 
ATOM     15  C   UNL     1     163.349 162.169 198.530  1.00  0.00     0.012 C 
ENDROOT
TORSDOF 0
ENDMDL
MODEL 3
REMARK VINA RESULT:    -5.559      1.516      4.618
REMARK INTER + INTRA:          -5.559
REMARK INTER:                  -5.559
REMARK INTRA:                   0.000
REMARK UNBOUND:                 0.000
REMARK SMILES C=C1CCCC(C)(C)[C@@]12CC=C(C)CC2
REMARK SMILES IDX 13 1 12 2 11 3 10 4 9 5 15 6 14 7 2 8 1 9 3 10 4 11 5 12
REMARK SMILES IDX 6 13 7 14 8 15
REMARK H PARENT
REMARK Flexibility Score: inf
ROOT
ATOM      1  C   UNL     1     169.516 164.269 199.928  1.00  0.00     0.039 C 
ATOM      2  C   UNL     1     168.825 165.592 199.747  1.00  0.00    -0.077 C 
ATOM      3  C   UNL     1     167.510 165.639 199.489  1.00  0.00    -0.027 C 
ATOM      4  C   UNL     1     166.833 166.973 199.316  1.00  0.00     0.039 C 
ATOM      5  C   UNL     1     167.240 168.035 200.411  1.00  0.00    -0.000 C 
ATOM      6  C   UNL     1     168.726 167.766 200.911  1.00  0.00     0.017 C 
ATOM      7  C   UNL     1     169.555 166.895 199.953  1.00  0.00     0.031 C 
ATOM      8  C   UNL     1     167.121 169.419 199.718  1.00  0.00    -0.070 C 
ATOM      9  C   UNL     1     168.159 170.024 199.101  1.00  0.00     0.008 C 
ATOM     10  C   UNL     1     165.738 169.971 199.433  1.00  0.00     0.031 C 
ATOM     11  C   UNL     1     164.857 169.940 200.672  1.00  0.00     0.005 C 
ATOM     12  C   UNL     1     164.820 168.539 201.281  1.00  0.00     0.008 C 
ATOM     13  C   UNL     1     166.236 168.006 201.665  1.00  0.00    -0.026 C 
ATOM     14  C   UNL     1     166.031 166.569 202.219  1.00  0.00     0.012 C 
ATOM     15  C   UNL     1     166.776 168.884 202.833  1.00  0.00     0.012 C 
ENDROOT
TORSDOF 0
ENDMDL
MODEL 4
REMARK VINA RESULT:    -5.558      3.938      5.570
REMARK INTER + INTRA:          -5.558
REMARK INTER:                  -5.558
REMARK INTRA:                   0.000
REMARK UNBOUND:                 0.000
REMARK SMILES C=C1CCCC(C)(C)[C@@]12CC=C(C)CC2
REMARK SMILES IDX 13 1 12 2 11 3 10 4 9 5 15 6 14 7 2 8 1 9 3 10 4 11 5 12
REMARK SMILES IDX 6 13 7 14 8 15
REMARK H PARENT
REMARK Flexibility Score: inf
ROOT
ATOM      1  C   UNL     1     162.489 167.699 200.000  1.00  0.00     0.039 C 
ATOM      2  C   UNL     1     163.168 166.373 199.790  1.00  0.00    -0.077 C 
ATOM      3  C   UNL     1     164.478 166.323 199.506  1.00  0.00    -0.027 C 
ATOM      4  C   UNL     1     165.144 164.986 199.305  1.00  0.00     0.039 C 
ATOM      5  C   UNL     1     164.752 163.915 200.397  1.00  0.00    -0.000 C 
ATOM      6  C   UNL     1     163.278 164.187 200.930  1.00  0.00     0.017 C 
ATOM      7  C   UNL     1     162.435 165.073 199.998  1.00  0.00     0.031 C 
ATOM      8  C   UNL     1     164.849 162.537 199.688  1.00  0.00    -0.070 C 
ATOM      9  C   UNL     1     163.796 161.945 199.085  1.00  0.00     0.008 C 
ATOM     10  C   UNL     1     166.223 161.981 199.369  1.00  0.00     0.031 C 
ATOM     11  C   UNL     1     167.129 161.994 200.591  1.00  0.00     0.005 C 
ATOM     12  C   UNL     1     167.187 163.388 201.213  1.00  0.00     0.008 C 
ATOM     13  C   UNL     1     165.781 163.926 201.631  1.00  0.00    -0.026 C 
ATOM     14  C   UNL     1     166.005 165.355 202.195  1.00  0.00     0.012 C 
ATOM     15  C   UNL     1     165.260 163.038 202.800  1.00  0.00     0.012 C 
ENDROOT
TORSDOF 0
ENDMDL
MODEL 5
REMARK VINA RESULT:    -5.398      1.488      3.464
REMARK INTER + INTRA:          -5.398
REMARK INTER:                  -5.398
REMARK INTRA:                   0.000
REMARK UNBOUND:                 0.000
REMARK SMILES C=C1CCCC(C)(C)[C@@]12CC=C(C)CC2
REMARK SMILES IDX 13 1 12 2 11 3 10 4 9 5 15 6 14 7 2 8 1 9 3 10 4 11 5 12
REMARK SMILES IDX 6 13 7 14 8 15
REMARK H PARENT
REMARK Flexibility Score: inf
ROOT
ATOM      1  C   UNL     1     163.342 168.427 203.151  1.00  0.00     0.039 C 
ATOM      2  C   UNL     1     163.894 168.666 201.773  1.00  0.00    -0.077 C 
ATOM      3  C   UNL     1     164.595 169.779 201.508  1.00  0.00    -0.027 C 
ATOM      4  C   UNL     1     165.145 169.999 200.123  1.00  0.00     0.039 C 
ATOM      5  C   UNL     1     165.843 168.722 199.510  1.00  0.00    -0.000 C 
ATOM      6  C   UNL     1     165.166 167.399 200.079  1.00  0.00     0.017 C 
ATOM      7  C   UNL     1     163.773 167.627 200.687  1.00  0.00     0.031 C 
ATOM      8  C   UNL     1     165.652 168.836 197.974  1.00  0.00    -0.070 C 
ATOM      9  C   UNL     1     164.612 168.277 197.319  1.00  0.00     0.008 C 
ATOM     10  C   UNL     1     166.463 169.870 197.217  1.00  0.00     0.031 C 
ATOM     11  C   UNL     1     167.945 169.768 197.544  1.00  0.00     0.005 C 
ATOM     12  C   UNL     1     168.177 169.825 199.053  1.00  0.00     0.008 C 
ATOM     13  C   UNL     1     167.418 168.701 199.827  1.00  0.00    -0.026 C 
ATOM     14  C   UNL     1     167.716 168.925 201.335  1.00  0.00     0.012 C 
ATOM     15  C   UNL     1     168.050 167.335 199.424  1.00  0.00     0.012 C 
ENDROOT
TORSDOF 0
ENDMDL
MODEL 6
REMARK VINA RESULT:    -5.390      2.810      4.575
REMARK INTER + INTRA:          -5.390
REMARK INTER:                  -5.390
REMARK INTRA:                   0.000
REMARK UNBOUND:                 0.000
REMARK SMILES C=C1CCCC(C)(C)[C@@]12CC=C(C)CC2
REMARK SMILES IDX 13 1 12 2 11 3 10 4 9 5 15 6 14 7 2 8 1 9 3 10 4 11 5 12
REMARK SMILES IDX 6 13 7 14 8 15
REMARK H PARENT
REMARK Flexibility Score: inf
ROOT
ATOM      1  C   UNL     1     163.996 162.799 199.914  1.00  0.00     0.039 C 
ATOM      2  C   UNL     1     164.121 164.199 200.450  1.00  0.00    -0.077 C 
ATOM      3  C   UNL     1     165.153 164.974 200.082  1.00  0.00    -0.027 C 
ATOM      4  C   UNL     1     165.260 166.375 200.623  1.00  0.00     0.039 C 
ATOM      5  C   UNL     1     163.899 167.175 200.582  1.00  0.00    -0.000 C 
ATOM      6  C   UNL     1     162.670 166.175 200.731  1.00  0.00     0.017 C 
ATOM      7  C   UNL     1     163.051 164.807 201.320  1.00  0.00     0.031 C 
ATOM      8  C   UNL     1     163.961 168.172 201.770  1.00  0.00    -0.070 C 
ATOM      9  C   UNL     1     163.470 167.887 202.995  1.00  0.00     0.008 C 
ATOM     10  C   UNL     1     164.882 169.372 201.663  1.00  0.00     0.031 C 
ATOM     11  C   UNL     1     164.659 170.132 200.365  1.00  0.00     0.005 C 
ATOM     12  C   UNL     1     164.762 169.200 199.159  1.00  0.00     0.008 C 
ATOM     13  C   UNL     1     163.748 168.014 199.220  1.00  0.00    -0.026 C 
ATOM     14  C   UNL     1     164.011 167.143 197.962  1.00  0.00     0.012 C 
ATOM     15  C   UNL     1     162.313 168.607 199.086  1.00  0.00     0.012 C 
ENDROOT
TORSDOF 0
ENDMDL
MODEL 7
REMARK VINA RESULT:    -5.366      3.177      4.657
REMARK INTER + INTRA:          -5.366
REMARK INTER:                  -5.366
REMARK INTRA:                   0.000
REMARK UNBOUND:                 0.000
REMARK SMILES C=C1CCCC(C)(C)[C@@]12CC=C(C)CC2
REMARK SMILES IDX 13 1 12 2 11 3 10 4 9 5 15 6 14 7 2 8 1 9 3 10 4 11 5 12
REMARK SMILES IDX 6 13 7 14 8 15
REMARK H PARENT
REMARK Flexibility Score: inf
ROOT
ATOM      1  C   UNL     1     168.081 169.112 199.185  1.00  0.00     0.039 C 
ATOM      2  C   UNL     1     167.952 167.792 199.894  1.00  0.00    -0.077 C 
ATOM      3  C   UNL     1     166.924 166.975 199.618  1.00  0.00    -0.027 C 
ATOM      4  C   UNL     1     166.813 165.654 200.334  1.00  0.00     0.039 C 
ATOM      5  C   UNL     1     168.175 164.858 200.408  1.00  0.00    -0.000 C 
ATOM      6  C   UNL     1     169.402 165.871 200.440  1.00  0.00     0.017 C 
ATOM      7  C   UNL     1     169.014 167.303 200.845  1.00  0.00     0.031 C 
ATOM      8  C   UNL     1     168.102 164.022 201.714  1.00  0.00    -0.070 C 
ATOM      9  C   UNL     1     168.581 164.462 202.897  1.00  0.00     0.008 C 
ATOM     10  C   UNL     1     167.184 162.816 201.752  1.00  0.00     0.031 C 
ATOM     11  C   UNL     1     167.419 161.896 200.565  1.00  0.00     0.005 C 
ATOM     12  C   UNL     1     167.327 162.666 199.249  1.00  0.00     0.008 C 
ATOM     13  C   UNL     1     168.340 163.852 199.167  1.00  0.00    -0.026 C 
ATOM     14  C   UNL     1     168.088 164.554 197.805  1.00  0.00     0.012 C 
ATOM     15  C   UNL     1     169.776 163.249 199.123  1.00  0.00     0.012 C 
ENDROOT
TORSDOF 0
ENDMDL
MODEL 8
REMARK VINA RESULT:    -5.366      4.450      6.784
REMARK INTER + INTRA:          -5.366
REMARK INTER:                  -5.366
REMARK INTRA:                   0.000
REMARK UNBOUND:                 0.000
REMARK SMILES C=C1CCCC(C)(C)[C@@]12CC=C(C)CC2
REMARK SMILES IDX 13 1 12 2 11 3 10 4 9 5 15 6 14 7 2 8 1 9 3 10 4 11 5 12
REMARK SMILES IDX 6 13 7 14 8 15
REMARK H PARENT
REMARK Flexibility Score: inf
ROOT
ATOM      1  C   UNL     1     168.643 163.553 203.137  1.00  0.00     0.039 C 
ATOM      2  C   UNL     1     168.111 163.345 201.746  1.00  0.00    -0.077 C 
ATOM      3  C   UNL     1     167.446 162.221 201.438  1.00  0.00    -0.027 C 
ATOM      4  C   UNL     1     166.914 162.031 200.041  1.00  0.00     0.039 C 
ATOM      5  C   UNL     1     166.183 163.307 199.465  1.00  0.00    -0.000 C 
ATOM      6  C   UNL     1     166.815 164.629 200.084  1.00  0.00     0.017 C 
ATOM      7  C   UNL     1     168.210 164.422 200.697  1.00  0.00     0.031 C 
ATOM      8  C   UNL     1     166.390 163.251 197.927  1.00  0.00    -0.070 C 
ATOM      9  C   UNL     1     167.419 163.862 197.301  1.00  0.00     0.008 C 
ATOM     10  C   UNL     1     165.617 162.219 197.128  1.00  0.00     0.031 C 
ATOM     11  C   UNL     1     164.131 162.267 197.445  1.00  0.00     0.005 C 
ATOM     12  C   UNL     1     163.887 162.152 198.949  1.00  0.00     0.008 C 
ATOM     13  C   UNL     1     164.606 163.271 199.768  1.00  0.00    -0.026 C 
ATOM     14  C   UNL     1     164.301 162.987 201.264  1.00  0.00     0.012 C 
ATOM     15  C   UNL     1     163.936 164.630 199.405  1.00  0.00     0.012 C 
ENDROOT
TORSDOF 0
ENDMDL
MODEL 9
REMARK VINA RESULT:    -5.348      4.464      6.358
REMARK INTER + INTRA:          -5.348
REMARK INTER:                  -5.348
REMARK INTRA:                   0.000
REMARK UNBOUND:                 0.000
REMARK SMILES C=C1CCCC(C)(C)[C@@]12CC=C(C)CC2
REMARK SMILES IDX 13 1 12 2 11 3 10 4 9 5 15 6 14 7 2 8 1 9 3 10 4 11 5 12
REMARK SMILES IDX 6 13 7 14 8 15
REMARK H PARENT
REMARK Flexibility Score: inf
ROOT
ATOM      1  C   UNL     1     165.235 161.888 196.182  1.00  0.00     0.039 C 
ATOM      2  C   UNL     1     164.599 162.570 197.361  1.00  0.00    -0.077 C 
ATOM      3  C   UNL     1     164.249 161.861 198.445  1.00  0.00    -0.027 C 
ATOM      4  C   UNL     1     163.618 162.562 199.620  1.00  0.00     0.039 C 
ATOM      5  C   UNL     1     164.348 163.903 200.023  1.00  0.00    -0.000 C 
ATOM      6  C   UNL     1     165.009 164.575 198.741  1.00  0.00     0.017 C 
ATOM      7  C   UNL     1     164.434 164.068 197.408  1.00  0.00     0.031 C 
ATOM      8  C   UNL     1     163.248 164.813 200.632  1.00  0.00    -0.070 C 
ATOM      9  C   UNL     1     162.545 165.706 199.902  1.00  0.00     0.008 C 
ATOM     10  C   UNL     1     162.708 164.477 202.008  1.00  0.00     0.031 C 
ATOM     11  C   UNL     1     163.831 164.283 203.016  1.00  0.00     0.005 C 
ATOM     12  C   UNL     1     164.846 163.258 202.514  1.00  0.00     0.008 C 
ATOM     13  C   UNL     1     165.475 163.650 201.139  1.00  0.00    -0.026 C 
ATOM     14  C   UNL     1     166.438 162.495 200.750  1.00  0.00     0.012 C 
ATOM     15  C   UNL     1     166.341 164.926 201.358  1.00  0.00     0.012 C 
ENDROOT
TORSDOF 0
ENDMDL
