MODEL 1
REMARK VINA RESULT:    28.428      0.000      0.000
REMARK INTER + INTRA:          33.795
REMARK INTER:                  34.245
REMARK INTRA:                  -0.450
REMARK UNBOUND:                -0.450
REMARK SMILES O=c1c(O)c(-c2ccc(O)cc2O)oc2cc(O)cc(O)c12
REMARK SMILES IDX 5 1 3 2 2 3 1 4 22 5 20 6 19 7 17 8 16 9 15 10 14 11 6 12
REMARK SMILES IDX 8 13 7 14 9 15 11 16 12 17 10 18 13 20 4 22 21 24 18 26
REMARK H PARENT 10 19 13 21 4 23 21 25 18 27
REMARK Flexibility Score: inf
ROOT
ATOM      1  C   UNL     1      20.048 -12.485 -15.486  1.00  0.00     0.184 A 
ATOM      2  C   UNL     1      21.228 -12.125 -14.815  1.00  0.00     0.208 A 
ATOM      3  C   UNL     1      22.386 -11.861 -15.565  1.00  0.00     0.238 A 
ATOM      4  O   UNL     1      23.454 -11.594 -14.954  1.00  0.00    -0.285 OA
ATOM      5  C   UNL     1      22.343 -11.942 -16.977  1.00  0.00     0.111 A 
ATOM      6  C   UNL     1      23.444 -11.657 -17.840  1.00  0.00     0.134 A 
ATOM      7  C   UNL     1      23.324 -11.893 -19.214  1.00  0.00     0.093 A 
ATOM      8  C   UNL     1      22.122 -12.343 -19.766  1.00  0.00     0.123 A 
ATOM      9  C   UNL     1      21.023 -12.567 -18.941  1.00  0.00     0.094 A 
ATOM     10  C   UNL     1      21.123 -12.375 -17.560  1.00  0.00     0.146 A 
ATOM     11  O   UNL     1      20.055 -12.612 -16.808  1.00  0.00    -0.451 OA
ENDROOT
BRANCH   1  12
ATOM     12  C   UNL     1      18.785 -12.754 -14.759  1.00  0.00     0.063 A 
ATOM     13  C   UNL     1      16.708 -11.955 -13.773  1.00  0.00     0.047 A 
ATOM     14  C   UNL     1      17.912 -11.699 -14.435  1.00  0.00     0.020 A 
ATOM     15  C   UNL     1      16.355 -13.266 -13.437  1.00  0.00     0.119 A 
ATOM     16  C   UNL     1      17.208 -14.322 -13.767  1.00  0.00     0.093 A 
ATOM     17  C   UNL     1      18.421 -14.075 -14.429  1.00  0.00     0.130 A 
BRANCH  15  18
ATOM     18  O   UNL     1      15.156 -13.532 -12.778  1.00  0.00    -0.508 OA
ATOM     19  H   UNL     1      14.302 -13.723 -13.289  1.00  0.00     0.293 HD
ENDBRANCH  15  18
BRANCH  17  20
ATOM     20  O   UNL     1      19.267 -15.137 -14.746  1.00  0.00    -0.507 OA
ATOM     21  H   UNL     1      19.997 -15.444 -14.114  1.00  0.00     0.293 HD
ENDBRANCH  17  20
ENDBRANCH   1  12
BRANCH   2  22
ATOM     22  O   UNL     1      21.249 -12.065 -13.419  1.00  0.00    -0.502 OA
ATOM     23  H   UNL     1      21.288 -12.895 -12.839  1.00  0.00     0.293 HD
ENDBRANCH   2  22
BRANCH   6  24
ATOM     24  O   UNL     1      24.658 -11.119 -17.402  1.00  0.00    -0.507 OA
ATOM     25  H   UNL     1      25.182 -10.407 -17.889  1.00  0.00     0.293 HD
ENDBRANCH   6  24
BRANCH   8  26
ATOM     26  O   UNL     1      22.006 -12.560 -21.138  1.00  0.00    -0.508 OA
ATOM     27  H   UNL     1      21.166 -12.954 -21.543  1.00  0.00     0.293 HD
ENDBRANCH   8  26
TORSDOF 6
ENDMDL
MODEL 2
REMARK VINA RESULT:    29.955      1.193      2.801
REMARK INTER + INTRA:          35.634
REMARK INTER:                  35.923
REMARK INTRA:                  -0.289
REMARK UNBOUND:                -0.450
REMARK SMILES O=c1c(O)c(-c2ccc(O)cc2O)oc2cc(O)cc(O)c12
REMARK SMILES IDX 5 1 3 2 2 3 1 4 22 5 20 6 19 7 17 8 16 9 15 10 14 11 6 12
REMARK SMILES IDX 8 13 7 14 9 15 11 16 12 17 10 18 13 20 4 22 21 24 18 26
REMARK H PARENT 10 19 13 21 4 23 21 25 18 27
REMARK Flexibility Score: inf
ROOT
ATOM      1  C   UNL     1      19.835 -12.616 -16.119  1.00  0.00     0.184 A 
ATOM      2  C   UNL     1      19.684 -13.065 -17.441  1.00  0.00     0.208 A 
ATOM      3  C   UNL     1      20.748 -12.902 -18.343  1.00  0.00     0.238 A 
ATOM      4  O   UNL     1      20.585 -13.254 -19.540  1.00  0.00    -0.285 OA
ATOM      5  C   UNL     1      21.957 -12.309 -17.905  1.00  0.00     0.111 A 
ATOM      6  C   UNL     1      23.114 -12.129 -18.721  1.00  0.00     0.134 A 
ATOM      7  C   UNL     1      24.209 -11.416 -18.219  1.00  0.00     0.093 A 
ATOM      8  C   UNL     1      24.214 -10.931 -16.908  1.00  0.00     0.123 A 
ATOM      9  C   UNL     1      23.113 -11.153 -16.085  1.00  0.00     0.094 A 
ATOM     10  C   UNL     1      21.991 -11.829 -16.569  1.00  0.00     0.146 A 
ATOM     11  O   UNL     1      20.958 -12.009 -15.754  1.00  0.00    -0.451 OA
ENDROOT
BRANCH   1  12
ATOM     12  C   UNL     1      18.762 -12.778 -15.110  1.00  0.00     0.063 A 
ATOM     13  C   UNL     1      16.964 -11.828 -13.772  1.00  0.00     0.047 A 
ATOM     14  C   UNL     1      17.995 -11.671 -14.703  1.00  0.00     0.020 A 
ATOM     15  C   UNL     1      16.678 -13.092 -13.246  1.00  0.00     0.119 A 
ATOM     16  C   UNL     1      17.424 -14.200 -13.655  1.00  0.00     0.093 A 
ATOM     17  C   UNL     1      18.464 -14.053 -14.586  1.00  0.00     0.130 A 
BRANCH  15  18
ATOM     18  O   UNL     1      15.652 -13.259 -12.318  1.00  0.00    -0.508 OA
ATOM     19  H   UNL     1      14.677 -13.203 -12.591  1.00  0.00     0.293 HD
ENDBRANCH  15  18
BRANCH  17  20
ATOM     20  O   UNL     1      19.205 -15.165 -14.981  1.00  0.00    -0.507 OA
ATOM     21  H   UNL     1      18.818 -16.101 -14.947  1.00  0.00     0.293 HD
ENDBRANCH  17  20
ENDBRANCH   1  12
BRANCH   2  22
ATOM     22  O   UNL     1      18.476 -13.635 -17.854  1.00  0.00    -0.502 OA
ATOM     23  H   UNL     1      17.808 -13.137 -18.431  1.00  0.00     0.293 HD
ENDBRANCH   2  22
BRANCH   6  24
ATOM     24  O   UNL     1      23.247 -12.651 -20.011  1.00  0.00    -0.507 OA
ATOM     25  H   UNL     1      23.116 -13.620 -20.256  1.00  0.00     0.293 HD
ENDBRANCH   6  24
BRANCH   8  26
ATOM     26  O   UNL     1      25.315 -10.236 -16.412  1.00  0.00    -0.508 OA
ATOM     27  H   UNL     1      26.259 -10.579 -16.539  1.00  0.00     0.293 HD
ENDBRANCH   8  26
TORSDOF 6
ENDMDL
