MODEL 1
REMARK VINA RESULT:    -5.101      0.000      0.000
REMARK INTER + INTRA:          -6.124
REMARK INTER:                  -5.847
REMARK INTRA:                  -0.277
REMARK UNBOUND:                -0.277
REMARK SMILES C=C(C)[C@H]1CC[C@]2(C(=O)[O-])CC[C@]3(C)[C@H](CC[C@@H]4[C@@]5(C)CC[C@H](O)C(C)(C)[C@H]5CC[C@@]43C)[C@H]12
REMARK SMILES IDX 7 1 6 2 33 3 11 4 5 5 15 6 4 7 12 8 16 9 13 10 17 11 31 12
REMARK SMILES IDX 14 13 18 14 30 15 32 16 19 17 29 18 21 19 20 20 28 21 22 22
REMARK SMILES IDX 25 23 23 24 26 25 27 26 8 27 9 28 10 29 2 30 3 31 1 32 24 33
REMARK H PARENT 24 34
REMARK Flexibility Score: inf
ROOT
ATOM      1  C   UNL     1      41.486  24.639   5.893  1.00  0.00     0.014 C 
ATOM      2  C   UNL     1      41.472  24.491   4.360  1.00  0.00     0.014 C 
ATOM      3  C   UNL     1      40.065  25.203   6.206  1.00  0.00     0.012 C 
ATOM      4  C   UNL     1      41.782  23.256   6.548  1.00  0.00     0.014 C 
ATOM      5  C   UNL     1      40.035  24.170   3.966  1.00  0.00     0.009 C 
ATOM      6  C   UNL     1      39.557  24.873   7.643  1.00  0.00     0.000 C 
ATOM      7  C   UNL     1      39.134  24.825   5.023  1.00  0.00     0.018 C 
ATOM      8  C   UNL     1      41.261  23.109   7.996  1.00  0.00     0.008 C 
ATOM      9  C   UNL     1      38.155  25.402   7.935  1.00  0.00     0.005 C 
ATOM     10  C   UNL     1      39.732  23.416   8.170  1.00  0.00    -0.024 C 
ATOM     11  C   UNL     1      38.040  25.736   9.421  1.00  0.00     0.005 C 
ATOM     12  C   UNL     1      39.180  23.319   9.733  1.00  0.00    -0.024 C 
ATOM     13  C   UNL     1      38.993  22.377   7.252  1.00  0.00     0.012 C 
ATOM     14  C   UNL     1      38.731  24.718  10.401  1.00  0.00     0.002 C 
ATOM     15  C   UNL     1      40.225  22.617  10.664  1.00  0.00     0.008 C 
ATOM     16  C   UNL     1      37.888  22.415   9.809  1.00  0.00     0.012 C 
ATOM     17  C   UNL     1      39.715  25.372  11.479  1.00  0.00    -0.026 C 
ATOM     18  C   UNL     1      39.949  22.824  12.150  1.00  0.00     0.005 C 
ATOM     19  C   UNL     1      39.009  26.606  12.150  1.00  0.00     0.010 C 
ATOM     20  C   UNL     1      40.989  25.934  10.786  1.00  0.00     0.012 C 
ATOM     21  C   UNL     1      40.154  24.301  12.585  1.00  0.00     0.003 C 
ATOM     22  C   UNL     1      39.676  27.100  13.434  1.00  0.00     0.033 C 
ATOM     23  C   UNL     1      39.607  24.551  14.049  1.00  0.00    -0.006 C 
ATOM     24  C   UNL     1      39.952  26.012  14.497  1.00  0.00     0.120 C 
ATOM     25  C   UNL     1      40.298  23.579  15.050  1.00  0.00     0.014 C 
ATOM     26  C   UNL     1      38.075  24.282  14.176  1.00  0.00     0.014 C 
ENDROOT
BRANCH   1  27
ATOM     27  C   UNL     1      42.585  25.608   6.308  1.00  0.00     0.048 C 
ATOM     28  O   UNL     1      43.571  25.217   6.990  1.00  0.00    -0.550 OA
ATOM     29  O   UNL     1      42.558  26.926   5.866  1.00  0.00    -0.550 OA
ENDBRANCH   1  27
BRANCH   7  30
ATOM     30  C   UNL     1      38.364  26.024   4.461  1.00  0.00    -0.077 C 
ATOM     31  C   UNL     1      37.875  26.006   3.034  1.00  0.00     0.039 C 
ATOM     32  C   UNL     1      38.109  27.108   5.213  1.00  0.00     0.008 C 
ENDBRANCH   7  30
BRANCH  24  33
ATOM     33  O   UNL     1      41.308  26.097  14.880  1.00  0.00    -0.393 OA
ATOM     34  H   UNL     1      41.355  26.711  15.658  1.00  0.00     0.210 HD
ENDBRANCH  24  33
TORSDOF 3
ENDMDL
MODEL 2
REMARK VINA RESULT:    -4.857      1.741      7.578
REMARK INTER + INTRA:          -5.844
REMARK INTER:                  -5.729
REMARK INTRA:                  -0.115
REMARK UNBOUND:                -0.277
REMARK SMILES C=C(C)[C@H]1CC[C@]2(C(=O)[O-])CC[C@]3(C)[C@H](CC[C@@H]4[C@@]5(C)CC[C@H](O)C(C)(C)[C@H]5CC[C@@]43C)[C@H]12
REMARK SMILES IDX 7 1 6 2 33 3 11 4 5 5 15 6 4 7 12 8 16 9 13 10 17 11 31 12
REMARK SMILES IDX 14 13 18 14 30 15 32 16 19 17 29 18 21 19 20 20 28 21 22 22
REMARK SMILES IDX 25 23 23 24 26 25 27 26 8 27 9 28 10 29 2 30 3 31 1 32 24 33
REMARK H PARENT 24 34
REMARK Flexibility Score: inf
ROOT
ATOM      1  C   UNL     1      41.488  24.766  13.342  1.00  0.00     0.014 C 
ATOM      2  C   UNL     1      41.377  24.924  14.870  1.00  0.00     0.014 C 
ATOM      3  C   UNL     1      40.085  24.215  12.942  1.00  0.00     0.012 C 
ATOM      4  C   UNL     1      41.841  26.142  12.699  1.00  0.00     0.014 C 
ATOM      5  C   UNL     1      39.922  25.262  15.169  1.00  0.00     0.009 C 
ATOM      6  C   UNL     1      39.673  24.541  11.473  1.00  0.00     0.000 C 
ATOM      7  C   UNL     1      39.083  24.610  14.060  1.00  0.00     0.018 C 
ATOM      8  C   UNL     1      41.415  26.285  11.220  1.00  0.00     0.008 C 
ATOM      9  C   UNL     1      38.287  24.025  11.095  1.00  0.00     0.005 C 
ATOM     10  C   UNL     1      39.897  25.993  10.950  1.00  0.00    -0.024 C 
ATOM     11  C   UNL     1      38.264  23.683   9.606  1.00  0.00     0.005 C 
ATOM     12  C   UNL     1      39.448  26.086   9.355  1.00  0.00    -0.024 C 
ATOM     13  C   UNL     1      39.113  27.046  11.812  1.00  0.00     0.012 C 
ATOM     14  C   UNL     1      39.027  24.687   8.667  1.00  0.00     0.002 C 
ATOM     15  C   UNL     1      40.558  26.771   8.489  1.00  0.00     0.008 C 
ATOM     16  C   UNL     1      38.173  27.003   9.190  1.00  0.00     0.012 C 
ATOM     17  C   UNL     1      40.072  24.017   7.658  1.00  0.00    -0.026 C 
ATOM     18  C   UNL     1      40.375  26.557   6.989  1.00  0.00     0.005 C 
ATOM     19  C   UNL     1      39.396  22.785   6.950  1.00  0.00     0.010 C 
ATOM     20  C   UNL     1      41.292  23.446   8.434  1.00  0.00     0.012 C 
ATOM     21  C   UNL     1      40.592  25.076   6.576  1.00  0.00     0.003 C 
ATOM     22  C   UNL     1      40.139  22.276   5.714  1.00  0.00     0.033 C 
ATOM     23  C   UNL     1      40.138  24.822   5.082  1.00  0.00    -0.006 C 
ATOM     24  C   UNL     1      40.494  23.354   4.665  1.00  0.00     0.120 C 
ATOM     25  C   UNL     1      40.901  25.781   4.121  1.00  0.00     0.014 C 
ATOM     26  C   UNL     1      38.619  25.107   4.855  1.00  0.00     0.014 C 
ENDROOT
BRANCH   1  27
ATOM     27  C   UNL     1      42.601  23.782  13.004  1.00  0.00     0.048 C 
ATOM     28  O   UNL     1      42.751  23.353  11.828  1.00  0.00    -0.550 OA
ATOM     29  O   UNL     1      43.522  23.410  13.976  1.00  0.00    -0.550 OA
ENDBRANCH   1  27
BRANCH   7  30
ATOM     30  C   UNL     1      38.266  23.423  14.578  1.00  0.00    -0.077 C 
ATOM     31  C   UNL     1      37.879  22.306  13.641  1.00  0.00     0.039 C 
ATOM     32  C   UNL     1      37.875  23.349  15.862  1.00  0.00     0.008 C 
ENDBRANCH   7  30
BRANCH  24  33
ATOM     33  O   UNL     1      41.871  23.253   4.370  1.00  0.00    -0.393 OA
ATOM     34  H   UNL     1      42.204  24.174   4.206  1.00  0.00     0.210 HD
ENDBRANCH  24  33
TORSDOF 3
ENDMDL
MODEL 3
REMARK VINA RESULT:    -4.320      1.633      7.579
REMARK INTER + INTRA:          -5.228
REMARK INTER:                  -4.666
REMARK INTRA:                  -0.562
REMARK UNBOUND:                -0.277
REMARK SMILES C=C(C)[C@H]1CC[C@]2(C(=O)[O-])CC[C@]3(C)[C@H](CC[C@@H]4[C@@]5(C)CC[C@H](O)C(C)(C)[C@H]5CC[C@@]43C)[C@H]12
REMARK SMILES IDX 7 1 6 2 33 3 11 4 5 5 15 6 4 7 12 8 16 9 13 10 17 11 31 12
REMARK SMILES IDX 14 13 18 14 30 15 32 16 19 17 29 18 21 19 20 20 28 21 22 22
REMARK SMILES IDX 25 23 23 24 26 25 27 26 8 27 9 28 10 29 2 30 3 31 1 32 24 33
REMARK H PARENT 24 34
REMARK Flexibility Score: inf
ROOT
ATOM      1  C   UNL     1      40.069  25.115  13.419  1.00  0.00     0.014 C 
ATOM      2  C   UNL     1      40.140  24.765  14.917  1.00  0.00     0.014 C 
ATOM      3  C   UNL     1      40.974  24.029  12.760  1.00  0.00     0.012 C 
ATOM      4  C   UNL     1      38.584  25.081  12.946  1.00  0.00     0.014 C 
ATOM      5  C   UNL     1      40.309  23.254  15.005  1.00  0.00     0.009 C 
ATOM      6  C   UNL     1      40.615  23.724  11.274  1.00  0.00     0.000 C 
ATOM      7  C   UNL     1      41.048  22.820  13.731  1.00  0.00     0.018 C 
ATOM      8  C   UNL     1      38.401  24.824  11.433  1.00  0.00     0.008 C 
ATOM      9  C   UNL     1      41.486  22.641  10.641  1.00  0.00     0.005 C 
ATOM     10  C   UNL     1      39.113  23.530  10.902  1.00  0.00    -0.024 C 
ATOM     11  C   UNL     1      41.634  22.919   9.147  1.00  0.00     0.005 C 
ATOM     12  C   UNL     1      38.971  23.282   9.268  1.00  0.00    -0.024 C 
ATOM     13  C   UNL     1      38.469  22.344  11.705  1.00  0.00     0.012 C 
ATOM     14  C   UNL     1      40.336  23.429   8.419  1.00  0.00     0.002 C 
ATOM     15  C   UNL     1      37.876  24.211   8.644  1.00  0.00     0.008 C 
ATOM     16  C   UNL     1      38.481  21.811   8.971  1.00  0.00     0.012 C 
ATOM     17  C   UNL     1      40.522  24.754   7.543  1.00  0.00    -0.026 C 
ATOM     18  C   UNL     1      37.951  24.300   7.122  1.00  0.00     0.005 C 
ATOM     19  C   UNL     1      41.807  24.610   6.646  1.00  0.00     0.010 C 
ATOM     20  C   UNL     1      40.777  25.984   8.459  1.00  0.00     0.012 C 
ATOM     21  C   UNL     1      39.231  25.036   6.639  1.00  0.00     0.003 C 
ATOM     22  C   UNL     1      41.907  25.629   5.510  1.00  0.00     0.033 C 
ATOM     23  C   UNL     1      39.429  24.883   5.078  1.00  0.00    -0.006 C 
ATOM     24  C   UNL     1      40.652  25.746   4.614  1.00  0.00     0.120 C 
ATOM     25  C   UNL     1      38.171  25.410   4.325  1.00  0.00     0.014 C 
ATOM     26  C   UNL     1      39.603  23.396   4.633  1.00  0.00     0.014 C 
ENDROOT
BRANCH   1  27
ATOM     27  C   UNL     1      40.610  26.520  13.191  1.00  0.00     0.048 C 
ATOM     28  O   UNL     1      41.245  27.125  14.097  1.00  0.00    -0.550 OA
ATOM     29  O   UNL     1      40.483  27.124  11.945  1.00  0.00    -0.550 OA
ENDBRANCH   1  27
BRANCH   7  30
ATOM     30  C   UNL     1      42.483  22.372  14.022  1.00  0.00    -0.077 C 
ATOM     31  C   UNL     1      42.756  20.963  14.485  1.00  0.00     0.039 C 
ATOM     32  C   UNL     1      43.522  23.213  13.877  1.00  0.00     0.008 C 
ENDBRANCH   7  30
BRANCH  24  33
ATOM     33  O   UNL     1      40.285  27.107   4.536  1.00  0.00    -0.393 OA
ATOM     34  H   UNL     1      40.800  27.590   5.234  1.00  0.00     0.210 HD
ENDBRANCH  24  33
TORSDOF 3
ENDMDL
MODEL 4
REMARK VINA RESULT:    -3.914      2.177      4.049
REMARK INTER + INTRA:          -4.763
REMARK INTER:                  -4.174
REMARK INTRA:                  -0.590
REMARK UNBOUND:                -0.277
REMARK SMILES C=C(C)[C@H]1CC[C@]2(C(=O)[O-])CC[C@]3(C)[C@H](CC[C@@H]4[C@@]5(C)CC[C@H](O)C(C)(C)[C@H]5CC[C@@]43C)[C@H]12
REMARK SMILES IDX 7 1 6 2 33 3 11 4 5 5 15 6 4 7 12 8 16 9 13 10 17 11 31 12
REMARK SMILES IDX 14 13 18 14 30 15 32 16 19 17 29 18 21 19 20 20 28 21 22 22
REMARK SMILES IDX 25 23 23 24 26 25 27 26 8 27 9 28 10 29 2 30 3 31 1 32 24 33
REMARK H PARENT 24 34
REMARK Flexibility Score: inf
ROOT
ATOM      1  C   UNL     1      39.470  24.189   5.705  1.00  0.00     0.014 C 
ATOM      2  C   UNL     1      39.774  24.134   4.196  1.00  0.00     0.014 C 
ATOM      3  C   UNL     1      40.822  23.758   6.352  1.00  0.00     0.012 C 
ATOM      4  C   UNL     1      39.007  25.627   6.091  1.00  0.00     0.014 C 
ATOM      5  C   UNL     1      41.247  24.484   4.034  1.00  0.00     0.009 C 
ATOM      6  C   UNL     1      41.033  24.305   7.797  1.00  0.00     0.000 C 
ATOM      7  C   UNL     1      41.950  24.031   5.322  1.00  0.00     0.018 C 
ATOM      8  C   UNL     1      39.235  25.995   7.575  1.00  0.00     0.008 C 
ATOM      9  C   UNL     1      42.369  23.904   8.416  1.00  0.00     0.005 C 
ATOM     10  C   UNL     1      40.711  25.806   8.072  1.00  0.00    -0.024 C 
ATOM     11  C   UNL     1      42.208  23.777   9.930  1.00  0.00     0.005 C 
ATOM     12  C   UNL     1      40.949  26.142   9.680  1.00  0.00    -0.024 C 
ATOM     13  C   UNL     1      41.577  26.757   7.169  1.00  0.00     0.012 C 
ATOM     14  C   UNL     1      41.308  24.873  10.611  1.00  0.00     0.002 C 
ATOM     15  C   UNL     1      39.721  26.897  10.291  1.00  0.00     0.008 C 
ATOM     16  C   UNL     1      42.171  27.123   9.866  1.00  0.00     0.012 C 
ATOM     17  C   UNL     1      40.157  24.310  11.568  1.00  0.00    -0.026 C 
ATOM     18  C   UNL     1      39.713  26.905  11.818  1.00  0.00     0.005 C 
ATOM     19  C   UNL     1      40.763  23.219  12.527  1.00  0.00     0.010 C 
ATOM     20  C   UNL     1      39.060  23.586  10.738  1.00  0.00     0.012 C 
ATOM     21  C   UNL     1      39.478  25.490  12.411  1.00  0.00     0.003 C 
ATOM     22  C   UNL     1      39.878  22.861  13.721  1.00  0.00     0.033 C 
ATOM     23  C   UNL     1      39.741  25.469  13.971  1.00  0.00    -0.006 C 
ATOM     24  C   UNL     1      39.366  24.062  14.550  1.00  0.00     0.120 C 
ATOM     25  C   UNL     1      38.839  26.522  14.680  1.00  0.00     0.014 C 
ATOM     26  C   UNL     1      41.211  25.844  14.342  1.00  0.00     0.014 C 
ENDROOT
BRANCH   1  27
ATOM     27  C   UNL     1      38.344  23.219   6.041  1.00  0.00     0.048 C 
ATOM     28  O   UNL     1      37.876  22.442   5.165  1.00  0.00    -0.550 OA
ATOM     29  O   UNL     1      37.875  23.120   7.345  1.00  0.00    -0.550 OA
ENDBRANCH   1  27
BRANCH   7  30
ATOM     30  C   UNL     1      42.854  22.816   5.088  1.00  0.00    -0.077 C 
ATOM     31  C   UNL     1      42.250  21.442   4.946  1.00  0.00     0.039 C 
ATOM     32  C   UNL     1      44.190  22.942   5.006  1.00  0.00     0.008 C 
ENDBRANCH   7  30
BRANCH  24  33
ATOM     33  O   UNL     1      37.965  23.948  14.682  1.00  0.00    -0.393 OA
ATOM     34  H   UNL     1      37.791  23.220  15.335  1.00  0.00     0.210 HD
ENDBRANCH  24  33
TORSDOF 3
ENDMDL
MODEL 5
REMARK VINA RESULT:    -3.485      2.155      7.657
REMARK INTER + INTRA:          -4.271
REMARK INTER:                  -3.637
REMARK INTRA:                  -0.634
REMARK UNBOUND:                -0.277
REMARK SMILES C=C(C)[C@H]1CC[C@]2(C(=O)[O-])CC[C@]3(C)[C@H](CC[C@@H]4[C@@]5(C)CC[C@H](O)C(C)(C)[C@H]5CC[C@@]43C)[C@H]12
REMARK SMILES IDX 7 1 6 2 33 3 11 4 5 5 15 6 4 7 12 8 16 9 13 10 17 11 31 12
REMARK SMILES IDX 14 13 18 14 30 15 32 16 19 17 29 18 21 19 20 20 28 21 22 22
REMARK SMILES IDX 25 23 23 24 26 25 27 26 8 27 9 28 10 29 2 30 3 31 1 32 24 33
REMARK H PARENT 24 34
REMARK Flexibility Score: inf
ROOT
ATOM      1  C   UNL     1      41.038  23.324  13.527  1.00  0.00     0.014 C 
ATOM      2  C   UNL     1      41.189  23.537  15.045  1.00  0.00     0.014 C 
ATOM      3  C   UNL     1      39.957  24.376  13.130  1.00  0.00     0.012 C 
ATOM      4  C   UNL     1      42.417  23.531  12.831  1.00  0.00     0.014 C 
ATOM      5  C   UNL     1      40.924  25.014  15.307  1.00  0.00     0.009 C 
ATOM      6  C   UNL     1      40.042  24.837  11.642  1.00  0.00     0.000 C 
ATOM      7  C   UNL     1      39.954  25.487  14.214  1.00  0.00     0.018 C 
ATOM      8  C   UNL     1      42.328  23.931  11.342  1.00  0.00     0.008 C 
ATOM      9  C   UNL     1      39.000  25.887  11.265  1.00  0.00     0.005 C 
ATOM     10  C   UNL     1      41.443  25.196  11.060  1.00  0.00    -0.024 C 
ATOM     11  C   UNL     1      38.628  25.725   9.792  1.00  0.00     0.005 C 
ATOM     12  C   UNL     1      41.295  25.595   9.456  1.00  0.00    -0.024 C 
ATOM     13  C   UNL     1      42.121  26.363  11.864  1.00  0.00     0.012 C 
ATOM     14  C   UNL     1      39.823  25.398   8.823  1.00  0.00     0.002 C 
ATOM     15  C   UNL     1      42.338  24.824   8.579  1.00  0.00     0.008 C 
ATOM     16  C   UNL     1      41.617  27.123   9.232  1.00  0.00     0.012 C 
ATOM     17  C   UNL     1      39.594  24.141   7.860  1.00  0.00    -0.026 C 
ATOM     18  C   UNL     1      42.020  24.859   7.086  1.00  0.00     0.005 C 
ATOM     19  C   UNL     1      38.172  24.244   7.195  1.00  0.00     0.010 C 
ATOM     20  C   UNL     1      39.587  22.819   8.679  1.00  0.00     0.012 C 
ATOM     21  C   UNL     1      40.737  24.054   6.741  1.00  0.00     0.003 C 
ATOM     22  C   UNL     1      37.963  23.321   5.995  1.00  0.00     0.033 C 
ATOM     23  C   UNL     1      40.272  24.321   5.253  1.00  0.00    -0.006 C 
ATOM     24  C   UNL     1      39.058  23.394   4.905  1.00  0.00     0.120 C 
ATOM     25  C   UNL     1      41.424  23.975   4.264  1.00  0.00     0.014 C 
ATOM     26  C   UNL     1      39.916  25.819   4.990  1.00  0.00     0.014 C 
ENDROOT
BRANCH   1  27
ATOM     27  C   UNL     1      40.573  21.900  13.250  1.00  0.00     0.048 C 
ATOM     28  O   UNL     1      39.498  21.678  12.630  1.00  0.00    -0.550 OA
ATOM     29  O   UNL     1      41.376  20.822  13.605  1.00  0.00    -0.550 OA
ENDBRANCH   1  27
BRANCH   7  30
ATOM     30  C   UNL     1      38.557  25.777  14.770  1.00  0.00    -0.077 C 
ATOM     31  C   UNL     1      37.917  27.123  14.540  1.00  0.00     0.039 C 
ATOM     32  C   UNL     1      37.876  24.853  15.470  1.00  0.00     0.008 C 
ENDBRANCH   7  30
BRANCH  24  33
ATOM     33  O   UNL     1      39.508  22.083   4.637  1.00  0.00    -0.393 OA
ATOM     34  H   UNL     1      39.523  21.596   5.502  1.00  0.00     0.210 HD
ENDBRANCH  24  33
TORSDOF 3
ENDMDL
