MODEL 1
REMARK VINA RESULT:    -5.157      0.000      0.000
REMARK INTER + INTRA:         -10.713
REMARK INTER:                  -9.378
REMARK INTRA:                  -1.335
REMARK UNBOUND:                -1.335
REMARK SMILES CCCCCCCCCCCCCCCC(=O)[O-]
REMARK SMILES IDX 9 1 10 2 11 3 12 4 13 5 14 6 15 7 16 8 17 9 18 10 8 11 7 12
REMARK SMILES IDX 6 13 5 14 4 15 3 16 2 17 1 18
REMARK H PARENT
REMARK Flexibility Score: inf
ROOT
ATOM      1  C   UNL     1      -3.352  20.859  48.337  1.00  0.00     0.000 C 
ENDROOT
BRANCH   1   2
ATOM      2  C   UNL     1      -2.905  19.583  49.070  1.00  0.00     0.000 C 
BRANCH   2   3
ATOM      3  C   UNL     1      -3.808  18.377  48.758  1.00  0.00     0.000 C 
BRANCH   3   4
ATOM      4  C   UNL     1      -3.082  17.033  48.941  1.00  0.00     0.000 C 
BRANCH   4   5
ATOM      5  C   UNL     1      -1.654  17.047  48.373  1.00  0.00     0.000 C 
BRANCH   5   6
ATOM      6  C   UNL     1      -1.589  16.294  47.039  1.00  0.00     0.006 C 
BRANCH   6   7
ATOM      7  C   UNL     1      -1.423  17.265  45.866  1.00  0.00     0.053 C 
BRANCH   7   8
ATOM      8  C   UNL     1      -2.758  17.643  45.306  1.00  0.00     0.041 C 
ATOM      9  O   UNL     1      -3.524  16.758  44.845  1.00  0.00    -0.550 OA
ATOM     10  O   UNL     1      -3.135  18.979  45.249  1.00  0.00    -0.550 OA
ENDBRANCH   7   8
ENDBRANCH   6   7
ENDBRANCH   5   6
ENDBRANCH   4   5
ENDBRANCH   3   4
ENDBRANCH   2   3
ENDBRANCH   1   2
BRANCH   1  11
ATOM     11  C   UNL     1      -4.793  20.770  47.813  1.00  0.00     0.000 C 
BRANCH  11  12
ATOM     12  C   UNL     1      -5.414  22.166  47.673  1.00  0.00    -0.000 C 
BRANCH  12  13
ATOM     13  C   UNL     1      -4.707  23.176  48.590  1.00  0.00    -0.000 C 
BRANCH  13  14
ATOM     14  C   UNL     1      -5.638  24.307  49.054  1.00  0.00    -0.000 C 
BRANCH  14  15
ATOM     15  C   UNL     1      -5.468  24.642  50.543  1.00  0.00    -0.000 C 
BRANCH  15  16
ATOM     16  C   UNL     1      -4.277  23.880  51.145  1.00  0.00    -0.000 C 
BRANCH  16  17
ATOM     17  C   UNL     1      -3.350  24.789  51.967  1.00  0.00    -0.003 C 
ATOM     18  C   UNL     1      -3.852  26.230  52.046  1.00  0.00     0.004 C 
ENDBRANCH  16  17
ENDBRANCH  15  16
ENDBRANCH  14  15
ENDBRANCH  13  14
ENDBRANCH  12  13
ENDBRANCH  11  12
ENDBRANCH   1  11
TORSDOF 14
ENDMDL
MODEL 2
REMARK VINA RESULT:    -5.009      3.866      8.068
REMARK INTER + INTRA:         -10.443
REMARK INTER:                  -8.916
REMARK INTRA:                  -1.527
REMARK UNBOUND:                -1.335
REMARK SMILES CCCCCCCCCCCCCCCC(=O)[O-]
REMARK SMILES IDX 9 1 10 2 11 3 12 4 13 5 14 6 15 7 16 8 17 9 18 10 8 11 7 12
REMARK SMILES IDX 6 13 5 14 4 15 3 16 2 17 1 18
REMARK H PARENT
REMARK Flexibility Score: inf
ROOT
ATOM      1  C   UNL     1      -3.145  20.926  46.196  1.00  0.00     0.000 C 
ENDROOT
BRANCH   1   2
ATOM      2  C   UNL     1      -3.851  20.841  47.560  1.00  0.00     0.000 C 
BRANCH   2   3
ATOM      3  C   UNL     1      -5.229  21.523  47.554  1.00  0.00     0.000 C 
BRANCH   3   4
ATOM      4  C   UNL     1      -5.197  22.926  48.184  1.00  0.00     0.000 C 
BRANCH   4   5
ATOM      5  C   UNL     1      -4.311  22.993  49.438  1.00  0.00     0.000 C 
BRANCH   5   6
ATOM      6  C   UNL     1      -4.803  24.081  50.399  1.00  0.00     0.006 C 
BRANCH   6   7
ATOM      7  C   UNL     1      -6.024  24.809  49.827  1.00  0.00     0.053 C 
BRANCH   7   8
ATOM      8  C   UNL     1      -5.983  26.261  50.184  1.00  0.00     0.041 C 
ATOM      9  O   UNL     1      -4.941  26.760  50.685  1.00  0.00    -0.550 OA
ATOM     10  O   UNL     1      -7.111  27.052  50.011  1.00  0.00    -0.550 OA
ENDBRANCH   7   8
ENDBRANCH   6   7
ENDBRANCH   5   6
ENDBRANCH   4   5
ENDBRANCH   3   4
ENDBRANCH   2   3
ENDBRANCH   1   2
BRANCH   1  11
ATOM     11  C   UNL     1      -1.686  21.393  46.310  1.00  0.00     0.000 C 
BRANCH  11  12
ATOM     12  C   UNL     1      -1.006  20.775  47.539  1.00  0.00    -0.000 C 
BRANCH  12  13
ATOM     13  C   UNL     1      -0.395  19.407  47.199  1.00  0.00    -0.000 C 
BRANCH  13  14
ATOM     14  C   UNL     1      -1.099  18.247  47.921  1.00  0.00    -0.000 C 
BRANCH  14  15
ATOM     15  C   UNL     1      -1.506  17.115  46.967  1.00  0.00    -0.000 C 
BRANCH  15  16
ATOM     16  C   UNL     1      -2.997  17.208  46.608  1.00  0.00    -0.000 C 
BRANCH  16  17
ATOM     17  C   UNL     1      -3.232  17.377  45.100  1.00  0.00    -0.003 C 
ATOM     18  C   UNL     1      -2.486  16.336  44.265  1.00  0.00     0.004 C 
ENDBRANCH  16  17
ENDBRANCH  15  16
ENDBRANCH  14  15
ENDBRANCH  13  14
ENDBRANCH  12  13
ENDBRANCH  11  12
ENDBRANCH   1  11
TORSDOF 14
ENDMDL
MODEL 3
REMARK VINA RESULT:    -4.915      1.610      3.138
REMARK INTER + INTRA:         -10.272
REMARK INTER:                  -8.664
REMARK INTRA:                  -1.608
REMARK UNBOUND:                -1.335
REMARK SMILES CCCCCCCCCCCCCCCC(=O)[O-]
REMARK SMILES IDX 9 1 10 2 11 3 12 4 13 5 14 6 15 7 16 8 17 9 18 10 8 11 7 12
REMARK SMILES IDX 6 13 5 14 4 15 3 16 2 17 1 18
REMARK H PARENT
REMARK Flexibility Score: inf
ROOT
ATOM      1  C   UNL     1      -4.783  22.750  48.896  1.00  0.00     0.000 C 
ENDROOT
BRANCH   1   2
ATOM      2  C   UNL     1      -5.204  21.878  47.702  1.00  0.00     0.000 C 
BRANCH   2   3
ATOM      3  C   UNL     1      -4.565  20.479  47.738  1.00  0.00     0.000 C 
BRANCH   3   4
ATOM      4  C   UNL     1      -3.505  20.343  48.844  1.00  0.00     0.000 C 
BRANCH   4   5
ATOM      5  C   UNL     1      -3.204  18.880  49.203  1.00  0.00     0.000 C 
BRANCH   5   6
ATOM      6  C   UNL     1      -3.675  17.936  48.091  1.00  0.00     0.006 C 
BRANCH   6   7
ATOM      7  C   UNL     1      -2.551  16.986  47.663  1.00  0.00     0.053 C 
BRANCH   7   8
ATOM      8  C   UNL     1      -2.302  17.098  46.192  1.00  0.00     0.041 C 
ATOM      9  O   UNL     1      -1.201  16.725  45.707  1.00  0.00    -0.550 OA
ATOM     10  O   UNL     1      -3.265  17.659  45.364  1.00  0.00    -0.550 OA
ENDBRANCH   7   8
ENDBRANCH   6   7
ENDBRANCH   5   6
ENDBRANCH   4   5
ENDBRANCH   3   4
ENDBRANCH   2   3
ENDBRANCH   1   2
BRANCH   1  11
ATOM     11  C   UNL     1      -5.482  24.118  48.909  1.00  0.00     0.000 C 
BRANCH  11  12
ATOM     12  C   UNL     1      -5.034  24.952  50.116  1.00  0.00    -0.000 C 
BRANCH  12  13
ATOM     13  C   UNL     1      -4.379  24.065  51.185  1.00  0.00    -0.000 C 
BRANCH  13  14
ATOM     14  C   UNL     1      -3.179  24.744  51.864  1.00  0.00    -0.000 C 
BRANCH  14  15
ATOM     15  C   UNL     1      -2.012  23.776  52.112  1.00  0.00    -0.000 C 
BRANCH  15  16
ATOM     16  C   UNL     1      -0.908  23.967  51.061  1.00  0.00    -0.000 C 
BRANCH  16  17
ATOM     17  C   UNL     1      -1.009  22.956  49.908  1.00  0.00    -0.003 C 
ATOM     18  C   UNL     1      -1.348  23.615  48.572  1.00  0.00     0.004 C 
ENDBRANCH  16  17
ENDBRANCH  15  16
ENDBRANCH  14  15
ENDBRANCH  13  14
ENDBRANCH  12  13
ENDBRANCH  11  12
ENDBRANCH   1  11
TORSDOF 14
ENDMDL
MODEL 4
REMARK VINA RESULT:    -4.908      3.468      7.277
REMARK INTER + INTRA:         -10.260
REMARK INTER:                  -8.629
REMARK INTRA:                  -1.631
REMARK UNBOUND:                -1.335
REMARK SMILES CCCCCCCCCCCCCCCC(=O)[O-]
REMARK SMILES IDX 9 1 10 2 11 3 12 4 13 5 14 6 15 7 16 8 17 9 18 10 8 11 7 12
REMARK SMILES IDX 6 13 5 14 4 15 3 16 2 17 1 18
REMARK H PARENT
REMARK Flexibility Score: inf
ROOT
ATOM      1  C   UNL     1      -4.499  18.841  48.524  1.00  0.00     0.000 C 
ENDROOT
BRANCH   1   2
ATOM      2  C   UNL     1      -4.069  20.317  48.496  1.00  0.00     0.000 C 
BRANCH   2   3
ATOM      3  C   UNL     1      -5.008  21.190  47.645  1.00  0.00     0.000 C 
BRANCH   3   4
ATOM      4  C   UNL     1      -5.182  22.605  48.221  1.00  0.00     0.000 C 
BRANCH   4   5
ATOM      5  C   UNL     1      -4.165  22.926  49.326  1.00  0.00     0.000 C 
BRANCH   5   6
ATOM      6  C   UNL     1      -4.465  24.285  49.969  1.00  0.00     0.006 C 
BRANCH   6   7
ATOM      7  C   UNL     1      -5.972  24.559  49.999  1.00  0.00     0.053 C 
BRANCH   7   8
ATOM      8  C   UNL     1      -6.266  25.932  49.482  1.00  0.00     0.041 C 
ATOM      9  O   UNL     1      -6.773  26.798  50.242  1.00  0.00    -0.550 OA
ATOM     10  O   UNL     1      -6.025  26.239  48.150  1.00  0.00    -0.550 OA
ENDBRANCH   7   8
ENDBRANCH   6   7
ENDBRANCH   5   6
ENDBRANCH   4   5
ENDBRANCH   3   4
ENDBRANCH   2   3
ENDBRANCH   1   2
BRANCH   1  11
ATOM     11  C   UNL     1      -3.783  17.994  47.462  1.00  0.00     0.000 C 
BRANCH  11  12
ATOM     12  C   UNL     1      -2.927  16.902  48.117  1.00  0.00    -0.000 C 
BRANCH  12  13
ATOM     13  C   UNL     1      -1.500  16.904  47.546  1.00  0.00    -0.000 C 
BRANCH  13  14
ATOM     14  C   UNL     1      -1.212  18.139  46.678  1.00  0.00    -0.000 C 
BRANCH  14  15
ATOM     15  C   UNL     1      -0.114  19.036  47.268  1.00  0.00    -0.000 C 
BRANCH  15  16
ATOM     16  C   UNL     1      -0.582  20.497  47.348  1.00  0.00    -0.000 C 
BRANCH  16  17
ATOM     17  C   UNL     1      -1.579  20.859  46.236  1.00  0.00    -0.003 C 
ATOM     18  C   UNL     1      -1.557  22.346  45.884  1.00  0.00     0.004 C 
ENDBRANCH  16  17
ENDBRANCH  15  16
ENDBRANCH  14  15
ENDBRANCH  13  14
ENDBRANCH  12  13
ENDBRANCH  11  12
ENDBRANCH   1  11
TORSDOF 14
ENDMDL
MODEL 5
REMARK VINA RESULT:    -4.892      3.456      7.350
REMARK INTER + INTRA:         -10.230
REMARK INTER:                  -8.584
REMARK INTRA:                  -1.647
REMARK UNBOUND:                -1.335
REMARK SMILES CCCCCCCCCCCCCCCC(=O)[O-]
REMARK SMILES IDX 9 1 10 2 11 3 12 4 13 5 14 6 15 7 16 8 17 9 18 10 8 11 7 12
REMARK SMILES IDX 6 13 5 14 4 15 3 16 2 17 1 18
REMARK H PARENT
REMARK Flexibility Score: inf
ROOT
ATOM      1  C   UNL     1      -3.956  20.310  48.766  1.00  0.00     0.000 C 
ENDROOT
BRANCH   1   2
ATOM      2  C   UNL     1      -4.680  20.769  47.489  1.00  0.00     0.000 C 
BRANCH   2   3
ATOM      3  C   UNL     1      -5.494  22.057  47.703  1.00  0.00     0.000 C 
BRANCH   3   4
ATOM      4  C   UNL     1      -4.864  22.985  48.755  1.00  0.00     0.000 C 
BRANCH   4   5
ATOM      5  C   UNL     1      -5.689  24.259  48.994  1.00  0.00     0.000 C 
BRANCH   5   6
ATOM      6  C   UNL     1      -5.391  24.855  50.374  1.00  0.00     0.006 C 
BRANCH   6   7
ATOM      7  C   UNL     1      -4.404  23.977  51.151  1.00  0.00     0.053 C 
BRANCH   7   8
ATOM      8  C   UNL     1      -3.415  24.825  51.886  1.00  0.00     0.041 C 
ATOM      9  O   UNL     1      -2.353  24.316  52.331  1.00  0.00    -0.550 OA
ATOM     10  O   UNL     1      -3.688  26.166  52.123  1.00  0.00    -0.550 OA
ENDBRANCH   7   8
ENDBRANCH   6   7
ENDBRANCH   5   6
ENDBRANCH   4   5
ENDBRANCH   3   4
ENDBRANCH   2   3
ENDBRANCH   1   2
BRANCH   1  11
ATOM     11  C   UNL     1      -3.868  18.781  48.882  1.00  0.00     0.000 C 
BRANCH  11  12
ATOM     12  C   UNL     1      -3.968  18.120  47.501  1.00  0.00    -0.000 C 
BRANCH  12  13
ATOM     13  C   UNL     1      -2.740  17.240  47.222  1.00  0.00    -0.000 C 
BRANCH  13  14
ATOM     14  C   UNL     1      -1.483  17.726  47.960  1.00  0.00    -0.000 C 
BRANCH  14  15
ATOM     15  C   UNL     1      -0.530  18.518  47.052  1.00  0.00    -0.000 C 
BRANCH  15  16
ATOM     16  C   UNL     1      -0.608  20.023  47.353  1.00  0.00    -0.000 C 
BRANCH  16  17
ATOM     17  C   UNL     1      -1.386  20.800  46.281  1.00  0.00    -0.003 C 
ATOM     18  C   UNL     1      -1.237  22.315  46.424  1.00  0.00     0.004 C 
ENDBRANCH  16  17
ENDBRANCH  15  16
ENDBRANCH  14  15
ENDBRANCH  13  14
ENDBRANCH  12  13
ENDBRANCH  11  12
ENDBRANCH   1  11
TORSDOF 14
ENDMDL
MODEL 6
REMARK VINA RESULT:    -4.886      1.657      2.789
REMARK INTER + INTRA:         -10.220
REMARK INTER:                  -9.129
REMARK INTRA:                  -1.091
REMARK UNBOUND:                -1.335
REMARK SMILES CCCCCCCCCCCCCCCC(=O)[O-]
REMARK SMILES IDX 9 1 10 2 11 3 12 4 13 5 14 6 15 7 16 8 17 9 18 10 8 11 7 12
REMARK SMILES IDX 6 13 5 14 4 15 3 16 2 17 1 18
REMARK H PARENT
REMARK Flexibility Score: inf
ROOT
ATOM      1  C   UNL     1      -4.934  21.359  47.740  1.00  0.00     0.000 C 
ENDROOT
BRANCH   1   2
ATOM      2  C   UNL     1      -3.970  20.695  48.737  1.00  0.00     0.000 C 
BRANCH   2   3
ATOM      3  C   UNL     1      -3.918  19.166  48.578  1.00  0.00     0.000 C 
BRANCH   3   4
ATOM      4  C   UNL     1      -2.535  18.667  48.127  1.00  0.00     0.000 C 
BRANCH   4   5
ATOM      5  C   UNL     1      -2.226  17.245  48.619  1.00  0.00     0.000 C 
BRANCH   5   6
ATOM      6  C   UNL     1      -2.141  16.264  47.444  1.00  0.00     0.006 C 
BRANCH   6   7
ATOM      7  C   UNL     1      -1.428  16.901  46.247  1.00  0.00     0.053 C 
BRANCH   7   8
ATOM      8  C   UNL     1      -2.239  16.729  45.002  1.00  0.00     0.041 C 
ATOM      9  O   UNL     1      -3.462  17.030  44.996  1.00  0.00    -0.550 OA
ATOM     10  O   UNL     1      -1.658  16.189  43.862  1.00  0.00    -0.550 OA
ENDBRANCH   7   8
ENDBRANCH   6   7
ENDBRANCH   5   6
ENDBRANCH   4   5
ENDBRANCH   3   4
ENDBRANCH   2   3
ENDBRANCH   1   2
BRANCH   1  11
ATOM     11  C   UNL     1      -5.256  22.816  48.105  1.00  0.00     0.000 C 
BRANCH  11  12
ATOM     12  C   UNL     1      -4.502  23.244  49.371  1.00  0.00    -0.000 C 
BRANCH  12  13
ATOM     13  C   UNL     1      -5.313  24.272  50.174  1.00  0.00    -0.000 C 
BRANCH  13  14
ATOM     14  C   UNL     1      -6.494  24.848  49.377  1.00  0.00    -0.000 C 
BRANCH  14  15
ATOM     15  C   UNL     1      -6.536  26.383  49.404  1.00  0.00    -0.000 C 
BRANCH  15  16
ATOM     16  C   UNL     1      -6.664  26.953  47.983  1.00  0.00    -0.000 C 
BRANCH  16  17
ATOM     17  C   UNL     1      -5.368  26.809  47.171  1.00  0.00    -0.003 C 
ATOM     18  C   UNL     1      -5.509  25.836  46.000  1.00  0.00     0.004 C 
ENDBRANCH  16  17
ENDBRANCH  15  16
ENDBRANCH  14  15
ENDBRANCH  13  14
ENDBRANCH  12  13
ENDBRANCH  11  12
ENDBRANCH   1  11
TORSDOF 14
ENDMDL
MODEL 7
REMARK VINA RESULT:    -4.869      1.623      3.395
REMARK INTER + INTRA:         -10.189
REMARK INTER:                  -8.175
REMARK INTRA:                  -2.014
REMARK UNBOUND:                -1.335
REMARK SMILES CCCCCCCCCCCCCCCC(=O)[O-]
REMARK SMILES IDX 9 1 10 2 11 3 12 4 13 5 14 6 15 7 16 8 17 9 18 10 8 11 7 12
REMARK SMILES IDX 6 13 5 14 4 15 3 16 2 17 1 18
REMARK H PARENT
REMARK Flexibility Score: inf
ROOT
ATOM      1  C   UNL     1      -3.607  24.812  46.899  1.00  0.00     0.000 C 
ENDROOT
BRANCH   1   2
ATOM      2  C   UNL     1      -3.404  23.288  46.892  1.00  0.00     0.000 C 
BRANCH   2   3
ATOM      3  C   UNL     1      -4.731  22.515  46.803  1.00  0.00     0.000 C 
BRANCH   3   4
ATOM      4  C   UNL     1      -4.984  21.633  48.037  1.00  0.00     0.000 C 
BRANCH   4   5
ATOM      5  C   UNL     1      -3.761  21.540  48.962  1.00  0.00     0.000 C 
BRANCH   5   6
ATOM      6  C   UNL     1      -3.115  20.152  48.878  1.00  0.00     0.006 C 
BRANCH   6   7
ATOM      7  C   UNL     1      -4.090  19.126  48.292  1.00  0.00     0.053 C 
BRANCH   7   8
ATOM      8  C   UNL     1      -3.426  18.327  47.215  1.00  0.00     0.041 C 
ATOM      9  O   UNL     1      -3.116  17.124  47.420  1.00  0.00    -0.550 OA
ATOM     10  O   UNL     1      -3.106  18.924  46.003  1.00  0.00    -0.550 OA
ENDBRANCH   7   8
ENDBRANCH   6   7
ENDBRANCH   5   6
ENDBRANCH   4   5
ENDBRANCH   3   4
ENDBRANCH   2   3
ENDBRANCH   1   2
BRANCH   1  11
ATOM     11  C   UNL     1      -5.087  25.213  46.984  1.00  0.00     0.000 C 
BRANCH  11  12
ATOM     12  C   UNL     1      -5.396  25.892  48.325  1.00  0.00    -0.000 C 
BRANCH  12  13
ATOM     13  C   UNL     1      -6.266  24.989  49.212  1.00  0.00    -0.000 C 
BRANCH  13  14
ATOM     14  C   UNL     1      -5.512  24.464  50.444  1.00  0.00    -0.000 C 
BRANCH  14  15
ATOM     15  C   UNL     1      -4.075  24.998  50.532  1.00  0.00    -0.000 C 
BRANCH  15  16
ATOM     16  C   UNL     1      -3.323  24.359  51.709  1.00  0.00    -0.000 C 
BRANCH  16  17
ATOM     17  C   UNL     1      -2.620  25.398  52.595  1.00  0.00    -0.003 C 
ATOM     18  C   UNL     1      -3.602  26.308  53.333  1.00  0.00     0.004 C 
ENDBRANCH  16  17
ENDBRANCH  15  16
ENDBRANCH  14  15
ENDBRANCH  13  14
ENDBRANCH  12  13
ENDBRANCH  11  12
ENDBRANCH   1  11
TORSDOF 14
ENDMDL
MODEL 8
REMARK VINA RESULT:    -4.848      3.512      5.560
REMARK INTER + INTRA:         -10.150
REMARK INTER:                  -9.432
REMARK INTRA:                  -0.718
REMARK UNBOUND:                -1.335
REMARK SMILES CCCCCCCCCCCCCCCC(=O)[O-]
REMARK SMILES IDX 9 1 10 2 11 3 12 4 13 5 14 6 15 7 16 8 17 9 18 10 8 11 7 12
REMARK SMILES IDX 6 13 5 14 4 15 3 16 2 17 1 18
REMARK H PARENT
REMARK Flexibility Score: inf
ROOT
ATOM      1  C   UNL     1      -5.358  24.428  50.166  1.00  0.00     0.000 C 
ENDROOT
BRANCH   1   2
ATOM      2  C   UNL     1      -3.945  23.828  50.256  1.00  0.00     0.000 C 
BRANCH   2   3
ATOM      3  C   UNL     1      -3.775  22.583  49.369  1.00  0.00     0.000 C 
BRANCH   3   4
ATOM      4  C   UNL     1      -4.865  22.474  48.290  1.00  0.00     0.000 C 
BRANCH   4   5
ATOM      5  C   UNL     1      -4.936  21.076  47.656  1.00  0.00     0.000 C 
BRANCH   5   6
ATOM      6  C   UNL     1      -4.060  20.080  48.425  1.00  0.00     0.006 C 
BRANCH   6   7
ATOM      7  C   UNL     1      -4.533  18.641  48.197  1.00  0.00     0.053 C 
BRANCH   7   8
ATOM      8  C   UNL     1      -3.552  17.896  47.347  1.00  0.00     0.041 C 
ATOM      9  O   UNL     1      -3.295  18.294  46.181  1.00  0.00    -0.550 OA
ATOM     10  O   UNL     1      -2.960  16.734  47.825  1.00  0.00    -0.550 OA
ENDBRANCH   7   8
ENDBRANCH   6   7
ENDBRANCH   5   6
ENDBRANCH   4   5
ENDBRANCH   3   4
ENDBRANCH   2   3
ENDBRANCH   1   2
BRANCH   1  11
ATOM     11  C   UNL     1      -5.363  25.849  49.581  1.00  0.00     0.000 C 
BRANCH  11  12
ATOM     12  C   UNL     1      -6.575  26.645  50.084  1.00  0.00    -0.000 C 
BRANCH  12  13
ATOM     13  C   UNL     1      -7.655  26.749  48.997  1.00  0.00    -0.000 C 
BRANCH  13  14
ATOM     14  C   UNL     1      -7.333  27.818  47.941  1.00  0.00    -0.000 C 
BRANCH  14  15
ATOM     15  C   UNL     1      -8.577  28.285  47.171  1.00  0.00    -0.000 C 
BRANCH  15  16
ATOM     16  C   UNL     1      -9.856  27.698  47.786  1.00  0.00    -0.000 C 
BRANCH  16  17
ATOM     17  C   UNL     1     -11.092  27.915  46.899  1.00  0.00    -0.003 C 
ATOM     18  C   UNL     1     -11.125  29.304  46.261  1.00  0.00     0.004 C 
ENDBRANCH  16  17
ENDBRANCH  15  16
ENDBRANCH  14  15
ENDBRANCH  13  14
ENDBRANCH  12  13
ENDBRANCH  11  12
ENDBRANCH   1  11
TORSDOF 14
ENDMDL
MODEL 9
REMARK VINA RESULT:    -4.820      1.892      3.297
REMARK INTER + INTRA:         -10.099
REMARK INTER:                  -8.318
REMARK INTRA:                  -1.782
REMARK UNBOUND:                -1.335
REMARK SMILES CCCCCCCCCCCCCCCC(=O)[O-]
REMARK SMILES IDX 9 1 10 2 11 3 12 4 13 5 14 6 15 7 16 8 17 9 18 10 8 11 7 12
REMARK SMILES IDX 6 13 5 14 4 15 3 16 2 17 1 18
REMARK H PARENT
REMARK Flexibility Score: inf
ROOT
ATOM      1  C   UNL     1      -3.712  23.419  46.819  1.00  0.00     0.000 C 
ENDROOT
BRANCH   1   2
ATOM      2  C   UNL     1      -5.072  22.899  47.314  1.00  0.00     0.000 C 
BRANCH   2   3
ATOM      3  C   UNL     1      -5.026  21.413  47.711  1.00  0.00     0.000 C 
BRANCH   3   4
ATOM      4  C   UNL     1      -4.030  21.137  48.850  1.00  0.00     0.000 C 
BRANCH   4   5
ATOM      5  C   UNL     1      -3.192  19.872  48.612  1.00  0.00     0.000 C 
BRANCH   5   6
ATOM      6  C   UNL     1      -4.087  18.631  48.521  1.00  0.00     0.006 C 
BRANCH   6   7
ATOM      7  C   UNL     1      -3.257  17.346  48.609  1.00  0.00     0.053 C 
BRANCH   7   8
ATOM      8  C   UNL     1      -2.688  16.997  47.270  1.00  0.00     0.041 C 
ATOM      9  O   UNL     1      -3.318  17.288  46.219  1.00  0.00    -0.550 OA
ATOM     10  O   UNL     1      -1.486  16.306  47.183  1.00  0.00    -0.550 OA
ENDBRANCH   7   8
ENDBRANCH   6   7
ENDBRANCH   5   6
ENDBRANCH   4   5
ENDBRANCH   3   4
ENDBRANCH   2   3
ENDBRANCH   1   2
BRANCH   1  11
ATOM     11  C   UNL     1      -3.717  24.932  46.552  1.00  0.00     0.000 C 
BRANCH  11  12
ATOM     12  C   UNL     1      -5.144  25.444  46.319  1.00  0.00    -0.000 C 
BRANCH  12  13
ATOM     13  C   UNL     1      -5.298  26.889  46.816  1.00  0.00    -0.000 C 
BRANCH  13  14
ATOM     14  C   UNL     1      -5.531  26.973  48.333  1.00  0.00    -0.000 C 
BRANCH  14  15
ATOM     15  C   UNL     1      -6.734  26.138  48.795  1.00  0.00    -0.000 C 
BRANCH  15  16
ATOM     16  C   UNL     1      -6.322  25.139  49.887  1.00  0.00    -0.000 C 
BRANCH  16  17
ATOM     17  C   UNL     1      -4.837  25.253  50.262  1.00  0.00    -0.003 C 
ATOM     18  C   UNL     1      -4.341  24.064  51.085  1.00  0.00     0.004 C 
ENDBRANCH  16  17
ENDBRANCH  15  16
ENDBRANCH  14  15
ENDBRANCH  13  14
ENDBRANCH  12  13
ENDBRANCH  11  12
ENDBRANCH   1  11
TORSDOF 14
ENDMDL
