MODEL 1
REMARK VINA RESULT:    -6.920      0.000      0.000
REMARK INTER + INTRA:          -9.922
REMARK INTER:                  -9.347
REMARK INTRA:                  -0.575
REMARK UNBOUND:                -0.575
REMARK SMILES O=c1c(-c2ccc(O)cc2)coc2c([C@@H]3O[C@@H](CO)[C@H](O)[C@@H](O)[C@H]3O)c(O)ccc12
REMARK SMILES IDX 3 1 11 2 12 3 13 4 30 5 2 6 1 7 29 8 28 9 26 10 14 11 4 12
REMARK SMILES IDX 5 13 6 14 7 15 10 16 9 17 8 18 15 20 24 21 16 22 22 23 17 24
REMARK SMILES IDX 20 25 25 26 23 28 18 30 19 31 21 33 27 35
REMARK H PARENT 8 19 25 27 23 29 19 32 21 34 27 36
REMARK Flexibility Score: inf
ROOT
ATOM      1  C   UNL     1      14.477  31.510  22.413  1.00  0.00     0.065 A 
ATOM      2  C   UNL     1      13.147  31.200  22.728  1.00  0.00     0.208 A 
ATOM      3  O   UNL     1      12.142  31.721  22.034  1.00  0.00    -0.463 OA
ATOM      4  C   UNL     1      12.318  32.557  21.013  1.00  0.00     0.147 A 
ATOM      5  C   UNL     1      13.628  32.934  20.635  1.00  0.00     0.066 A 
ATOM      6  C   UNL     1      14.716  32.401  21.351  1.00  0.00     0.200 A 
ATOM      7  O   UNL     1      15.897  32.736  21.057  1.00  0.00    -0.288 OA
ATOM      8  C   UNL     1      13.812  33.830  19.572  1.00  0.00     0.020 A 
ATOM      9  C   UNL     1      12.712  34.353  18.895  1.00  0.00     0.047 A 
ATOM     10  C   UNL     1      11.411  33.988  19.260  1.00  0.00     0.125 A 
ATOM     11  C   UNL     1      11.199  33.069  20.314  1.00  0.00     0.069 A 
ENDROOT
BRANCH   1  12
ATOM     12  C   UNL     1      15.583  30.904  23.194  1.00  0.00    -0.011 A 
ATOM     13  C   UNL     1      15.470  29.598  23.702  1.00  0.00     0.013 A 
ATOM     14  C   UNL     1      16.511  29.036  24.448  1.00  0.00     0.047 A 
ATOM     15  C   UNL     1      17.675  29.774  24.699  1.00  0.00     0.115 A 
ATOM     16  C   UNL     1      16.752  31.640  23.456  1.00  0.00     0.013 A 
ATOM     17  C   UNL     1      17.792  31.075  24.201  1.00  0.00     0.047 A 
BRANCH  15  18
ATOM     18  O   UNL     1      18.719  29.225  25.440  1.00  0.00    -0.508 OA
ATOM     19  H   UNL     1      19.687  29.353  25.168  1.00  0.00     0.293 HD
ENDBRANCH  15  18
ENDBRANCH   1  12
BRANCH  11  20
ATOM     20  C   UNL     1       9.786  32.679  20.729  1.00  0.00     0.188 C 
ATOM     21  C   UNL     1       9.081  33.884  21.391  1.00  0.00     0.179 C 
ATOM     22  O   UNL     1       9.078  32.227  19.585  1.00  0.00    -0.362 OA
ATOM     23  C   UNL     1       7.620  33.531  21.761  1.00  0.00     0.177 C 
ATOM     24  C   UNL     1       7.758  31.787  19.883  1.00  0.00     0.176 C 
ATOM     25  C   UNL     1       6.901  32.888  20.562  1.00  0.00     0.177 C 
BRANCH  21  26
ATOM     26  O   UNL     1       9.792  34.290  22.534  1.00  0.00    -0.387 OA
ATOM     27  H   UNL     1       9.352  33.859  23.313  1.00  0.00     0.211 HD
ENDBRANCH  21  26
BRANCH  23  28
ATOM     28  O   UNL     1       7.493  32.716  22.906  1.00  0.00    -0.387 OA
ATOM     29  H   UNL     1       7.225  33.265  23.688  1.00  0.00     0.211 HD
ENDBRANCH  23  28
BRANCH  24  30
ATOM     30  C   UNL     1       7.728  30.429  20.617  1.00  0.00     0.191 C 
BRANCH  30  31
ATOM     31  O   UNL     1       6.547  30.302  21.361  1.00  0.00    -0.394 OA
ATOM     32  H   UNL     1       5.904  29.800  20.794  1.00  0.00     0.210 HD
ENDBRANCH  30  31
ENDBRANCH  24  30
BRANCH  25  33
ATOM     33  O   UNL     1       6.610  33.893  19.623  1.00  0.00    -0.388 OA
ATOM     34  H   UNL     1       7.450  34.399  19.468  1.00  0.00     0.211 HD
ENDBRANCH  25  33
ENDBRANCH  11  20
BRANCH  10  35
ATOM     35  O   UNL     1      10.328  34.542  18.576  1.00  0.00    -0.507 OA
ATOM     36  H   UNL     1      10.231  35.543  18.453  1.00  0.00     0.293 HD
ENDBRANCH  10  35
TORSDOF 9
ENDMDL
MODEL 2
REMARK VINA RESULT:    -6.911      1.957      3.113
REMARK INTER + INTRA:          -9.909
REMARK INTER:                  -9.651
REMARK INTRA:                  -0.259
REMARK UNBOUND:                -0.575
REMARK SMILES O=c1c(-c2ccc(O)cc2)coc2c([C@@H]3O[C@@H](CO)[C@H](O)[C@@H](O)[C@H]3O)c(O)ccc12
REMARK SMILES IDX 3 1 11 2 12 3 13 4 30 5 2 6 1 7 29 8 28 9 26 10 14 11 4 12
REMARK SMILES IDX 5 13 6 14 7 15 10 16 9 17 8 18 15 20 24 21 16 22 22 23 17 24
REMARK SMILES IDX 20 25 25 26 23 28 18 30 19 31 21 33 27 35
REMARK H PARENT 8 19 25 27 23 29 19 32 21 34 27 36
REMARK Flexibility Score: inf
ROOT
ATOM      1  C   UNL     1      14.025  30.465  22.299  1.00  0.00     0.065 A 
ATOM      2  C   UNL     1      13.094  31.492  22.506  1.00  0.00     0.208 A 
ATOM      3  O   UNL     1      11.954  31.527  21.827  1.00  0.00    -0.463 OA
ATOM      4  C   UNL     1      11.617  30.612  20.921  1.00  0.00     0.147 A 
ATOM      5  C   UNL     1      12.504  29.546  20.640  1.00  0.00     0.066 A 
ATOM      6  C   UNL     1      13.723  29.481  21.340  1.00  0.00     0.200 A 
ATOM      7  O   UNL     1      14.549  28.558  21.096  1.00  0.00    -0.288 OA
ATOM      8  C   UNL     1      12.158  28.594  19.670  1.00  0.00     0.020 A 
ATOM      9  C   UNL     1      10.951  28.699  18.982  1.00  0.00     0.047 A 
ATOM     10  C   UNL     1      10.065  29.748  19.252  1.00  0.00     0.125 A 
ATOM     11  C   UNL     1      10.381  30.709  20.240  1.00  0.00     0.069 A 
ENDROOT
BRANCH   1  12
ATOM     12  C   UNL     1      15.286  30.440  23.080  1.00  0.00    -0.011 A 
ATOM     13  C   UNL     1      15.592  29.349  23.913  1.00  0.00     0.013 A 
ATOM     14  C   UNL     1      16.776  29.337  24.657  1.00  0.00     0.047 A 
ATOM     15  C   UNL     1      17.666  30.416  24.580  1.00  0.00     0.115 A 
ATOM     16  C   UNL     1      16.182  31.522  23.014  1.00  0.00     0.013 A 
ATOM     17  C   UNL     1      17.366  31.506  23.758  1.00  0.00     0.047 A 
BRANCH  15  18
ATOM     18  O   UNL     1      18.850  30.415  25.316  1.00  0.00    -0.508 OA
ATOM     19  H   UNL     1      19.748  30.580  24.875  1.00  0.00     0.293 HD
ENDBRANCH  15  18
ENDBRANCH   1  12
BRANCH  11  20
ATOM     20  C   UNL     1       9.430  31.865  20.528  1.00  0.00     0.188 C 
ATOM     21  C   UNL     1       8.816  31.702  21.936  1.00  0.00     0.179 C 
ATOM     22  O   UNL     1      10.143  33.087  20.411  1.00  0.00    -0.362 OA
ATOM     23  C   UNL     1       7.898  32.901  22.277  1.00  0.00     0.177 C 
ATOM     24  C   UNL     1       9.323  34.232  20.610  1.00  0.00     0.176 C 
ATOM     25  C   UNL     1       8.619  34.230  21.992  1.00  0.00     0.177 C 
BRANCH  21  26
ATOM     26  O   UNL     1       8.096  30.497  22.011  1.00  0.00    -0.387 OA
ATOM     27  H   UNL     1       8.752  29.785  22.234  1.00  0.00     0.211 HD
ENDBRANCH  21  26
BRANCH  23  28
ATOM     28  O   UNL     1       6.643  32.872  21.631  1.00  0.00    -0.387 OA
ATOM     29  H   UNL     1       5.946  32.543  22.254  1.00  0.00     0.211 HD
ENDBRANCH  23  28
BRANCH  24  30
ATOM     30  C   UNL     1       8.372  34.505  19.424  1.00  0.00     0.191 C 
BRANCH  30  31
ATOM     31  O   UNL     1       8.602  35.784  18.897  1.00  0.00    -0.394 OA
ATOM     32  H   UNL     1       7.932  36.388  19.313  1.00  0.00     0.210 HD
ENDBRANCH  30  31
ENDBRANCH  24  30
BRANCH  25  33
ATOM     33  O   UNL     1       9.575  34.446  22.999  1.00  0.00    -0.388 OA
ATOM     34  H   UNL     1       9.477  35.388  23.297  1.00  0.00     0.211 HD
ENDBRANCH  25  33
ENDBRANCH  11  20
BRANCH  10  35
ATOM     35  O   UNL     1       8.872  29.837  18.534  1.00  0.00    -0.507 OA
ATOM     36  H   UNL     1       8.112  29.183  18.679  1.00  0.00     0.293 HD
ENDBRANCH  10  35
TORSDOF 9
ENDMDL
MODEL 3
REMARK VINA RESULT:    -6.794      2.865      4.066
REMARK INTER + INTRA:          -9.752
REMARK INTER:                  -9.824
REMARK INTRA:                   0.072
REMARK UNBOUND:                -0.575
REMARK SMILES O=c1c(-c2ccc(O)cc2)coc2c([C@@H]3O[C@@H](CO)[C@H](O)[C@@H](O)[C@H]3O)c(O)ccc12
REMARK SMILES IDX 3 1 11 2 12 3 13 4 30 5 2 6 1 7 29 8 28 9 26 10 14 11 4 12
REMARK SMILES IDX 5 13 6 14 7 15 10 16 9 17 8 18 15 20 24 21 16 22 22 23 17 24
REMARK SMILES IDX 20 25 25 26 23 28 18 30 19 31 21 33 27 35
REMARK H PARENT 8 19 25 27 23 29 19 32 21 34 27 36
REMARK Flexibility Score: inf
ROOT
ATOM      1  C   UNL     1      16.428  29.985  23.938  1.00  0.00     0.065 A 
ATOM      2  C   UNL     1      15.418  29.082  23.579  1.00  0.00     0.208 A 
ATOM      3  O   UNL     1      14.548  29.377  22.622  1.00  0.00    -0.463 OA
ATOM      4  C   UNL     1      14.567  30.524  21.948  1.00  0.00     0.147 A 
ATOM      5  C   UNL     1      15.545  31.499  22.254  1.00  0.00     0.066 A 
ATOM      6  C   UNL     1      16.483  31.219  23.265  1.00  0.00     0.200 A 
ATOM      7  O   UNL     1      17.354  32.077  23.581  1.00  0.00    -0.288 OA
ATOM      8  C   UNL     1      15.553  32.716  21.556  1.00  0.00     0.020 A 
ATOM      9  C   UNL     1      14.599  32.968  20.573  1.00  0.00     0.047 A 
ATOM     10  C   UNL     1      13.626  32.012  20.262  1.00  0.00     0.125 A 
ATOM     11  C   UNL     1      13.610  30.768  20.934  1.00  0.00     0.069 A 
ENDROOT
BRANCH   1  12
ATOM     12  C   UNL     1      17.399  29.627  25.002  1.00  0.00    -0.011 A 
ATOM     13  C   UNL     1      17.790  28.290  25.194  1.00  0.00     0.013 A 
ATOM     14  C   UNL     1      18.695  27.957  26.206  1.00  0.00     0.047 A 
ATOM     15  C   UNL     1      19.218  28.954  27.040  1.00  0.00     0.115 A 
ATOM     16  C   UNL     1      17.923  30.621  25.847  1.00  0.00     0.013 A 
ATOM     17  C   UNL     1      18.830  30.285  26.857  1.00  0.00     0.047 A 
BRANCH  15  18
ATOM     18  O   UNL     1      20.122  28.634  28.051  1.00  0.00    -0.508 OA
ATOM     19  H   UNL     1      20.361  29.299  28.778  1.00  0.00     0.293 HD
ENDBRANCH  15  18
ENDBRANCH   1  12
BRANCH  11  20
ATOM     20  C   UNL     1      12.544  29.727  20.614  1.00  0.00     0.188 C 
ATOM     21  C   UNL     1      11.145  30.382  20.643  1.00  0.00     0.179 C 
ATOM     22  O   UNL     1      12.824  29.156  19.344  1.00  0.00    -0.362 OA
ATOM     23  C   UNL     1      10.051  29.358  20.254  1.00  0.00     0.177 C 
ATOM     24  C   UNL     1      11.909  28.130  18.980  1.00  0.00     0.176 C 
ATOM     25  C   UNL     1      10.438  28.621  18.960  1.00  0.00     0.177 C 
BRANCH  21  26
ATOM     26  O   UNL     1      10.888  30.913  21.919  1.00  0.00    -0.387 OA
ATOM     27  H   UNL     1       9.901  30.938  22.026  1.00  0.00     0.211 HD
ENDBRANCH  21  26
BRANCH  23  28
ATOM     28  O   UNL     1       9.735  28.433  21.272  1.00  0.00    -0.387 OA
ATOM     29  H   UNL     1      10.104  27.540  21.050  1.00  0.00     0.211 HD
ENDBRANCH  23  28
BRANCH  24  30
ATOM     30  C   UNL     1      12.122  26.824  19.775  1.00  0.00     0.191 C 
BRANCH  30  31
ATOM     31  O   UNL     1      13.479  26.472  19.783  1.00  0.00    -0.394 OA
ATOM     32  H   UNL     1      13.551  25.625  20.297  1.00  0.00     0.210 HD
ENDBRANCH  30  31
ENDBRANCH  24  30
BRANCH  25  33
ATOM     33  O   UNL     1      10.257  29.496  17.875  1.00  0.00    -0.388 OA
ATOM     34  H   UNL     1      11.070  30.064  17.819  1.00  0.00     0.211 HD
ENDBRANCH  25  33
ENDBRANCH  11  20
BRANCH  10  35
ATOM     35  O   UNL     1      12.672  32.300  19.285  1.00  0.00    -0.507 OA
ATOM     36  H   UNL     1      12.444  31.639  18.551  1.00  0.00     0.293 HD
ENDBRANCH  10  35
TORSDOF 9
ENDMDL
MODEL 4
REMARK VINA RESULT:    -6.700      3.299      4.789
REMARK INTER + INTRA:          -9.625
REMARK INTER:                  -9.906
REMARK INTRA:                   0.281
REMARK UNBOUND:                -0.575
REMARK SMILES O=c1c(-c2ccc(O)cc2)coc2c([C@@H]3O[C@@H](CO)[C@H](O)[C@@H](O)[C@H]3O)c(O)ccc12
REMARK SMILES IDX 3 1 11 2 12 3 13 4 30 5 2 6 1 7 29 8 28 9 26 10 14 11 4 12
REMARK SMILES IDX 5 13 6 14 7 15 10 16 9 17 8 18 15 20 24 21 16 22 22 23 17 24
REMARK SMILES IDX 20 25 25 26 23 28 18 30 19 31 21 33 27 35
REMARK H PARENT 8 19 25 27 23 29 19 32 21 34 27 36
REMARK Flexibility Score: inf
ROOT
ATOM      1  C   UNL     1      16.404  29.914  23.903  1.00  0.00     0.065 A 
ATOM      2  C   UNL     1      15.555  28.909  23.418  1.00  0.00     0.208 A 
ATOM      3  O   UNL     1      14.688  29.160  22.445  1.00  0.00    -0.463 OA
ATOM      4  C   UNL     1      14.561  30.354  21.871  1.00  0.00     0.147 A 
ATOM      5  C   UNL     1      15.370  31.430  22.308  1.00  0.00     0.066 A 
ATOM      6  C   UNL     1      16.299  31.199  23.339  1.00  0.00     0.200 A 
ATOM      7  O   UNL     1      17.019  32.142  23.771  1.00  0.00    -0.288 OA
ATOM      8  C   UNL     1      15.223  32.693  21.716  1.00  0.00     0.020 A 
ATOM      9  C   UNL     1      14.281  32.891  20.709  1.00  0.00     0.047 A 
ATOM     10  C   UNL     1      13.475  31.835  20.268  1.00  0.00     0.125 A 
ATOM     11  C   UNL     1      13.619  30.546  20.833  1.00  0.00     0.069 A 
ENDROOT
BRANCH   1  12
ATOM     12  C   UNL     1      17.375  29.606  24.982  1.00  0.00    -0.011 A 
ATOM     13  C   UNL     1      17.692  28.274  25.301  1.00  0.00     0.013 A 
ATOM     14  C   UNL     1      18.599  27.990  26.327  1.00  0.00     0.047 A 
ATOM     15  C   UNL     1      19.195  29.032  27.048  1.00  0.00     0.115 A 
ATOM     16  C   UNL     1      17.973  30.646  25.715  1.00  0.00     0.013 A 
ATOM     17  C   UNL     1      18.880  30.359  26.739  1.00  0.00     0.047 A 
BRANCH  15  18
ATOM     18  O   UNL     1      20.101  28.761  28.073  1.00  0.00    -0.508 OA
ATOM     19  H   UNL     1      20.859  28.100  27.948  1.00  0.00     0.293 HD
ENDBRANCH  15  18
ENDBRANCH   1  12
BRANCH  11  20
ATOM     20  C   UNL     1      12.734  29.395  20.371  1.00  0.00     0.188 C 
ATOM     21  C   UNL     1      13.564  28.094  20.291  1.00  0.00     0.179 C 
ATOM     22  O   UNL     1      11.645  29.262  21.272  1.00  0.00    -0.362 OA
ATOM     23  C   UNL     1      12.669  26.896  19.889  1.00  0.00     0.177 C 
ATOM     24  C   UNL     1      10.729  28.243  20.892  1.00  0.00     0.176 C 
ATOM     25  C   UNL     1      11.403  26.852  20.762  1.00  0.00     0.177 C 
BRANCH  21  26
ATOM     26  O   UNL     1      14.617  28.250  19.374  1.00  0.00    -0.387 OA
ATOM     27  H   UNL     1      15.443  27.942  19.830  1.00  0.00     0.211 HD
ENDBRANCH  21  26
BRANCH  23  28
ATOM     28  O   UNL     1      12.325  26.864  18.520  1.00  0.00    -0.387 OA
ATOM     29  H   UNL     1      13.089  27.174  17.969  1.00  0.00     0.211 HD
ENDBRANCH  23  28
BRANCH  24  30
ATOM     30  C   UNL     1       9.863  28.634  19.675  1.00  0.00     0.191 C 
BRANCH  30  31
ATOM     31  O   UNL     1       9.390  27.487  19.022  1.00  0.00    -0.394 OA
ATOM     32  H   UNL     1       9.238  27.740  18.074  1.00  0.00     0.210 HD
ENDBRANCH  30  31
ENDBRANCH  24  30
BRANCH  25  33
ATOM     33  O   UNL     1      11.758  26.388  22.041  1.00  0.00    -0.388 OA
ATOM     34  H   UNL     1      11.540  25.419  22.070  1.00  0.00     0.211 HD
ENDBRANCH  25  33
ENDBRANCH  11  20
BRANCH  10  35
ATOM     35  O   UNL     1      12.528  32.069  19.271  1.00  0.00    -0.507 OA
ATOM     36  H   UNL     1      12.613  31.658  18.348  1.00  0.00     0.293 HD
ENDBRANCH  10  35
TORSDOF 9
ENDMDL
MODEL 5
REMARK VINA RESULT:    -6.696      1.946      2.859
REMARK INTER + INTRA:          -9.620
REMARK INTER:                  -8.930
REMARK INTRA:                  -0.691
REMARK UNBOUND:                -0.575
REMARK SMILES O=c1c(-c2ccc(O)cc2)coc2c([C@@H]3O[C@@H](CO)[C@H](O)[C@@H](O)[C@H]3O)c(O)ccc12
REMARK SMILES IDX 3 1 11 2 12 3 13 4 30 5 2 6 1 7 29 8 28 9 26 10 14 11 4 12
REMARK SMILES IDX 5 13 6 14 7 15 10 16 9 17 8 18 15 20 24 21 16 22 22 23 17 24
REMARK SMILES IDX 20 25 25 26 23 28 18 30 19 31 21 33 27 35
REMARK H PARENT 8 19 25 27 23 29 19 32 21 34 27 36
REMARK Flexibility Score: inf
ROOT
ATOM      1  C   UNL     1      13.955  30.507  22.232  1.00  0.00     0.065 A 
ATOM      2  C   UNL     1      13.047  31.565  22.379  1.00  0.00     0.208 A 
ATOM      3  O   UNL     1      11.909  31.587  21.696  1.00  0.00    -0.463 OA
ATOM      4  C   UNL     1      11.553  30.631  20.841  1.00  0.00     0.147 A 
ATOM      5  C   UNL     1      12.417  29.532  20.622  1.00  0.00     0.066 A 
ATOM      6  C   UNL     1      13.633  29.479  21.329  1.00  0.00     0.200 A 
ATOM      7  O   UNL     1      14.438  28.525  21.138  1.00  0.00    -0.288 OA
ATOM      8  C   UNL     1      12.050  28.535  19.706  1.00  0.00     0.020 A 
ATOM      9  C   UNL     1      10.847  28.628  19.011  1.00  0.00     0.047 A 
ATOM     10  C   UNL     1       9.985  29.711  19.219  1.00  0.00     0.125 A 
ATOM     11  C   UNL     1      10.320  30.718  20.153  1.00  0.00     0.069 A 
ENDROOT
BRANCH   1  12
ATOM     12  C   UNL     1      15.215  30.498  23.017  1.00  0.00    -0.011 A 
ATOM     13  C   UNL     1      15.514  29.428  23.877  1.00  0.00     0.013 A 
ATOM     14  C   UNL     1      16.696  29.431  24.624  1.00  0.00     0.047 A 
ATOM     15  C   UNL     1      17.591  30.504  24.522  1.00  0.00     0.115 A 
ATOM     16  C   UNL     1      16.114  31.574  22.925  1.00  0.00     0.013 A 
ATOM     17  C   UNL     1      17.296  31.574  23.672  1.00  0.00     0.047 A 
BRANCH  15  18
ATOM     18  O   UNL     1      18.773  30.517  25.261  1.00  0.00    -0.508 OA
ATOM     19  H   UNL     1      19.645  30.180  24.870  1.00  0.00     0.293 HD
ENDBRANCH  15  18
ENDBRANCH   1  12
BRANCH  11  20
ATOM     20  C   UNL     1       9.396  31.909  20.374  1.00  0.00     0.188 C 
ATOM     21  C   UNL     1       9.331  32.769  19.091  1.00  0.00     0.179 C 
ATOM     22  O   UNL     1       8.111  31.432  20.745  1.00  0.00    -0.362 OA
ATOM     23  C   UNL     1       8.344  33.948  19.270  1.00  0.00     0.177 C 
ATOM     24  C   UNL     1       7.188  32.477  21.026  1.00  0.00     0.176 C 
ATOM     25  C   UNL     1       7.002  33.447  19.830  1.00  0.00     0.177 C 
BRANCH  21  26
ATOM     26  O   UNL     1      10.612  33.246  18.766  1.00  0.00    -0.387 OA
ATOM     27  H   UNL     1      10.836  33.945  19.435  1.00  0.00     0.211 HD
ENDBRANCH  21  26
BRANCH  23  28
ATOM     28  O   UNL     1       8.843  35.007  20.059  1.00  0.00    -0.387 OA
ATOM     29  H   UNL     1       8.793  35.860  19.556  1.00  0.00     0.211 HD
ENDBRANCH  23  28
BRANCH  24  30
ATOM     30  C   UNL     1       7.472  33.186  22.368  1.00  0.00     0.191 C 
BRANCH  30  31
ATOM     31  O   UNL     1       7.526  32.253  23.413  1.00  0.00    -0.394 OA
ATOM     32  H   UNL     1       6.806  31.590  23.241  1.00  0.00     0.210 HD
ENDBRANCH  30  31
ENDBRANCH  24  30
BRANCH  25  33
ATOM     33  O   UNL     1       6.306  32.787  18.803  1.00  0.00    -0.388 OA
ATOM     34  H   UNL     1       6.978  32.515  18.124  1.00  0.00     0.211 HD
ENDBRANCH  25  33
ENDBRANCH  11  20
BRANCH  10  35
ATOM     35  O   UNL     1       8.795  29.786  18.494  1.00  0.00    -0.507 OA
ATOM     36  H   UNL     1       8.400  30.674  18.207  1.00  0.00     0.293 HD
ENDBRANCH  10  35
TORSDOF 9
ENDMDL
MODEL 6
REMARK VINA RESULT:    -6.390      4.681      7.479
REMARK INTER + INTRA:          -9.206
REMARK INTER:                  -8.398
REMARK INTRA:                  -0.808
REMARK UNBOUND:                -0.575
REMARK SMILES O=c1c(-c2ccc(O)cc2)coc2c([C@@H]3O[C@@H](CO)[C@H](O)[C@@H](O)[C@H]3O)c(O)ccc12
REMARK SMILES IDX 3 1 11 2 12 3 13 4 30 5 2 6 1 7 29 8 28 9 26 10 14 11 4 12
REMARK SMILES IDX 5 13 6 14 7 15 10 16 9 17 8 18 15 20 24 21 16 22 22 23 17 24
REMARK SMILES IDX 20 25 25 26 23 28 18 30 19 31 21 33 27 35
REMARK H PARENT 8 19 25 27 23 29 19 32 21 34 27 36
REMARK Flexibility Score: inf
ROOT
ATOM      1  C   UNL     1      10.900  26.270  21.470  1.00  0.00     0.065 A 
ATOM      2  C   UNL     1      12.194  26.808  21.438  1.00  0.00     0.208 A 
ATOM      3  O   UNL     1      12.393  28.091  21.161  1.00  0.00    -0.463 OA
ATOM      4  C   UNL     1      11.404  28.942  20.900  1.00  0.00     0.147 A 
ATOM      5  C   UNL     1      10.066  28.481  20.899  1.00  0.00     0.066 A 
ATOM      6  C   UNL     1       9.820  27.125  21.186  1.00  0.00     0.200 A 
ATOM      7  O   UNL     1       8.641  26.675  21.169  1.00  0.00    -0.288 OA
ATOM      8  C   UNL     1       9.025  29.374  20.604  1.00  0.00     0.020 A 
ATOM      9  C   UNL     1       9.306  30.706  20.306  1.00  0.00     0.047 A 
ATOM     10  C   UNL     1      10.625  31.173  20.304  1.00  0.00     0.125 A 
ATOM     11  C   UNL     1      11.691  30.299  20.620  1.00  0.00     0.069 A 
ENDROOT
BRANCH   1  12
ATOM     12  C   UNL     1      10.702  24.836  21.796  1.00  0.00    -0.011 A 
ATOM     13  C   UNL     1      10.167  24.450  23.037  1.00  0.00     0.013 A 
ATOM     14  C   UNL     1       9.995  23.097  23.344  1.00  0.00     0.047 A 
ATOM     15  C   UNL     1      10.358  22.113  22.415  1.00  0.00     0.115 A 
ATOM     16  C   UNL     1      11.071  23.842  20.873  1.00  0.00     0.013 A 
ATOM     17  C   UNL     1      10.896  22.490  21.181  1.00  0.00     0.047 A 
BRANCH  15  18
ATOM     18  O   UNL     1      10.191  20.761  22.709  1.00  0.00    -0.508 OA
ATOM     19  H   UNL     1       9.525  20.449  23.407  1.00  0.00     0.293 HD
ENDBRANCH  15  18
ENDBRANCH   1  12
BRANCH  11  20
ATOM     20  C   UNL     1      13.131  30.795  20.603  1.00  0.00     0.188 C 
ATOM     21  C   UNL     1      13.523  31.223  19.171  1.00  0.00     0.179 C 
ATOM     22  O   UNL     1      13.258  31.872  21.520  1.00  0.00    -0.362 OA
ATOM     23  C   UNL     1      14.961  31.794  19.143  1.00  0.00     0.177 C 
ATOM     24  C   UNL     1      14.587  32.370  21.615  1.00  0.00     0.176 C 
ATOM     25  C   UNL     1      15.145  32.848  20.249  1.00  0.00     0.177 C 
BRANCH  21  26
ATOM     26  O   UNL     1      13.412  30.129  18.294  1.00  0.00    -0.387 OA
ATOM     27  H   UNL     1      12.620  29.606  18.587  1.00  0.00     0.211 HD
ENDBRANCH  21  26
BRANCH  23  28
ATOM     28  O   UNL     1      15.975  30.815  19.221  1.00  0.00    -0.387 OA
ATOM     29  H   UNL     1      15.586  29.910  19.111  1.00  0.00     0.211 HD
ENDBRANCH  23  28
BRANCH  24  30
ATOM     30  C   UNL     1      15.533  31.418  22.379  1.00  0.00     0.191 C 
BRANCH  30  31
ATOM     31  O   UNL     1      16.697  32.095  22.768  1.00  0.00    -0.394 OA
ATOM     32  H   UNL     1      16.594  33.037  22.469  1.00  0.00     0.210 HD
ENDBRANCH  30  31
ENDBRANCH  24  30
BRANCH  25  33
ATOM     33  O   UNL     1      14.479  34.023  19.862  1.00  0.00    -0.388 OA
ATOM     34  H   UNL     1      14.164  34.467  20.693  1.00  0.00     0.211 HD
ENDBRANCH  25  33
ENDBRANCH  11  20
BRANCH  10  35
ATOM     35  O   UNL     1      10.876  32.508  19.984  1.00  0.00    -0.507 OA
ATOM     36  H   UNL     1      10.336  33.264  20.387  1.00  0.00     0.293 HD
ENDBRANCH  10  35
TORSDOF 9
ENDMDL
MODEL 7
REMARK VINA RESULT:    -5.961      4.221      5.445
REMARK INTER + INTRA:          -8.626
REMARK INTER:                  -7.463
REMARK INTRA:                  -1.164
REMARK UNBOUND:                -0.575
REMARK SMILES O=c1c(-c2ccc(O)cc2)coc2c([C@@H]3O[C@@H](CO)[C@H](O)[C@@H](O)[C@H]3O)c(O)ccc12
REMARK SMILES IDX 3 1 11 2 12 3 13 4 30 5 2 6 1 7 29 8 28 9 26 10 14 11 4 12
REMARK SMILES IDX 5 13 6 14 7 15 10 16 9 17 8 18 15 20 24 21 16 22 22 23 17 24
REMARK SMILES IDX 20 25 25 26 23 28 18 30 19 31 21 33 27 35
REMARK H PARENT 8 19 25 27 23 29 19 32 21 34 27 36
REMARK Flexibility Score: inf
ROOT
ATOM      1  C   UNL     1      10.691  27.141  21.283  1.00  0.00     0.065 A 
ATOM      2  C   UNL     1       9.528  27.899  21.089  1.00  0.00     0.208 A 
ATOM      3  O   UNL     1       9.597  29.161  20.682  1.00  0.00    -0.463 OA
ATOM      4  C   UNL     1      10.746  29.786  20.436  1.00  0.00     0.147 A 
ATOM      5  C   UNL     1      11.969  29.099  20.618  1.00  0.00     0.066 A 
ATOM      6  C   UNL     1      11.932  27.760  21.050  1.00  0.00     0.200 A 
ATOM      7  O   UNL     1      13.005  27.125  21.248  1.00  0.00    -0.288 OA
ATOM      8  C   UNL     1      13.180  29.764  20.377  1.00  0.00     0.020 A 
ATOM      9  C   UNL     1      13.181  31.095  19.967  1.00  0.00     0.047 A 
ATOM     10  C   UNL     1      11.977  31.785  19.783  1.00  0.00     0.125 A 
ATOM     11  C   UNL     1      10.742  31.131  19.998  1.00  0.00     0.069 A 
ENDROOT
BRANCH   1  12
ATOM     12  C   UNL     1      10.588  25.728  21.725  1.00  0.00    -0.011 A 
ATOM     13  C   UNL     1      10.843  24.676  20.827  1.00  0.00     0.013 A 
ATOM     14  C   UNL     1      10.732  23.347  21.245  1.00  0.00     0.047 A 
ATOM     15  C   UNL     1      10.361  23.052  22.564  1.00  0.00     0.115 A 
ATOM     16  C   UNL     1      10.210  25.423  23.044  1.00  0.00     0.013 A 
ATOM     17  C   UNL     1      10.102  24.093  23.460  1.00  0.00     0.047 A 
BRANCH  15  18
ATOM     18  O   UNL     1      10.248  21.731  22.992  1.00  0.00    -0.508 OA
ATOM     19  H   UNL     1      10.847  21.357  23.720  1.00  0.00     0.293 HD
ENDBRANCH  15  18
ENDBRANCH   1  12
BRANCH  11  20
ATOM     20  C   UNL     1       9.427  31.880  19.816  1.00  0.00     0.188 C 
ATOM     21  C   UNL     1       9.184  32.815  21.022  1.00  0.00     0.179 C 
ATOM     22  O   UNL     1       9.475  32.605  18.597  1.00  0.00    -0.362 OA
ATOM     23  C   UNL     1       7.887  33.636  20.827  1.00  0.00     0.177 C 
ATOM     24  C   UNL     1       8.265  33.297  18.312  1.00  0.00     0.176 C 
ATOM     25  C   UNL     1       7.866  34.290  19.435  1.00  0.00     0.177 C 
BRANCH  21  26
ATOM     26  O   UNL     1       9.116  32.064  22.208  1.00  0.00    -0.387 OA
ATOM     27  H   UNL     1       8.153  31.923  22.404  1.00  0.00     0.211 HD
ENDBRANCH  21  26
BRANCH  23  28
ATOM     28  O   UNL     1       6.700  32.905  21.045  1.00  0.00    -0.387 OA
ATOM     29  H   UNL     1       6.819  31.964  20.754  1.00  0.00     0.211 HD
ENDBRANCH  23  28
BRANCH  24  30
ATOM     30  C   UNL     1       7.122  32.356  17.875  1.00  0.00     0.191 C 
BRANCH  30  31
ATOM     31  O   UNL     1       5.877  32.950  18.123  1.00  0.00    -0.394 OA
ATOM     32  H   UNL     1       5.977  33.490  18.951  1.00  0.00     0.210 HD
ENDBRANCH  30  31
ENDBRANCH  24  30
BRANCH  25  33
ATOM     33  O   UNL     1       8.764  35.373  19.436  1.00  0.00    -0.388 OA
ATOM     34  H   UNL     1       9.111  35.462  20.362  1.00  0.00     0.211 HD
ENDBRANCH  25  33
ENDBRANCH  11  20
BRANCH  10  35
ATOM     35  O   UNL     1      12.010  33.124  19.389  1.00  0.00    -0.507 OA
ATOM     36  H   UNL     1      12.043  33.878  20.065  1.00  0.00     0.293 HD
ENDBRANCH  10  35
TORSDOF 9
ENDMDL
MODEL 8
REMARK VINA RESULT:    -5.944      4.510      6.772
REMARK INTER + INTRA:          -8.604
REMARK INTER:                  -7.358
REMARK INTRA:                  -1.246
REMARK UNBOUND:                -0.575
REMARK SMILES O=c1c(-c2ccc(O)cc2)coc2c([C@@H]3O[C@@H](CO)[C@H](O)[C@@H](O)[C@H]3O)c(O)ccc12
REMARK SMILES IDX 3 1 11 2 12 3 13 4 30 5 2 6 1 7 29 8 28 9 26 10 14 11 4 12
REMARK SMILES IDX 5 13 6 14 7 15 10 16 9 17 8 18 15 20 24 21 16 22 22 23 17 24
REMARK SMILES IDX 20 25 25 26 23 28 18 30 19 31 21 33 27 35
REMARK H PARENT 8 19 25 27 23 29 19 32 21 34 27 36
REMARK Flexibility Score: inf
ROOT
ATOM      1  C   UNL     1      11.015  26.610  21.182  1.00  0.00     0.065 A 
ATOM      2  C   UNL     1      10.538  27.927  21.243  1.00  0.00     0.208 A 
ATOM      3  O   UNL     1      11.226  28.927  20.706  1.00  0.00    -0.463 OA
ATOM      4  C   UNL     1      12.392  28.760  20.086  1.00  0.00     0.147 A 
ATOM      5  C   UNL     1      12.953  27.465  19.990  1.00  0.00     0.066 A 
ATOM      6  C   UNL     1      12.250  26.382  20.550  1.00  0.00     0.200 A 
ATOM      7  O   UNL     1      12.735  25.217  20.504  1.00  0.00    -0.288 OA
ATOM      8  C   UNL     1      14.191  27.292  19.354  1.00  0.00     0.020 A 
ATOM      9  C   UNL     1      14.869  28.389  18.825  1.00  0.00     0.047 A 
ATOM     10  C   UNL     1      14.324  29.674  18.915  1.00  0.00     0.125 A 
ATOM     11  C   UNL     1      13.067  29.873  19.531  1.00  0.00     0.069 A 
ENDROOT
BRANCH   1  12
ATOM     12  C   UNL     1      10.220  25.507  21.776  1.00  0.00    -0.011 A 
ATOM     13  C   UNL     1       9.287  24.797  21.001  1.00  0.00     0.013 A 
ATOM     14  C   UNL     1       8.533  23.767  21.570  1.00  0.00     0.047 A 
ATOM     15  C   UNL     1       8.699  23.436  22.921  1.00  0.00     0.115 A 
ATOM     16  C   UNL     1      10.376  25.173  23.133  1.00  0.00     0.013 A 
ATOM     17  C   UNL     1       9.622  24.141  23.699  1.00  0.00     0.047 A 
BRANCH  15  18
ATOM     18  O   UNL     1       7.953  22.410  23.499  1.00  0.00    -0.508 OA
ATOM     19  H   UNL     1       8.034  22.187  24.485  1.00  0.00     0.293 HD
ENDBRANCH  15  18
ENDBRANCH   1  12
BRANCH  11  20
ATOM     20  C   UNL     1      12.473  31.272  19.648  1.00  0.00     0.188 C 
ATOM     21  C   UNL     1      13.181  32.049  20.780  1.00  0.00     0.179 C 
ATOM     22  O   UNL     1      12.607  31.934  18.400  1.00  0.00    -0.362 OA
ATOM     23  C   UNL     1      12.640  33.497  20.873  1.00  0.00     0.177 C 
ATOM     24  C   UNL     1      12.030  33.234  18.394  1.00  0.00     0.176 C 
ATOM     25  C   UNL     1      12.632  34.159  19.484  1.00  0.00     0.177 C 
BRANCH  21  26
ATOM     26  O   UNL     1      13.008  31.382  22.005  1.00  0.00    -0.387 OA
ATOM     27  H   UNL     1      12.054  31.110  22.051  1.00  0.00     0.211 HD
ENDBRANCH  21  26
BRANCH  23  28
ATOM     28  O   UNL     1      11.369  33.603  21.476  1.00  0.00    -0.387 OA
ATOM     29  H   UNL     1      11.429  33.379  22.440  1.00  0.00     0.211 HD
ENDBRANCH  23  28
BRANCH  24  30
ATOM     30  C   UNL     1      10.487  33.208  18.379  1.00  0.00     0.191 C 
BRANCH  30  31
ATOM     31  O   UNL     1       9.972  34.392  18.925  1.00  0.00    -0.394 OA
ATOM     32  H   UNL     1      10.682  34.771  19.507  1.00  0.00     0.210 HD
ENDBRANCH  30  31
ENDBRANCH  24  30
BRANCH  25  33
ATOM     33  O   UNL     1      13.955  34.485  19.136  1.00  0.00    -0.388 OA
ATOM     34  H   UNL     1      14.548  34.049  19.803  1.00  0.00     0.211 HD
ENDBRANCH  25  33
ENDBRANCH  11  20
BRANCH  10  35
ATOM     35  O   UNL     1      15.034  30.756  18.393  1.00  0.00    -0.507 OA
ATOM     36  H   UNL     1      15.774  31.210  18.915  1.00  0.00     0.293 HD
ENDBRANCH  10  35
TORSDOF 9
ENDMDL
MODEL 9
REMARK VINA RESULT:    -5.934      4.029      5.788
REMARK INTER + INTRA:          -8.590
REMARK INTER:                  -7.911
REMARK INTRA:                  -0.679
REMARK UNBOUND:                -0.575
REMARK SMILES O=c1c(-c2ccc(O)cc2)coc2c([C@@H]3O[C@@H](CO)[C@H](O)[C@@H](O)[C@H]3O)c(O)ccc12
REMARK SMILES IDX 3 1 11 2 12 3 13 4 30 5 2 6 1 7 29 8 28 9 26 10 14 11 4 12
REMARK SMILES IDX 5 13 6 14 7 15 10 16 9 17 8 18 15 20 24 21 16 22 22 23 17 24
REMARK SMILES IDX 20 25 25 26 23 28 18 30 19 31 21 33 27 35
REMARK H PARENT 8 19 25 27 23 29 19 32 21 34 27 36
REMARK Flexibility Score: inf
ROOT
ATOM      1  C   UNL     1      11.706  27.786  20.349  1.00  0.00     0.065 A 
ATOM      2  C   UNL     1      10.696  28.591  20.893  1.00  0.00     0.208 A 
ATOM      3  O   UNL     1      10.949  29.836  21.276  1.00  0.00    -0.463 OA
ATOM      4  C   UNL     1      12.151  30.400  21.175  1.00  0.00     0.147 A 
ATOM      5  C   UNL     1      13.231  29.654  20.648  1.00  0.00     0.066 A 
ATOM      6  C   UNL     1      12.998  28.330  20.235  1.00  0.00     0.200 A 
ATOM      7  O   UNL     1      13.945  27.627  19.784  1.00  0.00    -0.288 OA
ATOM      8  C   UNL     1      14.502  30.242  20.560  1.00  0.00     0.020 A 
ATOM      9  C   UNL     1      14.701  31.551  20.995  1.00  0.00     0.047 A 
ATOM     10  C   UNL     1      13.640  32.298  21.518  1.00  0.00     0.125 A 
ATOM     11  C   UNL     1      12.345  31.737  21.597  1.00  0.00     0.069 A 
ENDROOT
BRANCH   1  12
ATOM     12  C   UNL     1      11.396  26.400  19.915  1.00  0.00    -0.011 A 
ATOM     13  C   UNL     1      10.909  26.147  18.621  1.00  0.00     0.013 A 
ATOM     14  C   UNL     1      10.606  24.842  18.222  1.00  0.00     0.047 A 
ATOM     15  C   UNL     1      10.782  23.775  19.113  1.00  0.00     0.115 A 
ATOM     16  C   UNL     1      11.563  25.325  20.805  1.00  0.00     0.013 A 
ATOM     17  C   UNL     1      11.261  24.020  20.404  1.00  0.00     0.047 A 
BRANCH  15  18
ATOM     18  O   UNL     1      10.485  22.469  18.727  1.00  0.00    -0.508 OA
ATOM     19  H   UNL     1      10.306  22.231  17.758  1.00  0.00     0.293 HD
ENDBRANCH  15  18
ENDBRANCH   1  12
BRANCH  11  20
ATOM     20  C   UNL     1      11.187  32.537  22.181  1.00  0.00     0.188 C 
ATOM     21  C   UNL     1      10.040  32.631  21.149  1.00  0.00     0.179 C 
ATOM     22  O   UNL     1      10.756  31.915  23.382  1.00  0.00    -0.362 OA
ATOM     23  C   UNL     1       8.826  33.383  21.746  1.00  0.00     0.177 C 
ATOM     24  C   UNL     1       9.709  32.624  24.032  1.00  0.00     0.176 C 
ATOM     25  C   UNL     1       8.463  32.812  23.127  1.00  0.00     0.177 C 
BRANCH  21  26
ATOM     26  O   UNL     1      10.491  33.274  19.984  1.00  0.00    -0.387 OA
ATOM     27  H   UNL     1      11.256  32.742  19.640  1.00  0.00     0.211 HD
ENDBRANCH  21  26
BRANCH  23  28
ATOM     28  O   UNL     1       8.991  34.783  21.819  1.00  0.00    -0.387 OA
ATOM     29  H   UNL     1       8.110  35.226  21.926  1.00  0.00     0.211 HD
ENDBRANCH  23  28
BRANCH  24  30
ATOM     30  C   UNL     1      10.192  33.925  24.709  1.00  0.00     0.191 C 
BRANCH  30  31
ATOM     31  O   UNL     1       9.118  34.807  24.896  1.00  0.00    -0.394 OA
ATOM     32  H   UNL     1       9.459  35.559  25.448  1.00  0.00     0.210 HD
ENDBRANCH  30  31
ENDBRANCH  24  30
BRANCH  25  33
ATOM     33  O   UNL     1       7.831  31.569  22.946  1.00  0.00    -0.388 OA
ATOM     34  H   UNL     1       8.379  31.056  22.295  1.00  0.00     0.211 HD
ENDBRANCH  25  33
ENDBRANCH  11  20
BRANCH  10  35
ATOM     35  O   UNL     1      13.875  33.600  21.963  1.00  0.00    -0.507 OA
ATOM     36  H   UNL     1      13.366  34.392  21.587  1.00  0.00     0.293 HD
ENDBRANCH  10  35
TORSDOF 9
ENDMDL
