MODEL 1
REMARK VINA RESULT:    -4.593      0.000      0.000
REMARK INTER + INTRA:          -8.907
REMARK INTER:                  -7.815
REMARK INTRA:                  -1.093
REMARK UNBOUND:                -1.093
REMARK SMILES CCCCCCCCCCCCCC(=O)[O-]
REMARK SMILES IDX 8 1 9 2 10 3 11 4 12 5 13 6 14 7 15 8 16 9 7 10 6 11 5 12
REMARK SMILES IDX 4 13 3 14 2 15 1 16
REMARK H PARENT
REMARK Flexibility Score: inf
ROOT
ATOM      1  C   UNL     1     192.761   3.356  99.354  1.00  0.00     0.000 C 
ENDROOT
BRANCH   1   2
ATOM      2  C   UNL     1     192.274   1.907  99.537  1.00  0.00     0.000 C 
BRANCH   2   3
ATOM      3  C   UNL     1     192.810   1.253 100.823  1.00  0.00     0.000 C 
BRANCH   3   4
ATOM      4  C   UNL     1     193.324   2.285 101.840  1.00  0.00     0.000 C 
BRANCH   4   5
ATOM      5  C   UNL     1     193.025   1.881 103.294  1.00  0.00     0.006 C 
BRANCH   5   6
ATOM      6  C   UNL     1     191.620   1.284 103.452  1.00  0.00     0.053 C 
BRANCH   6   7
ATOM      7  C   UNL     1     190.927   1.800 104.676  1.00  0.00     0.041 C 
ATOM      8  O   UNL     1     189.949   2.585 104.567  1.00  0.00    -0.550 OA
ATOM      9  O   UNL     1     191.342   1.387 105.936  1.00  0.00    -0.550 OA
ENDBRANCH   6   7
ENDBRANCH   5   6
ENDBRANCH   4   5
ENDBRANCH   3   4
ENDBRANCH   2   3
ENDBRANCH   1   2
BRANCH   1  10
ATOM     10  C   UNL     1     191.778   4.298  98.634  1.00  0.00     0.000 C 
BRANCH  10  11
ATOM     11  C   UNL     1     190.413   3.645  98.359  1.00  0.00    -0.000 C 
BRANCH  11  12
ATOM     12  C   UNL     1     189.636   4.334  97.222  1.00  0.00    -0.000 C 
BRANCH  12  13
ATOM     13  C   UNL     1     189.616   3.571  95.884  1.00  0.00    -0.000 C 
BRANCH  13  14
ATOM     14  C   UNL     1     190.605   4.086  94.821  1.00  0.00    -0.000 C 
BRANCH  14  15
ATOM     15  C   UNL     1     192.060   3.621  95.046  1.00  0.00    -0.003 C 
ATOM     16  C   UNL     1     192.169   2.111  95.255  1.00  0.00     0.004 C 
ENDBRANCH  14  15
ENDBRANCH  13  14
ENDBRANCH  12  13
ENDBRANCH  11  12
ENDBRANCH  10  11
ENDBRANCH   1  10
TORSDOF 12
ENDMDL
MODEL 2
REMARK VINA RESULT:    -4.522      1.186      1.859
REMARK INTER + INTRA:          -8.787
REMARK INTER:                  -7.684
REMARK INTRA:                  -1.103
REMARK UNBOUND:                -1.093
REMARK SMILES CCCCCCCCCCCCCC(=O)[O-]
REMARK SMILES IDX 8 1 9 2 10 3 11 4 12 5 13 6 14 7 15 8 16 9 7 10 6 11 5 12
REMARK SMILES IDX 4 13 3 14 2 15 1 16
REMARK H PARENT
REMARK Flexibility Score: inf
ROOT
ATOM      1  C   UNL     1     191.821   4.358  98.591  1.00  0.00     0.000 C 
ENDROOT
BRANCH   1   2
ATOM      2  C   UNL     1     192.747   3.431  99.400  1.00  0.00     0.000 C 
BRANCH   2   3
ATOM      3  C   UNL     1     192.265   1.970  99.420  1.00  0.00     0.000 C 
BRANCH   3   4
ATOM      4  C   UNL     1     192.078   1.430 100.847  1.00  0.00     0.000 C 
BRANCH   4   5
ATOM      5  C   UNL     1     193.410   1.285 101.604  1.00  0.00     0.006 C 
BRANCH   5   6
ATOM      6  C   UNL     1     193.601   2.388 102.654  1.00  0.00     0.053 C 
BRANCH   6   7
ATOM      7  C   UNL     1     193.315   1.895 104.040  1.00  0.00     0.041 C 
ATOM      8  O   UNL     1     193.943   0.906 104.503  1.00  0.00    -0.550 OA
ATOM      9  O   UNL     1     192.379   2.548 104.831  1.00  0.00    -0.550 OA
ENDBRANCH   6   7
ENDBRANCH   5   6
ENDBRANCH   4   5
ENDBRANCH   3   4
ENDBRANCH   2   3
ENDBRANCH   1   2
BRANCH   1  10
ATOM     10  C   UNL     1     190.430   3.783  98.265  1.00  0.00     0.000 C 
BRANCH  10  11
ATOM     11  C   UNL     1     189.391   4.871  97.947  1.00  0.00    -0.000 C 
BRANCH  11  12
ATOM     12  C   UNL     1     189.102   5.002  96.440  1.00  0.00    -0.000 C 
BRANCH  12  13
ATOM     13  C   UNL     1     189.606   3.835  95.571  1.00  0.00    -0.000 C 
BRANCH  13  14
ATOM     14  C   UNL     1     190.734   4.192  94.584  1.00  0.00    -0.000 C 
BRANCH  14  15
ATOM     15  C   UNL     1     192.127   3.694  95.024  1.00  0.00    -0.003 C 
ATOM     16  C   UNL     1     192.152   2.194  95.315  1.00  0.00     0.004 C 
ENDBRANCH  14  15
ENDBRANCH  13  14
ENDBRANCH  12  13
ENDBRANCH  11  12
ENDBRANCH  10  11
ENDBRANCH   1  10
TORSDOF 12
ENDMDL
MODEL 3
REMARK VINA RESULT:    -4.518      3.860      8.034
REMARK INTER + INTRA:          -8.780
REMARK INTER:                  -8.021
REMARK INTRA:                  -0.758
REMARK UNBOUND:                -1.093
REMARK SMILES CCCCCCCCCCCCCC(=O)[O-]
REMARK SMILES IDX 8 1 9 2 10 3 11 4 12 5 13 6 14 7 15 8 16 9 7 10 6 11 5 12
REMARK SMILES IDX 4 13 3 14 2 15 1 16
REMARK H PARENT
REMARK Flexibility Score: inf
ROOT
ATOM      1  C   UNL     1     192.322   1.908  99.388  1.00  0.00     0.000 C 
ENDROOT
BRANCH   1   2
ATOM      2  C   UNL     1     192.679   3.406  99.390  1.00  0.00     0.000 C 
BRANCH   2   3
ATOM      3  C   UNL     1     191.835   4.225  98.398  1.00  0.00     0.000 C 
BRANCH   3   4
ATOM      4  C   UNL     1     190.707   3.398  97.760  1.00  0.00     0.000 C 
BRANCH   4   5
ATOM      5  C   UNL     1     190.538   3.686  96.258  1.00  0.00     0.006 C 
BRANCH   5   6
ATOM      6  C   UNL     1     191.854   3.520  95.486  1.00  0.00     0.053 C 
BRANCH   6   7
ATOM      7  C   UNL     1     191.973   2.158  94.872  1.00  0.00     0.041 C 
ATOM      8  O   UNL     1     191.515   1.941  93.719  1.00  0.00    -0.550 OA
ATOM      9  O   UNL     1     192.619   1.139  95.559  1.00  0.00    -0.550 OA
ENDBRANCH   6   7
ENDBRANCH   5   6
ENDBRANCH   4   5
ENDBRANCH   3   4
ENDBRANCH   2   3
ENDBRANCH   1   2
BRANCH   1  10
ATOM     10  C   UNL     1     191.722   1.369 100.699  1.00  0.00     0.000 C 
BRANCH  10  11
ATOM     11  C   UNL     1     192.749   0.623 101.567  1.00  0.00    -0.000 C 
BRANCH  11  12
ATOM     12  C   UNL     1     193.698   1.572 102.322  1.00  0.00    -0.000 C 
BRANCH  12  13
ATOM     13  C   UNL     1     193.108   2.219 103.590  1.00  0.00    -0.000 C 
BRANCH  13  14
ATOM     14  C   UNL     1     193.204   1.364 104.868  1.00  0.00    -0.000 C 
BRANCH  14  15
ATOM     15  C   UNL     1     193.006   2.167 106.171  1.00  0.00    -0.003 C 
ATOM     16  C   UNL     1     194.133   3.168 106.423  1.00  0.00     0.004 C 
ENDBRANCH  14  15
ENDBRANCH  13  14
ENDBRANCH  12  13
ENDBRANCH  11  12
ENDBRANCH  10  11
ENDBRANCH   1  10
TORSDOF 12
ENDMDL
MODEL 4
REMARK VINA RESULT:    -4.443      1.152      2.427
REMARK INTER + INTRA:          -8.652
REMARK INTER:                  -7.800
REMARK INTRA:                  -0.852
REMARK UNBOUND:                -1.093
REMARK SMILES CCCCCCCCCCCCCC(=O)[O-]
REMARK SMILES IDX 8 1 9 2 10 3 11 4 12 5 13 6 14 7 15 8 16 9 7 10 6 11 5 12
REMARK SMILES IDX 4 13 3 14 2 15 1 16
REMARK H PARENT
REMARK Flexibility Score: inf
ROOT
ATOM      1  C   UNL     1     192.542   0.961 101.495  1.00  0.00     0.000 C 
ENDROOT
BRANCH   1   2
ATOM      2  C   UNL     1     193.704   1.852 101.970  1.00  0.00     0.000 C 
BRANCH   2   3
ATOM      3  C   UNL     1     193.328   2.739 103.170  1.00  0.00     0.000 C 
BRANCH   3   4
ATOM      4  C   UNL     1     193.985   2.269 104.478  1.00  0.00     0.000 C 
BRANCH   4   5
ATOM      5  C   UNL     1     192.970   2.098 105.622  1.00  0.00     0.006 C 
BRANCH   5   6
ATOM      6  C   UNL     1     191.793   1.199 105.220  1.00  0.00     0.053 C 
BRANCH   6   7
ATOM      7  C   UNL     1     190.472   1.858 105.481  1.00  0.00     0.041 C 
ATOM      8  O   UNL     1     190.007   2.691 104.660  1.00  0.00    -0.550 OA
ATOM      9  O   UNL     1     189.742   1.526 106.615  1.00  0.00    -0.550 OA
ENDBRANCH   6   7
ENDBRANCH   5   6
ENDBRANCH   4   5
ENDBRANCH   3   4
ENDBRANCH   2   3
ENDBRANCH   1   2
BRANCH   1  10
ATOM     10  C   UNL     1     191.583   1.609 100.479  1.00  0.00     0.000 C 
BRANCH  10  11
ATOM     11  C   UNL     1     192.291   2.061  99.191  1.00  0.00    -0.000 C 
BRANCH  11  12
ATOM     12  C   UNL     1     192.285   3.590  99.008  1.00  0.00    -0.000 C 
BRANCH  12  13
ATOM     13  C   UNL     1     191.091   4.152  98.214  1.00  0.00    -0.000 C 
BRANCH  13  14
ATOM     14  C   UNL     1     190.818   3.461  96.863  1.00  0.00    -0.000 C 
BRANCH  14  15
ATOM     15  C   UNL     1     191.926   3.689  95.812  1.00  0.00    -0.003 C 
ATOM     16  C   UNL     1     191.441   4.503  94.613  1.00  0.00     0.004 C 
ENDBRANCH  14  15
ENDBRANCH  13  14
ENDBRANCH  12  13
ENDBRANCH  11  12
ENDBRANCH  10  11
ENDBRANCH   1  10
TORSDOF 12
ENDMDL
MODEL 5
REMARK VINA RESULT:    -4.387      3.878      8.040
REMARK INTER + INTRA:          -8.556
REMARK INTER:                  -7.801
REMARK INTRA:                  -0.755
REMARK UNBOUND:                -1.093
REMARK SMILES CCCCCCCCCCCCCC(=O)[O-]
REMARK SMILES IDX 8 1 9 2 10 3 11 4 12 5 13 6 14 7 15 8 16 9 7 10 6 11 5 12
REMARK SMILES IDX 4 13 3 14 2 15 1 16
REMARK H PARENT
REMARK Flexibility Score: inf
ROOT
ATOM      1  C   UNL     1     192.112   2.038  99.374  1.00  0.00     0.000 C 
ENDROOT
BRANCH   1   2
ATOM      2  C   UNL     1     192.752   3.436  99.289  1.00  0.00     0.000 C 
BRANCH   2   3
ATOM      3  C   UNL     1     191.884   4.447  98.521  1.00  0.00     0.000 C 
BRANCH   3   4
ATOM      4  C   UNL     1     190.480   3.903  98.210  1.00  0.00     0.000 C 
BRANCH   4   5
ATOM      5  C   UNL     1     189.947   4.383  96.848  1.00  0.00     0.006 C 
BRANCH   5   6
ATOM      6  C   UNL     1     190.317   3.420  95.711  1.00  0.00     0.053 C 
BRANCH   6   7
ATOM      7  C   UNL     1     191.237   4.059  94.716  1.00  0.00     0.041 C 
ATOM      8  O   UNL     1     190.816   4.365  93.569  1.00  0.00    -0.550 OA
ATOM      9  O   UNL     1     192.551   4.345  95.066  1.00  0.00    -0.550 OA
ENDBRANCH   6   7
ENDBRANCH   5   6
ENDBRANCH   4   5
ENDBRANCH   3   4
ENDBRANCH   2   3
ENDBRANCH   1   2
BRANCH   1  10
ATOM     10  C   UNL     1     192.329   1.291 100.703  1.00  0.00     0.000 C 
BRANCH  10  11
ATOM     11  C   UNL     1     193.452   1.901 101.558  1.00  0.00    -0.000 C 
BRANCH  11  12
ATOM     12  C   UNL     1     193.486   1.342 102.992  1.00  0.00    -0.000 C 
BRANCH  12  13
ATOM     13  C   UNL     1     193.126   2.352 104.099  1.00  0.00    -0.000 C 
BRANCH  13  14
ATOM     14  C   UNL     1     192.805   1.733 105.472  1.00  0.00    -0.000 C 
BRANCH  14  15
ATOM     15  C   UNL     1     191.294   1.615 105.765  1.00  0.00    -0.003 C 
ATOM     16  C   UNL     1     190.430   2.103 104.603  1.00  0.00     0.004 C 
ENDBRANCH  14  15
ENDBRANCH  13  14
ENDBRANCH  12  13
ENDBRANCH  11  12
ENDBRANCH  10  11
ENDBRANCH   1  10
TORSDOF 12
ENDMDL
MODEL 6
REMARK VINA RESULT:    -4.278      3.441      7.937
REMARK INTER + INTRA:          -8.372
REMARK INTER:                  -7.736
REMARK INTRA:                  -0.636
REMARK UNBOUND:                -1.093
REMARK SMILES CCCCCCCCCCCCCC(=O)[O-]
REMARK SMILES IDX 8 1 9 2 10 3 11 4 12 5 13 6 14 7 15 8 16 9 7 10 6 11 5 12
REMARK SMILES IDX 4 13 3 14 2 15 1 16
REMARK H PARENT
REMARK Flexibility Score: inf
ROOT
ATOM      1  C   UNL     1     192.632   1.574 101.141  1.00  0.00     0.000 C 
ENDROOT
BRANCH   1   2
ATOM      2  C   UNL     1     192.331   2.008  99.694  1.00  0.00     0.000 C 
BRANCH   2   3
ATOM      3  C   UNL     1     192.879   3.406  99.361  1.00  0.00     0.000 C 
BRANCH   3   4
ATOM      4  C   UNL     1     191.882   4.254  98.553  1.00  0.00     0.000 C 
BRANCH   4   5
ATOM      5  C   UNL     1     190.850   3.396  97.801  1.00  0.00     0.006 C 
BRANCH   5   6
ATOM      6  C   UNL     1     189.408   3.823  98.109  1.00  0.00     0.053 C 
BRANCH   6   7
ATOM      7  C   UNL     1     188.472   3.477  96.991  1.00  0.00     0.041 C 
ATOM      8  O   UNL     1     188.813   3.673  95.795  1.00  0.00    -0.550 OA
ATOM      9  O   UNL     1     187.236   2.908  97.271  1.00  0.00    -0.550 OA
ENDBRANCH   6   7
ENDBRANCH   5   6
ENDBRANCH   4   5
ENDBRANCH   3   4
ENDBRANCH   2   3
ENDBRANCH   1   2
BRANCH   1  10
ATOM     10  C   UNL     1     193.557   2.516 101.934  1.00  0.00     0.000 C 
BRANCH  10  11
ATOM     11  C   UNL     1     193.448   2.322 103.456  1.00  0.00    -0.000 C 
BRANCH  11  12
ATOM     12  C   UNL     1     192.314   1.361 103.858  1.00  0.00    -0.000 C 
BRANCH  12  13
ATOM     13  C   UNL     1     191.467   1.812 105.063  1.00  0.00    -0.000 C 
BRANCH  13  14
ATOM     14  C   UNL     1     192.138   1.636 106.439  1.00  0.00    -0.000 C 
BRANCH  14  15
ATOM     15  C   UNL     1     191.162   1.755 107.628  1.00  0.00    -0.003 C 
ATOM     16  C   UNL     1     189.740   2.106 107.191  1.00  0.00     0.004 C 
ENDBRANCH  14  15
ENDBRANCH  13  14
ENDBRANCH  12  13
ENDBRANCH  11  12
ENDBRANCH  10  11
ENDBRANCH   1  10
TORSDOF 12
ENDMDL
MODEL 7
REMARK VINA RESULT:    -4.253      1.467      2.487
REMARK INTER + INTRA:          -8.329
REMARK INTER:                  -7.570
REMARK INTRA:                  -0.760
REMARK UNBOUND:                -1.093
REMARK SMILES CCCCCCCCCCCCCC(=O)[O-]
REMARK SMILES IDX 8 1 9 2 10 3 11 4 12 5 13 6 14 7 15 8 16 9 7 10 6 11 5 12
REMARK SMILES IDX 4 13 3 14 2 15 1 16
REMARK H PARENT
REMARK Flexibility Score: inf
ROOT
ATOM      1  C   UNL     1     192.788   3.231  99.629  1.00  0.00     0.000 C 
ENDROOT
BRANCH   1   2
ATOM      2  C   UNL     1     192.395   1.755  99.825  1.00  0.00     0.000 C 
BRANCH   2   3
ATOM      3  C   UNL     1     192.786   1.209 101.209  1.00  0.00     0.000 C 
BRANCH   3   4
ATOM      4  C   UNL     1     193.581   2.228 102.042  1.00  0.00     0.000 C 
BRANCH   4   5
ATOM      5  C   UNL     1     192.955   2.479 103.424  1.00  0.00     0.006 C 
BRANCH   5   6
ATOM      6  C   UNL     1     193.759   1.817 104.552  1.00  0.00     0.053 C 
BRANCH   6   7
ATOM      7  C   UNL     1     193.310   2.280 105.905  1.00  0.00     0.041 C 
ATOM      8  O   UNL     1     193.983   3.138 106.536  1.00  0.00    -0.550 OA
ATOM      9  O   UNL     1     192.132   1.790 106.453  1.00  0.00    -0.550 OA
ENDBRANCH   6   7
ENDBRANCH   5   6
ENDBRANCH   4   5
ENDBRANCH   3   4
ENDBRANCH   2   3
ENDBRANCH   1   2
BRANCH   1  10
ATOM     10  C   UNL     1     191.925   4.018  98.626  1.00  0.00     0.000 C 
BRANCH  10  11
ATOM     11  C   UNL     1     191.378   3.141  97.487  1.00  0.00    -0.000 C 
BRANCH  11  12
ATOM     12  C   UNL     1     191.126   3.931  96.190  1.00  0.00    -0.000 C 
BRANCH  12  13
ATOM     13  C   UNL     1     189.827   3.571  95.444  1.00  0.00    -0.000 C 
BRANCH  13  14
ATOM     14  C   UNL     1     188.568   4.321  95.920  1.00  0.00    -0.000 C 
BRANCH  14  15
ATOM     15  C   UNL     1     188.871   5.654  96.637  1.00  0.00    -0.003 C 
ATOM     16  C   UNL     1     188.366   5.675  98.079  1.00  0.00     0.004 C 
ENDBRANCH  14  15
ENDBRANCH  13  14
ENDBRANCH  12  13
ENDBRANCH  11  12
ENDBRANCH  10  11
ENDBRANCH   1  10
TORSDOF 12
ENDMDL
MODEL 8
REMARK VINA RESULT:    -4.244      3.909      7.563
REMARK INTER + INTRA:          -8.313
REMARK INTER:                  -7.626
REMARK INTRA:                  -0.687
REMARK UNBOUND:                -1.093
REMARK SMILES CCCCCCCCCCCCCC(=O)[O-]
REMARK SMILES IDX 8 1 9 2 10 3 11 4 12 5 13 6 14 7 15 8 16 9 7 10 6 11 5 12
REMARK SMILES IDX 4 13 3 14 2 15 1 16
REMARK H PARENT
REMARK Flexibility Score: inf
ROOT
ATOM      1  C   UNL     1     192.751   3.297  99.606  1.00  0.00     0.000 C 
ENDROOT
BRANCH   1   2
ATOM      2  C   UNL     1     192.071   4.256  98.611  1.00  0.00     0.000 C 
BRANCH   2   3
ATOM      3  C   UNL     1     191.068   3.547  97.685  1.00  0.00     0.000 C 
BRANCH   3   4
ATOM      4  C   UNL     1     189.611   3.931  97.988  1.00  0.00     0.000 C 
BRANCH   4   5
ATOM      5  C   UNL     1     189.330   5.425  97.746  1.00  0.00     0.006 C 
BRANCH   5   6
ATOM      6  C   UNL     1     188.146   5.643  96.794  1.00  0.00     0.053 C 
BRANCH   6   7
ATOM      7  C   UNL     1     187.956   4.485  95.862  1.00  0.00     0.041 C 
ATOM      8  O   UNL     1     188.743   4.314  94.894  1.00  0.00    -0.550 OA
ATOM      9  O   UNL     1     186.930   3.575  96.084  1.00  0.00    -0.550 OA
ENDBRANCH   6   7
ENDBRANCH   5   6
ENDBRANCH   4   5
ENDBRANCH   3   4
ENDBRANCH   2   3
ENDBRANCH   1   2
BRANCH   1  10
ATOM     10  C   UNL     1     192.330   1.820  99.494  1.00  0.00     0.000 C 
BRANCH  10  11
ATOM     11  C   UNL     1     191.904   1.214 100.842  1.00  0.00    -0.000 C 
BRANCH  11  12
ATOM     12  C   UNL     1     192.944   0.235 101.414  1.00  0.00    -0.000 C 
BRANCH  12  13
ATOM     13  C   UNL     1     193.526   0.623 102.787  1.00  0.00    -0.000 C 
BRANCH  13  14
ATOM     14  C   UNL     1     193.591   2.136 103.068  1.00  0.00    -0.000 C 
BRANCH  14  15
ATOM     15  C   UNL     1     192.696   2.591 104.240  1.00  0.00    -0.003 C 
ATOM     16  C   UNL     1     193.358   2.383 105.602  1.00  0.00     0.004 C 
ENDBRANCH  14  15
ENDBRANCH  13  14
ENDBRANCH  12  13
ENDBRANCH  11  12
ENDBRANCH  10  11
ENDBRANCH   1  10
TORSDOF 12
ENDMDL
MODEL 9
REMARK VINA RESULT:    -4.242      3.692      7.382
REMARK INTER + INTRA:          -8.311
REMARK INTER:                  -7.214
REMARK INTRA:                  -1.097
REMARK UNBOUND:                -1.093
REMARK SMILES CCCCCCCCCCCCCC(=O)[O-]
REMARK SMILES IDX 8 1 9 2 10 3 11 4 12 5 13 6 14 7 15 8 16 9 7 10 6 11 5 12
REMARK SMILES IDX 4 13 3 14 2 15 1 16
REMARK H PARENT
REMARK Flexibility Score: inf
ROOT
ATOM      1  C   UNL     1     192.130   1.011 100.659  1.00  0.00     0.000 C 
ENDROOT
BRANCH   1   2
ATOM      2  C   UNL     1     192.386   1.778  99.348  1.00  0.00     0.000 C 
BRANCH   2   3
ATOM      3  C   UNL     1     192.705   3.265  99.576  1.00  0.00     0.000 C 
BRANCH   3   4
ATOM      4  C   UNL     1     192.017   4.180  98.550  1.00  0.00     0.000 C 
BRANCH   4   5
ATOM      5  C   UNL     1     191.169   3.396  97.533  1.00  0.00     0.006 C 
BRANCH   5   6
ATOM      6  C   UNL     1     189.672   3.704  97.669  1.00  0.00     0.053 C 
BRANCH   6   7
ATOM      7  C   UNL     1     188.974   3.680  96.343  1.00  0.00     0.041 C 
ATOM      8  O   UNL     1     189.641   3.712  95.275  1.00  0.00    -0.550 OA
ATOM      9  O   UNL     1     187.589   3.590  96.288  1.00  0.00    -0.550 OA
ENDBRANCH   6   7
ENDBRANCH   5   6
ENDBRANCH   4   5
ENDBRANCH   3   4
ENDBRANCH   2   3
ENDBRANCH   1   2
BRANCH   1  10
ATOM     10  C   UNL     1     193.166  -0.076 101.003  1.00  0.00     0.000 C 
BRANCH  10  11
ATOM     11  C   UNL     1     192.571  -1.234 101.821  1.00  0.00    -0.000 C 
BRANCH  11  12
ATOM     12  C   UNL     1     191.605  -0.758 102.921  1.00  0.00    -0.000 C 
BRANCH  12  13
ATOM     13  C   UNL     1     192.276  -0.297 104.229  1.00  0.00    -0.000 C 
BRANCH  13  14
ATOM     14  C   UNL     1     192.332   1.229 104.435  1.00  0.00    -0.000 C 
BRANCH  14  15
ATOM     15  C   UNL     1     193.757   1.816 104.356  1.00  0.00    -0.003 C 
ATOM     16  C   UNL     1     193.929   2.792 103.193  1.00  0.00     0.004 C 
ENDBRANCH  14  15
ENDBRANCH  13  14
ENDBRANCH  12  13
ENDBRANCH  11  12
ENDBRANCH  10  11
ENDBRANCH   1  10
TORSDOF 12
ENDMDL
