MODEL 1
REMARK VINA RESULT:    -4.408      0.000      0.000
REMARK INTER + INTRA:          -4.795
REMARK INTER:                  -4.666
REMARK INTRA:                  -0.129
REMARK UNBOUND:                -0.129
REMARK SMILES C=C(C)[C@@H]1CC=C(C)CC1
REMARK SMILES IDX 8 1 7 2 6 3 5 4 4 5 10 6 9 7 2 8 1 9 3 10
REMARK H PARENT
REMARK Flexibility Score: inf
ROOT
ATOM      1  C   UNL     1      32.752  11.513  30.982  1.00  0.00     0.039 C 
ATOM      2  C   UNL     1      32.422  10.785  32.255  1.00  0.00    -0.077 C 
ATOM      3  C   UNL     1      32.270   9.443  32.224  1.00  0.00    -0.027 C 
ATOM      4  C   UNL     1      31.992   8.618  33.456  1.00  0.00     0.035 C 
ATOM      5  C   UNL     1      31.364   9.453  34.585  1.00  0.00     0.018 C 
ATOM      6  C   UNL     1      32.169  10.747  34.787  1.00  0.00     0.013 C 
ATOM      7  C   UNL     1      32.140  11.593  33.508  1.00  0.00     0.031 C 
ENDROOT
BRANCH   5   8
ATOM      8  C   UNL     1      31.250   8.653  35.877  1.00  0.00    -0.077 C 
ATOM      9  C   UNL     1      31.156   9.262  37.071  1.00  0.00     0.008 C 
ATOM     10  C   UNL     1      31.237   7.147  35.833  1.00  0.00     0.039 C 
ENDBRANCH   5   8
TORSDOF 1
ENDMDL
MODEL 2
REMARK VINA RESULT:    -4.398      1.146      4.361
REMARK INTER + INTRA:          -4.784
REMARK INTER:                  -4.658
REMARK INTRA:                  -0.126
REMARK UNBOUND:                -0.129
REMARK SMILES C=C(C)[C@@H]1CC=C(C)CC1
REMARK SMILES IDX 8 1 7 2 6 3 5 4 4 5 10 6 9 7 2 8 1 9 3 10
REMARK H PARENT
REMARK Flexibility Score: inf
ROOT
ATOM      1  C   UNL     1      30.936   6.740  36.139  1.00  0.00     0.039 C 
ATOM      2  C   UNL     1      31.246   7.685  35.012  1.00  0.00    -0.077 C 
ATOM      3  C   UNL     1      31.628   7.180  33.819  1.00  0.00    -0.027 C 
ATOM      4  C   UNL     1      31.909   8.042  32.613  1.00  0.00     0.035 C 
ATOM      5  C   UNL     1      32.258   9.489  33.001  1.00  0.00     0.018 C 
ATOM      6  C   UNL     1      31.227  10.023  34.008  1.00  0.00     0.013 C 
ATOM      7  C   UNL     1      31.248   9.177  35.287  1.00  0.00     0.031 C 
ENDROOT
BRANCH   5   8
ATOM      8  C   UNL     1      32.368  10.388  31.776  1.00  0.00    -0.077 C 
ATOM      9  C   UNL     1      33.124  11.499  31.789  1.00  0.00     0.008 C 
ATOM     10  C   UNL     1      31.622  10.038  30.514  1.00  0.00     0.039 C 
ENDBRANCH   5   8
TORSDOF 1
ENDMDL
MODEL 3
REMARK VINA RESULT:    -4.266      1.772      3.714
REMARK INTER + INTRA:          -4.645
REMARK INTER:                  -4.515
REMARK INTRA:                  -0.130
REMARK UNBOUND:                -0.129
REMARK SMILES C=C(C)[C@@H]1CC=C(C)CC1
REMARK SMILES IDX 8 1 7 2 6 3 5 4 4 5 10 6 9 7 2 8 1 9 3 10
REMARK H PARENT
REMARK Flexibility Score: inf
ROOT
ATOM      1  C   UNL     1      32.345  11.424  27.512  1.00  0.00     0.039 C 
ATOM      2  C   UNL     1      32.228  11.077  28.970  1.00  0.00    -0.077 C 
ATOM      3  C   UNL     1      32.881  11.833  29.879  1.00  0.00    -0.027 C 
ATOM      4  C   UNL     1      32.783  11.599  31.366  1.00  0.00     0.035 C 
ATOM      5  C   UNL     1      32.361  10.158  31.702  1.00  0.00     0.018 C 
ATOM      6  C   UNL     1      31.140   9.762  30.857  1.00  0.00     0.013 C 
ATOM      7  C   UNL     1      31.488   9.812  29.365  1.00  0.00     0.031 C 
ENDROOT
BRANCH   5   8
ATOM      8  C   UNL     1      32.098   9.983  33.192  1.00  0.00    -0.077 C 
ATOM      9  C   UNL     1      31.557   8.853  33.678  1.00  0.00     0.008 C 
ATOM     10  C   UNL     1      32.448  11.087  34.155  1.00  0.00     0.039 C 
ENDBRANCH   5   8
TORSDOF 1
ENDMDL
MODEL 4
REMARK VINA RESULT:    -4.215      1.206      2.423
REMARK INTER + INTRA:          -4.590
REMARK INTER:                  -4.468
REMARK INTRA:                  -0.122
REMARK UNBOUND:                -0.129
REMARK SMILES C=C(C)[C@@H]1CC=C(C)CC1
REMARK SMILES IDX 8 1 7 2 6 3 5 4 4 5 10 6 9 7 2 8 1 9 3 10
REMARK H PARENT
REMARK Flexibility Score: inf
ROOT
ATOM      1  C   UNL     1      32.866  11.121  32.441  1.00  0.00     0.039 C 
ATOM      2  C   UNL     1      32.245   9.977  33.194  1.00  0.00    -0.077 C 
ATOM      3  C   UNL     1      31.645  10.220  34.379  1.00  0.00    -0.027 C 
ATOM      4  C   UNL     1      30.947   9.150  35.182  1.00  0.00     0.035 C 
ATOM      5  C   UNL     1      31.449   7.739  34.831  1.00  0.00     0.018 C 
ATOM      6  C   UNL     1      31.468   7.556  33.305  1.00  0.00     0.013 C 
ATOM      7  C   UNL     1      32.425   8.567  32.662  1.00  0.00     0.031 C 
ENDROOT
BRANCH   5   8
ATOM      8  C   UNL     1      30.620   6.661  35.517  1.00  0.00    -0.077 C 
ATOM      9  C   UNL     1      30.869   6.288  36.784  1.00  0.00     0.008 C 
ATOM     10  C   UNL     1      29.491   5.992  34.777  1.00  0.00     0.039 C 
ENDBRANCH   5   8
TORSDOF 1
ENDMDL
MODEL 5
REMARK VINA RESULT:    -4.209      2.664      5.919
REMARK INTER + INTRA:          -4.585
REMARK INTER:                  -4.454
REMARK INTRA:                  -0.130
REMARK UNBOUND:                -0.129
REMARK SMILES C=C(C)[C@@H]1CC=C(C)CC1
REMARK SMILES IDX 8 1 7 2 6 3 5 4 4 5 10 6 9 7 2 8 1 9 3 10
REMARK H PARENT
REMARK Flexibility Score: inf
ROOT
ATOM      1  C   UNL     1      32.945  11.027  33.583  1.00  0.00     0.039 C 
ATOM      2  C   UNL     1      32.596  11.018  32.121  1.00  0.00    -0.077 C 
ATOM      3  C   UNL     1      31.989   9.931  31.597  1.00  0.00    -0.027 C 
ATOM      4  C   UNL     1      31.550   9.848  30.156  1.00  0.00     0.035 C 
ATOM      5  C   UNL     1      32.327  10.823  29.255  1.00  0.00     0.018 C 
ATOM      6  C   UNL     1      32.344  12.221  29.893  1.00  0.00     0.013 C 
ATOM      7  C   UNL     1      33.052  12.175  31.252  1.00  0.00     0.031 C 
ENDROOT
BRANCH   5   8
ATOM      8  C   UNL     1      31.758  10.855  27.842  1.00  0.00    -0.077 C 
ATOM      9  C   UNL     1      30.699  10.102  27.497  1.00  0.00     0.008 C 
ATOM     10  C   UNL     1      32.381  11.744  26.797  1.00  0.00     0.039 C 
ENDBRANCH   5   8
TORSDOF 1
ENDMDL
MODEL 6
REMARK VINA RESULT:    -4.187      1.487      2.712
REMARK INTER + INTRA:          -4.562
REMARK INTER:                  -4.436
REMARK INTRA:                  -0.126
REMARK UNBOUND:                -0.129
REMARK SMILES C=C(C)[C@@H]1CC=C(C)CC1
REMARK SMILES IDX 8 1 7 2 6 3 5 4 4 5 10 6 9 7 2 8 1 9 3 10
REMARK H PARENT
REMARK Flexibility Score: inf
ROOT
ATOM      1  C   UNL     1      32.018  12.060  28.420  1.00  0.00     0.039 C 
ATOM      2  C   UNL     1      31.996  11.208  29.659  1.00  0.00    -0.077 C 
ATOM      3  C   UNL     1      31.359  10.018  29.626  1.00  0.00    -0.027 C 
ATOM      4  C   UNL     1      31.328   9.069  30.799  1.00  0.00     0.035 C 
ATOM      5  C   UNL     1      31.579   9.789  32.135  1.00  0.00     0.018 C 
ATOM      6  C   UNL     1      32.811  10.699  32.015  1.00  0.00     0.013 C 
ATOM      7  C   UNL     1      32.576  11.770  30.943  1.00  0.00     0.031 C 
ENDROOT
BRANCH   5   8
ATOM      8  C   UNL     1      31.717   8.801  33.286  1.00  0.00    -0.077 C 
ATOM      9  C   UNL     1      31.358   9.131  34.539  1.00  0.00     0.008 C 
ATOM     10  C   UNL     1      32.263   7.419  33.034  1.00  0.00     0.039 C 
ENDBRANCH   5   8
TORSDOF 1
ENDMDL
MODEL 7
REMARK VINA RESULT:    -4.161      2.496      5.646
REMARK INTER + INTRA:          -4.534
REMARK INTER:                  -4.404
REMARK INTRA:                  -0.130
REMARK UNBOUND:                -0.129
REMARK SMILES C=C(C)[C@@H]1CC=C(C)CC1
REMARK SMILES IDX 8 1 7 2 6 3 5 4 4 5 10 6 9 7 2 8 1 9 3 10
REMARK H PARENT
REMARK Flexibility Score: inf
ROOT
ATOM      1  C   UNL     1      32.853  11.164  33.919  1.00  0.00     0.039 C 
ATOM      2  C   UNL     1      32.536  10.885  32.476  1.00  0.00    -0.077 C 
ATOM      3  C   UNL     1      33.075  11.673  31.521  1.00  0.00    -0.027 C 
ATOM      4  C   UNL     1      32.861  11.441  30.046  1.00  0.00     0.035 C 
ATOM      5  C   UNL     1      31.587  10.627  29.764  1.00  0.00     0.018 C 
ATOM      6  C   UNL     1      31.549   9.387  30.671  1.00  0.00     0.013 C 
ATOM      7  C   UNL     1      31.518   9.810  32.145  1.00  0.00     0.031 C 
ENDROOT
BRANCH   5   8
ATOM      8  C   UNL     1      31.475  10.253  28.292  1.00  0.00    -0.077 C 
ATOM      9  C   UNL     1      30.660   9.266  27.881  1.00  0.00     0.008 C 
ATOM     10  C   UNL     1      32.285  10.994  27.260  1.00  0.00     0.039 C 
ENDBRANCH   5   8
TORSDOF 1
ENDMDL
MODEL 8
REMARK VINA RESULT:    -4.142      1.298      4.707
REMARK INTER + INTRA:          -4.513
REMARK INTER:                  -4.384
REMARK INTRA:                  -0.129
REMARK UNBOUND:                -0.129
REMARK SMILES C=C(C)[C@@H]1CC=C(C)CC1
REMARK SMILES IDX 8 1 7 2 6 3 5 4 4 5 10 6 9 7 2 8 1 9 3 10
REMARK H PARENT
REMARK Flexibility Score: inf
ROOT
ATOM      1  C   UNL     1      30.498   9.299  38.872  1.00  0.00     0.039 C 
ATOM      2  C   UNL     1      30.875   9.095  37.431  1.00  0.00    -0.077 C 
ATOM      3  C   UNL     1      31.165  10.171  36.669  1.00  0.00    -0.027 C 
ATOM      4  C   UNL     1      31.606  10.066  35.230  1.00  0.00     0.035 C 
ATOM      5  C   UNL     1      31.166   8.741  34.583  1.00  0.00     0.018 C 
ATOM      6  C   UNL     1      31.526   7.565  35.504  1.00  0.00     0.013 C 
ATOM      7  C   UNL     1      30.792   7.698  36.844  1.00  0.00     0.031 C 
ENDROOT
BRANCH   5   8
ATOM      8  C   UNL     1      31.763   8.572  33.192  1.00  0.00    -0.077 C 
ATOM      9  C   UNL     1      31.482   7.496  32.436  1.00  0.00     0.008 C 
ATOM     10  C   UNL     1      32.687   9.623  32.634  1.00  0.00     0.039 C 
ENDBRANCH   5   8
TORSDOF 1
ENDMDL
MODEL 9
REMARK VINA RESULT:    -4.099      1.148      2.305
REMARK INTER + INTRA:          -4.469
REMARK INTER:                  -4.340
REMARK INTRA:                  -0.129
REMARK UNBOUND:                -0.129
REMARK SMILES C=C(C)[C@@H]1CC=C(C)CC1
REMARK SMILES IDX 8 1 7 2 6 3 5 4 4 5 10 6 9 7 2 8 1 9 3 10
REMARK H PARENT
REMARK Flexibility Score: inf
ROOT
ATOM      1  C   UNL     1      33.024  12.403  30.862  1.00  0.00     0.039 C 
ATOM      2  C   UNL     1      32.491  11.282  31.710  1.00  0.00    -0.077 C 
ATOM      3  C   UNL     1      32.549  11.393  33.055  1.00  0.00    -0.027 C 
ATOM      4  C   UNL     1      31.992  10.348  33.991  1.00  0.00     0.035 C 
ATOM      5  C   UNL     1      31.880   8.968  33.321  1.00  0.00     0.018 C 
ATOM      6  C   UNL     1      31.194   9.106  31.953  1.00  0.00     0.013 C 
ATOM      7  C   UNL     1      32.026  10.007  31.032  1.00  0.00     0.031 C 
ENDROOT
BRANCH   5   8
ATOM      8  C   UNL     1      31.158   7.968  34.215  1.00  0.00    -0.077 C 
ATOM      9  C   UNL     1      30.460   6.943  33.697  1.00  0.00     0.008 C 
ATOM     10  C   UNL     1      31.219   8.114  35.713  1.00  0.00     0.039 C 
ENDBRANCH   5   8
TORSDOF 1
ENDMDL
