MODEL 1
REMARK VINA RESULT:    -5.608      0.000      0.000
REMARK INTER + INTRA:          -7.344
REMARK INTER:                  -6.920
REMARK INTRA:                  -0.424
REMARK UNBOUND:                -0.424
REMARK SMILES COc1ccc(-c2cc3cc(O)c(OC)cc3o2)c(O)c1
REMARK SMILES IDX 7 1 8 2 9 3 10 4 11 5 13 6 16 7 17 8 18 9 6 10 3 11 21 12
REMARK SMILES IDX 4 13 19 14 5 15 2 16 1 17 20 18 12 20 14 22 15 23
REMARK H PARENT 20 19 12 21
REMARK Flexibility Score: inf
ROOT
ATOM      1  C   UNL     1     -15.172  19.218  61.345  1.00  0.00     0.139 A 
ATOM      2  C   UNL     1     -15.549  18.435  60.251  1.00  0.00     0.060 A 
ATOM      3  C   UNL     1     -15.530  19.302  59.185  1.00  0.00     0.025 A 
ATOM      4  C   UNL     1     -15.822  19.099  57.840  1.00  0.00     0.062 A 
ATOM      5  C   UNL     1     -15.720  20.198  56.967  1.00  0.00     0.158 A 
ATOM      6  C   UNL     1     -15.333  21.477  57.460  1.00  0.00     0.164 A 
ATOM      7  C   UNL     1     -15.050  21.637  58.840  1.00  0.00     0.098 A 
ATOM      8  C   UNL     1     -15.161  20.524  59.667  1.00  0.00     0.138 A 
ATOM      9  O   UNL     1     -14.952  20.464  60.959  1.00  0.00    -0.456 OA
ENDROOT
BRANCH   1  10
ATOM     10  C   UNL     1     -15.051  18.778  62.756  1.00  0.00     0.059 A 
ATOM     11  C   UNL     1     -14.906  17.867  65.426  1.00  0.00     0.122 A 
ATOM     12  C   UNL     1     -13.955  18.779  64.934  1.00  0.00     0.093 A 
ATOM     13  C   UNL     1     -15.929  17.428  64.581  1.00  0.00     0.047 A 
ATOM     14  C   UNL     1     -14.028  19.244  63.611  1.00  0.00     0.130 A 
ATOM     15  C   UNL     1     -16.005  17.881  63.263  1.00  0.00     0.020 A 
BRANCH  11  16
ATOM     16  O   UNL     1     -14.871  17.379  66.740  1.00  0.00    -0.497 OA
ATOM     17  C   UNL     1     -15.290  16.073  67.125  1.00  0.00     0.278 C 
ENDBRANCH  11  16
BRANCH  14  18
ATOM     18  O   UNL     1     -13.099  20.183  63.166  1.00  0.00    -0.507 OA
ATOM     19  H   UNL     1     -13.382  21.098  62.834  1.00  0.00     0.293 HD
ENDBRANCH  14  18
ENDBRANCH   1  10
BRANCH   5  20
ATOM     20  O   UNL     1     -16.007  20.009  55.616  1.00  0.00    -0.504 OA
ATOM     21  H   UNL     1     -16.359  19.130  55.256  1.00  0.00     0.293 HD
ENDBRANCH   5  20
BRANCH   6  22
ATOM     22  O   UNL     1     -15.244  22.548  56.558  1.00  0.00    -0.493 OA
ATOM     23  C   UNL     1     -16.355  23.125  55.880  1.00  0.00     0.278 C 
ENDBRANCH   6  22
TORSDOF 5
ENDMDL
MODEL 2
REMARK VINA RESULT:    -5.526      1.476      7.967
REMARK INTER + INTRA:          -7.242
REMARK INTER:                  -6.644
REMARK INTRA:                  -0.598
REMARK UNBOUND:                -0.424
REMARK SMILES COc1ccc(-c2cc3cc(O)c(OC)cc3o2)c(O)c1
REMARK SMILES IDX 7 1 8 2 9 3 10 4 11 5 13 6 16 7 17 8 18 9 6 10 3 11 21 12
REMARK SMILES IDX 4 13 19 14 5 15 2 16 1 17 20 18 12 20 14 22 15 23
REMARK H PARENT 20 19 12 21
REMARK Flexibility Score: inf
ROOT
ATOM      1  C   UNL     1     -15.254  19.671  61.474  1.00  0.00     0.139 A 
ATOM      2  C   UNL     1     -14.220  20.028  62.342  1.00  0.00     0.060 A 
ATOM      3  C   UNL     1     -14.391  19.213  63.435  1.00  0.00     0.025 A 
ATOM      4  C   UNL     1     -13.670  19.117  64.621  1.00  0.00     0.062 A 
ATOM      5  C   UNL     1     -14.094  18.176  65.579  1.00  0.00     0.158 A 
ATOM      6  C   UNL     1     -15.230  17.355  65.329  1.00  0.00     0.164 A 
ATOM      7  C   UNL     1     -15.936  17.491  64.107  1.00  0.00     0.098 A 
ATOM      8  C   UNL     1     -15.483  18.432  63.188  1.00  0.00     0.138 A 
ATOM      9  O   UNL     1     -15.993  18.716  62.016  1.00  0.00    -0.456 OA
ENDROOT
BRANCH   1  10
ATOM     10  C   UNL     1     -15.548  20.261  60.146  1.00  0.00     0.059 A 
ATOM     11  C   UNL     1     -15.998  21.408  57.604  1.00  0.00     0.122 A 
ATOM     12  C   UNL     1     -17.046  20.769  58.290  1.00  0.00     0.093 A 
ATOM     13  C   UNL     1     -14.736  21.478  58.201  1.00  0.00     0.047 A 
ATOM     14  C   UNL     1     -16.832  20.207  59.559  1.00  0.00     0.130 A 
ATOM     15  C   UNL     1     -14.514  20.916  59.459  1.00  0.00     0.020 A 
BRANCH  11  16
ATOM     16  O   UNL     1     -16.168  21.985  56.337  1.00  0.00    -0.497 OA
ATOM     17  C   UNL     1     -16.467  21.252  55.153  1.00  0.00     0.278 C 
ENDBRANCH  11  16
BRANCH  14  18
ATOM     18  O   UNL     1     -17.901  19.622  60.235  1.00  0.00    -0.507 OA
ATOM     19  H   UNL     1     -18.785  20.102  60.354  1.00  0.00     0.293 HD
ENDBRANCH  14  18
ENDBRANCH   1  10
BRANCH   5  20
ATOM     20  O   UNL     1     -13.380  18.068  66.772  1.00  0.00    -0.504 OA
ATOM     21  H   UNL     1     -13.202  17.174  67.215  1.00  0.00     0.293 HD
ENDBRANCH   5  20
BRANCH   6  22
ATOM     22  O   UNL     1     -15.621  16.430  66.309  1.00  0.00    -0.493 OA
ATOM     23  C   UNL     1     -15.500  15.017  66.175  1.00  0.00     0.278 C 
ENDBRANCH   6  22
TORSDOF 5
ENDMDL
MODEL 3
REMARK VINA RESULT:    -5.497      1.726      7.923
REMARK INTER + INTRA:          -7.206
REMARK INTER:                  -6.597
REMARK INTRA:                  -0.609
REMARK UNBOUND:                -0.424
REMARK SMILES COc1ccc(-c2cc3cc(O)c(OC)cc3o2)c(O)c1
REMARK SMILES IDX 7 1 8 2 9 3 10 4 11 5 13 6 16 7 17 8 18 9 6 10 3 11 21 12
REMARK SMILES IDX 4 13 19 14 5 15 2 16 1 17 20 18 12 20 14 22 15 23
REMARK H PARENT 20 19 12 21
REMARK Flexibility Score: inf
ROOT
ATOM      1  C   UNL     1     -16.341  19.343  61.438  1.00  0.00     0.139 A 
ATOM      2  C   UNL     1     -17.371  19.766  62.282  1.00  0.00     0.060 A 
ATOM      3  C   UNL     1     -17.002  19.315  63.527  1.00  0.00     0.025 A 
ATOM      4  C   UNL     1     -17.635  19.427  64.760  1.00  0.00     0.062 A 
ATOM      5  C   UNL     1     -17.010  18.847  65.880  1.00  0.00     0.158 A 
ATOM      6  C   UNL     1     -15.768  18.165  65.740  1.00  0.00     0.164 A 
ATOM      7  C   UNL     1     -15.162  18.072  64.462  1.00  0.00     0.098 A 
ATOM      8  C   UNL     1     -15.813  18.661  63.382  1.00  0.00     0.138 A 
ATOM      9  O   UNL     1     -15.428  18.681  62.130  1.00  0.00    -0.456 OA
ENDROOT
BRANCH   1  10
ATOM     10  C   UNL     1     -16.247  19.549  59.973  1.00  0.00     0.059 A 
ATOM     11  C   UNL     1     -16.110  20.048  57.195  1.00  0.00     0.122 A 
ATOM     12  C   UNL     1     -15.590  18.855  57.730  1.00  0.00     0.093 A 
ATOM     13  C   UNL     1     -16.705  20.976  58.054  1.00  0.00     0.047 A 
ATOM     14  C   UNL     1     -15.665  18.597  59.107  1.00  0.00     0.130 A 
ATOM     15  C   UNL     1     -16.778  20.729  59.426  1.00  0.00     0.020 A 
BRANCH  11  16
ATOM     16  O   UNL     1     -16.057  20.346  55.826  1.00  0.00    -0.497 OA
ATOM     17  C   UNL     1     -16.517  21.564  55.249  1.00  0.00     0.278 C 
ENDBRANCH  11  16
BRANCH  14  18
ATOM     18  O   UNL     1     -15.184  17.385  59.601  1.00  0.00    -0.507 OA
ATOM     19  H   UNL     1     -15.090  16.567  59.011  1.00  0.00     0.293 HD
ENDBRANCH  14  18
ENDBRANCH   1  10
BRANCH   5  20
ATOM     20  O   UNL     1     -17.632  18.953  67.124  1.00  0.00    -0.504 OA
ATOM     21  H   UNL     1     -17.442  18.306  67.880  1.00  0.00     0.293 HD
ENDBRANCH   5  20
BRANCH   6  22
ATOM     22  O   UNL     1     -15.177  17.600  66.881  1.00  0.00    -0.493 OA
ATOM     23  C   UNL     1     -14.492  16.352  66.897  1.00  0.00     0.278 C 
ENDBRANCH   6  22
TORSDOF 5
ENDMDL
MODEL 4
REMARK VINA RESULT:    -5.343     12.422     15.571
REMARK INTER + INTRA:          -7.016
REMARK INTER:                  -6.605
REMARK INTRA:                  -0.410
REMARK UNBOUND:                -0.424
REMARK SMILES COc1ccc(-c2cc3cc(O)c(OC)cc3o2)c(O)c1
REMARK SMILES IDX 7 1 8 2 9 3 10 4 11 5 13 6 16 7 17 8 18 9 6 10 3 11 21 12
REMARK SMILES IDX 4 13 19 14 5 15 2 16 1 17 20 18 12 20 14 22 15 23
REMARK H PARENT 20 19 12 21
REMARK Flexibility Score: inf
ROOT
ATOM      1  C   UNL     1     -21.484  20.672  48.105  1.00  0.00     0.139 A 
ATOM      2  C   UNL     1     -20.776  20.871  49.293  1.00  0.00     0.060 A 
ATOM      3  C   UNL     1     -19.455  20.809  48.919  1.00  0.00     0.025 A 
ATOM      4  C   UNL     1     -18.290  20.928  49.671  1.00  0.00     0.062 A 
ATOM      5  C   UNL     1     -17.057  20.811  49.002  1.00  0.00     0.158 A 
ATOM      6  C   UNL     1     -17.017  20.574  47.599  1.00  0.00     0.164 A 
ATOM      7  C   UNL     1     -18.230  20.456  46.875  1.00  0.00     0.098 A 
ATOM      8  C   UNL     1     -19.427  20.580  47.574  1.00  0.00     0.138 A 
ATOM      9  O   UNL     1     -20.644  20.496  47.098  1.00  0.00    -0.456 OA
ENDROOT
BRANCH   1  10
ATOM     10  C   UNL     1     -22.957  20.622  47.943  1.00  0.00     0.059 A 
ATOM     11  C   UNL     1     -25.765  20.429  47.692  1.00  0.00     0.122 A 
ATOM     12  C   UNL     1     -25.090  21.582  47.253  1.00  0.00     0.093 A 
ATOM     13  C   UNL     1     -25.028  19.377  48.242  1.00  0.00     0.047 A 
ATOM     14  C   UNL     1     -23.694  21.680  47.365  1.00  0.00     0.130 A 
ATOM     15  C   UNL     1     -23.640  19.469  48.362  1.00  0.00     0.020 A 
BRANCH  11  16
ATOM     16  O   UNL     1     -27.157  20.289  47.598  1.00  0.00    -0.497 OA
ATOM     17  C   UNL     1     -28.028  20.139  48.714  1.00  0.00     0.278 C 
ENDBRANCH  11  16
BRANCH  14  18
ATOM     18  O   UNL     1     -23.048  22.815  46.878  1.00  0.00    -0.507 OA
ATOM     19  H   UNL     1     -23.562  23.599  46.495  1.00  0.00     0.293 HD
ENDBRANCH  14  18
ENDBRANCH   1  10
BRANCH   5  20
ATOM     20  O   UNL     1     -15.881  20.929  49.742  1.00  0.00    -0.504 OA
ATOM     21  H   UNL     1     -15.551  21.821  50.093  1.00  0.00     0.293 HD
ENDBRANCH   5  20
BRANCH   6  22
ATOM     22  O   UNL     1     -15.768  20.463  46.969  1.00  0.00    -0.493 OA
ATOM     23  C   UNL     1     -14.985  19.274  46.938  1.00  0.00     0.278 C 
ENDBRANCH   6  22
TORSDOF 5
ENDMDL
MODEL 5
REMARK VINA RESULT:    -5.317      1.895      7.759
REMARK INTER + INTRA:          -6.984
REMARK INTER:                  -6.624
REMARK INTRA:                  -0.361
REMARK UNBOUND:                -0.424
REMARK SMILES COc1ccc(-c2cc3cc(O)c(OC)cc3o2)c(O)c1
REMARK SMILES IDX 7 1 8 2 9 3 10 4 11 5 13 6 16 7 17 8 18 9 6 10 3 11 21 12
REMARK SMILES IDX 4 13 19 14 5 15 2 16 1 17 20 18 12 20 14 22 15 23
REMARK H PARENT 20 19 12 21
REMARK Flexibility Score: inf
ROOT
ATOM      1  C   UNL     1     -16.272  19.643  61.574  1.00  0.00     0.139 A 
ATOM      2  C   UNL     1     -15.473  18.640  62.128  1.00  0.00     0.060 A 
ATOM      3  C   UNL     1     -15.987  18.446  63.387  1.00  0.00     0.025 A 
ATOM      4  C   UNL     1     -15.600  17.582  64.406  1.00  0.00     0.062 A 
ATOM      5  C   UNL     1     -16.325  17.614  65.612  1.00  0.00     0.158 A 
ATOM      6  C   UNL     1     -17.418  18.511  65.773  1.00  0.00     0.164 A 
ATOM      7  C   UNL     1     -17.774  19.377  64.708  1.00  0.00     0.098 A 
ATOM      8  C   UNL     1     -17.032  19.313  63.533  1.00  0.00     0.138 A 
ATOM      9  O   UNL     1     -17.192  20.025  62.446  1.00  0.00    -0.456 OA
ENDROOT
BRANCH   1  10
ATOM     10  C   UNL     1     -16.137  20.251  60.229  1.00  0.00     0.059 A 
ATOM     11  C   UNL     1     -15.978  21.361  57.636  1.00  0.00     0.122 A 
ATOM     12  C   UNL     1     -15.033  21.710  58.617  1.00  0.00     0.093 A 
ATOM     13  C   UNL     1     -16.988  20.450  57.957  1.00  0.00     0.047 A 
ATOM     14  C   UNL     1     -15.100  21.153  59.904  1.00  0.00     0.130 A 
ATOM     15  C   UNL     1     -17.065  19.897  59.236  1.00  0.00     0.020 A 
BRANCH  11  16
ATOM     16  O   UNL     1     -15.947  21.891  56.338  1.00  0.00    -0.497 OA
ATOM     17  C   UNL     1     -16.409  21.207  55.178  1.00  0.00     0.278 C 
ENDBRANCH  11  16
BRANCH  14  18
ATOM     18  O   UNL     1     -14.121  21.482  60.841  1.00  0.00    -0.507 OA
ATOM     19  H   UNL     1     -14.338  22.015  61.675  1.00  0.00     0.293 HD
ENDBRANCH  14  18
ENDBRANCH   1  10
BRANCH   5  20
ATOM     20  O   UNL     1     -15.950  16.751  66.641  1.00  0.00    -0.504 OA
ATOM     21  H   UNL     1     -14.981  16.612  66.904  1.00  0.00     0.293 HD
ENDBRANCH   5  20
BRANCH   6  22
ATOM     22  O   UNL     1     -18.116  18.513  66.991  1.00  0.00    -0.493 OA
ATOM     23  C   UNL     1     -19.519  18.720  67.114  1.00  0.00     0.278 C 
ENDBRANCH   6  22
TORSDOF 5
ENDMDL
MODEL 6
REMARK VINA RESULT:    -5.224      1.403      7.642
REMARK INTER + INTRA:          -6.869
REMARK INTER:                  -6.273
REMARK INTRA:                  -0.595
REMARK UNBOUND:                -0.424
REMARK SMILES COc1ccc(-c2cc3cc(O)c(OC)cc3o2)c(O)c1
REMARK SMILES IDX 7 1 8 2 9 3 10 4 11 5 13 6 16 7 17 8 18 9 6 10 3 11 21 12
REMARK SMILES IDX 4 13 19 14 5 15 2 16 1 17 20 18 12 20 14 22 15 23
REMARK H PARENT 20 19 12 21
REMARK Flexibility Score: inf
ROOT
ATOM      1  C   UNL     1     -15.378  19.604  61.451  1.00  0.00     0.139 A 
ATOM      2  C   UNL     1     -15.997  18.591  62.187  1.00  0.00     0.060 A 
ATOM      3  C   UNL     1     -15.335  18.587  63.391  1.00  0.00     0.025 A 
ATOM      4  C   UNL     1     -15.504  17.792  64.520  1.00  0.00     0.062 A 
ATOM      5  C   UNL     1     -14.657  18.019  65.621  1.00  0.00     0.158 A 
ATOM      6  C   UNL     1     -13.659  19.033  65.567  1.00  0.00     0.164 A 
ATOM      7  C   UNL     1     -13.521  19.816  64.393  1.00  0.00     0.098 A 
ATOM      8  C   UNL     1     -14.380  19.560  63.328  1.00  0.00     0.138 A 
ATOM      9  O   UNL     1     -14.411  20.159  62.164  1.00  0.00    -0.456 OA
ENDROOT
BRANCH   1  10
ATOM     10  C   UNL     1     -15.693  20.018  60.063  1.00  0.00     0.059 A 
ATOM     11  C   UNL     1     -16.406  20.796  57.442  1.00  0.00     0.122 A 
ATOM     12  C   UNL     1     -15.066  20.864  57.864  1.00  0.00     0.093 A 
ATOM     13  C   UNL     1     -17.376  20.327  58.331  1.00  0.00     0.047 A 
ATOM     14  C   UNL     1     -14.704  20.470  59.161  1.00  0.00     0.130 A 
ATOM     15  C   UNL     1     -17.025  19.938  59.625  1.00  0.00     0.020 A 
BRANCH  11  16
ATOM     16  O   UNL     1     -16.811  21.178  56.155  1.00  0.00    -0.497 OA
ATOM     17  C   UNL     1     -16.420  22.388  55.514  1.00  0.00     0.278 C 
ENDBRANCH  11  16
BRANCH  14  18
ATOM     18  O   UNL     1     -13.361  20.505  59.536  1.00  0.00    -0.507 OA
ATOM     19  H   UNL     1     -12.831  19.658  59.702  1.00  0.00     0.293 HD
ENDBRANCH  14  18
ENDBRANCH   1  10
BRANCH   5  20
ATOM     20  O   UNL     1     -14.816  17.232  66.761  1.00  0.00    -0.504 OA
ATOM     21  H   UNL     1     -15.502  16.488  66.813  1.00  0.00     0.293 HD
ENDBRANCH   5  20
BRANCH   6  22
ATOM     22  O   UNL     1     -12.834  19.228  66.686  1.00  0.00    -0.493 OA
ATOM     23  C   UNL     1     -11.875  20.274  66.806  1.00  0.00     0.278 C 
ENDBRANCH   6  22
TORSDOF 5
ENDMDL
MODEL 7
REMARK VINA RESULT:    -5.119     14.564     16.890
REMARK INTER + INTRA:          -6.740
REMARK INTER:                  -6.152
REMARK INTRA:                  -0.588
REMARK UNBOUND:                -0.424
REMARK SMILES COc1ccc(-c2cc3cc(O)c(OC)cc3o2)c(O)c1
REMARK SMILES IDX 7 1 8 2 9 3 10 4 11 5 13 6 16 7 17 8 18 9 6 10 3 11 21 12
REMARK SMILES IDX 4 13 19 14 5 15 2 16 1 17 20 18 12 20 14 22 15 23
REMARK H PARENT 20 19 12 21
REMARK Flexibility Score: inf
ROOT
ATOM      1  C   UNL     1     -22.944  20.310  47.430  1.00  0.00     0.139 A 
ATOM      2  C   UNL     1     -23.959  21.207  47.772  1.00  0.00     0.060 A 
ATOM      3  C   UNL     1     -25.109  20.456  47.735  1.00  0.00     0.025 A 
ATOM      4  C   UNL     1     -26.433  20.806  47.976  1.00  0.00     0.062 A 
ATOM      5  C   UNL     1     -27.415  19.805  47.852  1.00  0.00     0.158 A 
ATOM      6  C   UNL     1     -27.050  18.478  47.487  1.00  0.00     0.164 A 
ATOM      7  C   UNL     1     -25.688  18.169  47.247  1.00  0.00     0.098 A 
ATOM      8  C   UNL     1     -24.749  19.187  47.382  1.00  0.00     0.138 A 
ATOM      9  O   UNL     1     -23.455  19.112  47.199  1.00  0.00    -0.456 OA
ENDROOT
BRANCH   1  10
ATOM     10  C   UNL     1     -21.497  20.608  47.300  1.00  0.00     0.059 A 
ATOM     11  C   UNL     1     -18.767  21.286  47.043  1.00  0.00     0.122 A 
ATOM     12  C   UNL     1     -19.147  19.961  47.324  1.00  0.00     0.093 A 
ATOM     13  C   UNL     1     -19.758  22.258  46.881  1.00  0.00     0.047 A 
ATOM     14  C   UNL     1     -20.502  19.616  47.442  1.00  0.00     0.130 A 
ATOM     15  C   UNL     1     -21.107  21.924  47.003  1.00  0.00     0.020 A 
BRANCH  11  16
ATOM     16  O   UNL     1     -17.425  21.675  46.915  1.00  0.00    -0.497 OA
ATOM     17  C   UNL     1     -16.314  20.858  47.270  1.00  0.00     0.278 C 
ENDBRANCH  11  16
BRANCH  14  18
ATOM     18  O   UNL     1     -20.849  18.286  47.674  1.00  0.00    -0.507 OA
ATOM     19  H   UNL     1     -21.718  17.893  47.332  1.00  0.00     0.293 HD
ENDBRANCH  14  18
ENDBRANCH   1  10
BRANCH   5  20
ATOM     20  O   UNL     1     -28.747  20.140  48.092  1.00  0.00    -0.504 OA
ATOM     21  H   UNL     1     -29.148  20.127  49.022  1.00  0.00     0.293 HD
ENDBRANCH   5  20
BRANCH   6  22
ATOM     22  O   UNL     1     -28.058  17.508  47.373  1.00  0.00    -0.493 OA
ATOM     23  C   UNL     1     -27.869  16.117  47.614  1.00  0.00     0.278 C 
ENDBRANCH   6  22
TORSDOF 5
ENDMDL
MODEL 8
REMARK VINA RESULT:    -4.874      0.924      1.730
REMARK INTER + INTRA:          -6.437
REMARK INTER:                  -6.558
REMARK INTRA:                   0.120
REMARK UNBOUND:                -0.424
REMARK SMILES COc1ccc(-c2cc3cc(O)c(OC)cc3o2)c(O)c1
REMARK SMILES IDX 7 1 8 2 9 3 10 4 11 5 13 6 16 7 17 8 18 9 6 10 3 11 21 12
REMARK SMILES IDX 4 13 19 14 5 15 2 16 1 17 20 18 12 20 14 22 15 23
REMARK H PARENT 20 19 12 21
REMARK Flexibility Score: inf
ROOT
ATOM      1  C   UNL     1     -15.036  19.581  61.885  1.00  0.00     0.139 A 
ATOM      2  C   UNL     1     -14.912  20.946  61.616  1.00  0.00     0.060 A 
ATOM      3  C   UNL     1     -15.086  21.046  60.257  1.00  0.00     0.025 A 
ATOM      4  C   UNL     1     -15.063  22.153  59.415  1.00  0.00     0.062 A 
ATOM      5  C   UNL     1     -15.270  21.941  58.038  1.00  0.00     0.158 A 
ATOM      6  C   UNL     1     -15.492  20.628  57.536  1.00  0.00     0.164 A 
ATOM      7  C   UNL     1     -15.503  19.530  58.432  1.00  0.00     0.098 A 
ATOM      8  C   UNL     1     -15.295  19.782  59.784  1.00  0.00     0.138 A 
ATOM      9  O   UNL     1     -15.260  18.914  60.764  1.00  0.00    -0.456 OA
ENDROOT
BRANCH   1  10
ATOM     10  C   UNL     1     -14.911  18.917  63.205  1.00  0.00     0.059 A 
ATOM     11  C   UNL     1     -14.775  17.600  65.701  1.00  0.00     0.122 A 
ATOM     12  C   UNL     1     -13.687  18.362  65.239  1.00  0.00     0.093 A 
ATOM     13  C   UNL     1     -15.927  17.513  64.915  1.00  0.00     0.047 A 
ATOM     14  C   UNL     1     -13.752  19.028  64.005  1.00  0.00     0.130 A 
ATOM     15  C   UNL     1     -15.998  18.167  63.684  1.00  0.00     0.020 A 
BRANCH  11  16
ATOM     16  O   UNL     1     -14.752  16.921  66.927  1.00  0.00    -0.497 OA
ATOM     17  C   UNL     1     -14.695  15.505  67.062  1.00  0.00     0.278 C 
ENDBRANCH  11  16
BRANCH  14  18
ATOM     18  O   UNL     1     -12.676  19.813  63.595  1.00  0.00    -0.507 OA
ATOM     19  H   UNL     1     -12.789  20.791  63.356  1.00  0.00     0.293 HD
ENDBRANCH  14  18
ENDBRANCH   1  10
BRANCH   5  20
ATOM     20  O   UNL     1     -15.253  23.042  57.182  1.00  0.00    -0.504 OA
ATOM     21  H   UNL     1     -15.567  23.959  57.475  1.00  0.00     0.293 HD
ENDBRANCH   5  20
BRANCH   6  22
ATOM     22  O   UNL     1     -15.695  20.459  56.157  1.00  0.00    -0.493 OA
ATOM     23  C   UNL     1     -16.682  21.149  55.397  1.00  0.00     0.278 C 
ENDBRANCH   6  22
TORSDOF 5
ENDMDL
MODEL 9
REMARK VINA RESULT:    -4.696     12.116     15.175
REMARK INTER + INTRA:          -6.217
REMARK INTER:                  -5.863
REMARK INTRA:                  -0.355
REMARK UNBOUND:                -0.424
REMARK SMILES COc1ccc(-c2cc3cc(O)c(OC)cc3o2)c(O)c1
REMARK SMILES IDX 7 1 8 2 9 3 10 4 11 5 13 6 16 7 17 8 18 9 6 10 3 11 21 12
REMARK SMILES IDX 4 13 19 14 5 15 2 16 1 17 20 18 12 20 14 22 15 23
REMARK H PARENT 20 19 12 21
REMARK Flexibility Score: inf
ROOT
ATOM      1  C   UNL     1     -21.714  20.334  48.324  1.00  0.00     0.139 A 
ATOM      2  C   UNL     1     -20.958  20.409  47.152  1.00  0.00     0.060 A 
ATOM      3  C   UNL     1     -19.671  20.617  47.585  1.00  0.00     0.025 A 
ATOM      4  C   UNL     1     -18.486  20.781  46.875  1.00  0.00     0.062 A 
ATOM      5  C   UNL     1     -17.301  20.989  47.605  1.00  0.00     0.158 A 
ATOM      6  C   UNL     1     -17.328  21.033  49.027  1.00  0.00     0.164 A 
ATOM      7  C   UNL     1     -18.560  20.866  49.708  1.00  0.00     0.098 A 
ATOM      8  C   UNL     1     -19.708  20.661  48.949  1.00  0.00     0.138 A 
ATOM      9  O   UNL     1     -20.933  20.493  49.380  1.00  0.00    -0.456 OA
ENDROOT
BRANCH   1  10
ATOM     10  C   UNL     1     -23.180  20.138  48.429  1.00  0.00     0.059 A 
ATOM     11  C   UNL     1     -25.987  19.843  48.548  1.00  0.00     0.122 A 
ATOM     12  C   UNL     1     -25.151  18.986  49.286  1.00  0.00     0.093 A 
ATOM     13  C   UNL     1     -25.411  20.847  47.765  1.00  0.00     0.047 A 
ATOM     14  C   UNL     1     -23.756  19.135  49.240  1.00  0.00     0.130 A 
ATOM     15  C   UNL     1     -24.025  20.997  47.709  1.00  0.00     0.020 A 
BRANCH  11  16
ATOM     16  O   UNL     1     -27.385  19.731  48.566  1.00  0.00    -0.497 OA
ATOM     17  C   UNL     1     -28.238  20.127  47.497  1.00  0.00     0.278 C 
ENDBRANCH  11  16
BRANCH  14  18
ATOM     18  O   UNL     1     -22.955  18.301  50.020  1.00  0.00    -0.507 OA
ATOM     19  H   UNL     1     -22.438  17.529  49.618  1.00  0.00     0.293 HD
ENDBRANCH  14  18
ENDBRANCH   1  10
BRANCH   5  20
ATOM     20  O   UNL     1     -16.105  21.152  46.906  1.00  0.00    -0.504 OA
ATOM     21  H   UNL     1     -15.814  22.049  46.534  1.00  0.00     0.293 HD
ENDBRANCH   5  20
BRANCH   6  22
ATOM     22  O   UNL     1     -16.124  21.243  49.719  1.00  0.00    -0.493 OA
ATOM     23  C   UNL     1     -15.005  20.364  49.673  1.00  0.00     0.278 C 
ENDBRANCH   6  22
TORSDOF 5
ENDMDL
