MODEL 1
REMARK VINA RESULT:    -4.427      0.000      0.000
REMARK INTER + INTRA:          -6.973
REMARK INTER:                  -6.238
REMARK INTRA:                  -0.735
REMARK UNBOUND:                -0.735
REMARK SMILES CCCCCCCCC(=O)[O-]
REMARK SMILES IDX 6 1 7 2 8 3 9 4 10 5 11 6 5 7 4 8 3 9 2 10 1 11
REMARK H PARENT
REMARK Flexibility Score: inf
ROOT
ATOM      1  C   UNL     1      61.047   1.826  20.984  1.00  0.00     0.000 C 
ENDROOT
BRANCH   1   2
ATOM      2  C   UNL     1      61.179   3.155  21.750  1.00  0.00     0.006 C 
BRANCH   2   3
ATOM      3  C   UNL     1      61.914   2.982  23.086  1.00  0.00     0.053 C 
BRANCH   3   4
ATOM      4  C   UNL     1      63.393   3.162  22.932  1.00  0.00     0.041 C 
ATOM      5  O   UNL     1      63.880   4.313  22.783  1.00  0.00    -0.550 OA
ATOM      6  O   UNL     1      64.229   2.053  22.918  1.00  0.00    -0.550 OA
ENDBRANCH   3   4
ENDBRANCH   2   3
ENDBRANCH   1   2
BRANCH   1   7
ATOM      7  C   UNL     1      61.663   1.889  19.578  1.00  0.00     0.000 C 
BRANCH   7   8
ATOM      8  C   UNL     1      62.999   1.132  19.485  1.00  0.00    -0.000 C 
BRANCH   8   9
ATOM      9  C   UNL     1      64.211   2.073  19.350  1.00  0.00    -0.000 C 
BRANCH   9  10
ATOM     10  C   UNL     1      63.862   3.561  19.168  1.00  0.00    -0.003 C 
ATOM     11  C   UNL     1      64.922   4.333  18.383  1.00  0.00     0.004 C 
ENDBRANCH   9  10
ENDBRANCH   8   9
ENDBRANCH   7   8
ENDBRANCH   1   7
TORSDOF 7
ENDMDL
MODEL 2
REMARK VINA RESULT:    -4.368      1.333      2.433
REMARK INTER + INTRA:          -6.890
REMARK INTER:                  -6.100
REMARK INTRA:                  -0.790
REMARK UNBOUND:                -0.735
REMARK SMILES CCCCCCCCC(=O)[O-]
REMARK SMILES IDX 6 1 7 2 8 3 9 4 10 5 11 6 5 7 4 8 3 9 2 10 1 11
REMARK H PARENT
REMARK Flexibility Score: inf
ROOT
ATOM      1  C   UNL     1      61.976   4.414  21.869  1.00  0.00     0.000 C 
ENDROOT
BRANCH   1   2
ATOM      2  C   UNL     1      62.688   3.541  22.918  1.00  0.00     0.006 C 
BRANCH   2   3
ATOM      3  C   UNL     1      64.216   3.629  22.804  1.00  0.00     0.053 C 
BRANCH   3   4
ATOM      4  C   UNL     1      64.879   2.362  23.249  1.00  0.00     0.041 C 
ATOM      5  O   UNL     1      64.838   1.335  22.523  1.00  0.00    -0.550 OA
ATOM      6  O   UNL     1      65.513   2.307  24.484  1.00  0.00    -0.550 OA
ENDBRANCH   3   4
ENDBRANCH   2   3
ENDBRANCH   1   2
BRANCH   1   7
ATOM      7  C   UNL     1      60.877   3.652  21.112  1.00  0.00     0.000 C 
BRANCH   7   8
ATOM      8  C   UNL     1      61.172   2.147  21.000  1.00  0.00    -0.000 C 
BRANCH   8   9
ATOM      9  C   UNL     1      61.648   1.734  19.595  1.00  0.00    -0.000 C 
BRANCH   9  10
ATOM     10  C   UNL     1      63.121   1.295  19.512  1.00  0.00    -0.003 C 
ATOM     11  C   UNL     1      64.076   2.452  19.224  1.00  0.00     0.004 C 
ENDBRANCH   9  10
ENDBRANCH   8   9
ENDBRANCH   7   8
ENDBRANCH   1   7
TORSDOF 7
ENDMDL
MODEL 3
REMARK VINA RESULT:    -4.326      2.106      3.763
REMARK INTER + INTRA:          -6.832
REMARK INTER:                  -5.981
REMARK INTRA:                  -0.851
REMARK UNBOUND:                -0.735
REMARK SMILES CCCCCCCCC(=O)[O-]
REMARK SMILES IDX 6 1 7 2 8 3 9 4 10 5 11 6 5 7 4 8 3 9 2 10 1 11
REMARK H PARENT
REMARK Flexibility Score: inf
ROOT
ATOM      1  C   UNL     1      60.970   3.624  20.935  1.00  0.00     0.000 C 
ENDROOT
BRANCH   1   2
ATOM      2  C   UNL     1      61.236   2.900  19.603  1.00  0.00     0.006 C 
BRANCH   2   3
ATOM      3  C   UNL     1      61.909   1.537  19.809  1.00  0.00     0.053 C 
BRANCH   3   4
ATOM      4  C   UNL     1      63.380   1.597  19.532  1.00  0.00     0.041 C 
ATOM      5  O   UNL     1      64.092   0.566  19.655  1.00  0.00    -0.550 OA
ATOM      6  O   UNL     1      63.970   2.802  19.172  1.00  0.00    -0.550 OA
ENDBRANCH   3   4
ENDBRANCH   2   3
ENDBRANCH   1   2
BRANCH   1   7
ATOM      7  C   UNL     1      60.887   2.658  22.128  1.00  0.00     0.000 C 
BRANCH   7   8
ATOM      8  C   UNL     1      61.932   2.969  23.212  1.00  0.00    -0.000 C 
BRANCH   8   9
ATOM      9  C   UNL     1      62.910   4.084  22.799  1.00  0.00    -0.000 C 
BRANCH   9  10
ATOM     10  C   UNL     1      64.379   3.645  22.669  1.00  0.00    -0.003 C 
ATOM     11  C   UNL     1      64.597   2.173  23.017  1.00  0.00     0.004 C 
ENDBRANCH   9  10
ENDBRANCH   8   9
ENDBRANCH   7   8
ENDBRANCH   1   7
TORSDOF 7
ENDMDL
MODEL 4
REMARK VINA RESULT:    -4.301     11.903     13.632
REMARK INTER + INTRA:          -6.796
REMARK INTER:                  -6.195
REMARK INTRA:                  -0.601
REMARK UNBOUND:                -0.735
REMARK SMILES CCCCCCCCC(=O)[O-]
REMARK SMILES IDX 6 1 7 2 8 3 9 4 10 5 11 6 5 7 4 8 3 9 2 10 1 11
REMARK H PARENT
REMARK Flexibility Score: inf
ROOT
ATOM      1  C   UNL     1      77.185   3.046  22.415  1.00  0.00     0.000 C 
ENDROOT
BRANCH   1   2
ATOM      2  C   UNL     1      76.068   2.557  21.477  1.00  0.00     0.006 C 
BRANCH   2   3
ATOM      3  C   UNL     1      74.714   3.201  21.803  1.00  0.00     0.053 C 
BRANCH   3   4
ATOM      4  C   UNL     1      73.624   2.682  20.916  1.00  0.00     0.041 C 
ATOM      5  O   UNL     1      73.879   1.817  20.038  1.00  0.00    -0.550 OA
ATOM      6  O   UNL     1      72.334   3.182  21.036  1.00  0.00    -0.550 OA
ENDBRANCH   3   4
ENDBRANCH   2   3
ENDBRANCH   1   2
BRANCH   1   7
ATOM      7  C   UNL     1      78.507   3.309  21.677  1.00  0.00     0.000 C 
BRANCH   7   8
ATOM      8  C   UNL     1      78.979   4.766  21.816  1.00  0.00    -0.000 C 
BRANCH   8   9
ATOM      9  C   UNL     1      78.184   5.741  20.927  1.00  0.00    -0.000 C 
BRANCH   9  10
ATOM     10  C   UNL     1      77.188   6.641  21.678  1.00  0.00    -0.003 C 
ATOM     11  C   UNL     1      75.794   6.645  21.052  1.00  0.00     0.004 C 
ENDBRANCH   9  10
ENDBRANCH   8   9
ENDBRANCH   7   8
ENDBRANCH   1   7
TORSDOF 7
ENDMDL
MODEL 5
REMARK VINA RESULT:    -4.294     12.571     14.507
REMARK INTER + INTRA:          -6.787
REMARK INTER:                  -6.107
REMARK INTRA:                  -0.680
REMARK UNBOUND:                -0.735
REMARK SMILES CCCCCCCCC(=O)[O-]
REMARK SMILES IDX 6 1 7 2 8 3 9 4 10 5 11 6 5 7 4 8 3 9 2 10 1 11
REMARK H PARENT
REMARK Flexibility Score: inf
ROOT
ATOM      1  C   UNL     1      79.313   4.964  21.516  1.00  0.00     0.000 C 
ENDROOT
BRANCH   1   2
ATOM      2  C   UNL     1      78.657   3.784  22.255  1.00  0.00     0.006 C 
BRANCH   2   3
ATOM      3  C   UNL     1      77.738   2.965  21.339  1.00  0.00     0.053 C 
BRANCH   3   4
ATOM      4  C   UNL     1      76.347   2.876  21.886  1.00  0.00     0.041 C 
ATOM      5  O   UNL     1      75.505   2.104  21.357  1.00  0.00    -0.550 OA
ATOM      6  O   UNL     1      75.970   3.673  22.959  1.00  0.00    -0.550 OA
ENDBRANCH   3   4
ENDBRANCH   2   3
ENDBRANCH   1   2
BRANCH   1   7
ATOM      7  C   UNL     1      78.285   5.880  20.832  1.00  0.00     0.000 C 
BRANCH   7   8
ATOM      8  C   UNL     1      77.713   6.941  21.787  1.00  0.00    -0.000 C 
BRANCH   8   9
ATOM      9  C   UNL     1      76.176   7.015  21.749  1.00  0.00    -0.000 C 
BRANCH   9  10
ATOM     10  C   UNL     1      75.517   6.256  20.584  1.00  0.00    -0.003 C 
ATOM     11  C   UNL     1      74.033   6.581  20.419  1.00  0.00     0.004 C 
ENDBRANCH   9  10
ENDBRANCH   8   9
ENDBRANCH   7   8
ENDBRANCH   1   7
TORSDOF 7
ENDMDL
MODEL 6
REMARK VINA RESULT:    -4.180      1.943      3.146
REMARK INTER + INTRA:          -6.625
REMARK INTER:                  -6.025
REMARK INTRA:                  -0.600
REMARK UNBOUND:                -0.735
REMARK SMILES CCCCCCCCC(=O)[O-]
REMARK SMILES IDX 6 1 7 2 8 3 9 4 10 5 11 6 5 7 4 8 3 9 2 10 1 11
REMARK H PARENT
REMARK Flexibility Score: inf
ROOT
ATOM      1  C   UNL     1      62.338   3.553  23.078  1.00  0.00     0.000 C 
ENDROOT
BRANCH   1   2
ATOM      2  C   UNL     1      63.589   2.692  22.833  1.00  0.00     0.006 C 
BRANCH   2   3
ATOM      3  C   UNL     1      64.864   3.540  22.730  1.00  0.00     0.053 C 
BRANCH   3   4
ATOM      4  C   UNL     1      65.979   2.967  23.549  1.00  0.00     0.041 C 
ATOM      5  O   UNL     1      65.731   2.363  24.625  1.00  0.00    -0.550 OA
ATOM      6  O   UNL     1      67.297   3.132  23.141  1.00  0.00    -0.550 OA
ENDBRANCH   3   4
ENDBRANCH   2   3
ENDBRANCH   1   2
BRANCH   1   7
ATOM      7  C   UNL     1      61.936   4.379  21.845  1.00  0.00     0.000 C 
BRANCH   7   8
ATOM      8  C   UNL     1      60.902   3.658  20.964  1.00  0.00    -0.000 C 
BRANCH   8   9
ATOM      9  C   UNL     1      61.518   3.062  19.685  1.00  0.00    -0.000 C 
BRANCH   9  10
ATOM     10  C   UNL     1      61.791   1.548  19.740  1.00  0.00    -0.003 C 
ATOM     11  C   UNL     1      63.225   1.184  19.359  1.00  0.00     0.004 C 
ENDBRANCH   9  10
ENDBRANCH   8   9
ENDBRANCH   7   8
ENDBRANCH   1   7
TORSDOF 7
ENDMDL
MODEL 7
REMARK VINA RESULT:    -4.166      1.716      3.810
REMARK INTER + INTRA:          -6.606
REMARK INTER:                  -5.969
REMARK INTRA:                  -0.637
REMARK UNBOUND:                -0.735
REMARK SMILES CCCCCCCCC(=O)[O-]
REMARK SMILES IDX 6 1 7 2 8 3 9 4 10 5 11 6 5 7 4 8 3 9 2 10 1 11
REMARK H PARENT
REMARK Flexibility Score: inf
ROOT
ATOM      1  C   UNL     1      63.733   1.859  19.391  1.00  0.00     0.000 C 
ENDROOT
BRANCH   1   2
ATOM      2  C   UNL     1      63.942   3.360  19.124  1.00  0.00     0.006 C 
BRANCH   2   3
ATOM      3  C   UNL     1      65.429   3.735  19.054  1.00  0.00     0.053 C 
BRANCH   3   4
ATOM      4  C   UNL     1      65.843   4.581  20.219  1.00  0.00     0.041 C 
ATOM      5  O   UNL     1      66.945   4.378  20.791  1.00  0.00    -0.550 OA
ATOM      6  O   UNL     1      64.993   5.572  20.694  1.00  0.00    -0.550 OA
ENDBRANCH   3   4
ENDBRANCH   2   3
ENDBRANCH   1   2
BRANCH   1   7
ATOM      7  C   UNL     1      62.305   1.533  19.858  1.00  0.00     0.000 C 
BRANCH   7   8
ATOM      8  C   UNL     1      61.375   2.757  19.805  1.00  0.00    -0.000 C 
BRANCH   8   9
ATOM      9  C   UNL     1      60.875   3.188  21.196  1.00  0.00    -0.000 C 
BRANCH   9  10
ATOM     10  C   UNL     1      61.621   4.386  21.812  1.00  0.00    -0.003 C 
ATOM     11  C   UNL     1      62.673   3.972  22.840  1.00  0.00     0.004 C 
ENDBRANCH   9  10
ENDBRANCH   8   9
ENDBRANCH   7   8
ENDBRANCH   1   7
TORSDOF 7
ENDMDL
MODEL 8
REMARK VINA RESULT:    -4.134      1.886      3.361
REMARK INTER + INTRA:          -6.561
REMARK INTER:                  -5.853
REMARK INTRA:                  -0.709
REMARK UNBOUND:                -0.735
REMARK SMILES CCCCCCCCC(=O)[O-]
REMARK SMILES IDX 6 1 7 2 8 3 9 4 10 5 11 6 5 7 4 8 3 9 2 10 1 11
REMARK H PARENT
REMARK Flexibility Score: inf
ROOT
ATOM      1  C   UNL     1      66.093   3.981  21.354  1.00  0.00     0.000 C 
ENDROOT
BRANCH   1   2
ATOM      2  C   UNL     1      65.137   4.514  22.435  1.00  0.00     0.006 C 
BRANCH   2   3
ATOM      3  C   UNL     1      64.259   3.404  23.028  1.00  0.00     0.053 C 
BRANCH   3   4
ATOM      4  C   UNL     1      65.082   2.288  23.595  1.00  0.00     0.041 C 
ATOM      5  O   UNL     1      65.772   2.472  24.632  1.00  0.00    -0.550 OA
ATOM      6  O   UNL     1      65.115   1.055  22.955  1.00  0.00    -0.550 OA
ENDBRANCH   3   4
ENDBRANCH   2   3
ENDBRANCH   1   2
BRANCH   1   7
ATOM      7  C   UNL     1      65.759   4.515  19.952  1.00  0.00     0.000 C 
BRANCH   7   8
ATOM      8  C   UNL     1      65.196   3.424  19.025  1.00  0.00    -0.000 C 
BRANCH   8   9
ATOM      9  C   UNL     1      63.664   3.301  19.107  1.00  0.00    -0.000 C 
BRANCH   9  10
ATOM     10  C   UNL     1      63.150   2.054  19.848  1.00  0.00    -0.003 C 
ATOM     11  C   UNL     1      63.860   0.769  19.422  1.00  0.00     0.004 C 
ENDBRANCH   9  10
ENDBRANCH   8   9
ENDBRANCH   7   8
ENDBRANCH   1   7
TORSDOF 7
ENDMDL
MODEL 9
REMARK VINA RESULT:    -4.071     12.147     13.918
REMARK INTER + INTRA:          -6.472
REMARK INTER:                  -5.873
REMARK INTRA:                  -0.599
REMARK UNBOUND:                -0.735
REMARK SMILES CCCCCCCCC(=O)[O-]
REMARK SMILES IDX 6 1 7 2 8 3 9 4 10 5 11 6 5 7 4 8 3 9 2 10 1 11
REMARK H PARENT
REMARK Flexibility Score: inf
ROOT
ATOM      1  C   UNL     1      75.535   7.059  21.367  1.00  0.00     0.000 C 
ENDROOT
BRANCH   1   2
ATOM      2  C   UNL     1      77.009   6.966  21.798  1.00  0.00     0.006 C 
BRANCH   2   3
ATOM      3  C   UNL     1      77.809   5.997  20.918  1.00  0.00     0.053 C 
BRANCH   3   4
ATOM      4  C   UNL     1      78.436   4.902  21.726  1.00  0.00     0.041 C 
ATOM      5  O   UNL     1      78.497   3.731  21.269  1.00  0.00    -0.550 OA
ATOM      6  O   UNL     1      78.920   5.170  23.000  1.00  0.00    -0.550 OA
ENDBRANCH   3   4
ENDBRANCH   2   3
ENDBRANCH   1   2
BRANCH   1   7
ATOM      7  C   UNL     1      75.115   5.908  20.439  1.00  0.00     0.000 C 
BRANCH   7   8
ATOM      8  C   UNL     1      74.161   4.916  21.125  1.00  0.00    -0.000 C 
BRANCH   8   9
ATOM      9  C   UNL     1      74.899   3.871  21.981  1.00  0.00    -0.000 C 
BRANCH   9  10
ATOM     10  C   UNL     1      75.165   2.527  21.279  1.00  0.00    -0.003 C 
ATOM     11  C   UNL     1      74.080   2.152  20.270  1.00  0.00     0.004 C 
ENDBRANCH   9  10
ENDBRANCH   8   9
ENDBRANCH   7   8
ENDBRANCH   1   7
TORSDOF 7
ENDMDL
