MODEL 1
REMARK VINA RESULT:    -3.742      0.000      0.000
REMARK INTER + INTRA:          -8.401
REMARK INTER:                  -6.586
REMARK INTRA:                  -1.815
REMARK UNBOUND:                -1.815
REMARK SMILES CCCCCCC=CCCCCCCCC(=O)[O-]
REMARK SMILES IDX 10 1 11 2 12 3 13 4 14 5 15 6 16 7 17 8 18 9 9 10 8 11 7 12
REMARK SMILES IDX 6 13 5 14 4 15 3 16 2 17 1 18
REMARK H PARENT
REMARK Flexibility Score: inf
ROOT
ATOM      1  C   UNL     1      32.666   7.565 -30.484  1.00  0.00     0.004 C 
ENDROOT
BRANCH   1   2
ATOM      2  C   UNL     1      32.923   7.083 -29.044  1.00  0.00     0.000 C 
BRANCH   2   3
ATOM      3  C   UNL     1      32.441   8.041 -27.936  1.00  0.00     0.000 C 
BRANCH   3   4
ATOM      4  C   UNL     1      32.492   9.537 -28.295  1.00  0.00     0.000 C 
BRANCH   4   5
ATOM      5  C   UNL     1      32.234  10.451 -27.086  1.00  0.00     0.006 C 
BRANCH   5   6
ATOM      6  C   UNL     1      33.536  11.003 -26.491  1.00  0.00     0.053 C 
BRANCH   6   7
ATOM      7  C   UNL     1      33.453  11.148 -25.002  1.00  0.00     0.041 C 
ATOM      8  O   UNL     1      34.240  10.505 -24.258  1.00  0.00    -0.550 OA
ATOM      9  O   UNL     1      32.526  12.016 -24.437  1.00  0.00    -0.550 OA
ENDBRANCH   6   7
ENDBRANCH   5   6
ENDBRANCH   4   5
ENDBRANCH   3   4
ENDBRANCH   2   3
ENDBRANCH   1   2
BRANCH   1  10
ATOM     10  C   UNL     1      33.962   7.818 -31.268  1.00  0.00     0.027 C 
BRANCH  10  11
ATOM     11  C   UNL     1      35.030   6.831 -30.869  1.00  0.00    -0.031 C 
ATOM     12  C   UNL     1      35.417   5.776 -31.611  1.00  0.00    -0.031 C 
BRANCH  12  13
ATOM     13  C   UNL     1      34.901   5.460 -32.993  1.00  0.00     0.027 C 
BRANCH  13  14
ATOM     14  C   UNL     1      34.107   4.146 -33.026  1.00  0.00     0.004 C 
BRANCH  14  15
ATOM     15  C   UNL     1      32.595   4.380 -32.890  1.00  0.00     0.000 C 
BRANCH  15  16
ATOM     16  C   UNL     1      32.123   4.104 -31.456  1.00  0.00    -0.000 C 
BRANCH  16  17
ATOM     17  C   UNL     1      32.914   2.972 -30.781  1.00  0.00    -0.003 C 
ATOM     18  C   UNL     1      33.554   3.405 -29.461  1.00  0.00     0.004 C 
ENDBRANCH  16  17
ENDBRANCH  15  16
ENDBRANCH  14  15
ENDBRANCH  13  14
ENDBRANCH  12  13
ENDBRANCH  10  11
ENDBRANCH   1  10
TORSDOF 13
ENDMDL
MODEL 2
REMARK VINA RESULT:    -3.625      5.653      8.432
REMARK INTER + INTRA:          -8.196
REMARK INTER:                  -6.414
REMARK INTRA:                  -1.782
REMARK UNBOUND:                -1.815
REMARK SMILES CCCCCCC=CCCCCCCCC(=O)[O-]
REMARK SMILES IDX 10 1 11 2 12 3 13 4 14 5 15 6 16 7 17 8 18 9 9 10 8 11 7 12
REMARK SMILES IDX 6 13 5 14 4 15 3 16 2 17 1 18
REMARK H PARENT
REMARK Flexibility Score: inf
ROOT
ATOM      1  C   UNL     1      30.369   1.557 -34.612  1.00  0.00     0.004 C 
ENDROOT
BRANCH   1   2
ATOM      2  C   UNL     1      31.339   2.620 -34.064  1.00  0.00     0.000 C 
BRANCH   2   3
ATOM      3  C   UNL     1      32.489   2.072 -33.194  1.00  0.00     0.000 C 
BRANCH   3   4
ATOM      4  C   UNL     1      33.781   2.907 -33.214  1.00  0.00     0.000 C 
BRANCH   4   5
ATOM      5  C   UNL     1      33.528   4.408 -32.999  1.00  0.00     0.006 C 
BRANCH   5   6
ATOM      6  C   UNL     1      34.828   5.223 -33.027  1.00  0.00     0.053 C 
BRANCH   6   7
ATOM      7  C   UNL     1      35.277   5.605 -31.650  1.00  0.00     0.041 C 
ATOM      8  O   UNL     1      35.040   4.846 -30.673  1.00  0.00    -0.550 OA
ATOM      9  O   UNL     1      35.985   6.784 -31.449  1.00  0.00    -0.550 OA
ENDBRANCH   6   7
ENDBRANCH   5   6
ENDBRANCH   4   5
ENDBRANCH   3   4
ENDBRANCH   2   3
ENDBRANCH   1   2
BRANCH   1  10
ATOM     10  C   UNL     1      30.312   1.536 -36.145  1.00  0.00     0.027 C 
BRANCH  10  11
ATOM     11  C   UNL     1      29.461   0.392 -36.634  1.00  0.00    -0.031 C 
ATOM     12  C   UNL     1      29.693  -0.315 -37.756  1.00  0.00    -0.031 C 
BRANCH  12  13
ATOM     13  C   UNL     1      30.887  -0.128 -38.660  1.00  0.00     0.027 C 
BRANCH  13  14
ATOM     14  C   UNL     1      31.661  -1.437 -38.871  1.00  0.00     0.004 C 
BRANCH  14  15
ATOM     15  C   UNL     1      32.907  -1.522 -37.976  1.00  0.00     0.000 C 
BRANCH  15  16
ATOM     16  C   UNL     1      33.345  -0.127 -37.510  1.00  0.00    -0.000 C 
BRANCH  16  17
ATOM     17  C   UNL     1      33.670  -0.080 -36.008  1.00  0.00    -0.003 C 
ATOM     18  C   UNL     1      32.944  -1.166 -35.213  1.00  0.00     0.004 C 
ENDBRANCH  16  17
ENDBRANCH  15  16
ENDBRANCH  14  15
ENDBRANCH  13  14
ENDBRANCH  12  13
ENDBRANCH  10  11
ENDBRANCH   1  10
TORSDOF 13
ENDMDL
MODEL 3
REMARK VINA RESULT:    -3.590     14.085     16.275
REMARK INTER + INTRA:          -8.133
REMARK INTER:                  -5.674
REMARK INTRA:                  -2.459
REMARK UNBOUND:                -1.815
REMARK SMILES CCCCCCC=CCCCCCCCC(=O)[O-]
REMARK SMILES IDX 10 1 11 2 12 3 13 4 14 5 15 6 16 7 17 8 18 9 9 10 8 11 7 12
REMARK SMILES IDX 6 13 5 14 4 15 3 16 2 17 1 18
REMARK H PARENT
REMARK Flexibility Score: inf
ROOT
ATOM      1  C   UNL     1      27.986  -4.975 -28.112  1.00  0.00     0.004 C 
ENDROOT
BRANCH   1   2
ATOM      2  C   UNL     1      27.054  -3.888 -28.678  1.00  0.00     0.000 C 
BRANCH   2   3
ATOM      3  C   UNL     1      26.219  -4.314 -29.904  1.00  0.00     0.000 C 
BRANCH   3   4
ATOM      4  C   UNL     1      24.873  -3.587 -30.065  1.00  0.00     0.000 C 
BRANCH   4   5
ATOM      5  C   UNL     1      23.738  -4.522 -30.514  1.00  0.00     0.006 C 
BRANCH   5   6
ATOM      6  C   UNL     1      24.214  -5.553 -31.546  1.00  0.00     0.053 C 
BRANCH   6   7
ATOM      7  C   UNL     1      24.338  -4.958 -32.915  1.00  0.00     0.041 C 
ATOM      8  O   UNL     1      25.369  -5.168 -33.607  1.00  0.00    -0.550 OA
ATOM      9  O   UNL     1      23.302  -4.194 -33.440  1.00  0.00    -0.550 OA
ENDBRANCH   6   7
ENDBRANCH   5   6
ENDBRANCH   4   5
ENDBRANCH   3   4
ENDBRANCH   2   3
ENDBRANCH   1   2
BRANCH   1  10
ATOM     10  C   UNL     1      27.914  -6.291 -28.898  1.00  0.00     0.027 C 
BRANCH  10  11
ATOM     11  C   UNL     1      27.601  -7.446 -27.981  1.00  0.00    -0.031 C 
ATOM     12  C   UNL     1      26.415  -8.081 -27.922  1.00  0.00    -0.031 C 
BRANCH  12  13
ATOM     13  C   UNL     1      25.237  -7.791 -28.819  1.00  0.00     0.027 C 
BRANCH  13  14
ATOM     14  C   UNL     1      24.115  -7.050 -28.076  1.00  0.00     0.004 C 
BRANCH  14  15
ATOM     15  C   UNL     1      24.345  -7.025 -26.558  1.00  0.00     0.000 C 
BRANCH  15  16
ATOM     16  C   UNL     1      23.731  -5.765 -25.931  1.00  0.00    -0.000 C 
BRANCH  16  17
ATOM     17  C   UNL     1      24.728  -4.597 -25.854  1.00  0.00    -0.003 C 
ATOM     18  C   UNL     1      24.160  -3.297 -26.423  1.00  0.00     0.004 C 
ENDBRANCH  16  17
ENDBRANCH  15  16
ENDBRANCH  14  15
ENDBRANCH  13  14
ENDBRANCH  12  13
ENDBRANCH  10  11
ENDBRANCH   1  10
TORSDOF 13
ENDMDL
MODEL 4
REMARK VINA RESULT:    -3.545     14.763     16.743
REMARK INTER + INTRA:          -8.055
REMARK INTER:                  -5.610
REMARK INTRA:                  -2.445
REMARK UNBOUND:                -1.815
REMARK SMILES CCCCCCC=CCCCCCCCC(=O)[O-]
REMARK SMILES IDX 10 1 11 2 12 3 13 4 14 5 15 6 16 7 17 8 18 9 9 10 8 11 7 12
REMARK SMILES IDX 6 13 5 14 4 15 3 16 2 17 1 18
REMARK H PARENT
REMARK Flexibility Score: inf
ROOT
ATOM      1  C   UNL     1      27.593  -6.390 -28.855  1.00  0.00     0.004 C 
ENDROOT
BRANCH   1   2
ATOM      2  C   UNL     1      26.831  -5.184 -28.276  1.00  0.00     0.000 C 
BRANCH   2   3
ATOM      3  C   UNL     1      26.066  -4.333 -29.311  1.00  0.00     0.000 C 
BRANCH   3   4
ATOM      4  C   UNL     1      24.543  -4.265 -29.106  1.00  0.00     0.000 C 
BRANCH   4   5
ATOM      5  C   UNL     1      23.752  -4.800 -30.311  1.00  0.00     0.006 C 
BRANCH   5   6
ATOM      6  C   UNL     1      24.656  -5.520 -31.321  1.00  0.00     0.053 C 
BRANCH   6   7
ATOM      7  C   UNL     1      24.446  -5.017 -32.716  1.00  0.00     0.041 C 
ATOM      8  O   UNL     1      23.398  -4.385 -33.011  1.00  0.00    -0.550 OA
ATOM      9  O   UNL     1      25.423  -5.218 -33.684  1.00  0.00    -0.550 OA
ENDBRANCH   6   7
ENDBRANCH   5   6
ENDBRANCH   4   5
ENDBRANCH   3   4
ENDBRANCH   2   3
ENDBRANCH   1   2
BRANCH   1  10
ATOM     10  C   UNL     1      27.009  -7.736 -28.406  1.00  0.00     0.027 C 
BRANCH  10  11
ATOM     11  C   UNL     1      25.554  -7.842 -28.789  1.00  0.00    -0.031 C 
ATOM     12  C   UNL     1      24.540  -8.001 -27.918  1.00  0.00    -0.031 C 
BRANCH  12  13
ATOM     13  C   UNL     1      24.689  -8.017 -26.416  1.00  0.00     0.027 C 
BRANCH  13  14
ATOM     14  C   UNL     1      24.553  -6.613 -25.809  1.00  0.00     0.004 C 
BRANCH  14  15
ATOM     15  C   UNL     1      25.729  -6.265 -24.884  1.00  0.00     0.000 C 
BRANCH  15  16
ATOM     16  C   UNL     1      26.675  -7.464 -24.724  1.00  0.00    -0.000 C 
BRANCH  16  17
ATOM     17  C   UNL     1      28.114  -7.042 -24.389  1.00  0.00    -0.003 C 
ATOM     18  C   UNL     1      28.584  -5.842 -25.211  1.00  0.00     0.004 C 
ENDBRANCH  16  17
ENDBRANCH  15  16
ENDBRANCH  14  15
ENDBRANCH  13  14
ENDBRANCH  12  13
ENDBRANCH  10  11
ENDBRANCH   1  10
TORSDOF 13
ENDMDL
MODEL 5
REMARK VINA RESULT:    -3.458      5.211      7.354
REMARK INTER + INTRA:          -7.901
REMARK INTER:                  -5.370
REMARK INTRA:                  -2.531
REMARK UNBOUND:                -1.815
REMARK SMILES CCCCCCC=CCCCCCCCC(=O)[O-]
REMARK SMILES IDX 10 1 11 2 12 3 13 4 14 5 15 6 16 7 17 8 18 9 9 10 8 11 7 12
REMARK SMILES IDX 6 13 5 14 4 15 3 16 2 17 1 18
REMARK H PARENT
REMARK Flexibility Score: inf
ROOT
ATOM      1  C   UNL     1      34.220   7.675 -31.149  1.00  0.00     0.004 C 
ENDROOT
BRANCH   1   2
ATOM      2  C   UNL     1      35.342   6.622 -31.208  1.00  0.00     0.000 C 
BRANCH   2   3
ATOM      3  C   UNL     1      35.375   5.772 -32.495  1.00  0.00     0.000 C 
BRANCH   3   4
ATOM      4  C   UNL     1      34.630   4.428 -32.413  1.00  0.00     0.000 C 
BRANCH   4   5
ATOM      5  C   UNL     1      33.311   4.426 -33.205  1.00  0.00     0.006 C 
BRANCH   5   6
ATOM      6  C   UNL     1      32.409   3.246 -32.821  1.00  0.00     0.053 C 
BRANCH   6   7
ATOM      7  C   UNL     1      32.383   2.193 -33.886  1.00  0.00     0.041 C 
ATOM      8  O   UNL     1      33.362   1.412 -34.029  1.00  0.00    -0.550 OA
ATOM      9  O   UNL     1      31.267   2.052 -34.701  1.00  0.00    -0.550 OA
ENDBRANCH   6   7
ENDBRANCH   5   6
ENDBRANCH   4   5
ENDBRANCH   3   4
ENDBRANCH   2   3
ENDBRANCH   1   2
BRANCH   1  10
ATOM     10  C   UNL     1      33.267   7.464 -29.964  1.00  0.00     0.027 C 
BRANCH  10  11
ATOM     11  C   UNL     1      32.103   6.592 -30.362  1.00  0.00    -0.031 C 
ATOM     12  C   UNL     1      31.839   5.378 -29.841  1.00  0.00    -0.031 C 
BRANCH  12  13
ATOM     13  C   UNL     1      32.618   4.734 -28.720  1.00  0.00     0.027 C 
BRANCH  13  14
ATOM     14  C   UNL     1      33.458   3.546 -29.210  1.00  0.00     0.004 C 
BRANCH  14  15
ATOM     15  C   UNL     1      34.922   3.646 -28.756  1.00  0.00     0.000 C 
BRANCH  15  16
ATOM     16  C   UNL     1      35.154   4.917 -27.927  1.00  0.00    -0.000 C 
BRANCH  16  17
ATOM     17  C   UNL     1      35.738   4.617 -26.536  1.00  0.00    -0.003 C 
ATOM     18  C   UNL     1      35.248   3.286 -25.965  1.00  0.00     0.004 C 
ENDBRANCH  16  17
ENDBRANCH  15  16
ENDBRANCH  14  15
ENDBRANCH  13  14
ENDBRANCH  12  13
ENDBRANCH  10  11
ENDBRANCH   1  10
TORSDOF 13
ENDMDL
MODEL 6
REMARK VINA RESULT:    -3.437      7.683     10.538
REMARK INTER + INTRA:          -7.865
REMARK INTER:                  -5.769
REMARK INTRA:                  -2.096
REMARK UNBOUND:                -1.815
REMARK SMILES CCCCCCC=CCCCCCCCC(=O)[O-]
REMARK SMILES IDX 10 1 11 2 12 3 13 4 14 5 15 6 16 7 17 8 18 9 9 10 8 11 7 12
REMARK SMILES IDX 6 13 5 14 4 15 3 16 2 17 1 18
REMARK H PARENT
REMARK Flexibility Score: inf
ROOT
ATOM      1  C   UNL     1      30.197   0.857 -37.066  1.00  0.00     0.004 C 
ENDROOT
BRANCH   1   2
ATOM      2  C   UNL     1      30.197  -0.277 -36.024  1.00  0.00     0.000 C 
BRANCH   2   3
ATOM      3  C   UNL     1      31.169  -0.081 -34.842  1.00  0.00     0.000 C 
BRANCH   3   4
ATOM      4  C   UNL     1      31.639   1.366 -34.613  1.00  0.00     0.000 C 
BRANCH   4   5
ATOM      5  C   UNL     1      33.000   1.447 -33.902  1.00  0.00     0.006 C 
BRANCH   5   6
ATOM      6  C   UNL     1      32.960   2.381 -32.684  1.00  0.00     0.053 C 
BRANCH   6   7
ATOM      7  C   UNL     1      33.027   3.823 -33.083  1.00  0.00     0.041 C 
ATOM      8  O   UNL     1      34.136   4.352 -33.363  1.00  0.00    -0.550 OA
ATOM      9  O   UNL     1      31.863   4.576 -33.177  1.00  0.00    -0.550 OA
ENDBRANCH   6   7
ENDBRANCH   5   6
ENDBRANCH   4   5
ENDBRANCH   3   4
ENDBRANCH   2   3
ENDBRANCH   1   2
BRANCH   1  10
ATOM     10  C   UNL     1      30.885   0.460 -38.379  1.00  0.00     0.027 C 
BRANCH  10  11
ATOM     11  C   UNL     1      32.369   0.288 -38.175  1.00  0.00    -0.031 C 
ATOM     12  C   UNL     1      33.045  -0.859 -38.375  1.00  0.00    -0.031 C 
BRANCH  12  13
ATOM     13  C   UNL     1      32.441  -2.132 -38.914  1.00  0.00     0.027 C 
BRANCH  13  14
ATOM     14  C   UNL     1      31.964  -3.064 -37.791  1.00  0.00     0.004 C 
BRANCH  14  15
ATOM     15  C   UNL     1      30.470  -3.401 -37.913  1.00  0.00     0.000 C 
BRANCH  15  16
ATOM     16  C   UNL     1      29.941  -3.053 -39.312  1.00  0.00    -0.000 C 
BRANCH  16  17
ATOM     17  C   UNL     1      28.579  -2.343 -39.269  1.00  0.00    -0.003 C 
ATOM     18  C   UNL     1      27.841  -2.559 -37.949  1.00  0.00     0.004 C 
ENDBRANCH  16  17
ENDBRANCH  15  16
ENDBRANCH  14  15
ENDBRANCH  13  14
ENDBRANCH  12  13
ENDBRANCH  10  11
ENDBRANCH   1  10
TORSDOF 13
ENDMDL
MODEL 7
REMARK VINA RESULT:    -3.405     10.581     12.517
REMARK INTER + INTRA:          -7.809
REMARK INTER:                  -5.286
REMARK INTRA:                  -2.522
REMARK UNBOUND:                -1.815
REMARK SMILES CCCCCCC=CCCCCCCCC(=O)[O-]
REMARK SMILES IDX 10 1 11 2 12 3 13 4 14 5 15 6 16 7 17 8 18 9 9 10 8 11 7 12
REMARK SMILES IDX 6 13 5 14 4 15 3 16 2 17 1 18
REMARK H PARENT
REMARK Flexibility Score: inf
ROOT
ATOM      1  C   UNL     1      33.537  -0.441 -36.368  1.00  0.00     0.004 C 
ENDROOT
BRANCH   1   2
ATOM      2  C   UNL     1      33.152  -0.200 -37.839  1.00  0.00     0.000 C 
BRANCH   2   3
ATOM      3  C   UNL     1      32.143  -1.209 -38.427  1.00  0.00     0.000 C 
BRANCH   3   4
ATOM      4  C   UNL     1      30.785  -0.614 -38.837  1.00  0.00     0.000 C 
BRANCH   4   5
ATOM      5  C   UNL     1      30.659   0.880 -38.497  1.00  0.00     0.006 C 
BRANCH   5   6
ATOM      6  C   UNL     1      30.135   1.700 -39.683  1.00  0.00     0.053 C 
BRANCH   6   7
ATOM      7  C   UNL     1      28.840   2.382 -39.363  1.00  0.00     0.041 C 
ATOM      8  O   UNL     1      28.667   3.591 -39.669  1.00  0.00    -0.550 OA
ATOM      9  O   UNL     1      27.811   1.673 -38.753  1.00  0.00    -0.550 OA
ENDBRANCH   6   7
ENDBRANCH   5   6
ENDBRANCH   4   5
ENDBRANCH   3   4
ENDBRANCH   2   3
ENDBRANCH   1   2
BRANCH   1  10
ATOM     10  C   UNL     1      32.619   0.297 -35.384  1.00  0.00     0.027 C 
BRANCH  10  11
ATOM     11  C   UNL     1      32.212  -0.608 -34.249  1.00  0.00    -0.031 C 
ATOM     12  C   UNL     1      31.043  -1.271 -34.176  1.00  0.00    -0.031 C 
BRANCH  12  13
ATOM     13  C   UNL     1      29.988  -1.279 -35.255  1.00  0.00     0.027 C 
BRANCH  13  14
ATOM     14  C   UNL     1      29.820  -2.668 -35.887  1.00  0.00     0.004 C 
BRANCH  14  15
ATOM     15  C   UNL     1      30.695  -3.727 -35.199  1.00  0.00     0.000 C 
BRANCH  15  16
ATOM     16  C   UNL     1      31.728  -4.304 -36.177  1.00  0.00    -0.000 C 
BRANCH  16  17
ATOM     17  C   UNL     1      33.175  -3.984 -35.766  1.00  0.00    -0.003 C 
ATOM     18  C   UNL     1      34.152  -4.061 -36.939  1.00  0.00     0.004 C 
ENDBRANCH  16  17
ENDBRANCH  15  16
ENDBRANCH  14  15
ENDBRANCH  13  14
ENDBRANCH  12  13
ENDBRANCH  10  11
ENDBRANCH   1  10
TORSDOF 13
ENDMDL
MODEL 8
REMARK VINA RESULT:    -3.369     14.028     16.304
REMARK INTER + INTRA:          -7.745
REMARK INTER:                  -5.836
REMARK INTRA:                  -1.910
REMARK UNBOUND:                -1.815
REMARK SMILES CCCCCCC=CCCCCCCCC(=O)[O-]
REMARK SMILES IDX 10 1 11 2 12 3 13 4 14 5 15 6 16 7 17 8 18 9 9 10 8 11 7 12
REMARK SMILES IDX 6 13 5 14 4 15 3 16 2 17 1 18
REMARK H PARENT
REMARK Flexibility Score: inf
ROOT
ATOM      1  C   UNL     1      25.637  -3.303 -27.891  1.00  0.00     0.004 C 
ENDROOT
BRANCH   1   2
ATOM      2  C   UNL     1      25.441  -4.225 -29.108  1.00  0.00     0.000 C 
BRANCH   2   3
ATOM      3  C   UNL     1      23.997  -4.303 -29.646  1.00  0.00     0.000 C 
BRANCH   3   4
ATOM      4  C   UNL     1      23.752  -5.386 -30.711  1.00  0.00     0.000 C 
BRANCH   4   5
ATOM      5  C   UNL     1      24.525  -5.130 -32.015  1.00  0.00     0.006 C 
BRANCH   5   6
ATOM      6  C   UNL     1      23.677  -4.380 -33.051  1.00  0.00     0.053 C 
BRANCH   6   7
ATOM      7  C   UNL     1      24.295  -3.071 -33.437  1.00  0.00     0.041 C 
ATOM      8  O   UNL     1      25.304  -2.640 -32.819  1.00  0.00    -0.550 OA
ATOM      9  O   UNL     1      23.775  -2.340 -34.499  1.00  0.00    -0.550 OA
ENDBRANCH   6   7
ENDBRANCH   5   6
ENDBRANCH   4   5
ENDBRANCH   3   4
ENDBRANCH   2   3
ENDBRANCH   1   2
BRANCH   1  10
ATOM     10  C   UNL     1      25.584  -4.058 -26.556  1.00  0.00     0.027 C 
BRANCH  10  11
ATOM     11  C   UNL     1      24.197  -4.586 -26.294  1.00  0.00    -0.031 C 
ATOM     12  C   UNL     1      23.915  -5.842 -25.898  1.00  0.00    -0.031 C 
BRANCH  12  13
ATOM     13  C   UNL     1      24.946  -6.895 -25.575  1.00  0.00     0.027 C 
BRANCH  13  14
ATOM     14  C   UNL     1      24.820  -8.124 -26.487  1.00  0.00     0.004 C 
BRANCH  14  15
ATOM     15  C   UNL     1      24.434  -7.741 -27.924  1.00  0.00     0.000 C 
BRANCH  15  16
ATOM     16  C   UNL     1      25.627  -7.906 -28.876  1.00  0.00    -0.000 C 
BRANCH  16  17
ATOM     17  C   UNL     1      26.955  -8.112 -28.129  1.00  0.00    -0.003 C 
ATOM     18  C   UNL     1      27.888  -6.906 -28.238  1.00  0.00     0.004 C 
ENDBRANCH  16  17
ENDBRANCH  15  16
ENDBRANCH  14  15
ENDBRANCH  13  14
ENDBRANCH  12  13
ENDBRANCH  10  11
ENDBRANCH   1  10
TORSDOF 13
ENDMDL
