MODEL 1
REMARK VINA RESULT:    -4.029      0.000      0.000
REMARK INTER + INTRA:          -6.077
REMARK INTER:                  -5.677
REMARK INTRA:                  -0.400
REMARK UNBOUND:                -0.400
REMARK SMILES CCCCCCCCC(=O)[O-]
REMARK SMILES IDX 6 1 7 2 8 3 9 4 10 5 11 6 5 7 4 8 3 9 2 10 1 11
REMARK H PARENT
REMARK Flexibility Score: inf
ROOT
ATOM      1  C   UNL     1       6.097  -2.033  -6.958  1.00  0.00     0.000 C 
ENDROOT
BRANCH   1   2
ATOM      2  C   UNL     1       5.974  -3.571  -6.915  1.00  0.00     0.006 C 
BRANCH   2   3
ATOM      3  C   UNL     1       5.800  -4.103  -5.487  1.00  0.00     0.053 C 
BRANCH   3   4
ATOM      4  C   UNL     1       7.032  -4.828  -5.044  1.00  0.00     0.041 C 
ATOM      5  O   UNL     1       7.145  -5.211  -3.850  1.00  0.00    -0.550 OA
ATOM      6  O   UNL     1       8.076  -5.035  -5.937  1.00  0.00    -0.550 OA
ENDBRANCH   3   4
ENDBRANCH   2   3
ENDBRANCH   1   2
BRANCH   1   7
ATOM      7  C   UNL     1       6.005  -1.364  -5.572  1.00  0.00     0.000 C 
BRANCH   7   8
ATOM      8  C   UNL     1       4.815  -0.405  -5.399  1.00  0.00    -0.000 C 
BRANCH   8   9
ATOM      9  C   UNL     1       5.255   1.040  -5.106  1.00  0.00    -0.000 C 
BRANCH   9  10
ATOM     10  C   UNL     1       4.980   1.987  -6.283  1.00  0.00    -0.003 C 
ATOM     11  C   UNL     1       3.912   1.446  -7.236  1.00  0.00     0.004 C 
ENDBRANCH   9  10
ENDBRANCH   8   9
ENDBRANCH   7   8
ENDBRANCH   1   7
TORSDOF 7
ENDMDL
MODEL 2
REMARK VINA RESULT:    -3.997      0.246      1.007
REMARK INTER + INTRA:          -6.033
REMARK INTER:                  -5.633
REMARK INTRA:                  -0.400
REMARK UNBOUND:                -0.400
REMARK SMILES CCCCCCCCC(=O)[O-]
REMARK SMILES IDX 6 1 7 2 8 3 9 4 10 5 11 6 5 7 4 8 3 9 2 10 1 11
REMARK H PARENT
REMARK Flexibility Score: inf
ROOT
ATOM      1  C   UNL     1       5.933  -1.956  -7.030  1.00  0.00     0.000 C 
ENDROOT
BRANCH   1   2
ATOM      2  C   UNL     1       5.983  -3.499  -6.987  1.00  0.00     0.006 C 
BRANCH   2   3
ATOM      3  C   UNL     1       5.806  -4.048  -5.565  1.00  0.00     0.053 C 
BRANCH   3   4
ATOM      4  C   UNL     1       7.059  -4.725  -5.105  1.00  0.00     0.041 C 
ATOM      5  O   UNL     1       8.003  -4.925  -5.914  1.00  0.00    -0.550 OA
ATOM      6  O   UNL     1       7.164  -5.179  -3.796  1.00  0.00    -0.550 OA
ENDBRANCH   3   4
ENDBRANCH   2   3
ENDBRANCH   1   2
BRANCH   1   7
ATOM      7  C   UNL     1       5.909  -1.296  -5.638  1.00  0.00     0.000 C 
BRANCH   7   8
ATOM      8  C   UNL     1       4.752  -0.307  -5.414  1.00  0.00    -0.000 C 
BRANCH   8   9
ATOM      9  C   UNL     1       5.227   1.154  -5.341  1.00  0.00    -0.000 C 
BRANCH   9  10
ATOM     10  C   UNL     1       4.508   2.056  -6.355  1.00  0.00    -0.003 C 
ATOM     11  C   UNL     1       4.142   1.318  -7.643  1.00  0.00     0.004 C 
ENDBRANCH   9  10
ENDBRANCH   8   9
ENDBRANCH   7   8
ENDBRANCH   1   7
TORSDOF 7
ENDMDL
MODEL 3
REMARK VINA RESULT:    -3.854      1.012      1.710
REMARK INTER + INTRA:          -5.831
REMARK INTER:                  -5.306
REMARK INTRA:                  -0.525
REMARK UNBOUND:                -0.400
REMARK SMILES CCCCCCCCC(=O)[O-]
REMARK SMILES IDX 6 1 7 2 8 3 9 4 10 5 11 6 5 7 4 8 3 9 2 10 1 11
REMARK H PARENT
REMARK Flexibility Score: inf
ROOT
ATOM      1  C   UNL     1       6.553  -2.284  -7.160  1.00  0.00     0.000 C 
ENDROOT
BRANCH   1   2
ATOM      2  C   UNL     1       6.087  -2.817  -5.788  1.00  0.00     0.006 C 
BRANCH   2   3
ATOM      3  C   UNL     1       5.935  -4.344  -5.777  1.00  0.00     0.053 C 
BRANCH   3   4
ATOM      4  C   UNL     1       7.154  -4.988  -5.197  1.00  0.00     0.041 C 
ATOM      5  O   UNL     1       7.206  -5.252  -3.967  1.00  0.00    -0.550 OA
ATOM      6  O   UNL     1       8.253  -5.251  -6.005  1.00  0.00    -0.550 OA
ENDBRANCH   3   4
ENDBRANCH   2   3
ENDBRANCH   1   2
BRANCH   1   7
ATOM      7  C   UNL     1       5.481  -1.465  -7.905  1.00  0.00     0.000 C 
BRANCH   7   8
ATOM      8  C   UNL     1       5.662   0.061  -7.817  1.00  0.00    -0.000 C 
BRANCH   8   9
ATOM      9  C   UNL     1       4.470   0.761  -7.143  1.00  0.00    -0.000 C 
BRANCH   9  10
ATOM     10  C   UNL     1       4.301   0.347  -5.674  1.00  0.00    -0.003 C 
ATOM     11  C   UNL     1       5.465   0.808  -4.795  1.00  0.00     0.004 C 
ENDBRANCH   9  10
ENDBRANCH   8   9
ENDBRANCH   7   8
ENDBRANCH   1   7
TORSDOF 7
ENDMDL
MODEL 4
REMARK VINA RESULT:    -3.656      1.225      2.305
REMARK INTER + INTRA:          -5.552
REMARK INTER:                  -4.936
REMARK INTRA:                  -0.616
REMARK UNBOUND:                -0.400
REMARK SMILES CCCCCCCCC(=O)[O-]
REMARK SMILES IDX 6 1 7 2 8 3 9 4 10 5 11 6 5 7 4 8 3 9 2 10 1 11
REMARK H PARENT
REMARK Flexibility Score: inf
ROOT
ATOM      1  C   UNL     1       5.100  -0.620  -5.345  1.00  0.00     0.000 C 
ENDROOT
BRANCH   1   2
ATOM      2  C   UNL     1       6.296  -1.181  -6.144  1.00  0.00     0.006 C 
BRANCH   2   3
ATOM      3  C   UNL     1       5.953  -2.492  -6.863  1.00  0.00     0.053 C 
BRANCH   3   4
ATOM      4  C   UNL     1       6.356  -3.668  -6.031  1.00  0.00     0.041 C 
ATOM      5  O   UNL     1       5.931  -4.819  -6.314  1.00  0.00    -0.550 OA
ATOM      6  O   UNL     1       7.160  -3.486  -4.912  1.00  0.00    -0.550 OA
ENDBRANCH   3   4
ENDBRANCH   2   3
ENDBRANCH   1   2
BRANCH   1   7
ATOM      7  C   UNL     1       5.233   0.875  -4.995  1.00  0.00     0.000 C 
BRANCH   7   8
ATOM      8  C   UNL     1       5.264   1.820  -6.209  1.00  0.00    -0.000 C 
BRANCH   8   9
ATOM      9  C   UNL     1       3.894   1.948  -6.895  1.00  0.00    -0.000 C 
BRANCH   9  10
ATOM     10  C   UNL     1       3.987   1.810  -8.422  1.00  0.00    -0.003 C 
ATOM     11  C   UNL     1       4.188   0.361  -8.870  1.00  0.00     0.004 C 
ENDBRANCH   9  10
ENDBRANCH   8   9
ENDBRANCH   7   8
ENDBRANCH   1   7
TORSDOF 7
ENDMDL
MODEL 5
REMARK VINA RESULT:    -3.635      1.455      2.491
REMARK INTER + INTRA:          -5.523
REMARK INTER:                  -5.002
REMARK INTRA:                  -0.521
REMARK UNBOUND:                -0.400
REMARK SMILES CCCCCCCCC(=O)[O-]
REMARK SMILES IDX 6 1 7 2 8 3 9 4 10 5 11 6 5 7 4 8 3 9 2 10 1 11
REMARK H PARENT
REMARK Flexibility Score: inf
ROOT
ATOM      1  C   UNL     1       5.903   0.241  -5.273  1.00  0.00     0.000 C 
ENDROOT
BRANCH   1   2
ATOM      2  C   UNL     1       6.758  -0.831  -5.981  1.00  0.00     0.006 C 
BRANCH   2   3
ATOM      3  C   UNL     1       5.917  -2.019  -6.467  1.00  0.00     0.053 C 
BRANCH   3   4
ATOM      4  C   UNL     1       6.300  -3.267  -5.735  1.00  0.00     0.041 C 
ATOM      5  O   UNL     1       7.510  -3.605  -5.651  1.00  0.00    -0.550 OA
ATOM      6  O   UNL     1       5.317  -4.082  -5.189  1.00  0.00    -0.550 OA
ENDBRANCH   3   4
ENDBRANCH   2   3
ENDBRANCH   1   2
BRANCH   1   7
ATOM      7  C   UNL     1       4.387   0.073  -5.494  1.00  0.00     0.000 C 
BRANCH   7   8
ATOM      8  C   UNL     1       3.766   1.076  -6.482  1.00  0.00    -0.000 C 
BRANCH   8   9
ATOM      9  C   UNL     1       4.494   2.431  -6.488  1.00  0.00    -0.000 C 
BRANCH   9  10
ATOM     10  C   UNL     1       5.125   2.752  -7.852  1.00  0.00    -0.003 C 
ATOM     11  C   UNL     1       6.514   3.380  -7.723  1.00  0.00     0.004 C 
ENDBRANCH   9  10
ENDBRANCH   8   9
ENDBRANCH   7   8
ENDBRANCH   1   7
TORSDOF 7
ENDMDL
MODEL 6
REMARK VINA RESULT:    -3.609      3.646      6.063
REMARK INTER + INTRA:          -5.486
REMARK INTER:                  -5.069
REMARK INTRA:                  -0.416
REMARK UNBOUND:                -0.400
REMARK SMILES CCCCCCCCC(=O)[O-]
REMARK SMILES IDX 6 1 7 2 8 3 9 4 10 5 11 6 5 7 4 8 3 9 2 10 1 11
REMARK H PARENT
REMARK Flexibility Score: inf
ROOT
ATOM      1  C   UNL     1       5.259   0.387  -4.879  1.00  0.00     0.000 C 
ENDROOT
BRANCH   1   2
ATOM      2  C   UNL     1       5.130   1.605  -5.820  1.00  0.00     0.006 C 
BRANCH   2   3
ATOM      3  C   UNL     1       3.878   1.527  -6.703  1.00  0.00     0.053 C 
BRANCH   3   4
ATOM      4  C   UNL     1       4.236   1.742  -8.140  1.00  0.00     0.041 C 
ATOM      5  O   UNL     1       5.182   1.094  -8.660  1.00  0.00    -0.550 OA
ATOM      6  O   UNL     1       3.559   2.694  -8.892  1.00  0.00    -0.550 OA
ENDBRANCH   3   4
ENDBRANCH   2   3
ENDBRANCH   1   2
BRANCH   1   7
ATOM      7  C   UNL     1       5.095  -0.969  -5.592  1.00  0.00     0.000 C 
BRANCH   7   8
ATOM      8  C   UNL     1       6.374  -1.506  -6.258  1.00  0.00    -0.000 C 
BRANCH   8   9
ATOM      9  C   UNL     1       6.263  -2.989  -6.647  1.00  0.00    -0.000 C 
BRANCH   9  10
ATOM     10  C   UNL     1       5.717  -3.857  -5.503  1.00  0.00    -0.003 C 
ATOM     11  C   UNL     1       6.818  -4.623  -4.769  1.00  0.00     0.004 C 
ENDBRANCH   9  10
ENDBRANCH   8   9
ENDBRANCH   7   8
ENDBRANCH   1   7
TORSDOF 7
ENDMDL
MODEL 7
REMARK VINA RESULT:    -3.465      1.467      2.214
REMARK INTER + INTRA:          -5.284
REMARK INTER:                  -4.879
REMARK INTRA:                  -0.404
REMARK UNBOUND:                -0.400
REMARK SMILES CCCCCCCCC(=O)[O-]
REMARK SMILES IDX 6 1 7 2 8 3 9 4 10 5 11 6 5 7 4 8 3 9 2 10 1 11
REMARK H PARENT
REMARK Flexibility Score: inf
ROOT
ATOM      1  C   UNL     1       5.837  -3.386  -5.579  1.00  0.00     0.000 C 
ENDROOT
BRANCH   1   2
ATOM      2  C   UNL     1       6.837  -4.556  -5.469  1.00  0.00     0.006 C 
BRANCH   2   3
ATOM      3  C   UNL     1       7.296  -5.061  -6.844  1.00  0.00     0.053 C 
BRANCH   3   4
ATOM      4  C   UNL     1       8.297  -6.163  -6.690  1.00  0.00     0.041 C 
ATOM      5  O   UNL     1       7.954  -7.360  -6.875  1.00  0.00    -0.550 OA
ATOM      6  O   UNL     1       9.596  -5.872  -6.292  1.00  0.00    -0.550 OA
ENDBRANCH   3   4
ENDBRANCH   2   3
ENDBRANCH   1   2
BRANCH   1   7
ATOM      7  C   UNL     1       5.840  -2.693  -6.956  1.00  0.00     0.000 C 
BRANCH   7   8
ATOM      8  C   UNL     1       5.982  -1.162  -6.905  1.00  0.00    -0.000 C 
BRANCH   8   9
ATOM      9  C   UNL     1       6.137  -0.627  -5.472  1.00  0.00    -0.000 C 
BRANCH   9  10
ATOM     10  C   UNL     1       4.957   0.260  -5.045  1.00  0.00    -0.003 C 
ATOM     11  C   UNL     1       4.132   0.753  -6.235  1.00  0.00     0.004 C 
ENDBRANCH   9  10
ENDBRANCH   8   9
ENDBRANCH   7   8
ENDBRANCH   1   7
TORSDOF 7
ENDMDL
MODEL 8
REMARK VINA RESULT:    -3.294      3.834      5.543
REMARK INTER + INTRA:          -5.043
REMARK INTER:                  -4.265
REMARK INTRA:                  -0.778
REMARK UNBOUND:                -0.400
REMARK SMILES CCCCCCCCC(=O)[O-]
REMARK SMILES IDX 6 1 7 2 8 3 9 4 10 5 11 6 5 7 4 8 3 9 2 10 1 11
REMARK H PARENT
REMARK Flexibility Score: inf
ROOT
ATOM      1  C   UNL     1       4.587  -0.303  -5.268  1.00  0.00     0.000 C 
ENDROOT
BRANCH   1   2
ATOM      2  C   UNL     1       5.258   1.087  -5.320  1.00  0.00     0.006 C 
BRANCH   2   3
ATOM      3  C   UNL     1       4.628   1.999  -6.381  1.00  0.00     0.053 C 
BRANCH   3   4
ATOM      4  C   UNL     1       5.688   2.748  -7.124  1.00  0.00     0.041 C 
ATOM      5  O   UNL     1       5.369   3.626  -7.968  1.00  0.00    -0.550 OA
ATOM      6  O   UNL     1       7.029   2.442  -6.921  1.00  0.00    -0.550 OA
ENDBRANCH   3   4
ENDBRANCH   2   3
ENDBRANCH   1   2
BRANCH   1   7
ATOM      7  C   UNL     1       5.495  -1.449  -5.755  1.00  0.00     0.000 C 
BRANCH   7   8
ATOM      8  C   UNL     1       6.824  -0.995  -6.385  1.00  0.00    -0.000 C 
BRANCH   8   9
ATOM      9  C   UNL     1       6.797  -1.036  -7.922  1.00  0.00    -0.000 C 
BRANCH   9  10
ATOM     10  C   UNL     1       5.464  -1.567  -8.471  1.00  0.00    -0.003 C 
ATOM     11  C   UNL     1       4.653  -0.489  -9.191  1.00  0.00     0.004 C 
ENDBRANCH   9  10
ENDBRANCH   8   9
ENDBRANCH   7   8
ENDBRANCH   1   7
TORSDOF 7
ENDMDL
