MODEL 1
REMARK VINA RESULT:    -5.171      0.000      0.000
REMARK INTER + INTRA:         -10.969
REMARK INTER:                  -9.100
REMARK INTRA:                  -1.869
REMARK UNBOUND:                -1.869
REMARK SMILES CCCCCCCCCCCCCCC(=O)[O-]
REMARK SMILES IDX 9 1 10 2 11 3 12 4 13 5 14 6 15 7 16 8 17 9 8 10 7 11 6 12
REMARK SMILES IDX 5 13 4 14 3 15 2 16 1 17
REMARK H PARENT
REMARK Flexibility Score: inf
ROOT
ATOM      1  C   UNL     1      -7.580  11.287  -9.880  1.00  0.00     0.000 C 
ENDROOT
BRANCH   1   2
ATOM      2  C   UNL     1      -6.178  11.199  -9.251  1.00  0.00     0.000 C 
BRANCH   2   3
ATOM      3  C   UNL     1      -6.152  10.863  -7.745  1.00  0.00     0.000 C 
BRANCH   3   4
ATOM      4  C   UNL     1      -5.305   9.636  -7.363  1.00  0.00     0.000 C 
BRANCH   4   5
ATOM      5  C   UNL     1      -4.193   9.340  -8.380  1.00  0.00     0.006 C 
BRANCH   5   6
ATOM      6  C   UNL     1      -3.806   7.857  -8.352  1.00  0.00     0.053 C 
BRANCH   6   7
ATOM      7  C   UNL     1      -3.377   7.453  -6.978  1.00  0.00     0.041 C 
ATOM      8  O   UNL     1      -3.900   6.453  -6.419  1.00  0.00    -0.550 OA
ATOM      9  O   UNL     1      -2.363   8.150  -6.333  1.00  0.00    -0.550 OA
ENDBRANCH   6   7
ENDBRANCH   5   6
ENDBRANCH   4   5
ENDBRANCH   3   4
ENDBRANCH   2   3
ENDBRANCH   1   2
BRANCH   1  10
ATOM     10  C   UNL     1      -7.937  10.049 -10.718  1.00  0.00     0.000 C 
BRANCH  10  11
ATOM     11  C   UNL     1      -6.699   9.373 -11.331  1.00  0.00    -0.000 C 
BRANCH  11  12
ATOM     12  C   UNL     1      -6.522   7.921 -10.861  1.00  0.00    -0.000 C 
BRANCH  12  13
ATOM     13  C   UNL     1      -7.476   7.602  -9.700  1.00  0.00    -0.000 C 
BRANCH  13  14
ATOM     14  C   UNL     1      -7.203   6.227  -9.070  1.00  0.00    -0.000 C 
BRANCH  14  15
ATOM     15  C   UNL     1      -8.496   5.466  -8.728  1.00  0.00    -0.000 C 
BRANCH  15  16
ATOM     16  C   UNL     1      -9.753   6.175  -9.257  1.00  0.00    -0.003 C 
ATOM     17  C   UNL     1     -10.670   5.239 -10.045  1.00  0.00     0.004 C 
ENDBRANCH  15  16
ENDBRANCH  14  15
ENDBRANCH  13  14
ENDBRANCH  12  13
ENDBRANCH  11  12
ENDBRANCH  10  11
ENDBRANCH   1  10
TORSDOF 13
ENDMDL
MODEL 2
REMARK VINA RESULT:    -4.926      2.674      4.040
REMARK INTER + INTRA:         -10.538
REMARK INTER:                  -8.854
REMARK INTRA:                  -1.684
REMARK UNBOUND:                -1.869
REMARK SMILES CCCCCCCCCCCCCCC(=O)[O-]
REMARK SMILES IDX 9 1 10 2 11 3 12 4 13 5 14 6 15 7 16 8 17 9 8 10 7 11 6 12
REMARK SMILES IDX 5 13 4 14 3 15 2 16 1 17
REMARK H PARENT
REMARK Flexibility Score: inf
ROOT
ATOM      1  C   UNL     1      -4.185   7.482  -8.281  1.00  0.00     0.000 C 
ENDROOT
BRANCH   1   2
ATOM      2  C   UNL     1      -3.525   8.366  -7.209  1.00  0.00     0.000 C 
BRANCH   2   3
ATOM      3  C   UNL     1      -4.139   9.771  -7.044  1.00  0.00     0.000 C 
BRANCH   3   4
ATOM      4  C   UNL     1      -5.488   9.983  -7.755  1.00  0.00     0.000 C 
BRANCH   4   5
ATOM      5  C   UNL     1      -5.398  10.981  -8.918  1.00  0.00     0.006 C 
BRANCH   5   6
ATOM      6  C   UNL     1      -5.652  10.284 -10.259  1.00  0.00     0.053 C 
BRANCH   6   7
ATOM      7  C   UNL     1      -7.107  10.325 -10.604  1.00  0.00     0.041 C 
ATOM      8  O   UNL     1      -7.569   9.561 -11.490  1.00  0.00    -0.550 OA
ATOM      9  O   UNL     1      -7.962  11.173  -9.910  1.00  0.00    -0.550 OA
ENDBRANCH   6   7
ENDBRANCH   5   6
ENDBRANCH   4   5
ENDBRANCH   3   4
ENDBRANCH   2   3
ENDBRANCH   1   2
BRANCH   1  10
ATOM     10  C   UNL     1      -5.070   6.376  -7.682  1.00  0.00     0.000 C 
BRANCH  10  11
ATOM     11  C   UNL     1      -5.953   5.690  -8.738  1.00  0.00    -0.000 C 
BRANCH  11  12
ATOM     12  C   UNL     1      -6.771   6.690  -9.569  1.00  0.00    -0.000 C 
BRANCH  12  13
ATOM     13  C   UNL     1      -7.911   7.292  -8.733  1.00  0.00    -0.000 C 
BRANCH  13  14
ATOM     14  C   UNL     1      -8.704   6.227  -7.960  1.00  0.00    -0.000 C 
BRANCH  14  15
ATOM     15  C   UNL     1     -10.087   5.955  -8.579  1.00  0.00    -0.000 C 
BRANCH  15  16
ATOM     16  C   UNL     1     -10.021   4.972  -9.759  1.00  0.00    -0.003 C 
ATOM     17  C   UNL     1      -9.478   3.601  -9.354  1.00  0.00     0.004 C 
ENDBRANCH  15  16
ENDBRANCH  14  15
ENDBRANCH  13  14
ENDBRANCH  12  13
ENDBRANCH  11  12
ENDBRANCH  10  11
ENDBRANCH   1  10
TORSDOF 13
ENDMDL
MODEL 3
REMARK VINA RESULT:    -4.884      2.964      5.762
REMARK INTER + INTRA:         -10.465
REMARK INTER:                  -8.375
REMARK INTRA:                  -2.090
REMARK UNBOUND:                -1.869
REMARK SMILES CCCCCCCCCCCCCCC(=O)[O-]
REMARK SMILES IDX 9 1 10 2 11 3 12 4 13 5 14 6 15 7 16 8 17 9 8 10 7 11 6 12
REMARK SMILES IDX 5 13 4 14 3 15 2 16 1 17
REMARK H PARENT
REMARK Flexibility Score: inf
ROOT
ATOM      1  C   UNL     1      -5.188   6.774  -8.897  1.00  0.00     0.000 C 
ENDROOT
BRANCH   1   2
ATOM      2  C   UNL     1      -6.186   6.703  -7.727  1.00  0.00     0.000 C 
BRANCH   2   3
ATOM      3  C   UNL     1      -7.554   7.365  -7.988  1.00  0.00     0.000 C 
BRANCH   3   4
ATOM      4  C   UNL     1      -8.308   6.845  -9.225  1.00  0.00     0.000 C 
BRANCH   4   5
ATOM      5  C   UNL     1      -8.633   5.347  -9.138  1.00  0.00     0.006 C 
BRANCH   5   6
ATOM      6  C   UNL     1     -10.148   5.116  -9.108  1.00  0.00     0.053 C 
BRANCH   6   7
ATOM      7  C   UNL     1     -10.622   4.933  -7.701  1.00  0.00     0.041 C 
ATOM      8  O   UNL     1     -10.538   3.807  -7.146  1.00  0.00    -0.550 OA
ATOM      9  O   UNL     1     -11.111   6.019  -6.986  1.00  0.00    -0.550 OA
ENDBRANCH   6   7
ENDBRANCH   5   6
ENDBRANCH   4   5
ENDBRANCH   3   4
ENDBRANCH   2   3
ENDBRANCH   1   2
BRANCH   1  10
ATOM     10  C   UNL     1      -4.125   7.869  -8.711  1.00  0.00     0.000 C 
BRANCH  10  11
ATOM     11  C   UNL     1      -3.994   8.321  -7.247  1.00  0.00    -0.000 C 
BRANCH  11  12
ATOM     12  C   UNL     1      -4.453   9.772  -7.031  1.00  0.00    -0.000 C 
BRANCH  12  13
ATOM     13  C   UNL     1      -4.850  10.424  -8.365  1.00  0.00    -0.000 C 
BRANCH  13  14
ATOM     14  C   UNL     1      -6.312  10.898  -8.380  1.00  0.00    -0.000 C 
BRANCH  14  15
ATOM     15  C   UNL     1      -7.046  10.507  -9.675  1.00  0.00    -0.000 C 
BRANCH  15  16
ATOM     16  C   UNL     1      -6.080  10.095 -10.797  1.00  0.00    -0.003 C 
ATOM     17  C   UNL     1      -6.661   9.013 -11.707  1.00  0.00     0.004 C 
ENDBRANCH  15  16
ENDBRANCH  14  15
ENDBRANCH  13  14
ENDBRANCH  12  13
ENDBRANCH  11  12
ENDBRANCH  10  11
ENDBRANCH   1  10
TORSDOF 13
ENDMDL
MODEL 4
REMARK VINA RESULT:    -4.849      2.877      5.338
REMARK INTER + INTRA:         -10.402
REMARK INTER:                  -8.435
REMARK INTRA:                  -1.967
REMARK UNBOUND:                -1.869
REMARK SMILES CCCCCCCCCCCCCCC(=O)[O-]
REMARK SMILES IDX 9 1 10 2 11 3 12 4 13 5 14 6 15 7 16 8 17 9 8 10 7 11 6 12
REMARK SMILES IDX 5 13 4 14 3 15 2 16 1 17
REMARK H PARENT
REMARK Flexibility Score: inf
ROOT
ATOM      1  C   UNL     1      -3.989   8.104  -7.238  1.00  0.00     0.000 C 
ENDROOT
BRANCH   1   2
ATOM      2  C   UNL     1      -4.696   7.239  -8.296  1.00  0.00     0.000 C 
BRANCH   2   3
ATOM      3  C   UNL     1      -5.996   6.555  -7.826  1.00  0.00     0.000 C 
BRANCH   3   4
ATOM      4  C   UNL     1      -7.222   7.481  -7.721  1.00  0.00     0.000 C 
BRANCH   4   5
ATOM      5  C   UNL     1      -8.552   6.725  -7.852  1.00  0.00     0.006 C 
BRANCH   5   6
ATOM      6  C   UNL     1      -8.649   6.016  -9.207  1.00  0.00     0.053 C 
BRANCH   6   7
ATOM      7  C   UNL     1      -9.847   5.123  -9.246  1.00  0.00     0.041 C 
ATOM      8  O   UNL     1     -10.127   4.394  -8.259  1.00  0.00    -0.550 OA
ATOM      9  O   UNL     1     -10.685   5.132 -10.355  1.00  0.00    -0.550 OA
ENDBRANCH   6   7
ENDBRANCH   5   6
ENDBRANCH   4   5
ENDBRANCH   3   4
ENDBRANCH   2   3
ENDBRANCH   1   2
BRANCH   1  10
ATOM     10  C   UNL     1      -4.102   9.610  -7.525  1.00  0.00     0.000 C 
BRANCH  10  11
ATOM     11  C   UNL     1      -4.412   9.908  -9.001  1.00  0.00    -0.000 C 
BRANCH  11  12
ATOM     12  C   UNL     1      -5.270  11.170  -9.184  1.00  0.00    -0.000 C 
BRANCH  12  13
ATOM     13  C   UNL     1      -6.700  10.937  -8.673  1.00  0.00    -0.000 C 
BRANCH  13  14
ATOM     14  C   UNL     1      -7.762  11.171  -9.760  1.00  0.00    -0.000 C 
BRANCH  14  15
ATOM     15  C   UNL     1      -8.201   9.866 -10.448  1.00  0.00    -0.000 C 
BRANCH  15  16
ATOM     16  C   UNL     1      -7.277   9.474 -11.611  1.00  0.00    -0.003 C 
ATOM     17  C   UNL     1      -6.520   8.172 -11.351  1.00  0.00     0.004 C 
ENDBRANCH  15  16
ENDBRANCH  14  15
ENDBRANCH  13  14
ENDBRANCH  12  13
ENDBRANCH  11  12
ENDBRANCH  10  11
ENDBRANCH   1  10
TORSDOF 13
ENDMDL
MODEL 5
REMARK VINA RESULT:    -4.843      2.615      5.326
REMARK INTER + INTRA:         -10.392
REMARK INTER:                  -8.678
REMARK INTRA:                  -1.714
REMARK UNBOUND:                -1.869
REMARK SMILES CCCCCCCCCCCCCCC(=O)[O-]
REMARK SMILES IDX 9 1 10 2 11 3 12 4 13 5 14 6 15 7 16 8 17 9 8 10 7 11 6 12
REMARK SMILES IDX 5 13 4 14 3 15 2 16 1 17
REMARK H PARENT
REMARK Flexibility Score: inf
ROOT
ATOM      1  C   UNL     1      -8.067   9.326  -9.905  1.00  0.00     0.000 C 
ENDROOT
BRANCH   1   2
ATOM      2  C   UNL     1      -7.000   8.334 -10.403  1.00  0.00     0.000 C 
BRANCH   2   3
ATOM      3  C   UNL     1      -6.877   7.033  -9.584  1.00  0.00     0.000 C 
BRANCH   3   4
ATOM      4  C   UNL     1      -7.427   7.109  -8.149  1.00  0.00     0.000 C 
BRANCH   4   5
ATOM      5  C   UNL     1      -8.709   6.285  -7.958  1.00  0.00     0.006 C 
BRANCH   5   6
ATOM      6  C   UNL     1      -9.101   5.573  -9.256  1.00  0.00     0.053 C 
BRANCH   6   7
ATOM      7  C   UNL     1      -9.147   4.093  -9.049  1.00  0.00     0.041 C 
ATOM      8  O   UNL     1     -10.207   3.541  -8.654  1.00  0.00    -0.550 OA
ATOM      9  O   UNL     1      -8.032   3.315  -9.340  1.00  0.00    -0.550 OA
ENDBRANCH   6   7
ENDBRANCH   5   6
ENDBRANCH   4   5
ENDBRANCH   3   4
ENDBRANCH   2   3
ENDBRANCH   1   2
BRANCH   1  10
ATOM     10  C   UNL     1      -7.736  10.785 -10.259  1.00  0.00     0.000 C 
BRANCH  10  11
ATOM     11  C   UNL     1      -7.069  11.539  -9.095  1.00  0.00    -0.000 C 
BRANCH  11  12
ATOM     12  C   UNL     1      -5.591  11.860  -9.367  1.00  0.00    -0.000 C 
BRANCH  12  13
ATOM     13  C   UNL     1      -4.700  10.650  -9.049  1.00  0.00    -0.000 C 
BRANCH  13  14
ATOM     14  C   UNL     1      -5.009  10.033  -7.675  1.00  0.00    -0.000 C 
BRANCH  14  15
ATOM     15  C   UNL     1      -3.824   9.230  -7.109  1.00  0.00    -0.000 C 
BRANCH  15  16
ATOM     16  C   UNL     1      -3.690   7.843  -7.757  1.00  0.00    -0.003 C 
ATOM     17  C   UNL     1      -3.896   6.703  -6.760  1.00  0.00     0.004 C 
ENDBRANCH  15  16
ENDBRANCH  14  15
ENDBRANCH  13  14
ENDBRANCH  12  13
ENDBRANCH  11  12
ENDBRANCH  10  11
ENDBRANCH   1  10
TORSDOF 13
ENDMDL
MODEL 6
REMARK VINA RESULT:    -4.805      2.427      5.602
REMARK INTER + INTRA:         -10.326
REMARK INTER:                  -8.633
REMARK INTRA:                  -1.693
REMARK UNBOUND:                -1.869
REMARK SMILES CCCCCCCCCCCCCCC(=O)[O-]
REMARK SMILES IDX 9 1 10 2 11 3 12 4 13 5 14 6 15 7 16 8 17 9 8 10 7 11 6 12
REMARK SMILES IDX 5 13 4 14 3 15 2 16 1 17
REMARK H PARENT
REMARK Flexibility Score: inf
ROOT
ATOM      1  C   UNL     1      -6.367   6.900  -7.733  1.00  0.00     0.000 C 
ENDROOT
BRANCH   1   2
ATOM      2  C   UNL     1      -7.032   6.780  -9.116  1.00  0.00     0.000 C 
BRANCH   2   3
ATOM      3  C   UNL     1      -8.563   6.589  -9.096  1.00  0.00     0.000 C 
BRANCH   3   4
ATOM      4  C   UNL     1      -9.039   5.126  -9.056  1.00  0.00     0.000 C 
BRANCH   4   5
ATOM      5  C   UNL     1     -10.024   4.851  -7.911  1.00  0.00     0.006 C 
BRANCH   5   6
ATOM      6  C   UNL     1     -10.144   6.068  -6.988  1.00  0.00     0.053 C 
BRANCH   6   7
ATOM      7  C   UNL     1      -9.650   5.736  -5.616  1.00  0.00     0.041 C 
ATOM      8  O   UNL     1      -8.689   6.378  -5.117  1.00  0.00    -0.550 OA
ATOM      9  O   UNL     1     -10.284   4.752  -4.868  1.00  0.00    -0.550 OA
ENDBRANCH   6   7
ENDBRANCH   5   6
ENDBRANCH   4   5
ENDBRANCH   3   4
ENDBRANCH   2   3
ENDBRANCH   1   2
BRANCH   1  10
ATOM     10  C   UNL     1      -4.845   7.102  -7.818  1.00  0.00     0.000 C 
BRANCH  10  11
ATOM     11  C   UNL     1      -4.457   8.299  -8.702  1.00  0.00    -0.000 C 
BRANCH  11  12
ATOM     12  C   UNL     1      -4.390   9.619  -7.917  1.00  0.00    -0.000 C 
BRANCH  12  13
ATOM     13  C   UNL     1      -5.690  10.421  -8.085  1.00  0.00    -0.000 C 
BRANCH  13  14
ATOM     14  C   UNL     1      -5.948  10.832  -9.543  1.00  0.00    -0.000 C 
BRANCH  14  15
ATOM     15  C   UNL     1      -7.444  10.823  -9.904  1.00  0.00    -0.000 C 
BRANCH  15  16
ATOM     16  C   UNL     1      -7.787   9.768 -10.967  1.00  0.00    -0.003 C 
ATOM     17  C   UNL     1      -6.568   9.336 -11.782  1.00  0.00     0.004 C 
ENDBRANCH  15  16
ENDBRANCH  14  15
ENDBRANCH  13  14
ENDBRANCH  12  13
ENDBRANCH  11  12
ENDBRANCH  10  11
ENDBRANCH   1  10
TORSDOF 13
ENDMDL
MODEL 7
REMARK VINA RESULT:    -4.791     11.784     13.868
REMARK INTER + INTRA:         -10.300
REMARK INTER:                  -8.334
REMARK INTRA:                  -1.967
REMARK UNBOUND:                -1.869
REMARK SMILES CCCCCCCCCCCCCCC(=O)[O-]
REMARK SMILES IDX 9 1 10 2 11 3 12 4 13 5 14 6 15 7 16 8 17 9 8 10 7 11 6 12
REMARK SMILES IDX 5 13 4 14 3 15 2 16 1 17
REMARK H PARENT
REMARK Flexibility Score: inf
ROOT
ATOM      1  C   UNL     1       5.387  14.439 -16.316  1.00  0.00     0.000 C 
ENDROOT
BRANCH   1   2
ATOM      2  C   UNL     1       4.245  14.859 -17.258  1.00  0.00     0.000 C 
BRANCH   2   3
ATOM      3  C   UNL     1       2.826  14.485 -16.781  1.00  0.00     0.000 C 
BRANCH   3   4
ATOM      4  C   UNL     1       2.296  13.137 -17.300  1.00  0.00     0.000 C 
BRANCH   4   5
ATOM      5  C   UNL     1       2.054  12.119 -16.175  1.00  0.00     0.006 C 
BRANCH   5   6
ATOM      6  C   UNL     1       1.636  10.761 -16.747  1.00  0.00     0.053 C 
BRANCH   6   7
ATOM      7  C   UNL     1       1.225   9.834 -15.647  1.00  0.00     0.041 C 
ATOM      8  O   UNL     1       0.859   8.659 -15.913  1.00  0.00    -0.550 OA
ATOM      9  O   UNL     1       1.293  10.252 -14.324  1.00  0.00    -0.550 OA
ENDBRANCH   6   7
ENDBRANCH   5   6
ENDBRANCH   4   5
ENDBRANCH   3   4
ENDBRANCH   2   3
ENDBRANCH   1   2
BRANCH   1  10
ATOM     10  C   UNL     1       6.597  13.859 -17.066  1.00  0.00     0.000 C 
BRANCH  10  11
ATOM     11  C   UNL     1       6.858  12.385 -16.715  1.00  0.00    -0.000 C 
BRANCH  11  12
ATOM     12  C   UNL     1       5.571  11.621 -16.367  1.00  0.00    -0.000 C 
BRANCH  12  13
ATOM     13  C   UNL     1       5.881  10.398 -15.490  1.00  0.00    -0.000 C 
BRANCH  13  14
ATOM     14  C   UNL     1       5.733  10.693 -13.989  1.00  0.00    -0.000 C 
BRANCH  14  15
ATOM     15  C   UNL     1       4.654  11.751 -13.698  1.00  0.00    -0.000 C 
BRANCH  15  16
ATOM     16  C   UNL     1       5.199  12.942 -12.896  1.00  0.00    -0.003 C 
ATOM     17  C   UNL     1       6.706  13.128 -13.067  1.00  0.00     0.004 C 
ENDBRANCH  15  16
ENDBRANCH  14  15
ENDBRANCH  13  14
ENDBRANCH  12  13
ENDBRANCH  11  12
ENDBRANCH  10  11
ENDBRANCH   1  10
TORSDOF 13
ENDMDL
MODEL 8
REMARK VINA RESULT:    -4.784      2.732      4.128
REMARK INTER + INTRA:         -10.289
REMARK INTER:                  -8.626
REMARK INTRA:                  -1.663
REMARK UNBOUND:                -1.869
REMARK SMILES CCCCCCCCCCCCCCC(=O)[O-]
REMARK SMILES IDX 9 1 10 2 11 3 12 4 13 5 14 6 15 7 16 8 17 9 8 10 7 11 6 12
REMARK SMILES IDX 5 13 4 14 3 15 2 16 1 17
REMARK H PARENT
REMARK Flexibility Score: inf
ROOT
ATOM      1  C   UNL     1      -5.219   6.486  -7.639  1.00  0.00     0.000 C 
ENDROOT
BRANCH   1   2
ATOM      2  C   UNL     1      -4.061   7.451  -7.331  1.00  0.00     0.000 C 
BRANCH   2   3
ATOM      3  C   UNL     1      -4.015   8.723  -8.201  1.00  0.00     0.000 C 
BRANCH   3   4
ATOM      4  C   UNL     1      -4.870   9.896  -7.691  1.00  0.00     0.000 C 
BRANCH   4   5
ATOM      5  C   UNL     1      -5.295  10.856  -8.811  1.00  0.00     0.006 C 
BRANCH   5   6
ATOM      6  C   UNL     1      -5.322  10.140 -10.165  1.00  0.00     0.053 C 
BRANCH   6   7
ATOM      7  C   UNL     1      -6.703  10.155 -10.739  1.00  0.00     0.041 C 
ATOM      8  O   UNL     1      -7.614  10.819 -10.180  1.00  0.00    -0.550 OA
ATOM      9  O   UNL     1      -6.972   9.475 -11.921  1.00  0.00    -0.550 OA
ENDBRANCH   6   7
ENDBRANCH   5   6
ENDBRANCH   4   5
ENDBRANCH   3   4
ENDBRANCH   2   3
ENDBRANCH   1   2
BRANCH   1  10
ATOM     10  C   UNL     1      -5.514   6.368  -9.143  1.00  0.00     0.000 C 
BRANCH  10  11
ATOM     11  C   UNL     1      -6.966   6.738  -9.491  1.00  0.00    -0.000 C 
BRANCH  11  12
ATOM     12  C   UNL     1      -7.780   7.167  -8.261  1.00  0.00    -0.000 C 
BRANCH  12  13
ATOM     13  C   UNL     1      -8.973   6.224  -8.039  1.00  0.00    -0.000 C 
BRANCH  13  14
ATOM     14  C   UNL     1      -9.933   6.193  -9.238  1.00  0.00    -0.000 C 
BRANCH  14  15
ATOM     15  C   UNL     1     -10.094   4.781  -9.830  1.00  0.00    -0.000 C 
BRANCH  15  16
ATOM     16  C   UNL     1      -9.167   3.754  -9.161  1.00  0.00    -0.003 C 
ATOM     17  C   UNL     1      -9.936   2.673  -8.402  1.00  0.00     0.004 C 
ENDBRANCH  15  16
ENDBRANCH  14  15
ENDBRANCH  13  14
ENDBRANCH  12  13
ENDBRANCH  11  12
ENDBRANCH  10  11
ENDBRANCH   1  10
TORSDOF 13
ENDMDL
MODEL 9
REMARK VINA RESULT:    -4.646     11.778     13.447
REMARK INTER + INTRA:         -10.046
REMARK INTER:                  -7.976
REMARK INTRA:                  -2.069
REMARK UNBOUND:                -1.869
REMARK SMILES CCCCCCCCCCCCCCC(=O)[O-]
REMARK SMILES IDX 9 1 10 2 11 3 12 4 13 5 14 6 15 7 16 8 17 9 8 10 7 11 6 12
REMARK SMILES IDX 5 13 4 14 3 15 2 16 1 17
REMARK H PARENT
REMARK Flexibility Score: inf
ROOT
ATOM      1  C   UNL     1       5.419  12.795 -17.333  1.00  0.00     0.000 C 
ENDROOT
BRANCH   1   2
ATOM      2  C   UNL     1       6.532  12.025 -16.600  1.00  0.00     0.000 C 
BRANCH   2   3
ATOM      3  C   UNL     1       6.063  10.793 -15.799  1.00  0.00     0.000 C 
BRANCH   3   4
ATOM      4  C   UNL     1       4.712  10.955 -15.080  1.00  0.00     0.000 C 
BRANCH   4   5
ATOM      5  C   UNL     1       4.810  11.822 -13.817  1.00  0.00     0.006 C 
BRANCH   5   6
ATOM      6  C   UNL     1       6.107  11.535 -13.054  1.00  0.00     0.053 C 
BRANCH   6   7
ATOM      7  C   UNL     1       6.824  12.809 -12.741  1.00  0.00     0.041 C 
ATOM      8  O   UNL     1       7.517  12.905 -11.694  1.00  0.00    -0.550 OA
ATOM      9  O   UNL     1       6.768  13.875 -13.630  1.00  0.00    -0.550 OA
ENDBRANCH   6   7
ENDBRANCH   5   6
ENDBRANCH   4   5
ENDBRANCH   3   4
ENDBRANCH   2   3
ENDBRANCH   1   2
BRANCH   1  10
ATOM     10  C   UNL     1       5.352  14.277 -16.928  1.00  0.00     0.000 C 
BRANCH  10  11
ATOM     11  C   UNL     1       3.977  14.673 -16.364  1.00  0.00    -0.000 C 
BRANCH  11  12
ATOM     12  C   UNL     1       2.836  13.807 -16.918  1.00  0.00    -0.000 C 
BRANCH  12  13
ATOM     13  C   UNL     1       1.974  13.242 -15.778  1.00  0.00    -0.000 C 
BRANCH  13  14
ATOM     14  C   UNL     1       0.995  12.159 -16.258  1.00  0.00    -0.000 C 
BRANCH  14  15
ATOM     15  C   UNL     1       1.608  11.240 -17.328  1.00  0.00    -0.000 C 
BRANCH  15  16
ATOM     16  C   UNL     1       1.607   9.762 -16.906  1.00  0.00    -0.003 C 
ATOM     17  C   UNL     1       1.161   9.564 -15.457  1.00  0.00     0.004 C 
ENDBRANCH  15  16
ENDBRANCH  14  15
ENDBRANCH  13  14
ENDBRANCH  12  13
ENDBRANCH  11  12
ENDBRANCH  10  11
ENDBRANCH   1  10
TORSDOF 13
ENDMDL
