MODEL 1
REMARK VINA RESULT:    -7.576      0.000      0.000
REMARK INTER + INTRA:          -8.240
REMARK INTER:                  -8.240
REMARK INTRA:                   0.000
REMARK UNBOUND:                 0.000
REMARK SMILES Cc1cc(O)c2c(c1)C(=O)c1cc(O)cc(O)c1C2=O
REMARK SMILES IDX 1 1 2 2 8 3 7 4 6 5 4 6 3 7 19 8 20 9 18 10 11 11 9 12 10 13
REMARK SMILES IDX 12 14 13 15 15 16 16 17 5 18 17 20 14 22
REMARK H PARENT 5 19 17 21 14 23
REMARK Flexibility Score: inf
ROOT
ATOM      1  C   UNL     1       5.501   4.292 -21.514  1.00  0.00     0.044 C 
ATOM      2  C   UNL     1       5.279   3.032 -22.299  1.00  0.00    -0.047 A 
ATOM      3  C   UNL     1       4.949   1.842 -21.642  1.00  0.00     0.016 A 
ATOM      4  C   UNL     1       4.697   0.668 -22.371  1.00  0.00     0.038 A 
ATOM      5  C   UNL     1       4.750   0.690 -23.783  1.00  0.00     0.076 A 
ATOM      6  C   UNL     1       5.129   1.888 -24.441  1.00  0.00     0.127 A 
ATOM      7  C   UNL     1       5.356   3.050 -23.695  1.00  0.00     0.050 A 
ATOM      8  C   UNL     1       4.333  -0.530 -24.519  1.00  0.00     0.201 C 
ATOM      9  O   UNL     1       3.817  -0.426 -25.665  1.00  0.00    -0.288 OA
ATOM     10  C   UNL     1       4.349  -1.849 -23.834  1.00  0.00     0.076 A 
ATOM     11  C   UNL     1       4.297  -1.867 -22.422  1.00  0.00     0.041 A 
ATOM     12  C   UNL     1       4.380  -0.596 -21.664  1.00  0.00     0.194 C 
ATOM     13  O   UNL     1       4.205  -0.595 -20.414  1.00  0.00    -0.289 OA
ATOM     14  C   UNL     1       4.172  -3.090 -21.743  1.00  0.00     0.059 A 
ATOM     15  C   UNL     1       4.114  -4.291 -22.451  1.00  0.00     0.120 A 
ATOM     16  C   UNL     1       4.207  -4.281 -23.844  1.00  0.00     0.093 A 
ATOM     17  C   UNL     1       4.352  -3.079 -24.543  1.00  0.00     0.131 A 
ENDROOT
BRANCH   6  18
ATOM     18  O   UNL     1       5.324   1.963 -25.822  1.00  0.00    -0.507 OA
ATOM     19  H   UNL     1       5.055   1.230 -26.464  1.00  0.00     0.293 HD
ENDBRANCH   6  18
BRANCH  17  20
ATOM     20  O   UNL     1       4.530  -3.153 -25.927  1.00  0.00    -0.507 OA
ATOM     21  H   UNL     1       3.793  -2.980 -26.595  1.00  0.00     0.293 HD
ENDBRANCH  17  20
BRANCH  15  22
ATOM     22  O   UNL     1       3.977  -5.491 -21.757  1.00  0.00    -0.508 OA
ATOM     23  H   UNL     1       3.863  -6.374 -22.241  1.00  0.00     0.293 HD
ENDBRANCH  15  22
TORSDOF 3
ENDMDL
MODEL 2
REMARK VINA RESULT:    -7.213      5.638      9.980
REMARK INTER + INTRA:          -7.845
REMARK INTER:                  -7.845
REMARK INTRA:                   0.000
REMARK UNBOUND:                 0.000
REMARK SMILES Cc1cc(O)c2c(c1)C(=O)c1cc(O)cc(O)c1C2=O
REMARK SMILES IDX 1 1 2 2 8 3 7 4 6 5 4 6 3 7 19 8 20 9 18 10 11 11 9 12 10 13
REMARK SMILES IDX 12 14 13 15 15 16 16 17 5 18 17 20 14 22
REMARK H PARENT 5 19 17 21 14 23
REMARK Flexibility Score: inf
ROOT
ATOM      1  C   UNL     1       5.127   2.983 -21.186  1.00  0.00     0.044 C 
ATOM      2  C   UNL     1       4.669   4.164 -21.991  1.00  0.00    -0.047 A 
ATOM      3  C   UNL     1       5.348   5.384 -21.899  1.00  0.00     0.016 A 
ATOM      4  C   UNL     1       4.954   6.483 -22.681  1.00  0.00     0.038 A 
ATOM      5  C   UNL     1       3.880   6.352 -23.590  1.00  0.00     0.076 A 
ATOM      6  C   UNL     1       3.167   5.126 -23.645  1.00  0.00     0.127 A 
ATOM      7  C   UNL     1       3.590   4.040 -22.871  1.00  0.00     0.050 A 
ATOM      8  C   UNL     1       3.590   7.488 -24.502  1.00  0.00     0.201 C 
ATOM      9  O   UNL     1       3.099   7.267 -25.641  1.00  0.00    -0.288 OA
ATOM     10  C   UNL     1       4.052   8.855 -24.149  1.00  0.00     0.076 A 
ATOM     11  C   UNL     1       5.127   8.982 -23.239  1.00  0.00     0.041 A 
ATOM     12  C   UNL     1       5.659   7.781 -22.553  1.00  0.00     0.194 C 
ATOM     13  O   UNL     1       6.697   7.869 -21.841  1.00  0.00    -0.289 OA
ATOM     14  C   UNL     1       5.681  10.247 -22.986  1.00  0.00     0.059 A 
ATOM     15  C   UNL     1       5.171  11.384 -23.613  1.00  0.00     0.120 A 
ATOM     16  C   UNL     1       4.083  11.269 -24.480  1.00  0.00     0.093 A 
ATOM     17  C   UNL     1       3.499  10.024 -24.735  1.00  0.00     0.131 A 
ENDROOT
BRANCH   6  18
ATOM     18  O   UNL     1       2.020   4.953 -24.424  1.00  0.00    -0.507 OA
ATOM     19  H   UNL     1       2.043   4.762 -25.415  1.00  0.00     0.293 HD
ENDBRANCH   6  18
BRANCH  17  20
ATOM     20  O   UNL     1       2.359   9.998 -25.541  1.00  0.00    -0.507 OA
ATOM     21  H   UNL     1       1.852  10.826 -25.820  1.00  0.00     0.293 HD
ENDBRANCH  17  20
BRANCH  15  22
ATOM     22  O   UNL     1       5.746  12.627 -23.355  1.00  0.00    -0.508 OA
ATOM     23  H   UNL     1       5.557  13.130 -22.496  1.00  0.00     0.293 HD
ENDBRANCH  15  22
TORSDOF 3
ENDMDL
MODEL 3
REMARK VINA RESULT:    -7.065      1.399      5.479
REMARK INTER + INTRA:          -7.685
REMARK INTER:                  -7.685
REMARK INTRA:                   0.000
REMARK UNBOUND:                 0.000
REMARK SMILES Cc1cc(O)c2c(c1)C(=O)c1cc(O)cc(O)c1C2=O
REMARK SMILES IDX 1 1 2 2 8 3 7 4 6 5 4 6 3 7 19 8 20 9 18 10 11 11 9 12 10 13
REMARK SMILES IDX 12 14 13 15 15 16 16 17 5 18 17 20 14 22
REMARK H PARENT 5 19 17 21 14 23
REMARK Flexibility Score: inf
ROOT
ATOM      1  C   UNL     1       2.500  -5.084 -21.501  1.00  0.00     0.044 C 
ATOM      2  C   UNL     1       2.972  -3.866 -22.240  1.00  0.00    -0.047 A 
ATOM      3  C   UNL     1       3.467  -2.763 -21.537  1.00  0.00     0.016 A 
ATOM      4  C   UNL     1       3.952  -1.636 -22.221  1.00  0.00     0.038 A 
ATOM      5  C   UNL     1       3.968  -1.623 -23.634  1.00  0.00     0.076 A 
ATOM      6  C   UNL     1       3.424  -2.726 -24.341  1.00  0.00     0.127 A 
ATOM      7  C   UNL     1       2.965  -3.845 -23.639  1.00  0.00     0.050 A 
ATOM      8  C   UNL     1       4.624  -0.479 -24.318  1.00  0.00     0.201 C 
ATOM      9  O   UNL     1       5.172  -0.650 -25.440  1.00  0.00    -0.288 OA
ATOM     10  C   UNL     1       4.797   0.810 -23.600  1.00  0.00     0.076 A 
ATOM     11  C   UNL     1       4.780   0.793 -22.186  1.00  0.00     0.041 A 
ATOM     12  C   UNL     1       4.443  -0.458 -21.467  1.00  0.00     0.194 C 
ATOM     13  O   UNL     1       4.552  -0.512 -20.211  1.00  0.00    -0.289 OA
ATOM     14  C   UNL     1       5.077   1.964 -21.470  1.00  0.00     0.059 A 
ATOM     15  C   UNL     1       5.375   3.150 -22.142  1.00  0.00     0.120 A 
ATOM     16  C   UNL     1       5.352   3.182 -23.538  1.00  0.00     0.093 A 
ATOM     17  C   UNL     1       5.041   2.035 -24.274  1.00  0.00     0.131 A 
ENDROOT
BRANCH   6  18
ATOM     18  O   UNL     1       3.290  -2.741 -25.732  1.00  0.00    -0.507 OA
ATOM     19  H   UNL     1       2.406  -2.630 -26.208  1.00  0.00     0.293 HD
ENDBRANCH   6  18
BRANCH  17  20
ATOM     20  O   UNL     1       4.949   2.164 -25.662  1.00  0.00    -0.507 OA
ATOM     21  H   UNL     1       5.269   1.459 -26.311  1.00  0.00     0.293 HD
ENDBRANCH  17  20
BRANCH  15  22
ATOM     22  O   UNL     1       5.678   4.296 -21.410  1.00  0.00    -0.508 OA
ATOM     23  H   UNL     1       5.853   5.185 -21.865  1.00  0.00     0.293 HD
ENDBRANCH  15  22
TORSDOF 3
ENDMDL
MODEL 4
REMARK VINA RESULT:    -6.794      7.702     10.542
REMARK INTER + INTRA:          -7.390
REMARK INTER:                  -7.390
REMARK INTRA:                   0.000
REMARK UNBOUND:                 0.000
REMARK SMILES Cc1cc(O)c2c(c1)C(=O)c1cc(O)cc(O)c1C2=O
REMARK SMILES IDX 1 1 2 2 8 3 7 4 6 5 4 6 3 7 19 8 20 9 18 10 11 11 9 12 10 13
REMARK SMILES IDX 12 14 13 15 15 16 16 17 5 18 17 20 14 22
REMARK H PARENT 5 19 17 21 14 23
REMARK Flexibility Score: inf
ROOT
ATOM      1  C   UNL     1       7.334  13.290 -27.125  1.00  0.00     0.044 C 
ATOM      2  C   UNL     1       6.994  12.255 -26.093  1.00  0.00    -0.047 A 
ATOM      3  C   UNL     1       6.081  11.237 -26.392  1.00  0.00     0.016 A 
ATOM      4  C   UNL     1       5.788  10.238 -25.448  1.00  0.00     0.038 A 
ATOM      5  C   UNL     1       6.440  10.242 -24.193  1.00  0.00     0.076 A 
ATOM      6  C   UNL     1       7.330  11.301 -23.881  1.00  0.00     0.127 A 
ATOM      7  C   UNL     1       7.621  12.274 -24.843  1.00  0.00     0.050 A 
ATOM      8  C   UNL     1       6.216   9.090 -23.283  1.00  0.00     0.201 C 
ATOM      9  O   UNL     1       7.124   8.736 -22.485  1.00  0.00    -0.288 OA
ATOM     10  C   UNL     1       5.004   8.245 -23.446  1.00  0.00     0.076 A 
ATOM     11  C   UNL     1       4.355   8.244 -24.702  1.00  0.00     0.041 A 
ATOM     12  C   UNL     1       4.796   9.183 -25.760  1.00  0.00     0.194 C 
ATOM     13  O   UNL     1       4.307   9.099 -26.921  1.00  0.00    -0.289 OA
ATOM     14  C   UNL     1       3.292   7.357 -24.938  1.00  0.00     0.059 A 
ATOM     15  C   UNL     1       2.859   6.487 -23.937  1.00  0.00     0.120 A 
ATOM     16  C   UNL     1       3.470   6.512 -22.682  1.00  0.00     0.093 A 
ATOM     17  C   UNL     1       4.518   7.399 -22.415  1.00  0.00     0.131 A 
ENDROOT
BRANCH   6  18
ATOM     18  O   UNL     1       7.919  11.446 -22.622  1.00  0.00    -0.507 OA
ATOM     19  H   UNL     1       8.130  10.669 -22.012  1.00  0.00     0.293 HD
ENDBRANCH   6  18
BRANCH  17  20
ATOM     20  O   UNL     1       5.019   7.432 -21.111  1.00  0.00    -0.507 OA
ATOM     21  H   UNL     1       5.926   7.806 -20.871  1.00  0.00     0.293 HD
ENDBRANCH  17  20
BRANCH  15  22
ATOM     22  O   UNL     1       1.811   5.607 -24.199  1.00  0.00    -0.508 OA
ATOM     23  H   UNL     1       1.208   5.266 -23.460  1.00  0.00     0.293 HD
ENDBRANCH  15  22
TORSDOF 3
ENDMDL
MODEL 5
REMARK VINA RESULT:    -6.779      3.134      3.524
REMARK INTER + INTRA:          -7.373
REMARK INTER:                  -7.373
REMARK INTRA:                   0.000
REMARK UNBOUND:                 0.000
REMARK SMILES Cc1cc(O)c2c(c1)C(=O)c1cc(O)cc(O)c1C2=O
REMARK SMILES IDX 1 1 2 2 8 3 7 4 6 5 4 6 3 7 19 8 20 9 18 10 11 11 9 12 10 13
REMARK SMILES IDX 12 14 13 15 15 16 16 17 5 18 17 20 14 22
REMARK H PARENT 5 19 17 21 14 23
REMARK Flexibility Score: inf
ROOT
ATOM      1  C   UNL     1       2.764   2.422 -27.122  1.00  0.00     0.044 C 
ATOM      2  C   UNL     1       3.315   1.182 -26.482  1.00  0.00    -0.047 A 
ATOM      3  C   UNL     1       2.458   0.274 -25.851  1.00  0.00     0.016 A 
ATOM      4  C   UNL     1       2.959  -0.911 -25.287  1.00  0.00     0.038 A 
ATOM      5  C   UNL     1       4.337  -1.208 -25.381  1.00  0.00     0.076 A 
ATOM      6  C   UNL     1       5.208  -0.263 -25.982  1.00  0.00     0.127 A 
ATOM      7  C   UNL     1       4.684   0.901 -26.554  1.00  0.00     0.050 A 
ATOM      8  C   UNL     1       4.803  -2.536 -24.905  1.00  0.00     0.201 C 
ATOM      9  O   UNL     1       5.805  -3.078 -25.444  1.00  0.00    -0.288 OA
ATOM     10  C   UNL     1       3.982  -3.302 -23.933  1.00  0.00     0.076 A 
ATOM     11  C   UNL     1       2.603  -3.002 -23.842  1.00  0.00     0.041 A 
ATOM     12  C   UNL     1       2.047  -1.851 -24.591  1.00  0.00     0.194 C 
ATOM     13  O   UNL     1       0.800  -1.656 -24.616  1.00  0.00    -0.289 OA
ATOM     14  C   UNL     1       1.768  -3.794 -23.037  1.00  0.00     0.059 A 
ATOM     15  C   UNL     1       2.289  -4.866 -22.313  1.00  0.00     0.120 A 
ATOM     16  C   UNL     1       3.657  -5.141 -22.367  1.00  0.00     0.093 A 
ATOM     17  C   UNL     1       4.514  -4.356 -23.145  1.00  0.00     0.131 A 
ENDROOT
BRANCH   6  18
ATOM     18  O   UNL     1       6.596  -0.422 -26.006  1.00  0.00    -0.507 OA
ATOM     19  H   UNL     1       7.189  -0.035 -26.727  1.00  0.00     0.293 HD
ENDBRANCH   6  18
BRANCH  17  20
ATOM     20  O   UNL     1       5.882  -4.633 -23.080  1.00  0.00    -0.507 OA
ATOM     21  H   UNL     1       6.594  -3.920 -23.027  1.00  0.00     0.293 HD
ENDBRANCH  17  20
BRANCH  15  22
ATOM     22  O   UNL     1       1.439  -5.645 -21.532  1.00  0.00    -0.508 OA
ATOM     23  H   UNL     1       1.182  -5.370 -20.591  1.00  0.00     0.293 HD
ENDBRANCH  15  22
TORSDOF 3
ENDMDL
MODEL 6
REMARK VINA RESULT:    -6.730      3.121      7.019
REMARK INTER + INTRA:          -7.320
REMARK INTER:                  -7.320
REMARK INTRA:                   0.000
REMARK UNBOUND:                 0.000
REMARK SMILES Cc1cc(O)c2c(c1)C(=O)c1cc(O)cc(O)c1C2=O
REMARK SMILES IDX 1 1 2 2 8 3 7 4 6 5 4 6 3 7 19 8 20 9 18 10 11 11 9 12 10 13
REMARK SMILES IDX 12 14 13 15 15 16 16 17 5 18 17 20 14 22
REMARK H PARENT 5 19 17 21 14 23
REMARK Flexibility Score: inf
ROOT
ATOM      1  C   UNL     1       5.874  -0.880 -21.498  1.00  0.00     0.044 C 
ATOM      2  C   UNL     1       5.297   0.272 -22.267  1.00  0.00    -0.047 A 
ATOM      3  C   UNL     1       5.545   1.587 -21.858  1.00  0.00     0.016 A 
ATOM      4  C   UNL     1       5.045   2.672 -22.596  1.00  0.00     0.038 A 
ATOM      5  C   UNL     1       4.308   2.440 -23.779  1.00  0.00     0.076 A 
ATOM      6  C   UNL     1       4.023   1.105 -24.164  1.00  0.00     0.127 A 
ATOM      7  C   UNL     1       4.547   0.040 -23.425  1.00  0.00     0.050 A 
ATOM      8  C   UNL     1       3.926   3.612 -24.608  1.00  0.00     0.201 C 
ATOM      9  O   UNL     1       3.810   3.485 -25.857  1.00  0.00    -0.288 OA
ATOM     10  C   UNL     1       3.866   4.963 -23.994  1.00  0.00     0.076 A 
ATOM     11  C   UNL     1       4.605   5.192 -22.810  1.00  0.00     0.041 A 
ATOM     12  C   UNL     1       5.285   4.061 -22.136  1.00  0.00     0.194 C 
ATOM     13  O   UNL     1       6.048   4.279 -21.155  1.00  0.00    -0.289 OA
ATOM     14  C   UNL     1       4.685   6.488 -22.276  1.00  0.00     0.059 A 
ATOM     15  C   UNL     1       4.029   7.552 -22.896  1.00  0.00     0.120 A 
ATOM     16  C   UNL     1       3.265   7.325 -24.042  1.00  0.00     0.093 A 
ATOM     17  C   UNL     1       3.152   6.040 -24.583  1.00  0.00     0.131 A 
ENDROOT
BRANCH   6  18
ATOM     18  O   UNL     1       3.200   0.791 -25.249  1.00  0.00    -0.507 OA
ATOM     19  H   UNL     1       2.470   0.094 -25.211  1.00  0.00     0.293 HD
ENDBRANCH   6  18
BRANCH  17  20
ATOM     20  O   UNL     1       2.299   5.872 -25.676  1.00  0.00    -0.507 OA
ATOM     21  H   UNL     1       1.292   5.925 -25.612  1.00  0.00     0.293 HD
ENDBRANCH  17  20
BRANCH  15  22
ATOM     22  O   UNL     1       4.134   8.832 -22.354  1.00  0.00    -0.508 OA
ATOM     23  H   UNL     1       5.035   9.252 -22.157  1.00  0.00     0.293 HD
ENDBRANCH  15  22
TORSDOF 3
ENDMDL
MODEL 7
REMARK VINA RESULT:    -6.712      5.692      8.534
REMARK INTER + INTRA:          -7.300
REMARK INTER:                  -7.300
REMARK INTRA:                   0.000
REMARK UNBOUND:                 0.000
REMARK SMILES Cc1cc(O)c2c(c1)C(=O)c1cc(O)cc(O)c1C2=O
REMARK SMILES IDX 1 1 2 2 8 3 7 4 6 5 4 6 3 7 19 8 20 9 18 10 11 11 9 12 10 13
REMARK SMILES IDX 12 14 13 15 15 16 16 17 5 18 17 20 14 22
REMARK H PARENT 5 19 17 21 14 23
REMARK Flexibility Score: inf
ROOT
ATOM      1  C   UNL     1       7.095  12.422 -24.209  1.00  0.00     0.044 C 
ATOM      2  C   UNL     1       6.232  11.194 -24.226  1.00  0.00    -0.047 A 
ATOM      3  C   UNL     1       6.476  10.150 -23.328  1.00  0.00     0.016 A 
ATOM      4  C   UNL     1       5.647   9.016 -23.307  1.00  0.00     0.038 A 
ATOM      5  C   UNL     1       4.539   8.936 -24.181  1.00  0.00     0.076 A 
ATOM      6  C   UNL     1       4.324   9.978 -25.120  1.00  0.00     0.127 A 
ATOM      7  C   UNL     1       5.151  11.106 -25.109  1.00  0.00     0.050 A 
ATOM      8  C   UNL     1       3.604   7.793 -24.026  1.00  0.00     0.201 C 
ATOM      9  O   UNL     1       2.386   7.935 -24.316  1.00  0.00    -0.288 OA
ATOM     10  C   UNL     1       4.063   6.549 -23.354  1.00  0.00     0.076 A 
ATOM     11  C   UNL     1       5.171   6.633 -22.481  1.00  0.00     0.041 A 
ATOM     12  C   UNL     1       5.932   7.900 -22.374  1.00  0.00     0.194 C 
ATOM     13  O   UNL     1       6.840   8.019 -21.504  1.00  0.00    -0.289 OA
ATOM     14  C   UNL     1       5.549   5.512 -21.723  1.00  0.00     0.059 A 
ATOM     15  C   UNL     1       4.849   4.311 -21.836  1.00  0.00     0.120 A 
ATOM     16  C   UNL     1       3.780   4.211 -22.728  1.00  0.00     0.093 A 
ATOM     17  C   UNL     1       3.395   5.306 -23.508  1.00  0.00     0.131 A 
ENDROOT
BRANCH   6  18
ATOM     18  O   UNL     1       3.329   9.920 -26.098  1.00  0.00    -0.507 OA
ATOM     19  H   UNL     1       2.425  10.361 -26.001  1.00  0.00     0.293 HD
ENDBRANCH   6  18
BRANCH  17  20
ATOM     20  O   UNL     1       2.375   5.107 -24.442  1.00  0.00    -0.507 OA
ATOM     21  H   UNL     1       1.528   5.656 -24.470  1.00  0.00     0.293 HD
ENDBRANCH  17  20
BRANCH  15  22
ATOM     22  O   UNL     1       5.235   3.216 -21.065  1.00  0.00    -0.508 OA
ATOM     23  H   UNL     1       4.590   2.763 -20.428  1.00  0.00     0.293 HD
ENDBRANCH  15  22
TORSDOF 3
ENDMDL
MODEL 8
REMARK VINA RESULT:    -6.703      5.221      9.231
REMARK INTER + INTRA:          -7.291
REMARK INTER:                  -7.291
REMARK INTRA:                   0.000
REMARK UNBOUND:                 0.000
REMARK SMILES Cc1cc(O)c2c(c1)C(=O)c1cc(O)cc(O)c1C2=O
REMARK SMILES IDX 1 1 2 2 8 3 7 4 6 5 4 6 3 7 19 8 20 9 18 10 11 11 9 12 10 13
REMARK SMILES IDX 12 14 13 15 15 16 16 17 5 18 17 20 14 22
REMARK H PARENT 5 19 17 21 14 23
REMARK Flexibility Score: inf
ROOT
ATOM      1  C   UNL     1       4.235   1.196 -23.626  1.00  0.00     0.044 C 
ATOM      2  C   UNL     1       4.235   2.690 -23.489  1.00  0.00    -0.047 A 
ATOM      3  C   UNL     1       3.243   3.455 -24.113  1.00  0.00     0.016 A 
ATOM      4  C   UNL     1       3.209   4.850 -23.956  1.00  0.00     0.038 A 
ATOM      5  C   UNL     1       4.168   5.490 -23.138  1.00  0.00     0.076 A 
ATOM      6  C   UNL     1       5.198   4.715 -22.545  1.00  0.00     0.127 A 
ATOM      7  C   UNL     1       5.200   3.325 -22.700  1.00  0.00     0.050 A 
ATOM      8  C   UNL     1       4.010   6.944 -22.878  1.00  0.00     0.201 C 
ATOM      9  O   UNL     1       4.416   7.434 -21.790  1.00  0.00    -0.288 OA
ATOM     10  C   UNL     1       3.210   7.778 -23.812  1.00  0.00     0.076 A 
ATOM     11  C   UNL     1       2.252   7.134 -24.628  1.00  0.00     0.041 A 
ATOM     12  C   UNL     1       2.174   5.655 -24.647  1.00  0.00     0.194 C 
ATOM     13  O   UNL     1       1.240   5.080 -25.273  1.00  0.00    -0.289 OA
ATOM     14  C   UNL     1       1.382   7.901 -25.421  1.00  0.00     0.059 A 
ATOM     15  C   UNL     1       1.466   9.293 -25.423  1.00  0.00     0.120 A 
ATOM     16  C   UNL     1       2.437   9.932 -24.650  1.00  0.00     0.093 A 
ATOM     17  C   UNL     1       3.328   9.192 -23.866  1.00  0.00     0.131 A 
ENDROOT
BRANCH   6  18
ATOM     18  O   UNL     1       6.252   5.283 -21.825  1.00  0.00    -0.507 OA
ATOM     19  H   UNL     1       6.513   4.991 -20.894  1.00  0.00     0.293 HD
ENDBRANCH   6  18
BRANCH  17  20
ATOM     20  O   UNL     1       4.330   9.893 -23.191  1.00  0.00    -0.507 OA
ATOM     21  H   UNL     1       4.403  10.900 -23.189  1.00  0.00     0.293 HD
ENDBRANCH  17  20
BRANCH  15  22
ATOM     22  O   UNL     1       0.584  10.033 -26.209  1.00  0.00    -0.508 OA
ATOM     23  H   UNL     1       0.910  10.773 -26.819  1.00  0.00     0.293 HD
ENDBRANCH  15  22
TORSDOF 3
ENDMDL
MODEL 9
REMARK VINA RESULT:    -6.688      2.739      4.167
REMARK INTER + INTRA:          -7.275
REMARK INTER:                  -7.275
REMARK INTRA:                   0.000
REMARK UNBOUND:                 0.000
REMARK SMILES Cc1cc(O)c2c(c1)C(=O)c1cc(O)cc(O)c1C2=O
REMARK SMILES IDX 1 1 2 2 8 3 7 4 6 5 4 6 3 7 19 8 20 9 18 10 11 11 9 12 10 13
REMARK SMILES IDX 12 14 13 15 15 16 16 17 5 18 17 20 14 22
REMARK H PARENT 5 19 17 21 14 23
REMARK Flexibility Score: inf
ROOT
ATOM      1  C   UNL     1       4.750   8.125 -21.497  1.00  0.00     0.044 C 
ATOM      2  C   UNL     1       4.333   6.903 -22.262  1.00  0.00    -0.047 A 
ATOM      3  C   UNL     1       4.765   5.636 -21.855  1.00  0.00     0.016 A 
ATOM      4  C   UNL     1       4.345   4.483 -22.538  1.00  0.00     0.038 A 
ATOM      5  C   UNL     1       3.456   4.596 -23.631  1.00  0.00     0.076 A 
ATOM      6  C   UNL     1       3.057   5.886 -24.066  1.00  0.00     0.127 A 
ATOM      7  C   UNL     1       3.472   7.019 -23.359  1.00  0.00     0.050 A 
ATOM      8  C   UNL     1       2.920   3.347 -24.231  1.00  0.00     0.201 C 
ATOM      9  O   UNL     1       1.774   3.346 -24.755  1.00  0.00    -0.288 OA
ATOM     10  C   UNL     1       3.649   2.067 -24.045  1.00  0.00     0.076 A 
ATOM     11  C   UNL     1       4.538   1.958 -22.952  1.00  0.00     0.041 A 
ATOM     12  C   UNL     1       4.834   3.148 -22.120  1.00  0.00     0.194 C 
ATOM     13  O   UNL     1       5.524   3.027 -21.070  1.00  0.00    -0.289 OA
ATOM     14  C   UNL     1       5.141   0.722 -22.662  1.00  0.00     0.059 A 
ATOM     15  C   UNL     1       4.881  -0.397 -23.454  1.00  0.00     0.120 A 
ATOM     16  C   UNL     1       4.036  -0.284 -24.560  1.00  0.00     0.093 A 
ATOM     17  C   UNL     1       3.439   0.939 -24.882  1.00  0.00     0.131 A 
ENDROOT
BRANCH   6  18
ATOM     18  O   UNL     1       2.280   6.091 -25.209  1.00  0.00    -0.507 OA
ATOM     19  H   UNL     1       1.591   6.825 -25.291  1.00  0.00     0.293 HD
ENDBRANCH   6  18
BRANCH  17  20
ATOM     20  O   UNL     1       2.679   0.998 -26.053  1.00  0.00    -0.507 OA
ATOM     21  H   UNL     1       2.303   1.855 -26.432  1.00  0.00     0.293 HD
ENDBRANCH  17  20
BRANCH  15  22
ATOM     22  O   UNL     1       5.481  -1.614 -23.139  1.00  0.00    -0.508 OA
ATOM     23  H   UNL     1       5.696  -2.299 -23.854  1.00  0.00     0.293 HD
ENDBRANCH  15  22
TORSDOF 3
ENDMDL
