MODEL 1
REMARK VINA RESULT:    -4.255      0.000      0.000
REMARK INTER + INTRA:          -5.576
REMARK INTER:                  -5.250
REMARK INTRA:                  -0.326
REMARK UNBOUND:                -0.326
REMARK SMILES O=c1c(O)c(-c2cc(O)c(O)c(O)c2)oc2cc(O)cc(O)c12
REMARK SMILES IDX 5 1 3 2 2 3 1 4 23 5 21 6 20 7 18 8 17 9 16 10 15 11 6 12
REMARK SMILES IDX 7 13 8 14 14 15 10 16 12 17 9 18 11 20 13 22 4 24 22 26
REMARK SMILES IDX 19 28
REMARK H PARENT 9 19 11 21 13 23 4 25 22 27 19 29
REMARK Flexibility Score: inf
ROOT
ATOM      1  C   UNL     1      58.203  22.373  29.173  1.00  0.00     0.180 A 
ATOM      2  C   UNL     1      58.008  23.155  28.021  1.00  0.00     0.208 A 
ATOM      3  C   UNL     1      56.840  22.973  27.264  1.00  0.00     0.238 A 
ATOM      4  O   UNL     1      56.645  23.714  26.266  1.00  0.00    -0.285 OA
ATOM      5  C   UNL     1      55.890  22.000  27.658  1.00  0.00     0.111 A 
ATOM      6  C   UNL     1      54.690  21.704  26.943  1.00  0.00     0.134 A 
ATOM      7  C   UNL     1      53.760  20.814  27.495  1.00  0.00     0.093 A 
ATOM      8  C   UNL     1      54.017  20.161  28.704  1.00  0.00     0.123 A 
ATOM      9  C   UNL     1      55.212  20.399  29.378  1.00  0.00     0.094 A 
ATOM     10  C   UNL     1      56.143  21.309  28.871  1.00  0.00     0.146 A 
ATOM     11  O   UNL     1      57.263  21.514  29.551  1.00  0.00    -0.452 OA
ENDROOT
BRANCH   1  12
ATOM     12  C   UNL     1      59.421  22.489  30.008  1.00  0.00     0.029 A 
ATOM     13  C   UNL     1      60.609  21.874  29.586  1.00  0.00     0.062 A 
ATOM     14  C   UNL     1      61.778  21.985  30.344  1.00  0.00     0.162 A 
ATOM     15  C   UNL     1      59.428  23.252  31.187  1.00  0.00     0.062 A 
ATOM     16  C   UNL     1      61.776  22.732  31.534  1.00  0.00     0.200 A 
ATOM     17  C   UNL     1      60.596  23.370  31.953  1.00  0.00     0.162 A 
BRANCH  14  18
ATOM     18  O   UNL     1      62.935  21.345  29.897  1.00  0.00    -0.504 OA
ATOM     19  H   UNL     1      63.213  20.433  30.240  1.00  0.00     0.293 HD
ENDBRANCH  14  18
BRANCH  16  20
ATOM     20  O   UNL     1      62.946  22.834  32.287  1.00  0.00    -0.502 OA
ATOM     21  H   UNL     1      63.275  23.717  32.657  1.00  0.00     0.293 HD
ENDBRANCH  16  20
BRANCH  17  22
ATOM     22  O   UNL     1      60.590  24.125  33.125  1.00  0.00    -0.504 OA
ATOM     23  H   UNL     1      61.435  24.282  33.660  1.00  0.00     0.293 HD
ENDBRANCH  17  22
ENDBRANCH   1  12
BRANCH   2  24
ATOM     24  O   UNL     1      58.949  24.125  27.663  1.00  0.00    -0.502 OA
ATOM     25  H   UNL     1      59.947  23.965  27.730  1.00  0.00     0.293 HD
ENDBRANCH   2  24
BRANCH   6  26
ATOM     26  O   UNL     1      54.381  22.229  25.685  1.00  0.00    -0.507 OA
ATOM     27  H   UNL     1      53.466  22.550  25.406  1.00  0.00     0.293 HD
ENDBRANCH   6  26
BRANCH   8  28
ATOM     28  O   UNL     1      53.093  19.265  29.238  1.00  0.00    -0.508 OA
ATOM     29  H   UNL     1      53.143  18.966  30.204  1.00  0.00     0.293 HD
ENDBRANCH   8  28
TORSDOF 7
ENDMDL
MODEL 2
REMARK VINA RESULT:    -2.412     12.245     13.980
REMARK INTER + INTRA:          -3.302
REMARK INTER:                  -3.604
REMARK INTRA:                   0.302
REMARK UNBOUND:                -0.326
REMARK SMILES O=c1c(O)c(-c2cc(O)c(O)c(O)c2)oc2cc(O)cc(O)c12
REMARK SMILES IDX 5 1 3 2 2 3 1 4 23 5 21 6 20 7 18 8 17 9 16 10 15 11 6 12
REMARK SMILES IDX 7 13 8 14 14 15 10 16 12 17 9 18 11 20 13 22 4 24 22 26
REMARK SMILES IDX 19 28
REMARK H PARENT 9 19 11 21 13 23 4 25 22 27 19 29
REMARK Flexibility Score: inf
ROOT
ATOM      1  C   UNL     1      63.399  10.254  31.330  1.00  0.00     0.180 A 
ATOM      2  C   UNL     1      64.087   9.440  32.246  1.00  0.00     0.208 A 
ATOM      3  C   UNL     1      63.744   8.082  32.342  1.00  0.00     0.238 A 
ATOM      4  O   UNL     1      64.401   7.347  33.125  1.00  0.00    -0.285 OA
ATOM      5  C   UNL     1      62.708   7.558  31.533  1.00  0.00     0.111 A 
ATOM      6  C   UNL     1      62.251   6.206  31.576  1.00  0.00     0.134 A 
ATOM      7  C   UNL     1      61.309   5.766  30.639  1.00  0.00     0.093 A 
ATOM      8  C   UNL     1      60.759   6.645  29.702  1.00  0.00     0.123 A 
ATOM      9  C   UNL     1      61.155   7.980  29.692  1.00  0.00     0.094 A 
ATOM     10  C   UNL     1      62.120   8.441  30.590  1.00  0.00     0.146 A 
ATOM     11  O   UNL     1      62.476   9.718  30.539  1.00  0.00    -0.452 OA
ENDROOT
BRANCH   1  12
ATOM     12  C   UNL     1      63.686  11.700  31.189  1.00  0.00     0.029 A 
ATOM     13  C   UNL     1      63.303  12.369  30.016  1.00  0.00     0.062 A 
ATOM     14  C   UNL     1      63.543  13.738  29.866  1.00  0.00     0.162 A 
ATOM     15  C   UNL     1      64.283  12.431  32.229  1.00  0.00     0.062 A 
ATOM     16  C   UNL     1      64.160  14.462  30.901  1.00  0.00     0.200 A 
ATOM     17  C   UNL     1      64.526  13.804  32.088  1.00  0.00     0.162 A 
BRANCH  14  18
ATOM     18  O   UNL     1      63.161  14.363  28.679  1.00  0.00    -0.504 OA
ATOM     19  H   UNL     1      62.241  14.235  28.274  1.00  0.00     0.293 HD
ENDBRANCH  14  18
BRANCH  16  20
ATOM     20  O   UNL     1      64.399  15.827  30.740  1.00  0.00    -0.502 OA
ATOM     21  H   UNL     1      64.408  16.270  29.830  1.00  0.00     0.293 HD
ENDBRANCH  16  20
BRANCH  17  22
ATOM     22  O   UNL     1      65.125  14.518  33.124  1.00  0.00    -0.504 OA
ATOM     23  H   UNL     1      65.309  15.512  33.048  1.00  0.00     0.293 HD
ENDBRANCH  17  22
ENDBRANCH   1  12
BRANCH   2  24
ATOM     24  O   UNL     1      65.122   9.973  33.020  1.00  0.00    -0.502 OA
ATOM     25  H   UNL     1      65.141   9.897  34.030  1.00  0.00     0.293 HD
ENDBRANCH   2  24
BRANCH   6  26
ATOM     26  O   UNL     1      62.667   5.272  32.530  1.00  0.00    -0.507 OA
ATOM     27  H   UNL     1      63.144   5.500  33.388  1.00  0.00     0.293 HD
ENDBRANCH   6  26
BRANCH   8  28
ATOM     28  O   UNL     1      59.809   6.202  28.784  1.00  0.00    -0.508 OA
ATOM     29  H   UNL     1      59.980   6.240  27.786  1.00  0.00     0.293 HD
ENDBRANCH   8  28
TORSDOF 7
ENDMDL
MODEL 3
REMARK VINA RESULT:    -2.058     12.664     14.253
REMARK INTER + INTRA:          -2.866
REMARK INTER:                  -2.999
REMARK INTRA:                   0.134
REMARK UNBOUND:                -0.326
REMARK SMILES O=c1c(O)c(-c2cc(O)c(O)c(O)c2)oc2cc(O)cc(O)c12
REMARK SMILES IDX 5 1 3 2 2 3 1 4 23 5 21 6 20 7 18 8 17 9 16 10 15 11 6 12
REMARK SMILES IDX 7 13 8 14 14 15 10 16 12 17 9 18 11 20 13 22 4 24 22 26
REMARK SMILES IDX 19 28
REMARK H PARENT 9 19 11 21 13 23 4 25 22 27 19 29
REMARK Flexibility Score: inf
ROOT
ATOM      1  C   UNL     1      62.734   9.944  31.087  1.00  0.00     0.180 A 
ATOM      2  C   UNL     1      61.457   9.610  30.604  1.00  0.00     0.208 A 
ATOM      3  C   UNL     1      61.032   8.274  30.670  1.00  0.00     0.238 A 
ATOM      4  O   UNL     1      59.867   7.991  30.287  1.00  0.00    -0.285 OA
ATOM      5  C   UNL     1      61.894   7.286  31.204  1.00  0.00     0.111 A 
ATOM      6  C   UNL     1      61.581   5.895  31.282  1.00  0.00     0.134 A 
ATOM      7  C   UNL     1      62.456   5.027  31.947  1.00  0.00     0.093 A 
ATOM      8  C   UNL     1      63.663   5.489  32.479  1.00  0.00     0.123 A 
ATOM      9  C   UNL     1      64.004   6.834  32.354  1.00  0.00     0.094 A 
ATOM     10  C   UNL     1      63.135   7.731  31.728  1.00  0.00     0.146 A 
ATOM     11  O   UNL     1      63.494   9.005  31.640  1.00  0.00    -0.452 OA
ENDROOT
BRANCH   1  12
ATOM     12  C   UNL     1      63.263  11.326  31.028  1.00  0.00     0.029 A 
ATOM     13  C   UNL     1      63.018  12.111  29.891  1.00  0.00     0.062 A 
ATOM     14  C   UNL     1      63.488  13.425  29.817  1.00  0.00     0.162 A 
ATOM     15  C   UNL     1      63.958  11.889  32.111  1.00  0.00     0.062 A 
ATOM     16  C   UNL     1      64.200  13.979  30.895  1.00  0.00     0.200 A 
ATOM     17  C   UNL     1      64.431  13.207  32.047  1.00  0.00     0.162 A 
BRANCH  14  18
ATOM     18  O   UNL     1      63.236  14.168  28.664  1.00  0.00    -0.504 OA
ATOM     19  H   UNL     1      62.355  14.645  28.512  1.00  0.00     0.293 HD
ENDBRANCH  14  18
BRANCH  16  20
ATOM     20  O   UNL     1      64.669  15.290  30.811  1.00  0.00    -0.502 OA
ATOM     21  H   UNL     1      64.732  15.894  31.621  1.00  0.00     0.293 HD
ENDBRANCH  16  20
BRANCH  17  22
ATOM     22  O   UNL     1      65.125  13.754  33.125  1.00  0.00    -0.504 OA
ATOM     23  H   UNL     1      65.311  13.218  33.964  1.00  0.00     0.293 HD
ENDBRANCH  17  22
ENDBRANCH   1  12
BRANCH   2  24
ATOM     24  O   UNL     1      60.614  10.605  30.103  1.00  0.00    -0.502 OA
ATOM     25  H   UNL     1      60.319  10.631  29.133  1.00  0.00     0.293 HD
ENDBRANCH   2  24
BRANCH   6  26
ATOM     26  O   UNL     1      60.448   5.316  30.704  1.00  0.00    -0.507 OA
ATOM     27  H   UNL     1      60.277   5.253  29.712  1.00  0.00     0.293 HD
ENDBRANCH   6  26
BRANCH   8  28
ATOM     28  O   UNL     1      64.536   4.616  33.125  1.00  0.00    -0.508 OA
ATOM     29  H   UNL     1      65.058   4.900  33.946  1.00  0.00     0.293 HD
ENDBRANCH   8  28
TORSDOF 7
ENDMDL
MODEL 4
REMARK VINA RESULT:    -1.666     12.829     14.539
REMARK INTER + INTRA:          -2.382
REMARK INTER:                  -2.835
REMARK INTRA:                   0.453
REMARK UNBOUND:                -0.326
REMARK SMILES O=c1c(O)c(-c2cc(O)c(O)c(O)c2)oc2cc(O)cc(O)c12
REMARK SMILES IDX 5 1 3 2 2 3 1 4 23 5 21 6 20 7 18 8 17 9 16 10 15 11 6 12
REMARK SMILES IDX 7 13 8 14 14 15 10 16 12 17 9 18 11 20 13 22 4 24 22 26
REMARK SMILES IDX 19 28
REMARK H PARENT 9 19 11 21 13 23 4 25 22 27 19 29
REMARK Flexibility Score: inf
ROOT
ATOM      1  C   UNL     1      63.235   9.629  31.295  1.00  0.00     0.180 A 
ATOM      2  C   UNL     1      63.926   8.831  32.224  1.00  0.00     0.208 A 
ATOM      3  C   UNL     1      63.629   7.461  32.298  1.00  0.00     0.238 A 
ATOM      4  O   UNL     1      64.289   6.743  33.093  1.00  0.00    -0.285 OA
ATOM      5  C   UNL     1      62.636   6.909  31.455  1.00  0.00     0.111 A 
ATOM      6  C   UNL     1      62.226   5.541  31.474  1.00  0.00     0.134 A 
ATOM      7  C   UNL     1      61.327   5.077  30.506  1.00  0.00     0.093 A 
ATOM      8  C   UNL     1      60.773   5.945  29.562  1.00  0.00     0.123 A 
ATOM      9  C   UNL     1      61.121   7.293  29.574  1.00  0.00     0.094 A 
ATOM     10  C   UNL     1      62.043   7.779  30.504  1.00  0.00     0.146 A 
ATOM     11  O   UNL     1      62.355   9.068  30.473  1.00  0.00    -0.452 OA
ENDROOT
BRANCH   1  12
ATOM     12  C   UNL     1      63.474  11.086  31.175  1.00  0.00     0.029 A 
ATOM     13  C   UNL     1      64.178  11.756  32.187  1.00  0.00     0.062 A 
ATOM     14  C   UNL     1      64.435  13.126  32.090  1.00  0.00     0.162 A 
ATOM     15  C   UNL     1      63.061  11.803  30.040  1.00  0.00     0.062 A 
ATOM     16  C   UNL     1      64.002  13.845  30.962  1.00  0.00     0.200 A 
ATOM     17  C   UNL     1      63.316  13.177  29.933  1.00  0.00     0.162 A 
BRANCH  14  18
ATOM     18  O   UNL     1      65.125  13.758  33.125  1.00  0.00    -0.504 OA
ATOM     19  H   UNL     1      65.767  14.523  32.956  1.00  0.00     0.293 HD
ENDBRANCH  14  18
BRANCH  16  20
ATOM     20  O   UNL     1      64.260  15.213  30.875  1.00  0.00    -0.502 OA
ATOM     21  H   UNL     1      64.146  15.730  30.012  1.00  0.00     0.293 HD
ENDBRANCH  16  20
BRANCH  17  22
ATOM     22  O   UNL     1      62.895  13.880  28.805  1.00  0.00    -0.504 OA
ATOM     23  H   UNL     1      62.713  13.413  27.925  1.00  0.00     0.293 HD
ENDBRANCH  17  22
ENDBRANCH   1  12
BRANCH   2  24
ATOM     24  O   UNL     1      64.919   9.394  33.031  1.00  0.00    -0.502 OA
ATOM     25  H   UNL     1      65.408  10.244  32.778  1.00  0.00     0.293 HD
ENDBRANCH   2  24
BRANCH   6  26
ATOM     26  O   UNL     1      62.648   4.613  32.430  1.00  0.00    -0.507 OA
ATOM     27  H   UNL     1      63.320   3.880  32.263  1.00  0.00     0.293 HD
ENDBRANCH   6  26
BRANCH   8  28
ATOM     28  O   UNL     1      59.866   5.477  28.612  1.00  0.00    -0.508 OA
ATOM     29  H   UNL     1      59.244   4.703  28.811  1.00  0.00     0.293 HD
ENDBRANCH   8  28
TORSDOF 7
ENDMDL
MODEL 5
REMARK VINA RESULT:    -1.400      1.443      7.360
REMARK INTER + INTRA:          -2.053
REMARK INTER:                  -2.272
REMARK INTRA:                   0.219
REMARK UNBOUND:                -0.326
REMARK SMILES O=c1c(O)c(-c2cc(O)c(O)c(O)c2)oc2cc(O)cc(O)c12
REMARK SMILES IDX 5 1 3 2 2 3 1 4 23 5 21 6 20 7 18 8 17 9 16 10 15 11 6 12
REMARK SMILES IDX 7 13 8 14 14 15 10 16 12 17 9 18 11 20 13 22 4 24 22 26
REMARK SMILES IDX 19 28
REMARK H PARENT 9 19 11 21 13 23 4 25 22 27 19 29
REMARK Flexibility Score: inf
ROOT
ATOM      1  C   UNL     1      58.077  22.363  29.320  1.00  0.00     0.180 A 
ATOM      2  C   UNL     1      57.889  22.110  30.690  1.00  0.00     0.208 A 
ATOM      3  C   UNL     1      59.002  22.126  31.545  1.00  0.00     0.238 A 
ATOM      4  O   UNL     1      58.819  21.953  32.778  1.00  0.00    -0.285 OA
ATOM      5  C   UNL     1      60.291  22.379  31.018  1.00  0.00     0.111 A 
ATOM      6  C   UNL     1      61.494  22.379  31.786  1.00  0.00     0.134 A 
ATOM      7  C   UNL     1      62.697  22.770  31.185  1.00  0.00     0.093 A 
ATOM      8  C   UNL     1      62.751  23.097  29.828  1.00  0.00     0.123 A 
ATOM      9  C   UNL     1      61.592  23.041  29.056  1.00  0.00     0.094 A 
ATOM     10  C   UNL     1      60.371  22.690  29.636  1.00  0.00     0.146 A 
ATOM     11  O   UNL     1      59.290  22.660  28.868  1.00  0.00    -0.452 OA
ENDROOT
BRANCH   1  12
ATOM     12  C   UNL     1      56.956  22.338  28.353  1.00  0.00     0.029 A 
ATOM     13  C   UNL     1      55.899  21.435  28.543  1.00  0.00     0.062 A 
ATOM     14  C   UNL     1      54.819  21.404  27.657  1.00  0.00     0.162 A 
ATOM     15  C   UNL     1      56.899  23.240  27.277  1.00  0.00     0.062 A 
ATOM     16  C   UNL     1      54.776  22.294  26.570  1.00  0.00     0.200 A 
ATOM     17  C   UNL     1      55.819  23.218  26.384  1.00  0.00     0.162 A 
BRANCH  14  18
ATOM     18  O   UNL     1      53.795  20.481  27.873  1.00  0.00    -0.504 OA
ATOM     19  H   UNL     1      53.425  20.293  28.797  1.00  0.00     0.293 HD
ENDBRANCH  14  18
BRANCH  16  20
ATOM     20  O   UNL     1      53.695  22.254  25.688  1.00  0.00    -0.502 OA
ATOM     21  H   UNL     1      53.636  21.578  24.936  1.00  0.00     0.293 HD
ENDBRANCH  16  20
BRANCH  17  22
ATOM     22  O   UNL     1      55.776  24.113  25.317  1.00  0.00    -0.504 OA
ATOM     23  H   UNL     1      55.117  24.883  25.295  1.00  0.00     0.293 HD
ENDBRANCH  17  22
ENDBRANCH   1  12
BRANCH   2  24
ATOM     24  O   UNL     1      56.604  21.885  31.193  1.00  0.00    -0.502 OA
ATOM     25  H   UNL     1      56.301  20.976  31.525  1.00  0.00     0.293 HD
ENDBRANCH   2  24
BRANCH   6  26
ATOM     26  O   UNL     1      61.567  21.980  33.124  1.00  0.00    -0.507 OA
ATOM     27  H   UNL     1      60.945  22.298  33.853  1.00  0.00     0.293 HD
ENDBRANCH   6  26
BRANCH   8  28
ATOM     28  O   UNL     1      63.955  23.469  29.233  1.00  0.00    -0.508 OA
ATOM     29  H   UNL     1      64.570  22.785  28.810  1.00  0.00     0.293 HD
ENDBRANCH   8  28
TORSDOF 7
ENDMDL
MODEL 6
REMARK VINA RESULT:    -1.310      1.426      7.332
REMARK INTER + INTRA:          -1.943
REMARK INTER:                  -2.048
REMARK INTRA:                   0.105
REMARK UNBOUND:                -0.326
REMARK SMILES O=c1c(O)c(-c2cc(O)c(O)c(O)c2)oc2cc(O)cc(O)c12
REMARK SMILES IDX 5 1 3 2 2 3 1 4 23 5 21 6 20 7 18 8 17 9 16 10 15 11 6 12
REMARK SMILES IDX 7 13 8 14 14 15 10 16 12 17 9 18 11 20 13 22 4 24 22 26
REMARK SMILES IDX 19 28
REMARK H PARENT 9 19 11 21 13 23 4 25 22 27 19 29
REMARK Flexibility Score: inf
ROOT
ATOM      1  C   UNL     1      58.215  22.415  29.349  1.00  0.00     0.180 A 
ATOM      2  C   UNL     1      58.036  22.223  30.730  1.00  0.00     0.208 A 
ATOM      3  C   UNL     1      59.160  22.231  31.571  1.00  0.00     0.238 A 
ATOM      4  O   UNL     1      58.988  22.113  32.812  1.00  0.00    -0.285 OA
ATOM      5  C   UNL     1      60.451  22.414  31.019  1.00  0.00     0.111 A 
ATOM      6  C   UNL     1      61.663  22.399  31.772  1.00  0.00     0.134 A 
ATOM      7  C   UNL     1      62.871  22.721  31.141  1.00  0.00     0.093 A 
ATOM      8  C   UNL     1      62.919  22.993  29.772  1.00  0.00     0.123 A 
ATOM      9  C   UNL     1      61.749  22.950  29.017  1.00  0.00     0.094 A 
ATOM     10  C   UNL     1      60.523  22.668  29.625  1.00  0.00     0.146 A 
ATOM     11  O   UNL     1      59.432  22.649  28.871  1.00  0.00    -0.452 OA
ENDROOT
BRANCH   1  12
ATOM     12  C   UNL     1      57.081  22.395  28.397  1.00  0.00     0.029 A 
ATOM     13  C   UNL     1      57.094  23.256  27.289  1.00  0.00     0.062 A 
ATOM     14  C   UNL     1      56.047  23.243  26.363  1.00  0.00     0.162 A 
ATOM     15  C   UNL     1      56.017  21.490  28.547  1.00  0.00     0.062 A 
ATOM     16  C   UNL     1      54.974  22.351  26.528  1.00  0.00     0.200 A 
ATOM     17  C   UNL     1      54.963  21.469  27.623  1.00  0.00     0.162 A 
BRANCH  14  18
ATOM     18  O   UNL     1      56.091  24.125  25.283  1.00  0.00    -0.504 OA
ATOM     19  H   UNL     1      55.287  24.673  25.002  1.00  0.00     0.293 HD
ENDBRANCH  14  18
BRANCH  16  20
ATOM     20  O   UNL     1      53.931  22.347  25.601  1.00  0.00    -0.502 OA
ATOM     21  H   UNL     1      52.971  22.533  25.867  1.00  0.00     0.293 HD
ENDBRANCH  16  20
BRANCH  17  22
ATOM     22  O   UNL     1      53.909  20.572  27.785  1.00  0.00    -0.504 OA
ATOM     23  H   UNL     1      54.068  19.609  28.059  1.00  0.00     0.293 HD
ENDBRANCH  17  22
ENDBRANCH   1  12
BRANCH   2  24
ATOM     24  O   UNL     1      56.750  22.066  31.256  1.00  0.00    -0.502 OA
ATOM     25  H   UNL     1      56.083  21.406  30.874  1.00  0.00     0.293 HD
ENDBRANCH   2  24
BRANCH   6  26
ATOM     26  O   UNL     1      61.738  22.051  33.124  1.00  0.00    -0.507 OA
ATOM     27  H   UNL     1      62.447  22.377  33.763  1.00  0.00     0.293 HD
ENDBRANCH   6  26
BRANCH   8  28
ATOM     28  O   UNL     1      64.128  23.296  29.148  1.00  0.00    -0.508 OA
ATOM     29  H   UNL     1      64.787  23.947  29.559  1.00  0.00     0.293 HD
ENDBRANCH   8  28
TORSDOF 7
ENDMDL
