MODEL 1
REMARK VINA RESULT:    -2.937      0.000      0.000
REMARK INTER + INTRA:          -3.560
REMARK INTER:                  -3.453
REMARK INTRA:                  -0.107
REMARK UNBOUND:                -0.107
REMARK SMILES O=C([O-])CCC(=O)[O-]
REMARK SMILES IDX 4 1 2 2 1 3 3 4 5 5 6 6 7 7 8 8
REMARK H PARENT
REMARK Flexibility Score: inf
ROOT
ATOM      1  C   UNL     1     156.167 172.724 163.642  1.00  0.00     0.059 C 
ENDROOT
BRANCH   1   2
ATOM      2  C   UNL     1     157.302 173.134 162.755  1.00  0.00     0.042 C 
ATOM      3  O   UNL     1     158.475 172.752 163.008  1.00  0.00    -0.550 OA
ATOM      4  O   UNL     1     157.057 173.905 161.625  1.00  0.00    -0.550 OA
ENDBRANCH   1   2
BRANCH   1   5
ATOM      5  C   UNL     1     156.225 173.436 164.998  1.00  0.00     0.059 C 
BRANCH   5   6
ATOM      6  C   UNL     1     155.412 174.693 164.997  1.00  0.00     0.042 C 
ATOM      7  O   UNL     1     155.907 175.769 164.568  1.00  0.00    -0.550 OA
ATOM      8  O   UNL     1     154.093 174.667 165.433  1.00  0.00    -0.550 OA
ENDBRANCH   5   6
ENDBRANCH   1   5
TORSDOF 3
ENDMDL
MODEL 2
REMARK VINA RESULT:    -2.890      0.743      3.810
REMARK INTER + INTRA:          -3.504
REMARK INTER:                  -3.406
REMARK INTRA:                  -0.098
REMARK UNBOUND:                -0.107
REMARK SMILES O=C([O-])CCC(=O)[O-]
REMARK SMILES IDX 4 1 2 2 1 3 3 4 5 5 6 6 7 7 8 8
REMARK H PARENT
REMARK Flexibility Score: inf
ROOT
ATOM      1  C   UNL     1     155.228 174.005 163.117  1.00  0.00     0.059 C 
ENDROOT
BRANCH   1   2
ATOM      2  C   UNL     1     155.116 175.000 164.230  1.00  0.00     0.042 C 
ATOM      3  O   UNL     1     154.119 174.982 165.000  1.00  0.00    -0.550 OA
ATOM      4  O   UNL     1     156.132 175.924 164.442  1.00  0.00    -0.550 OA
ENDBRANCH   1   2
BRANCH   1   5
ATOM      5  C   UNL     1     156.290 172.941 163.416  1.00  0.00     0.059 C 
BRANCH   5   6
ATOM      6  C   UNL     1     157.554 173.193 162.654  1.00  0.00     0.042 C 
ATOM      7  O   UNL     1     158.653 172.753 163.085  1.00  0.00    -0.550 OA
ATOM      8  O   UNL     1     157.512 173.879 161.447  1.00  0.00    -0.550 OA
ENDBRANCH   5   6
ENDBRANCH   1   5
TORSDOF 3
ENDMDL
MODEL 3
REMARK VINA RESULT:    -2.889      0.392      1.661
REMARK INTER + INTRA:          -3.503
REMARK INTER:                  -3.380
REMARK INTRA:                  -0.123
REMARK UNBOUND:                -0.107
REMARK SMILES O=C([O-])CCC(=O)[O-]
REMARK SMILES IDX 4 1 2 2 1 3 3 4 5 5 6 6 7 7 8 8
REMARK H PARENT
REMARK Flexibility Score: inf
ROOT
ATOM      1  C   UNL     1     156.266 172.875 163.470  1.00  0.00     0.059 C 
ENDROOT
BRANCH   1   2
ATOM      2  C   UNL     1     157.399 173.278 162.577  1.00  0.00     0.042 C 
ATOM      3  O   UNL     1     157.173 173.905 161.509  1.00  0.00    -0.550 OA
ATOM      4  O   UNL     1     158.709 172.997 162.946  1.00  0.00    -0.550 OA
ENDBRANCH   1   2
BRANCH   1   5
ATOM      5  C   UNL     1     156.301 173.630 164.803  1.00  0.00     0.059 C 
BRANCH   5   6
ATOM      6  C   UNL     1     155.590 174.945 164.712  1.00  0.00     0.042 C 
ATOM      7  O   UNL     1     154.361 175.021 164.973  1.00  0.00    -0.550 OA
ATOM      8  O   UNL     1     156.295 176.093 164.376  1.00  0.00    -0.550 OA
ENDBRANCH   5   6
ENDBRANCH   1   5
TORSDOF 3
ENDMDL
MODEL 4
REMARK VINA RESULT:    -2.872      0.249      3.714
REMARK INTER + INTRA:          -3.483
REMARK INTER:                  -3.373
REMARK INTRA:                  -0.110
REMARK UNBOUND:                -0.107
REMARK SMILES O=C([O-])CCC(=O)[O-]
REMARK SMILES IDX 4 1 2 2 1 3 3 4 5 5 6 6 7 7 8 8
REMARK H PARENT
REMARK Flexibility Score: inf
ROOT
ATOM      1  C   UNL     1     156.182 173.210 165.062  1.00  0.00     0.059 C 
ENDROOT
BRANCH   1   2
ATOM      2  C   UNL     1     155.336 174.439 165.187  1.00  0.00     0.042 C 
ATOM      3  O   UNL     1     154.217 174.383 165.762  1.00  0.00    -0.550 OA
ATOM      4  O   UNL     1     155.801 175.655 164.702  1.00  0.00    -0.550 OA
ENDBRANCH   1   2
BRANCH   1   5
ATOM      5  C   UNL     1     156.100 172.607 163.655  1.00  0.00     0.059 C 
BRANCH   5   6
ATOM      6  C   UNL     1     157.191 173.125 162.769  1.00  0.00     0.042 C 
ATOM      7  O   UNL     1     156.915 173.873 161.794  1.00  0.00    -0.550 OA
ATOM      8  O   UNL     1     158.516 172.812 163.044  1.00  0.00    -0.550 OA
ENDBRANCH   5   6
ENDBRANCH   1   5
TORSDOF 3
ENDMDL
MODEL 5
REMARK VINA RESULT:    -2.827      2.072      2.614
REMARK INTER + INTRA:          -3.430
REMARK INTER:                  -3.388
REMARK INTRA:                  -0.042
REMARK UNBOUND:                -0.107
REMARK SMILES O=C([O-])CCC(=O)[O-]
REMARK SMILES IDX 4 1 2 2 1 3 3 4 5 5 6 6 7 7 8 8
REMARK H PARENT
REMARK Flexibility Score: inf
ROOT
ATOM      1  C   UNL     1     156.198 173.381 162.612  1.00  0.00     0.059 C 
ENDROOT
BRANCH   1   2
ATOM      2  C   UNL     1     157.668 173.501 162.353  1.00  0.00     0.042 C 
ATOM      3  O   UNL     1     158.480 172.732 162.932  1.00  0.00    -0.550 OA
ATOM      4  O   UNL     1     158.138 174.437 161.439  1.00  0.00    -0.550 OA
ENDBRANCH   1   2
BRANCH   1   5
ATOM      5  C   UNL     1     155.915 172.616 163.910  1.00  0.00     0.059 C 
BRANCH   5   6
ATOM      6  C   UNL     1     154.652 171.816 163.815  1.00  0.00     0.042 C 
ATOM      7  O   UNL     1     153.532 172.390 163.864  1.00  0.00    -0.550 OA
ATOM      8  O   UNL     1     154.714 170.441 163.631  1.00  0.00    -0.550 OA
ENDBRANCH   5   6
ENDBRANCH   1   5
TORSDOF 3
ENDMDL
MODEL 6
REMARK VINA RESULT:    -2.779      2.097      3.648
REMARK INTER + INTRA:          -3.374
REMARK INTER:                  -3.255
REMARK INTRA:                  -0.119
REMARK UNBOUND:                -0.107
REMARK SMILES O=C([O-])CCC(=O)[O-]
REMARK SMILES IDX 4 1 2 2 1 3 3 4 5 5 6 6 7 7 8 8
REMARK H PARENT
REMARK Flexibility Score: inf
ROOT
ATOM      1  C   UNL     1     156.049 173.434 164.790  1.00  0.00     0.059 C 
ENDROOT
BRANCH   1   2
ATOM      2  C   UNL     1     155.462 174.806 164.674  1.00  0.00     0.042 C 
ATOM      3  O   UNL     1     154.232 174.990 164.877  1.00  0.00    -0.550 OA
ATOM      4  O   UNL     1     156.281 175.890 164.380  1.00  0.00    -0.550 OA
ENDBRANCH   1   2
BRANCH   1   5
ATOM      5  C   UNL     1     155.581 172.521 163.652  1.00  0.00     0.059 C 
BRANCH   5   6
ATOM      6  C   UNL     1     154.664 171.446 164.148  1.00  0.00     0.042 C 
ATOM      7  O   UNL     1     154.665 170.310 163.604  1.00  0.00    -0.550 OA
ATOM      8  O   UNL     1     153.835 171.688 165.236  1.00  0.00    -0.550 OA
ENDBRANCH   5   6
ENDBRANCH   1   5
TORSDOF 3
ENDMDL
MODEL 7
REMARK VINA RESULT:    -2.758      2.245      3.003
REMARK INTER + INTRA:          -3.349
REMARK INTER:                  -3.231
REMARK INTRA:                  -0.118
REMARK UNBOUND:                -0.107
REMARK SMILES O=C([O-])CCC(=O)[O-]
REMARK SMILES IDX 4 1 2 2 1 3 3 4 5 5 6 6 7 7 8 8
REMARK H PARENT
REMARK Flexibility Score: inf
ROOT
ATOM      1  C   UNL     1     155.615 172.479 163.703  1.00  0.00     0.059 C 
ENDROOT
BRANCH   1   2
ATOM      2  C   UNL     1     154.450 171.538 163.673  1.00  0.00     0.042 C 
ATOM      3  O   UNL     1     154.640 170.293 163.669  1.00  0.00    -0.550 OA
ATOM      4  O   UNL     1     153.153 172.037 163.691  1.00  0.00    -0.550 OA
ENDBRANCH   1   2
BRANCH   1   5
ATOM      5  C   UNL     1     155.246 173.853 163.132  1.00  0.00     0.059 C 
BRANCH   5   6
ATOM      6  C   UNL     1     155.187 174.898 164.204  1.00  0.00     0.042 C 
ATOM      7  O   UNL     1     154.190 174.963 164.972  1.00  0.00    -0.550 OA
ATOM      8  O   UNL     1     156.250 175.773 164.380  1.00  0.00    -0.550 OA
ENDBRANCH   5   6
ENDBRANCH   1   5
TORSDOF 3
ENDMDL
MODEL 8
REMARK VINA RESULT:    -2.746      2.084      3.576
REMARK INTER + INTRA:          -3.334
REMARK INTER:                  -3.235
REMARK INTRA:                  -0.100
REMARK UNBOUND:                -0.107
REMARK SMILES O=C([O-])CCC(=O)[O-]
REMARK SMILES IDX 4 1 2 2 1 3 3 4 5 5 6 6 7 7 8 8
REMARK H PARENT
REMARK Flexibility Score: inf
ROOT
ATOM      1  C   UNL     1     156.804 173.125 163.904  1.00  0.00     0.059 C 
ENDROOT
BRANCH   1   2
ATOM      2  C   UNL     1     155.478 172.575 163.476  1.00  0.00     0.042 C 
ATOM      3  O   UNL     1     154.626 173.325 162.931  1.00  0.00    -0.550 OA
ATOM      4  O   UNL     1     155.199 171.224 163.644  1.00  0.00    -0.550 OA
ENDBRANCH   1   2
BRANCH   1   5
ATOM      5  C   UNL     1     157.829 173.078 162.765  1.00  0.00     0.059 C 
BRANCH   5   6
ATOM      6  C   UNL     1     157.723 174.280 161.878  1.00  0.00     0.042 C 
ATOM      7  O   UNL     1     157.435 174.146 160.660  1.00  0.00    -0.550 OA
ATOM      8  O   UNL     1     157.904 175.552 162.408  1.00  0.00    -0.550 OA
ENDBRANCH   5   6
ENDBRANCH   1   5
TORSDOF 3
ENDMDL
MODEL 9
REMARK VINA RESULT:    -2.741      2.188      3.033
REMARK INTER + INTRA:          -3.329
REMARK INTER:                  -3.190
REMARK INTRA:                  -0.139
REMARK UNBOUND:                -0.107
REMARK SMILES O=C([O-])CCC(=O)[O-]
REMARK SMILES IDX 4 1 2 2 1 3 3 4 5 5 6 6 7 7 8 8
REMARK H PARENT
REMARK Flexibility Score: inf
ROOT
ATOM      1  C   UNL     1     158.069 174.566 161.920  1.00  0.00     0.059 C 
ENDROOT
BRANCH   1   2
ATOM      2  C   UNL     1     156.966 174.680 160.913  1.00  0.00     0.042 C 
ATOM      3  O   UNL     1     155.914 175.314 161.194  1.00  0.00    -0.550 OA
ATOM      4  O   UNL     1     157.116 174.121 159.650  1.00  0.00    -0.550 OA
ENDBRANCH   1   2
BRANCH   1   5
ATOM      5  C   UNL     1     158.116 173.169 162.550  1.00  0.00     0.059 C 
BRANCH   5   6
ATOM      6  C   UNL     1     157.054 172.999 163.592  1.00  0.00     0.042 C 
ATOM      7  O   UNL     1     157.162 173.572 164.708  1.00  0.00    -0.550 OA
ATOM      8  O   UNL     1     155.925 172.238 163.315  1.00  0.00    -0.550 OA
ENDBRANCH   5   6
ENDBRANCH   1   5
TORSDOF 3
ENDMDL
