MODEL 1
REMARK VINA RESULT:    -4.115      0.000      0.000
REMARK INTER + INTRA:          -7.326
REMARK INTER:                  -6.279
REMARK INTRA:                  -1.047
REMARK UNBOUND:                -1.047
REMARK SMILES CCCCCCCCCCC(=O)[O-]
REMARK SMILES IDX 7 1 8 2 9 3 10 4 11 5 12 6 13 7 6 8 5 9 4 10 3 11 2 12 1 13
REMARK H PARENT
REMARK Flexibility Score: inf
ROOT
ATOM      1  C   UNL     1      38.245  21.257 -22.902  1.00  0.00     0.000 C 
ENDROOT
BRANCH   1   2
ATOM      2  C   UNL     1      38.417  20.983 -24.409  1.00  0.00     0.000 C 
BRANCH   2   3
ATOM      3  C   UNL     1      39.739  21.524 -24.994  1.00  0.00     0.006 C 
BRANCH   3   4
ATOM      4  C   UNL     1      39.910  23.029 -24.754  1.00  0.00     0.053 C 
BRANCH   4   5
ATOM      5  C   UNL     1      41.148  23.296 -23.960  1.00  0.00     0.041 C 
ATOM      6  O   UNL     1      41.907  22.347 -23.630  1.00  0.00    -0.550 OA
ATOM      7  O   UNL     1      41.439  24.587 -23.539  1.00  0.00    -0.550 OA
ENDBRANCH   4   5
ENDBRANCH   3   4
ENDBRANCH   2   3
ENDBRANCH   1   2
BRANCH   1   8
ATOM      8  C   UNL     1      37.213  20.364 -22.191  1.00  0.00     0.000 C 
BRANCH   8   9
ATOM      9  C   UNL     1      37.387  18.871 -22.521  1.00  0.00    -0.000 C 
BRANCH   9  10
ATOM     10  C   UNL     1      37.849  18.049 -21.307  1.00  0.00    -0.000 C 
BRANCH  10  11
ATOM     11  C   UNL     1      39.357  18.173 -21.045  1.00  0.00    -0.000 C 
BRANCH  11  12
ATOM     12  C   UNL     1      40.156  17.963 -22.336  1.00  0.00    -0.003 C 
ATOM     13  C   UNL     1      41.206  19.054 -22.520  1.00  0.00     0.004 C 
ENDBRANCH  11  12
ENDBRANCH  10  11
ENDBRANCH   9  10
ENDBRANCH   8   9
ENDBRANCH   1   8
TORSDOF 9
ENDMDL
MODEL 2
REMARK VINA RESULT:    -3.979     18.328     19.626
REMARK INTER + INTRA:          -7.118
REMARK INTER:                  -6.435
REMARK INTRA:                  -0.683
REMARK UNBOUND:                -1.047
REMARK SMILES CCCCCCCCCCC(=O)[O-]
REMARK SMILES IDX 7 1 8 2 9 3 10 4 11 5 12 6 13 7 6 8 5 9 4 10 3 11 2 12 1 13
REMARK H PARENT
REMARK Flexibility Score: inf
ROOT
ATOM      1  C   UNL     1      47.551  35.484 -14.371  1.00  0.00     0.000 C 
ENDROOT
BRANCH   1   2
ATOM      2  C   UNL     1      47.251  34.548 -13.183  1.00  0.00     0.000 C 
BRANCH   2   3
ATOM      3  C   UNL     1      45.757  34.487 -12.799  1.00  0.00     0.006 C 
BRANCH   3   4
ATOM      4  C   UNL     1      45.007  35.772 -13.174  1.00  0.00     0.053 C 
BRANCH   4   5
ATOM      5  C   UNL     1      43.951  36.077 -12.159  1.00  0.00     0.041 C 
ATOM      6  O   UNL     1      44.209  35.989 -10.929  1.00  0.00    -0.550 OA
ATOM      7  O   UNL     1      42.667  36.410 -12.571  1.00  0.00    -0.550 OA
ENDBRANCH   4   5
ENDBRANCH   3   4
ENDBRANCH   2   3
ENDBRANCH   1   2
BRANCH   1   8
ATOM      8  C   UNL     1      47.690  34.783 -15.733  1.00  0.00     0.000 C 
BRANCH   8   9
ATOM      9  C   UNL     1      47.493  35.742 -16.920  1.00  0.00    -0.000 C 
BRANCH   9  10
ATOM     10  C   UNL     1      48.789  36.469 -17.312  1.00  0.00    -0.000 C 
BRANCH  10  11
ATOM     11  C   UNL     1      50.046  35.629 -17.044  1.00  0.00    -0.000 C 
BRANCH  11  12
ATOM     12  C   UNL     1      51.194  36.508 -16.535  1.00  0.00    -0.003 C 
ATOM     13  C   UNL     1      50.955  36.949 -15.094  1.00  0.00     0.004 C 
ENDBRANCH  11  12
ENDBRANCH  10  11
ENDBRANCH   9  10
ENDBRANCH   8   9
ENDBRANCH   1   8
TORSDOF 9
ENDMDL
MODEL 3
REMARK VINA RESULT:    -3.964     18.268     19.522
REMARK INTER + INTRA:          -7.096
REMARK INTER:                  -5.896
REMARK INTRA:                  -1.200
REMARK UNBOUND:                -1.047
REMARK SMILES CCCCCCCCCCC(=O)[O-]
REMARK SMILES IDX 7 1 8 2 9 3 10 4 11 5 12 6 13 7 6 8 5 9 4 10 3 11 2 12 1 13
REMARK H PARENT
REMARK Flexibility Score: inf
ROOT
ATOM      1  C   UNL     1      47.117  36.830 -16.980  1.00  0.00     0.000 C 
ENDROOT
BRANCH   1   2
ATOM      2  C   UNL     1      47.474  35.344 -16.776  1.00  0.00     0.000 C 
BRANCH   2   3
ATOM      3  C   UNL     1      48.862  35.119 -16.137  1.00  0.00     0.006 C 
BRANCH   3   4
ATOM      4  C   UNL     1      50.007  35.379 -17.125  1.00  0.00     0.053 C 
BRANCH   4   5
ATOM      5  C   UNL     1      51.011  36.312 -16.528  1.00  0.00     0.041 C 
ATOM      6  O   UNL     1      52.210  36.284 -16.914  1.00  0.00    -0.550 OA
ATOM      7  O   UNL     1      50.637  37.178 -15.509  1.00  0.00    -0.550 OA
ENDBRANCH   4   5
ENDBRANCH   3   4
ENDBRANCH   2   3
ENDBRANCH   1   2
BRANCH   1   8
ATOM      8  C   UNL     1      47.117  37.682 -15.699  1.00  0.00     0.000 C 
BRANCH   8   9
ATOM      9  C   UNL     1      45.719  37.815 -15.070  1.00  0.00    -0.000 C 
BRANCH   9  10
ATOM     10  C   UNL     1      45.498  36.831 -13.911  1.00  0.00    -0.000 C 
BRANCH  10  11
ATOM     11  C   UNL     1      46.756  36.631 -13.054  1.00  0.00    -0.000 C 
BRANCH  11  12
ATOM     12  C   UNL     1      47.073  35.140 -12.886  1.00  0.00    -0.003 C 
ATOM     13  C   UNL     1      45.959  34.271 -13.463  1.00  0.00     0.004 C 
ENDBRANCH  11  12
ENDBRANCH  10  11
ENDBRANCH   9  10
ENDBRANCH   8   9
ENDBRANCH   1   8
TORSDOF 9
ENDMDL
MODEL 4
REMARK VINA RESULT:    -3.957     18.116     19.829
REMARK INTER + INTRA:          -7.085
REMARK INTER:                  -5.976
REMARK INTRA:                  -1.109
REMARK UNBOUND:                -1.047
REMARK SMILES CCCCCCCCCCC(=O)[O-]
REMARK SMILES IDX 7 1 8 2 9 3 10 4 11 5 12 6 13 7 6 8 5 9 4 10 3 11 2 12 1 13
REMARK H PARENT
REMARK Flexibility Score: inf
ROOT
ATOM      1  C   UNL     1      49.369  36.354 -13.393  1.00  0.00     0.000 C 
ENDROOT
BRANCH   1   2
ATOM      2  C   UNL     1      47.850  36.247 -13.151  1.00  0.00     0.000 C 
BRANCH   2   3
ATOM      3  C   UNL     1      47.349  34.800 -12.960  1.00  0.00     0.006 C 
BRANCH   3   4
ATOM      4  C   UNL     1      45.893  34.623 -13.408  1.00  0.00     0.053 C 
BRANCH   4   5
ATOM      5  C   UNL     1      45.009  35.613 -12.718  1.00  0.00     0.041 C 
ATOM      6  O   UNL     1      44.891  35.591 -11.464  1.00  0.00    -0.550 OA
ATOM      7  O   UNL     1      44.275  36.527 -13.463  1.00  0.00    -0.550 OA
ENDBRANCH   4   5
ENDBRANCH   3   4
ENDBRANCH   2   3
ENDBRANCH   1   2
BRANCH   1   8
ATOM      8  C   UNL     1      49.782  37.292 -14.540  1.00  0.00     0.000 C 
BRANCH   8   9
ATOM      9  C   UNL     1      50.623  36.583 -15.616  1.00  0.00    -0.000 C 
BRANCH   9  10
ATOM     10  C   UNL     1      49.800  36.220 -16.862  1.00  0.00    -0.000 C 
BRANCH  10  11
ATOM     11  C   UNL     1      49.099  34.860 -16.736  1.00  0.00    -0.000 C 
BRANCH  11  12
ATOM     12  C   UNL     1      47.577  35.033 -16.671  1.00  0.00    -0.003 C 
ATOM     13  C   UNL     1      47.147  36.366 -17.275  1.00  0.00     0.004 C 
ENDBRANCH  11  12
ENDBRANCH  10  11
ENDBRANCH   9  10
ENDBRANCH   8   9
ENDBRANCH   1   8
TORSDOF 9
ENDMDL
MODEL 5
REMARK VINA RESULT:    -3.937     18.205     20.170
REMARK INTER + INTRA:          -7.055
REMARK INTER:                  -6.067
REMARK INTRA:                  -0.988
REMARK UNBOUND:                -1.047
REMARK SMILES CCCCCCCCCCC(=O)[O-]
REMARK SMILES IDX 7 1 8 2 9 3 10 4 11 5 12 6 13 7 6 8 5 9 4 10 3 11 2 12 1 13
REMARK H PARENT
REMARK Flexibility Score: inf
ROOT
ATOM      1  C   UNL     1      47.125  34.743 -14.807  1.00  0.00     0.000 C 
ENDROOT
BRANCH   1   2
ATOM      2  C   UNL     1      48.281  34.725 -13.787  1.00  0.00     0.000 C 
BRANCH   2   3
ATOM      3  C   UNL     1      48.753  36.130 -13.355  1.00  0.00     0.006 C 
BRANCH   3   4
ATOM      4  C   UNL     1      47.707  36.860 -12.502  1.00  0.00     0.053 C 
BRANCH   4   5
ATOM      5  C   UNL     1      47.493  36.142 -11.208  1.00  0.00     0.041 C 
ATOM      6  O   UNL     1      48.417  36.088 -10.353  1.00  0.00    -0.550 OA
ATOM      7  O   UNL     1      46.292  35.488 -10.965  1.00  0.00    -0.550 OA
ENDBRANCH   4   5
ENDBRANCH   3   4
ENDBRANCH   2   3
ENDBRANCH   1   2
BRANCH   1   8
ATOM      8  C   UNL     1      47.559  34.712 -16.283  1.00  0.00     0.000 C 
BRANCH   8   9
ATOM      9  C   UNL     1      47.423  36.080 -16.974  1.00  0.00    -0.000 C 
BRANCH   9  10
ATOM     10  C   UNL     1      48.784  36.720 -17.287  1.00  0.00    -0.000 C 
BRANCH  10  11
ATOM     11  C   UNL     1      49.963  35.778 -17.005  1.00  0.00    -0.000 C 
BRANCH  11  12
ATOM     12  C   UNL     1      51.074  36.505 -16.238  1.00  0.00    -0.003 C 
ATOM     13  C   UNL     1      52.412  36.391 -16.963  1.00  0.00     0.004 C 
ENDBRANCH  11  12
ENDBRANCH  10  11
ENDBRANCH   9  10
ENDBRANCH   8   9
ENDBRANCH   1   8
TORSDOF 9
ENDMDL
MODEL 6
REMARK VINA RESULT:    -3.933     18.199     19.729
REMARK INTER + INTRA:          -7.049
REMARK INTER:                  -5.814
REMARK INTRA:                  -1.235
REMARK UNBOUND:                -1.047
REMARK SMILES CCCCCCCCCCC(=O)[O-]
REMARK SMILES IDX 7 1 8 2 9 3 10 4 11 5 12 6 13 7 6 8 5 9 4 10 3 11 2 12 1 13
REMARK H PARENT
REMARK Flexibility Score: inf
ROOT
ATOM      1  C   UNL     1      48.409  36.629 -13.009  1.00  0.00     0.000 C 
ENDROOT
BRANCH   1   2
ATOM      2  C   UNL     1      47.629  37.704 -13.791  1.00  0.00     0.000 C 
BRANCH   2   3
ATOM      3  C   UNL     1      46.190  37.928 -13.278  1.00  0.00     0.006 C 
BRANCH   3   4
ATOM      4  C   UNL     1      45.164  37.070 -14.029  1.00  0.00     0.053 C 
BRANCH   4   5
ATOM      5  C   UNL     1      44.439  36.169 -13.080  1.00  0.00     0.041 C 
ATOM      6  O   UNL     1      45.043  35.210 -12.531  1.00  0.00    -0.550 OA
ATOM      7  O   UNL     1      43.084  36.357 -12.840  1.00  0.00    -0.550 OA
ENDBRANCH   4   5
ENDBRANCH   3   4
ENDBRANCH   2   3
ENDBRANCH   1   2
BRANCH   1   8
ATOM      8  C   UNL     1      48.963  35.475 -13.863  1.00  0.00     0.000 C 
BRANCH   8   9
ATOM      9  C   UNL     1      47.858  34.687 -14.589  1.00  0.00    -0.000 C 
BRANCH   9  10
ATOM     10  C   UNL     1      48.057  34.661 -16.113  1.00  0.00    -0.000 C 
BRANCH  10  11
ATOM     11  C   UNL     1      49.161  35.618 -16.584  1.00  0.00    -0.000 C 
BRANCH  11  12
ATOM     12  C   UNL     1      48.563  36.826 -17.314  1.00  0.00    -0.003 C 
ATOM     13  C   UNL     1      47.049  36.693 -17.453  1.00  0.00     0.004 C 
ENDBRANCH  11  12
ENDBRANCH  10  11
ENDBRANCH   9  10
ENDBRANCH   8   9
ENDBRANCH   1   8
TORSDOF 9
ENDMDL
MODEL 7
REMARK VINA RESULT:    -3.870     18.425     19.651
REMARK INTER + INTRA:          -6.953
REMARK INTER:                  -6.243
REMARK INTRA:                  -0.710
REMARK UNBOUND:                -1.047
REMARK SMILES CCCCCCCCCCC(=O)[O-]
REMARK SMILES IDX 7 1 8 2 9 3 10 4 11 5 12 6 13 7 6 8 5 9 4 10 3 11 2 12 1 13
REMARK H PARENT
REMARK Flexibility Score: inf
ROOT
ATOM      1  C   UNL     1      46.288  36.705 -14.157  1.00  0.00     0.000 C 
ENDROOT
BRANCH   1   2
ATOM      2  C   UNL     1      44.886  37.165 -13.712  1.00  0.00     0.000 C 
BRANCH   2   3
ATOM      3  C   UNL     1      44.018  36.035 -13.118  1.00  0.00     0.006 C 
BRANCH   3   4
ATOM      4  C   UNL     1      42.959  36.565 -12.143  1.00  0.00     0.053 C 
BRANCH   4   5
ATOM      5  C   UNL     1      43.354  36.273 -10.730  1.00  0.00     0.041 C 
ATOM      6  O   UNL     1      42.565  36.534  -9.784  1.00  0.00    -0.550 OA
ATOM      7  O   UNL     1      44.615  35.762 -10.453  1.00  0.00    -0.550 OA
ENDBRANCH   4   5
ENDBRANCH   3   4
ENDBRANCH   2   3
ENDBRANCH   1   2
BRANCH   1   8
ATOM      8  C   UNL     1      46.719  35.325 -13.632  1.00  0.00     0.000 C 
BRANCH   8   9
ATOM      9  C   UNL     1      47.925  34.746 -14.392  1.00  0.00    -0.000 C 
BRANCH   9  10
ATOM     10  C   UNL     1      47.710  34.731 -15.914  1.00  0.00    -0.000 C 
BRANCH  10  11
ATOM     11  C   UNL     1      48.971  35.126 -16.696  1.00  0.00    -0.000 C 
BRANCH  11  12
ATOM     12  C   UNL     1      48.891  36.585 -17.162  1.00  0.00    -0.003 C 
ATOM     13  C   UNL     1      47.484  36.936 -17.636  1.00  0.00     0.004 C 
ENDBRANCH  11  12
ENDBRANCH  10  11
ENDBRANCH   9  10
ENDBRANCH   8   9
ENDBRANCH   1   8
TORSDOF 9
ENDMDL
MODEL 8
REMARK VINA RESULT:    -3.869     18.192     19.682
REMARK INTER + INTRA:          -6.951
REMARK INTER:                  -5.917
REMARK INTRA:                  -1.035
REMARK UNBOUND:                -1.047
REMARK SMILES CCCCCCCCCCC(=O)[O-]
REMARK SMILES IDX 7 1 8 2 9 3 10 4 11 5 12 6 13 7 6 8 5 9 4 10 3 11 2 12 1 13
REMARK H PARENT
REMARK Flexibility Score: inf
ROOT
ATOM      1  C   UNL     1      47.108  37.620 -16.121  1.00  0.00     0.000 C 
ENDROOT
BRANCH   1   2
ATOM      2  C   UNL     1      45.981  37.425 -15.088  1.00  0.00     0.000 C 
BRANCH   2   3
ATOM      3  C   UNL     1      46.472  36.903 -13.720  1.00  0.00     0.006 C 
BRANCH   3   4
ATOM      4  C   UNL     1      45.995  35.472 -13.438  1.00  0.00     0.053 C 
BRANCH   4   5
ATOM      5  C   UNL     1      45.516  35.349 -12.026  1.00  0.00     0.041 C 
ATOM      6  O   UNL     1      46.190  34.700 -11.183  1.00  0.00    -0.550 OA
ATOM      7  O   UNL     1      44.300  35.907 -11.653  1.00  0.00    -0.550 OA
ENDBRANCH   4   5
ENDBRANCH   3   4
ENDBRANCH   2   3
ENDBRANCH   1   2
BRANCH   1   8
ATOM      8  C   UNL     1      47.086  36.636 -17.304  1.00  0.00     0.000 C 
BRANCH   8   9
ATOM      9  C   UNL     1      47.410  35.191 -16.884  1.00  0.00    -0.000 C 
BRANCH   9  10
ATOM     10  C   UNL     1      48.759  35.077 -16.156  1.00  0.00    -0.000 C 
BRANCH  10  11
ATOM     11  C   UNL     1      49.955  35.378 -17.071  1.00  0.00    -0.000 C 
BRANCH  11  12
ATOM     12  C   UNL     1      50.876  36.429 -16.440  1.00  0.00    -0.003 C 
ATOM     13  C   UNL     1      50.448  36.752 -15.011  1.00  0.00     0.004 C 
ENDBRANCH  11  12
ENDBRANCH  10  11
ENDBRANCH   9  10
ENDBRANCH   8   9
ENDBRANCH   1   8
TORSDOF 9
ENDMDL
MODEL 9
REMARK VINA RESULT:    -3.821     18.834     20.155
REMARK INTER + INTRA:          -6.877
REMARK INTER:                  -6.172
REMARK INTRA:                  -0.706
REMARK UNBOUND:                -1.047
REMARK SMILES CCCCCCCCCCC(=O)[O-]
REMARK SMILES IDX 7 1 8 2 9 3 10 4 11 5 12 6 13 7 6 8 5 9 4 10 3 11 2 12 1 13
REMARK H PARENT
REMARK Flexibility Score: inf
ROOT
ATOM      1  C   UNL     1      46.594  34.764 -13.817  1.00  0.00     0.000 C 
ENDROOT
BRANCH   1   2
ATOM      2  C   UNL     1      45.995  34.281 -12.480  1.00  0.00     0.000 C 
BRANCH   2   3
ATOM      3  C   UNL     1      45.594  35.427 -11.526  1.00  0.00     0.006 C 
BRANCH   3   4
ATOM      4  C   UNL     1      46.473  35.474 -10.270  1.00  0.00     0.053 C 
BRANCH   4   5
ATOM      5  C   UNL     1      47.649  36.370 -10.488  1.00  0.00     0.041 C 
ATOM      6  O   UNL     1      48.814  35.892 -10.519  1.00  0.00    -0.550 OA
ATOM      7  O   UNL     1      47.466  37.742 -10.604  1.00  0.00    -0.550 OA
ENDBRANCH   4   5
ENDBRANCH   3   4
ENDBRANCH   2   3
ENDBRANCH   1   2
BRANCH   1   8
ATOM      8  C   UNL     1      48.111  34.555 -13.965  1.00  0.00     0.000 C 
BRANCH   8   9
ATOM      9  C   UNL     1      48.885  35.878 -14.097  1.00  0.00    -0.000 C 
BRANCH   9  10
ATOM     10  C   UNL     1      49.359  36.143 -15.535  1.00  0.00    -0.000 C 
BRANCH  10  11
ATOM     11  C   UNL     1      48.677  35.229 -16.563  1.00  0.00    -0.000 C 
BRANCH  11  12
ATOM     12  C   UNL     1      47.506  35.948 -17.243  1.00  0.00    -0.003 C 
ATOM     13  C   UNL     1      47.894  37.365 -17.657  1.00  0.00     0.004 C 
ENDBRANCH  11  12
ENDBRANCH  10  11
ENDBRANCH   9  10
ENDBRANCH   8   9
ENDBRANCH   1   8
TORSDOF 9
ENDMDL
