MODEL 1
REMARK VINA RESULT:    -1.725      0.000      0.000
REMARK INTER + INTRA:          -3.037
REMARK INTER:                  -2.482
REMARK INTRA:                  -0.555
REMARK UNBOUND:                -0.555
REMARK SMILES CCCCCCCCCO
REMARK SMILES IDX 6 1 5 2 4 3 3 4 2 5 1 6 7 7 8 8 9 9 10 10
REMARK H PARENT 10 11
REMARK Flexibility Score: inf
ROOT
ATOM      1  C   UNL     1     126.243 110.092 133.955  1.00  0.00     0.000 C 
ENDROOT
BRANCH   1   2
ATOM      2  C   UNL     1     127.103 111.290 134.400  1.00  0.00     0.000 C 
BRANCH   2   3
ATOM      3  C   UNL     1     126.412 112.197 135.440  1.00  0.00    -0.000 C 
BRANCH   3   4
ATOM      4  C   UNL     1     127.120 112.167 136.805  1.00  0.00    -0.000 C 
BRANCH   4   5
ATOM      5  C   UNL     1     126.653 110.998 137.687  1.00  0.00    -0.003 C 
ATOM      6  C   UNL     1     125.138 110.969 137.879  1.00  0.00     0.004 C 
ENDBRANCH   4   5
ENDBRANCH   3   4
ENDBRANCH   2   3
ENDBRANCH   1   2
BRANCH   1   7
ATOM      7  C   UNL     1     127.015 108.775 133.756  1.00  0.00     0.002 C 
BRANCH   7   8
ATOM      8  C   UNL     1     126.473 107.571 134.551  1.00  0.00     0.028 C 
BRANCH   8   9
ATOM      9  C   UNL     1     125.571 107.966 135.726  1.00  0.00     0.156 C 
BRANCH   9  10
ATOM     10  O   UNL     1     126.088 107.464 136.926  1.00  0.00    -0.396 OA
ATOM     11  H   UNL     1     126.756 108.130 137.239  1.00  0.00     0.210 HD
ENDBRANCH   9  10
ENDBRANCH   8   9
ENDBRANCH   7   8
ENDBRANCH   1   7
TORSDOF 8
ENDMDL
MODEL 2
REMARK VINA RESULT:    -1.677      1.256      3.609
REMARK INTER + INTRA:          -2.968
REMARK INTER:                  -2.483
REMARK INTRA:                  -0.485
REMARK UNBOUND:                -0.555
REMARK SMILES CCCCCCCCCO
REMARK SMILES IDX 6 1 5 2 4 3 3 4 2 5 1 6 7 7 8 8 9 9 10 10
REMARK H PARENT 10 11
REMARK Flexibility Score: inf
ROOT
ATOM      1  C   UNL     1     125.844 111.646 136.118  1.00  0.00     0.000 C 
ENDROOT
BRANCH   1   2
ATOM      2  C   UNL     1     127.080 112.057 135.295  1.00  0.00     0.000 C 
BRANCH   2   3
ATOM      3  C   UNL     1     127.125 111.424 133.887  1.00  0.00    -0.000 C 
BRANCH   3   4
ATOM      4  C   UNL     1     126.273 110.148 133.792  1.00  0.00    -0.000 C 
BRANCH   4   5
ATOM      5  C   UNL     1     127.125 108.879 133.627  1.00  0.00    -0.003 C 
ATOM      6  C   UNL     1     126.489 107.650 134.274  1.00  0.00     0.004 C 
ENDBRANCH   4   5
ENDBRANCH   3   4
ENDBRANCH   2   3
ENDBRANCH   1   2
BRANCH   1   7
ATOM      7  C   UNL     1     126.058 111.621 137.643  1.00  0.00     0.002 C 
BRANCH   7   8
ATOM      8  C   UNL     1     126.330 110.228 138.242  1.00  0.00     0.028 C 
BRANCH   8   9
ATOM      9  C   UNL     1     125.509 109.108 137.592  1.00  0.00     0.156 C 
BRANCH   9  10
ATOM     10  O   UNL     1     124.210 109.092 138.114  1.00  0.00    -0.396 OA
ATOM     11  H   UNL     1     123.726 108.375 137.628  1.00  0.00     0.210 HD
ENDBRANCH   9  10
ENDBRANCH   8   9
ENDBRANCH   7   8
ENDBRANCH   1   7
TORSDOF 8
ENDMDL
MODEL 3
REMARK VINA RESULT:    -1.656      1.544      3.619
REMARK INTER + INTRA:          -2.937
REMARK INTER:                  -2.144
REMARK INTRA:                  -0.793
REMARK UNBOUND:                -0.555
REMARK SMILES CCCCCCCCCO
REMARK SMILES IDX 6 1 5 2 4 3 3 4 2 5 1 6 7 7 8 8 9 9 10 10
REMARK H PARENT 10 11
REMARK Flexibility Score: inf
ROOT
ATOM      1  C   UNL     1     125.933 111.419 133.794  1.00  0.00     0.000 C 
ENDROOT
BRANCH   1   2
ATOM      2  C   UNL     1     126.034 110.054 133.086  1.00  0.00     0.000 C 
BRANCH   2   3
ATOM      3  C   UNL     1     127.125 109.132 133.672  1.00  0.00    -0.000 C 
BRANCH   3   4
ATOM      4  C   UNL     1     126.535 107.871 134.327  1.00  0.00    -0.000 C 
BRANCH   4   5
ATOM      5  C   UNL     1     126.017 108.133 135.750  1.00  0.00    -0.003 C 
ATOM      6  C   UNL     1     124.493 108.076 135.847  1.00  0.00     0.004 C 
ENDBRANCH   4   5
ENDBRANCH   3   4
ENDBRANCH   2   3
ENDBRANCH   1   2
BRANCH   1   7
ATOM      7  C   UNL     1     127.118 111.763 134.715  1.00  0.00     0.002 C 
BRANCH   7   8
ATOM      8  C   UNL     1     126.780 111.831 136.217  1.00  0.00     0.028 C 
BRANCH   8   9
ATOM      9  C   UNL     1     125.277 111.773 136.513  1.00  0.00     0.156 C 
BRANCH   9  10
ATOM     10  O   UNL     1     125.047 111.151 137.746  1.00  0.00    -0.396 OA
ATOM     11  H   UNL     1     125.582 111.655 138.414  1.00  0.00     0.210 HD
ENDBRANCH   9  10
ENDBRANCH   8   9
ENDBRANCH   7   8
ENDBRANCH   1   7
TORSDOF 8
ENDMDL
MODEL 4
REMARK VINA RESULT:    -1.580      1.938      2.944
REMARK INTER + INTRA:          -2.828
REMARK INTER:                  -2.142
REMARK INTRA:                  -0.686
REMARK UNBOUND:                -0.555
REMARK SMILES CCCCCCCCCO
REMARK SMILES IDX 6 1 5 2 4 3 3 4 2 5 1 6 7 7 8 8 9 9 10 10
REMARK H PARENT 10 11
REMARK Flexibility Score: inf
ROOT
ATOM      1  C   UNL     1     125.369 111.476 136.107  1.00  0.00     0.000 C 
ENDROOT
BRANCH   1   2
ATOM      2  C   UNL     1     126.769 111.784 136.672  1.00  0.00     0.000 C 
BRANCH   2   3
ATOM      3  C   UNL     1     127.027 111.161 138.061  1.00  0.00    -0.000 C 
BRANCH   3   4
ATOM      4  C   UNL     1     125.814 110.373 138.583  1.00  0.00    -0.000 C 
BRANCH   4   5
ATOM      5  C   UNL     1     126.125 108.883 138.797  1.00  0.00    -0.003 C 
ATOM      6  C   UNL     1     126.016 108.065 137.512  1.00  0.00     0.004 C 
ENDBRANCH   4   5
ENDBRANCH   3   4
ENDBRANCH   2   3
ENDBRANCH   1   2
BRANCH   1   7
ATOM      7  C   UNL     1     125.360 110.638 134.815  1.00  0.00     0.002 C 
BRANCH   7   8
ATOM      8  C   UNL     1     126.750 110.224 134.295  1.00  0.00     0.028 C 
BRANCH   8   9
ATOM      9  C   UNL     1     126.837 108.751 133.878  1.00  0.00     0.156 C 
BRANCH   9  10
ATOM     10  O   UNL     1     127.125 108.649 132.512  1.00  0.00    -0.396 OA
ATOM     11  H   UNL     1     126.436 108.045 132.129  1.00  0.00     0.210 HD
ENDBRANCH   9  10
ENDBRANCH   8   9
ENDBRANCH   7   8
ENDBRANCH   1   7
TORSDOF 8
ENDMDL
MODEL 5
REMARK VINA RESULT:    -1.558      1.475      3.584
REMARK INTER + INTRA:          -2.796
REMARK INTER:                  -2.128
REMARK INTRA:                  -0.668
REMARK UNBOUND:                -0.555
REMARK SMILES CCCCCCCCCO
REMARK SMILES IDX 6 1 5 2 4 3 3 4 2 5 1 6 7 7 8 8 9 9 10 10
REMARK H PARENT 10 11
REMARK Flexibility Score: inf
ROOT
ATOM      1  C   UNL     1     125.159 108.673 135.609  1.00  0.00     0.000 C 
ENDROOT
BRANCH   1   2
ATOM      2  C   UNL     1     125.845 108.031 134.388  1.00  0.00     0.000 C 
BRANCH   2   3
ATOM      3  C   UNL     1     127.073 108.819 133.883  1.00  0.00    -0.000 C 
BRANCH   3   4
ATOM      4  C   UNL     1     126.678 110.117 133.158  1.00  0.00    -0.000 C 
BRANCH   4   5
ATOM      5  C   UNL     1     127.125 111.377 133.917  1.00  0.00    -0.003 C 
ATOM      6  C   UNL     1     125.956 112.146 134.530  1.00  0.00     0.004 C 
ENDBRANCH   4   5
ENDBRANCH   3   4
ENDBRANCH   2   3
ENDBRANCH   1   2
BRANCH   1   7
ATOM      7  C   UNL     1     125.990 108.655 136.906  1.00  0.00     0.002 C 
BRANCH   7   8
ATOM      8  C   UNL     1     126.142 110.020 137.605  1.00  0.00     0.028 C 
BRANCH   8   9
ATOM      9  C   UNL     1     125.111 110.263 138.713  1.00  0.00     0.156 C 
BRANCH   9  10
ATOM     10  O   UNL     1     124.514 109.055 139.094  1.00  0.00    -0.396 OA
ATOM     11  H   UNL     1     124.533 109.038 140.086  1.00  0.00     0.210 HD
ENDBRANCH   9  10
ENDBRANCH   8   9
ENDBRANCH   7   8
ENDBRANCH   1   7
TORSDOF 8
ENDMDL
MODEL 6
REMARK VINA RESULT:    -1.551      2.574      4.913
REMARK INTER + INTRA:          -2.786
REMARK INTER:                  -2.282
REMARK INTRA:                  -0.504
REMARK UNBOUND:                -0.555
REMARK SMILES CCCCCCCCCO
REMARK SMILES IDX 6 1 5 2 4 3 3 4 2 5 1 6 7 7 8 8 9 9 10 10
REMARK H PARENT 10 11
REMARK Flexibility Score: inf
ROOT
ATOM      1  C   UNL     1     125.569 110.888 136.149  1.00  0.00     0.000 C 
ENDROOT
BRANCH   1   2
ATOM      2  C   UNL     1     125.687 109.502 136.812  1.00  0.00     0.000 C 
BRANCH   2   3
ATOM      3  C   UNL     1     125.824 108.342 135.802  1.00  0.00    -0.000 C 
BRANCH   3   4
ATOM      4  C   UNL     1     125.739 108.823 134.344  1.00  0.00    -0.000 C 
BRANCH   4   5
ATOM      5  C   UNL     1     127.121 108.955 133.684  1.00  0.00    -0.003 C 
ATOM      6  C   UNL     1     127.125 109.930 132.508  1.00  0.00     0.004 C 
ENDBRANCH   4   5
ENDBRANCH   3   4
ENDBRANCH   2   3
ENDBRANCH   1   2
BRANCH   1   7
ATOM      7  C   UNL     1     126.794 111.803 136.332  1.00  0.00     0.002 C 
BRANCH   7   8
ATOM      8  C   UNL     1     126.937 112.923 135.283  1.00  0.00     0.028 C 
BRANCH   8   9
ATOM      9  C   UNL     1     126.769 114.332 135.862  1.00  0.00     0.156 C 
BRANCH   9  10
ATOM     10  O   UNL     1     127.114 114.345 137.219  1.00  0.00    -0.396 OA
ATOM     11  H   UNL     1     126.398 113.844 137.691  1.00  0.00     0.210 HD
ENDBRANCH   9  10
ENDBRANCH   8   9
ENDBRANCH   7   8
ENDBRANCH   1   7
TORSDOF 8
ENDMDL
MODEL 7
REMARK VINA RESULT:    -1.549      2.231      3.580
REMARK INTER + INTRA:          -2.783
REMARK INTER:                  -2.226
REMARK INTRA:                  -0.557
REMARK UNBOUND:                -0.555
REMARK SMILES CCCCCCCCCO
REMARK SMILES IDX 6 1 5 2 4 3 3 4 2 5 1 6 7 7 8 8 9 9 10 10
REMARK H PARENT 10 11
REMARK Flexibility Score: inf
ROOT
ATOM      1  C   UNL     1     125.254 108.560 134.346  1.00  0.00     0.000 C 
ENDROOT
BRANCH   1   2
ATOM      2  C   UNL     1     124.823 107.974 135.704  1.00  0.00     0.000 C 
BRANCH   2   3
ATOM      3  C   UNL     1     126.007 107.550 136.600  1.00  0.00    -0.000 C 
BRANCH   3   4
ATOM      4  C   UNL     1     126.016 108.290 137.948  1.00  0.00    -0.000 C 
BRANCH   4   5
ATOM      5  C   UNL     1     125.756 109.798 137.795  1.00  0.00    -0.003 C 
ATOM      6  C   UNL     1     126.844 110.655 138.439  1.00  0.00     0.004 C 
ENDBRANCH   4   5
ENDBRANCH   3   4
ENDBRANCH   2   3
ENDBRANCH   1   2
BRANCH   1   7
ATOM      7  C   UNL     1     126.747 108.919 134.237  1.00  0.00     0.002 C 
BRANCH   7   8
ATOM      8  C   UNL     1     127.044 110.311 133.647  1.00  0.00     0.028 C 
BRANCH   8   9
ATOM      9  C   UNL     1     126.771 111.463 134.620  1.00  0.00     0.156 C 
BRANCH   9  10
ATOM     10  O   UNL     1     127.125 112.686 134.037  1.00  0.00    -0.396 OA
ATOM     11  H   UNL     1     126.656 113.388 134.561  1.00  0.00     0.210 HD
ENDBRANCH   9  10
ENDBRANCH   8   9
ENDBRANCH   7   8
ENDBRANCH   1   7
TORSDOF 8
ENDMDL
MODEL 8
REMARK VINA RESULT:    -1.540      1.787      4.215
REMARK INTER + INTRA:          -2.770
REMARK INTER:                  -2.014
REMARK INTRA:                  -0.756
REMARK UNBOUND:                -0.555
REMARK SMILES CCCCCCCCCO
REMARK SMILES IDX 6 1 5 2 4 3 3 4 2 5 1 6 7 7 8 8 9 9 10 10
REMARK H PARENT 10 11
REMARK Flexibility Score: inf
ROOT
ATOM      1  C   UNL     1     124.673 109.702 136.081  1.00  0.00     0.000 C 
ENDROOT
BRANCH   1   2
ATOM      2  C   UNL     1     125.806 108.804 135.550  1.00  0.00     0.000 C 
BRANCH   2   3
ATOM      3  C   UNL     1     125.799 108.641 134.014  1.00  0.00    -0.000 C 
BRANCH   3   4
ATOM      4  C   UNL     1     127.125 109.085 133.373  1.00  0.00    -0.000 C 
BRANCH   4   5
ATOM      5  C   UNL     1     127.016 110.452 132.677  1.00  0.00    -0.003 C 
ATOM      6  C   UNL     1     125.573 110.936 132.546  1.00  0.00     0.004 C 
ENDBRANCH   4   5
ENDBRANCH   3   4
ENDBRANCH   2   3
ENDBRANCH   1   2
BRANCH   1   7
ATOM      7  C   UNL     1     125.050 111.183 136.268  1.00  0.00     0.002 C 
BRANCH   7   8
ATOM      8  C   UNL     1     126.563 111.479 136.254  1.00  0.00     0.028 C 
BRANCH   8   9
ATOM      9  C   UNL     1     127.124 111.880 137.623  1.00  0.00     0.156 C 
BRANCH   9  10
ATOM     10  O   UNL     1     126.738 110.951 138.598  1.00  0.00    -0.396 OA
ATOM     11  H   UNL     1     127.574 110.522 138.916  1.00  0.00     0.210 HD
ENDBRANCH   9  10
ENDBRANCH   8   9
ENDBRANCH   7   8
ENDBRANCH   1   7
TORSDOF 8
ENDMDL
