MODEL 1
REMARK VINA RESULT:     6.103      0.000      0.000
REMARK INTER + INTRA:           7.275
REMARK INTER:                   8.243
REMARK INTRA:                  -0.968
REMARK UNBOUND:                -0.968
REMARK SMILES CC[C@H](CC[C@H](C)[C@@H]1CC[C@@H]2[C@H]3CC(=O)C4=CC(=O)CC[C@]4(C)[C@H]3CC[C@]21C)C(C)C
REMARK SMILES IDX 4 1 3 2 2 3 1 4 29 5 30 6 31 7 5 8 6 9 7 10 8 11 9 12 27 13
REMARK SMILES IDX 10 14 11 15 26 16 28 17 12 18 25 19 24 20 13 21 22 22 14 23
REMARK SMILES IDX 16 24 21 25 23 26 15 27 17 28 20 29 18 30 19 31
REMARK H PARENT
REMARK Flexibility Score: inf
ROOT
ATOM      1  C   UNL     1     163.083 201.788 300.147  1.00  0.00     0.004 C 
ENDROOT
BRANCH   1   2
ATOM      2  C   UNL     1     161.893 202.802 300.162  1.00  0.00    -0.009 C 
BRANCH   2   3
ATOM      3  C   UNL     1     160.696 202.279 299.298  1.00  0.00     0.000 C 
ATOM      4  C   UNL     1     160.634 200.755 299.143  1.00  0.00     0.004 C 
ENDBRANCH   2   3
BRANCH   2   5
ATOM      5  C   UNL     1     161.493 203.120 301.655  1.00  0.00    -0.014 C 
ATOM      6  C   UNL     1     160.169 202.442 302.076  1.00  0.00     0.007 C 
ATOM      7  C   UNL     1     162.615 202.799 302.678  1.00  0.00     0.007 C 
ENDBRANCH   2   5
ENDBRANCH   1   2
BRANCH   1   8
ATOM      8  C   UNL     1     164.183 202.000 299.076  1.00  0.00     0.004 C 
BRANCH   8   9
ATOM      9  C   UNL     1     165.651 202.069 299.595  1.00  0.00    -0.011 C 
ATOM     10  C   UNL     1     166.466 200.986 298.886  1.00  0.00     0.008 C 
BRANCH   9  11
ATOM     11  C   UNL     1     165.741 202.099 301.162  1.00  0.00    -0.002 C 
ATOM     12  C   UNL     1     166.749 203.125 301.703  1.00  0.00     0.005 C 
ATOM     13  C   UNL     1     165.992 200.832 302.044  1.00  0.00    -0.026 C 
ATOM     14  C   UNL     1     167.034 202.689 303.156  1.00  0.00     0.005 C 
ATOM     15  C   UNL     1     166.107 201.500 303.416  1.00  0.00    -0.001 C 
ATOM     16  C   UNL     1     164.794 199.902 302.133  1.00  0.00     0.007 C 
ATOM     17  C   UNL     1     167.287 200.052 301.651  1.00  0.00     0.012 C 
ATOM     18  C   UNL     1     166.477 200.549 304.593  1.00  0.00     0.004 C 
ATOM     19  C   UNL     1     164.998 198.787 303.185  1.00  0.00     0.005 C 
ATOM     20  C   UNL     1     165.847 199.077 304.498  1.00  0.00     0.003 C 
ATOM     21  C   UNL     1     166.180 201.269 305.924  1.00  0.00     0.085 C 
ATOM     22  C   UNL     1     165.260 198.449 305.868  1.00  0.00    -0.000 C 
ATOM     23  C   UNL     1     164.824 200.915 306.413  1.00  0.00     0.159 C 
ATOM     24  C   UNL     1     164.618 199.514 306.745  1.00  0.00     0.005 C 
ATOM     25  C   UNL     1     166.413 197.797 306.694  1.00  0.00     0.020 C 
ATOM     26  C   UNL     1     164.209 197.329 305.576  1.00  0.00     0.017 C 
ATOM     27  O   UNL     1     163.910 201.773 306.542  1.00  0.00    -0.295 OA
ATOM     28  C   UNL     1     164.257 199.218 308.008  1.00  0.00     0.055 C 
ATOM     29  C   UNL     1     165.997 197.327 308.120  1.00  0.00     0.081 C 
ATOM     30  C   UNL     1     164.703 197.943 308.594  1.00  0.00     0.156 C 
ATOM     31  O   UNL     1     164.047 197.385 309.523  1.00  0.00    -0.295 OA
ENDBRANCH   9  11
ENDBRANCH   8   9
ENDBRANCH   1   8
TORSDOF 6
ENDMDL
MODEL 2
REMARK VINA RESULT:     9.019      2.884      8.704
REMARK INTER + INTRA:          11.215
REMARK INTER:                  11.837
REMARK INTRA:                  -0.622
REMARK UNBOUND:                -0.968
REMARK SMILES CC[C@H](CC[C@H](C)[C@@H]1CC[C@@H]2[C@H]3CC(=O)C4=CC(=O)CC[C@]4(C)[C@H]3CC[C@]21C)C(C)C
REMARK SMILES IDX 4 1 3 2 2 3 1 4 29 5 30 6 31 7 5 8 6 9 7 10 8 11 9 12 27 13
REMARK SMILES IDX 10 14 11 15 26 16 28 17 12 18 25 19 24 20 13 21 22 22 14 23
REMARK SMILES IDX 16 24 21 25 23 26 15 27 17 28 20 29 18 30 19 31
REMARK H PARENT
REMARK Flexibility Score: inf
ROOT
ATOM      1  C   UNL     1     167.239 196.244 309.273  1.00  0.00     0.004 C 
ENDROOT
BRANCH   1   2
ATOM      2  C   UNL     1     168.001 194.901 309.029  1.00  0.00    -0.009 C 
BRANCH   2   3
ATOM      3  C   UNL     1     168.103 194.581 307.499  1.00  0.00     0.000 C 
ATOM      4  C   UNL     1     167.475 193.247 307.078  1.00  0.00     0.004 C 
ENDBRANCH   2   3
BRANCH   2   5
ATOM      5  C   UNL     1     169.403 194.953 309.751  1.00  0.00    -0.014 C 
ATOM      6  C   UNL     1     170.558 195.307 308.787  1.00  0.00     0.007 C 
ATOM      7  C   UNL     1     169.426 195.889 310.989  1.00  0.00     0.007 C 
ENDBRANCH   2   5
ENDBRANCH   1   2
BRANCH   1   8
ATOM      8  C   UNL     1     166.431 196.827 308.086  1.00  0.00     0.004 C 
BRANCH   8   9
ATOM      9  C   UNL     1     165.340 197.882 308.442  1.00  0.00    -0.011 C 
ATOM     10  C   UNL     1     163.993 197.166 308.553  1.00  0.00     0.008 C 
BRANCH   9  11
ATOM     11  C   UNL     1     165.388 199.144 307.510  1.00  0.00    -0.002 C 
ATOM     12  C   UNL     1     164.384 200.239 307.902  1.00  0.00     0.005 C 
ATOM     13  C   UNL     1     165.274 199.078 305.952  1.00  0.00    -0.026 C 
ATOM     14  C   UNL     1     164.249 201.134 306.652  1.00  0.00     0.005 C 
ATOM     15  C   UNL     1     165.249 200.576 305.638  1.00  0.00    -0.001 C 
ATOM     16  C   UNL     1     166.518 198.532 305.270  1.00  0.00     0.007 C 
ATOM     17  C   UNL     1     163.987 198.345 305.455  1.00  0.00     0.012 C 
ATOM     18  C   UNL     1     165.030 200.943 304.140  1.00  0.00     0.004 C 
ATOM     19  C   UNL     1     166.460 198.693 303.733  1.00  0.00     0.005 C 
ATOM     20  C   UNL     1     165.717 199.944 303.092  1.00  0.00     0.003 C 
ATOM     21  C   UNL     1     165.409 202.423 303.931  1.00  0.00     0.085 C 
ATOM     22  C   UNL     1     166.451 200.620 301.819  1.00  0.00    -0.000 C 
ATOM     23  C   UNL     1     166.818 202.538 303.478  1.00  0.00     0.159 C 
ATOM     24  C   UNL     1     167.117 201.937 302.188  1.00  0.00     0.005 C 
ATOM     25  C   UNL     1     165.406 200.923 300.698  1.00  0.00     0.020 C 
ATOM     26  C   UNL     1     167.523 199.662 301.204  1.00  0.00     0.017 C 
ATOM     27  O   UNL     1     167.699 203.125 304.162  1.00  0.00    -0.295 OA
ATOM     28  C   UNL     1     167.601 202.741 301.223  1.00  0.00     0.055 C 
ATOM     29  C   UNL     1     165.968 201.747 299.502  1.00  0.00     0.081 C 
ATOM     30  C   UNL     1     167.268 202.445 299.819  1.00  0.00     0.156 C 
ATOM     31  O   UNL     1     168.029 202.813 298.875  1.00  0.00    -0.295 OA
ENDBRANCH   9  11
ENDBRANCH   8   9
ENDBRANCH   1   8
TORSDOF 6
ENDMDL
