MODEL 1
REMARK VINA RESULT:     3.296      0.000      0.000
REMARK INTER + INTRA:           3.756
REMARK INTER:                   4.163
REMARK INTRA:                  -0.407
REMARK UNBOUND:                -0.407
REMARK SMILES CC(C)[C@@H](C)C=C[C@H](C)[C@H]1CC[C@H]2C3=CC=C4C[C@H](O)CC[C@]4(C)[C@H]3CC[C@@]12C
REMARK SMILES IDX 8 1 9 2 7 3 6 4 4 5 5 6 2 7 1 8 3 9 10 10 11 11 28 12 12 13
REMARK SMILES IDX 13 14 27 15 29 16 14 17 26 18 25 19 15 20 23 21 16 22 17 23
REMARK SMILES IDX 22 24 24 25 18 26 21 27 19 28 20 29
REMARK H PARENT 20 30
REMARK Flexibility Score: inf
ROOT
ATOM      1  C   UNL     1     134.817 123.430 138.975  1.00  0.00     0.012 C 
ATOM      2  C   UNL     1     134.738 124.651 138.024  1.00  0.00     0.012 C 
ENDROOT
BRANCH   1   3
ATOM      3  C   UNL     1     136.177 123.530 139.640  1.00  0.00    -0.028 C 
ATOM      4  C   UNL     1     137.268 123.786 138.908  1.00  0.00    -0.028 C 
BRANCH   4   5
ATOM      5  C   UNL     1     138.675 123.709 139.469  1.00  0.00     0.011 C 
ATOM      6  C   UNL     1     139.507 122.656 138.709  1.00  0.00     0.012 C 
BRANCH   5   7
ATOM      7  C   UNL     1     138.652 123.496 141.011  1.00  0.00    -0.011 C 
ATOM      8  C   UNL     1     139.930 124.035 141.678  1.00  0.00     0.008 C 
ATOM      9  C   UNL     1     138.402 122.042 141.424  1.00  0.00     0.008 C 
ENDBRANCH   5   7
ENDBRANCH   4   5
ENDBRANCH   1   3
BRANCH   1  10
ATOM     10  C   UNL     1     133.618 123.402 140.001  1.00  0.00     0.002 C 
ATOM     11  C   UNL     1     133.474 121.995 140.616  1.00  0.00     0.005 C 
ATOM     12  C   UNL     1     133.660 124.344 141.285  1.00  0.00    -0.023 C 
ATOM     13  C   UNL     1     134.294 122.019 141.885  1.00  0.00     0.009 C 
ATOM     14  C   UNL     1     134.025 123.395 142.483  1.00  0.00     0.021 C 
ATOM     15  C   UNL     1     134.667 125.549 141.223  1.00  0.00     0.008 C 
ATOM     16  C   UNL     1     132.232 124.922 141.495  1.00  0.00     0.012 C 
ATOM     17  C   UNL     1     135.095 124.002 143.389  1.00  0.00    -0.063 C 
ATOM     18  C   UNL     1     134.838 126.311 142.568  1.00  0.00     0.009 C 
ATOM     19  C   UNL     1     134.773 125.399 143.832  1.00  0.00     0.025 C 
ATOM     20  C   UNL     1     136.371 123.588 143.453  1.00  0.00    -0.000 C 
ATOM     21  C   UNL     1     135.668 125.882 145.029  1.00  0.00    -0.005 C 
ATOM     22  C   UNL     1     137.426 124.422 144.074  1.00  0.00    -0.000 C 
ATOM     23  C   UNL     1     137.127 125.530 144.774  1.00  0.00    -0.061 C 
ATOM     24  C   UNL     1     135.284 125.132 146.344  1.00  0.00     0.014 C 
ATOM     25  C   UNL     1     135.461 127.409 145.235  1.00  0.00     0.017 C 
ATOM     26  C   UNL     1     138.107 125.987 145.819  1.00  0.00     0.063 C 
ATOM     27  C   UNL     1     136.263 125.409 147.522  1.00  0.00     0.033 C 
ATOM     28  C   UNL     1     137.766 125.268 147.146  1.00  0.00     0.118 C 
BRANCH  28  29
ATOM     29  O   UNL     1     138.100 123.904 147.054  1.00  0.00    -0.393 OA
ATOM     30  H   UNL     1     137.262 123.426 146.820  1.00  0.00     0.210 HD
ENDBRANCH  28  29
ENDBRANCH   1  10
TORSDOF 5
ENDMDL
MODEL 2
REMARK VINA RESULT:     6.228      2.747      6.619
REMARK INTER + INTRA:           7.459
REMARK INTER:                   7.705
REMARK INTRA:                  -0.246
REMARK UNBOUND:                -0.407
REMARK SMILES CC(C)[C@@H](C)C=C[C@H](C)[C@H]1CC[C@H]2C3=CC=C4C[C@H](O)CC[C@]4(C)[C@H]3CC[C@@]12C
REMARK SMILES IDX 8 1 9 2 7 3 6 4 4 5 5 6 2 7 1 8 3 9 10 10 11 11 28 12 12 13
REMARK SMILES IDX 13 14 27 15 29 16 14 17 26 18 25 19 15 20 23 21 16 22 17 23
REMARK SMILES IDX 22 24 24 25 18 26 21 27 19 28 20 29
REMARK H PARENT 20 30
REMARK Flexibility Score: inf
ROOT
ATOM      1  C   UNL     1     137.486 126.519 145.550  1.00  0.00     0.012 C 
ATOM      2  C   UNL     1     136.894 127.394 146.682  1.00  0.00     0.012 C 
ENDROOT
BRANCH   1   3
ATOM      3  C   UNL     1     138.992 126.668 145.675  1.00  0.00    -0.028 C 
ATOM      4  C   UNL     1     139.779 126.481 144.609  1.00  0.00    -0.028 C 
BRANCH   4   5
ATOM      5  C   UNL     1     141.291 126.423 144.700  1.00  0.00     0.011 C 
ATOM      6  C   UNL     1     141.797 127.250 145.898  1.00  0.00     0.012 C 
BRANCH   5   7
ATOM      7  C   UNL     1     141.948 126.817 143.345  1.00  0.00    -0.011 C 
ATOM      8  C   UNL     1     142.088 125.604 142.407  1.00  0.00     0.008 C 
ATOM      9  C   UNL     1     143.294 127.532 143.502  1.00  0.00     0.008 C 
ENDBRANCH   5   7
ENDBRANCH   4   5
ENDBRANCH   1   3
BRANCH   1  10
ATOM     10  C   UNL     1     136.996 125.021 145.642  1.00  0.00     0.002 C 
ATOM     11  C   UNL     1     135.472 124.971 145.872  1.00  0.00     0.005 C 
ATOM     12  C   UNL     1     137.195 124.050 144.395  1.00  0.00    -0.023 C 
ATOM     13  C   UNL     1     134.854 124.875 144.496  1.00  0.00     0.009 C 
ATOM     14  C   UNL     1     135.774 123.928 143.734  1.00  0.00     0.021 C 
ATOM     15  C   UNL     1     138.250 124.509 143.325  1.00  0.00     0.008 C 
ATOM     16  C   UNL     1     137.636 122.663 144.940  1.00  0.00     0.012 C 
ATOM     17  C   UNL     1     135.836 124.061 142.214  1.00  0.00    -0.063 C 
ATOM     18  C   UNL     1     138.259 123.656 142.025  1.00  0.00     0.009 C 
ATOM     19  C   UNL     1     136.851 123.154 141.581  1.00  0.00     0.025 C 
ATOM     20  C   UNL     1     135.408 125.128 141.519  1.00  0.00    -0.000 C 
ATOM     21  C   UNL     1     136.667 123.024 140.027  1.00  0.00    -0.005 C 
ATOM     22  C   UNL     1     135.808 125.345 140.109  1.00  0.00    -0.000 C 
ATOM     23  C   UNL     1     136.444 124.394 139.403  1.00  0.00    -0.061 C 
ATOM     24  C   UNL     1     135.384 122.200 139.688  1.00  0.00     0.014 C 
ATOM     25  C   UNL     1     137.907 122.302 139.426  1.00  0.00     0.017 C 
ATOM     26  C   UNL     1     136.310 124.423 137.906  1.00  0.00     0.063 C 
ATOM     27  C   UNL     1     135.027 122.205 138.173  1.00  0.00     0.033 C 
ATOM     28  C   UNL     1     135.047 123.617 137.520  1.00  0.00     0.118 C 
BRANCH  28  29
ATOM     29  O   UNL     1     133.890 124.323 137.899  1.00  0.00    -0.393 OA
ATOM     30  H   UNL     1     134.026 125.262 137.603  1.00  0.00     0.210 HD
ENDBRANCH  28  29
ENDBRANCH   1  10
TORSDOF 5
ENDMDL
