MODEL 1
REMARK VINA RESULT:    -4.141      0.000      0.000
REMARK INTER + INTRA:          -5.638
REMARK INTER:                  -5.351
REMARK INTRA:                  -0.287
REMARK UNBOUND:                -0.287
REMARK SMILES CCCCCCC(=O)[O-]
REMARK SMILES IDX 5 1 6 2 7 3 8 4 9 5 4 6 3 7 2 8 1 9
REMARK H PARENT
REMARK Flexibility Score: inf
ROOT
ATOM      1  C   UNL     1      73.640  13.162  18.493  1.00  0.00     0.006 C 
ENDROOT
BRANCH   1   2
ATOM      2  C   UNL     1      74.780  14.087  18.046  1.00  0.00     0.053 C 
BRANCH   2   3
ATOM      3  C   UNL     1      74.768  14.247  16.558  1.00  0.00     0.041 C 
ATOM      4  O   UNL     1      74.520  15.370  16.044  1.00  0.00    -0.550 OA
ATOM      5  O   UNL     1      75.080  13.169  15.740  1.00  0.00    -0.550 OA
ENDBRANCH   2   3
ENDBRANCH   1   2
BRANCH   1   6
ATOM      6  C   UNL     1      74.106  12.097  19.499  1.00  0.00     0.000 C 
BRANCH   6   7
ATOM      7  C   UNL     1      75.519  11.571  19.192  1.00  0.00    -0.000 C 
BRANCH   7   8
ATOM      8  C   UNL     1      76.472  11.711  20.390  1.00  0.00    -0.003 C 
ATOM      9  C   UNL     1      77.721  12.526  20.058  1.00  0.00     0.004 C 
ENDBRANCH   7   8
ENDBRANCH   6   7
ENDBRANCH   1   6
TORSDOF 5
ENDMDL
MODEL 2
REMARK VINA RESULT:    -4.110      0.960      1.780
REMARK INTER + INTRA:          -5.598
REMARK INTER:                  -5.394
REMARK INTRA:                  -0.205
REMARK UNBOUND:                -0.287
REMARK SMILES CCCCCCC(=O)[O-]
REMARK SMILES IDX 5 1 6 2 7 3 8 4 9 5 4 6 3 7 2 8 1 9
REMARK H PARENT
REMARK Flexibility Score: inf
ROOT
ATOM      1  C   UNL     1      74.637  13.351  17.348  1.00  0.00     0.006 C 
ENDROOT
BRANCH   1   2
ATOM      2  C   UNL     1      75.097  14.805  17.178  1.00  0.00     0.053 C 
BRANCH   2   3
ATOM      3  C   UNL     1      75.066  15.196  15.734  1.00  0.00     0.041 C 
ATOM      4  O   UNL     1      75.542  14.426  14.859  1.00  0.00    -0.550 OA
ATOM      5  O   UNL     1      74.467  16.389  15.349  1.00  0.00    -0.550 OA
ENDBRANCH   2   3
ENDBRANCH   1   2
BRANCH   1   6
ATOM      6  C   UNL     1      73.687  13.168  18.543  1.00  0.00     0.000 C 
BRANCH   6   7
ATOM      7  C   UNL     1      74.170  12.084  19.522  1.00  0.00    -0.000 C 
BRANCH   7   8
ATOM      8  C   UNL     1      75.598  11.606  19.212  1.00  0.00    -0.003 C 
ATOM      9  C   UNL     1      76.518  11.669  20.430  1.00  0.00     0.004 C 
ENDBRANCH   7   8
ENDBRANCH   6   7
ENDBRANCH   1   6
TORSDOF 5
ENDMDL
MODEL 3
REMARK VINA RESULT:    -3.907      2.582      4.111
REMARK INTER + INTRA:          -5.335
REMARK INTER:                  -5.014
REMARK INTRA:                  -0.322
REMARK UNBOUND:                -0.287
REMARK SMILES CCCCCCC(=O)[O-]
REMARK SMILES IDX 5 1 6 2 7 3 8 4 9 5 4 6 3 7 2 8 1 9
REMARK H PARENT
REMARK Flexibility Score: inf
ROOT
ATOM      1  C   UNL     1      75.492  11.478  19.204  1.00  0.00     0.006 C 
ENDROOT
BRANCH   1   2
ATOM      2  C   UNL     1      76.508  11.648  20.342  1.00  0.00     0.053 C 
BRANCH   2   3
ATOM      3  C   UNL     1      77.832  12.082  19.799  1.00  0.00     0.041 C 
ATOM      4  O   UNL     1      78.613  11.239  19.284  1.00  0.00    -0.550 OA
ATOM      5  O   UNL     1      78.185  13.426  19.816  1.00  0.00    -0.550 OA
ENDBRANCH   2   3
ENDBRANCH   1   2
BRANCH   1   6
ATOM      6  C   UNL     1      74.119  12.079  19.544  1.00  0.00     0.000 C 
BRANCH   6   7
ATOM      7  C   UNL     1      73.714  13.210  18.583  1.00  0.00    -0.000 C 
BRANCH   7   8
ATOM      8  C   UNL     1      74.873  13.653  17.675  1.00  0.00    -0.003 C 
ATOM      9  C   UNL     1      75.394  15.046  18.023  1.00  0.00     0.004 C 
ENDBRANCH   7   8
ENDBRANCH   6   7
ENDBRANCH   1   6
TORSDOF 5
ENDMDL
MODEL 4
REMARK VINA RESULT:    -3.743      1.626      2.526
REMARK INTER + INTRA:          -5.124
REMARK INTER:                  -4.974
REMARK INTRA:                  -0.149
REMARK UNBOUND:                -0.287
REMARK SMILES CCCCCCC(=O)[O-]
REMARK SMILES IDX 5 1 6 2 7 3 8 4 9 5 4 6 3 7 2 8 1 9
REMARK H PARENT
REMARK Flexibility Score: inf
ROOT
ATOM      1  C   UNL     1      74.977  14.356  16.719  1.00  0.00     0.006 C 
ENDROOT
BRANCH   1   2
ATOM      2  C   UNL     1      74.787  15.817  16.290  1.00  0.00     0.053 C 
BRANCH   2   3
ATOM      3  C   UNL     1      75.870  16.228  15.343  1.00  0.00     0.041 C 
ATOM      4  O   UNL     1      75.893  17.397  14.875  1.00  0.00    -0.550 OA
ATOM      5  O   UNL     1      76.884  15.336  15.017  1.00  0.00    -0.550 OA
ENDBRANCH   2   3
ENDBRANCH   1   2
BRANCH   1   6
ATOM      6  C   UNL     1      74.766  14.152  18.228  1.00  0.00     0.000 C 
BRANCH   6   7
ATOM      7  C   UNL     1      73.706  13.081  18.537  1.00  0.00    -0.000 C 
BRANCH   7   8
ATOM      8  C   UNL     1      74.211  12.023  19.531  1.00  0.00    -0.003 C 
ATOM      9  C   UNL     1      75.731  12.039  19.687  1.00  0.00     0.004 C 
ENDBRANCH   7   8
ENDBRANCH   6   7
ENDBRANCH   1   6
TORSDOF 5
ENDMDL
MODEL 5
REMARK VINA RESULT:    -3.716      2.442      4.559
REMARK INTER + INTRA:          -5.089
REMARK INTER:                  -4.872
REMARK INTRA:                  -0.217
REMARK UNBOUND:                -0.287
REMARK SMILES CCCCCCC(=O)[O-]
REMARK SMILES IDX 5 1 6 2 7 3 8 4 9 5 4 6 3 7 2 8 1 9
REMARK H PARENT
REMARK Flexibility Score: inf
ROOT
ATOM      1  C   UNL     1      74.301  13.433  17.955  1.00  0.00     0.006 C 
ENDROOT
BRANCH   1   2
ATOM      2  C   UNL     1      74.048  12.431  19.089  1.00  0.00     0.053 C 
BRANCH   2   3
ATOM      3  C   UNL     1      75.290  11.650  19.383  1.00  0.00     0.041 C 
ATOM      4  O   UNL     1      75.789  10.900  18.503  1.00  0.00    -0.550 OA
ATOM      5  O   UNL     1      75.925  11.789  20.610  1.00  0.00    -0.550 OA
ENDBRANCH   2   3
ENDBRANCH   1   2
BRANCH   1   6
ATOM      6  C   UNL     1      75.236  14.578  18.378  1.00  0.00     0.000 C 
BRANCH   6   7
ATOM      7  C   UNL     1      75.701  15.432  17.186  1.00  0.00    -0.000 C 
BRANCH   7   8
ATOM      8  C   UNL     1      74.773  15.297  15.968  1.00  0.00    -0.003 C 
ATOM      9  C   UNL     1      74.608  16.609  15.203  1.00  0.00     0.004 C 
ENDBRANCH   7   8
ENDBRANCH   6   7
ENDBRANCH   1   6
TORSDOF 5
ENDMDL
MODEL 6
REMARK VINA RESULT:    -3.590      2.401      3.960
REMARK INTER + INTRA:          -4.927
REMARK INTER:                  -4.660
REMARK INTRA:                  -0.266
REMARK UNBOUND:                -0.287
REMARK SMILES CCCCCCC(=O)[O-]
REMARK SMILES IDX 5 1 6 2 7 3 8 4 9 5 4 6 3 7 2 8 1 9
REMARK H PARENT
REMARK Flexibility Score: inf
ROOT
ATOM      1  C   UNL     1      73.849  13.045  18.481  1.00  0.00     0.006 C 
ENDROOT
BRANCH   1   2
ATOM      2  C   UNL     1      74.172  12.115  19.659  1.00  0.00     0.053 C 
BRANCH   2   3
ATOM      3  C   UNL     1      75.578  11.614  19.557  1.00  0.00     0.041 C 
ATOM      4  O   UNL     1      76.435  11.955  20.414  1.00  0.00    -0.550 OA
ATOM      5  O   UNL     1      75.930  10.730  18.545  1.00  0.00    -0.550 OA
ENDBRANCH   2   3
ENDBRANCH   1   2
BRANCH   1   6
ATOM      6  C   UNL     1      75.034  13.947  18.100  1.00  0.00     0.000 C 
BRANCH   6   7
ATOM      7  C   UNL     1      75.059  14.286  16.600  1.00  0.00    -0.000 C 
BRANCH   7   8
ATOM      8  C   UNL     1      75.074  13.031  15.713  1.00  0.00    -0.003 C 
ATOM      9  C   UNL     1      76.484  12.492  15.476  1.00  0.00     0.004 C 
ENDBRANCH   7   8
ENDBRANCH   6   7
ENDBRANCH   1   6
TORSDOF 5
ENDMDL
MODEL 7
REMARK VINA RESULT:    -3.504      2.614      4.014
REMARK INTER + INTRA:          -4.814
REMARK INTER:                  -4.549
REMARK INTRA:                  -0.265
REMARK UNBOUND:                -0.287
REMARK SMILES CCCCCCC(=O)[O-]
REMARK SMILES IDX 5 1 6 2 7 3 8 4 9 5 4 6 3 7 2 8 1 9
REMARK H PARENT
REMARK Flexibility Score: inf
ROOT
ATOM      1  C   UNL     1      77.750  12.557  19.191  1.00  0.00     0.006 C 
ENDROOT
BRANCH   1   2
ATOM      2  C   UNL     1      78.732  13.599  19.744  1.00  0.00     0.053 C 
BRANCH   2   3
ATOM      3  C   UNL     1      78.438  14.949  19.170  1.00  0.00     0.041 C 
ATOM      4  O   UNL     1      77.492  15.097  18.352  1.00  0.00    -0.550 OA
ATOM      5  O   UNL     1      79.176  16.053  19.576  1.00  0.00    -0.550 OA
ENDBRANCH   2   3
ENDBRANCH   1   2
BRANCH   1   6
ATOM      6  C   UNL     1      76.929  11.874  20.297  1.00  0.00     0.000 C 
BRANCH   6   7
ATOM      7  C   UNL     1      75.418  11.896  20.011  1.00  0.00    -0.000 C 
BRANCH   7   8
ATOM      8  C   UNL     1      75.085  12.542  18.656  1.00  0.00    -0.003 C 
ATOM      9  C   UNL     1      73.701  13.188  18.635  1.00  0.00     0.004 C 
ENDBRANCH   7   8
ENDBRANCH   6   7
ENDBRANCH   1   6
TORSDOF 5
ENDMDL
MODEL 8
REMARK VINA RESULT:    -3.416      2.960      4.661
REMARK INTER + INTRA:          -4.700
REMARK INTER:                  -4.445
REMARK INTRA:                  -0.256
REMARK UNBOUND:                -0.287
REMARK SMILES CCCCCCC(=O)[O-]
REMARK SMILES IDX 5 1 6 2 7 3 8 4 9 5 4 6 3 7 2 8 1 9
REMARK H PARENT
REMARK Flexibility Score: inf
ROOT
ATOM      1  C   UNL     1      77.846  11.947  19.653  1.00  0.00     0.006 C 
ENDROOT
BRANCH   1   2
ATOM      2  C   UNL     1      77.692  10.434  19.862  1.00  0.00     0.053 C 
BRANCH   2   3
ATOM      3  C   UNL     1      77.912   9.705  18.574  1.00  0.00     0.041 C 
ATOM      4  O   UNL     1      79.081   9.469  18.172  1.00  0.00    -0.550 OA
ATOM      5  O   UNL     1      76.825   9.241  17.843  1.00  0.00    -0.550 OA
ENDBRANCH   2   3
ENDBRANCH   1   2
BRANCH   1   6
ATOM      6  C   UNL     1      76.506  12.642  19.364  1.00  0.00     0.000 C 
BRANCH   6   7
ATOM      7  C   UNL     1      75.319  11.950  20.056  1.00  0.00    -0.000 C 
BRANCH   7   8
ATOM      8  C   UNL     1      74.018  12.064  19.247  1.00  0.00    -0.003 C 
ATOM      9  C   UNL     1      73.903  13.391  18.499  1.00  0.00     0.004 C 
ENDBRANCH   7   8
ENDBRANCH   6   7
ENDBRANCH   1   6
TORSDOF 5
ENDMDL
MODEL 9
REMARK VINA RESULT:    -3.408      2.515      3.588
REMARK INTER + INTRA:          -4.691
REMARK INTER:                  -4.294
REMARK INTRA:                  -0.397
REMARK UNBOUND:                -0.287
REMARK SMILES CCCCCCC(=O)[O-]
REMARK SMILES IDX 5 1 6 2 7 3 8 4 9 5 4 6 3 7 2 8 1 9
REMARK H PARENT
REMARK Flexibility Score: inf
ROOT
ATOM      1  C   UNL     1      76.701  11.713  20.319  1.00  0.00     0.006 C 
ENDROOT
BRANCH   1   2
ATOM      2  C   UNL     1      77.720  12.720  19.769  1.00  0.00     0.053 C 
BRANCH   2   3
ATOM      3  C   UNL     1      77.066  13.642  18.790  1.00  0.00     0.041 C 
ATOM      4  O   UNL     1      76.074  13.254  18.119  1.00  0.00    -0.550 OA
ATOM      5  O   UNL     1      77.520  14.948  18.654  1.00  0.00    -0.550 OA
ENDBRANCH   2   3
ENDBRANCH   1   2
BRANCH   1   6
ATOM      6  C   UNL     1      77.094  10.256  20.026  1.00  0.00     0.000 C 
BRANCH   6   7
ATOM      7  C   UNL     1      76.441   9.713  18.744  1.00  0.00    -0.000 C 
BRANCH   7   8
ATOM      8  C   UNL     1      77.471   9.396  17.648  1.00  0.00    -0.003 C 
ATOM      9  C   UNL     1      77.444  10.407  16.503  1.00  0.00     0.004 C 
ENDBRANCH   7   8
ENDBRANCH   6   7
ENDBRANCH   1   6
TORSDOF 5
ENDMDL
