MODEL 1
REMARK VINA RESULT:    -5.021      0.000      0.000
REMARK INTER + INTRA:          -6.694
REMARK INTER:                  -7.076
REMARK INTRA:                   0.382
REMARK UNBOUND:                 0.382
REMARK SMILES CC1=CCC(=C(C)C)C(=O)CC(C)=CCC1
REMARK SMILES IDX 12 1 14 2 13 3 15 4 16 5 2 6 1 7 3 8 11 10 9 11 10 12 5 13
REMARK SMILES IDX 6 14 7 15 8 16 4 17
REMARK H PARENT
REMARK Flexibility Score: 60.00
ROOT
ATOM      1  C   UNL     1      -7.636  33.828  23.098  1.00  0.00    -0.070 C 
ATOM      2  C   UNL     1      -7.618  34.639  24.182  1.00  0.00    -0.027 C 
ATOM      3  C   UNL     1      -7.881  34.468  21.754  1.00  0.00     0.039 C 
ENDROOT
BRANCH   2   4
ATOM      4  C   UNL     1      -7.495  34.203  25.622  1.00  0.00     0.032 C 
BRANCH   4   5
ATOM      5  C   UNL     1      -8.788  33.563  26.160  1.00  0.00     0.034 C 
BRANCH   5   6
ATOM      6  C   UNL     1      -8.520  32.268  26.904  1.00  0.00    -0.077 C 
ATOM      7  C   UNL     1      -7.656  32.319  28.139  1.00  0.00     0.039 C 
ATOM      8  C   UNL     1      -9.034  31.072  26.540  1.00  0.00    -0.023 CG0
ATOM      9  G   UNL     1      -9.944  30.825  25.360  1.00  0.00     0.000 G0
ENDBRANCH   5   6
ENDBRANCH   4   5
ENDBRANCH   2   4
BRANCH   1  10
ATOM     10  C   UNL     1      -7.490  32.317  23.170  1.00  0.00     0.111 C 
BRANCH  10  11
ATOM     11  C   UNL     1      -8.832  31.630  23.191  1.00  0.00     0.163 C 
ATOM     12  O   UNL     1      -9.706  32.009  22.365  1.00  0.00    -0.294 OA
BRANCH  11  13
ATOM     13  C   UNL     1      -9.126  30.494  24.120  1.00  0.00    -0.002 C 
ATOM     14  C   UNL     1      -8.732  29.215  23.840  1.00  0.00    -0.069 C 
ATOM     15  C   UNL     1      -8.041  28.866  22.540  1.00  0.00     0.039 C 
ATOM     16  C   UNL     1      -9.000  28.079  24.802  1.00  0.00     0.039 C 
BRANCH  13  17
ATOM     17  C   UNL     1      -9.950  30.808  25.356  1.00  0.00     0.066 CG0
ATOM     18  G   UNL     1      -9.034  31.075  26.527  1.00  0.00     0.000 G0
ENDBRANCH  13  17
ENDBRANCH  11  13
ENDBRANCH  10  11
ENDBRANCH   1  10
TORSDOF 0
ENDMDL
MODEL 2
REMARK VINA RESULT:    -4.966      1.978      3.768
REMARK INTER + INTRA:          -6.616
REMARK INTER:                  -7.001
REMARK INTRA:                   0.385
REMARK UNBOUND:                 0.382
REMARK SMILES CC1=CCC(=C(C)C)C(=O)CC(C)=CCC1
REMARK SMILES IDX 12 1 14 2 13 3 15 4 16 5 2 6 1 7 3 8 11 10 9 11 10 12 5 13
REMARK SMILES IDX 6 14 7 15 8 16 4 17
REMARK H PARENT
REMARK Flexibility Score: 60.00
ROOT
ATOM      1  C   UNL     1      -7.897  34.628  24.773  1.00  0.00    -0.070 C 
ATOM      2  C   UNL     1      -7.948  35.259  23.576  1.00  0.00    -0.027 C 
ATOM      3  C   UNL     1      -8.250  35.433  25.999  1.00  0.00     0.039 C 
ENDROOT
BRANCH   2   4
ATOM      4  C   UNL     1      -7.538  34.681  22.243  1.00  0.00     0.032 C 
BRANCH   4   5
ATOM      5  C   UNL     1      -8.673  33.892  21.564  1.00  0.00     0.034 C 
BRANCH   5   6
ATOM      6  C   UNL     1      -8.211  32.535  21.069  1.00  0.00    -0.077 C 
ATOM      7  C   UNL     1      -7.256  32.486  19.903  1.00  0.00     0.039 C 
ATOM      8  C   UNL     1      -8.584  31.364  21.631  1.00  0.00    -0.023 CG0
ATOM      9  G   UNL     1      -9.500  31.208  22.821  1.00  0.00     0.000 G0
ENDBRANCH   5   6
ENDBRANCH   4   5
ENDBRANCH   2   4
BRANCH   1  10
ATOM     10  C   UNL     1      -7.443  33.189  24.951  1.00  0.00     0.111 C 
BRANCH  10  11
ATOM     11  C   UNL     1      -8.614  32.239  25.000  1.00  0.00     0.163 C 
ATOM     12  O   UNL     1      -9.556  32.500  25.796  1.00  0.00    -0.294 OA
BRANCH  11  13
ATOM     13  C   UNL     1      -8.703  31.044  24.103  1.00  0.00    -0.002 C 
ATOM     14  C   UNL     1      -8.034  29.885  24.381  1.00  0.00    -0.069 C 
ATOM     15  C   UNL     1      -7.108  29.770  25.572  1.00  0.00     0.039 C 
ATOM     16  C   UNL     1      -8.159  28.669  23.490  1.00  0.00     0.039 C 
BRANCH  13  17
ATOM     17  C   UNL     1      -9.511  31.198  22.827  1.00  0.00     0.066 CG0
ATOM     18  G   UNL     1      -8.580  31.360  21.649  1.00  0.00     0.000 G0
ENDBRANCH  13  17
ENDBRANCH  11  13
ENDBRANCH  10  11
ENDBRANCH   1  10
TORSDOF 0
ENDMDL
MODEL 3
REMARK VINA RESULT:    -4.841      1.212      1.714
REMARK INTER + INTRA:          -6.440
REMARK INTER:                  -7.010
REMARK INTRA:                   0.571
REMARK UNBOUND:                 0.382
REMARK SMILES CC1=CCC(=C(C)C)C(=O)CC(C)=CCC1
REMARK SMILES IDX 12 1 14 2 13 3 15 4 16 5 2 6 1 7 3 8 11 10 9 11 10 12 5 13
REMARK SMILES IDX 6 14 7 15 8 16 4 17
REMARK H PARENT
REMARK Flexibility Score: 60.00
ROOT
ATOM      1  C   UNL     1      -7.784  33.078  21.168  1.00  0.00    -0.070 C 
ATOM      2  C   UNL     1      -7.888  34.323  21.690  1.00  0.00    -0.027 C 
ATOM      3  C   UNL     1      -8.070  32.914  19.696  1.00  0.00     0.039 C 
ENDROOT
BRANCH   2   4
ATOM      4  C   UNL     1      -7.751  34.697  23.146  1.00  0.00     0.032 C 
BRANCH   4   5
ATOM      5  C   UNL     1      -8.908  34.159  24.008  1.00  0.00     0.034 C 
BRANCH   5   6
ATOM      6  C   UNL     1      -8.415  33.325  25.174  1.00  0.00    -0.077 C 
ATOM      7  C   UNL     1      -7.450  33.956  26.147  1.00  0.00     0.039 C 
ATOM      8  C   UNL     1      -8.811  32.054  25.409  1.00  0.00    -0.023 CG0
ATOM      9  G   UNL     1      -9.791  31.267  24.574  1.00  0.00     0.000 G0
ENDBRANCH   5   6
ENDBRANCH   4   5
ENDBRANCH   2   4
BRANCH   1  10
ATOM     10  C   UNL     1      -7.464  31.841  21.991  1.00  0.00     0.111 C 
BRANCH  10  11
ATOM     11  C   UNL     1      -8.694  31.003  22.235  1.00  0.00     0.163 C 
ATOM     12  O   UNL     1      -9.460  30.775  21.260  1.00  0.00    -0.294 OA
BRANCH  11  13
ATOM     13  C   UNL     1      -8.993  30.404  23.574  1.00  0.00    -0.002 C 
ATOM     14  C   UNL     1      -8.642  29.119  23.882  1.00  0.00    -0.069 C 
ATOM     15  C   UNL     1      -8.000  28.207  22.860  1.00  0.00     0.039 C 
ATOM     16  C   UNL     1      -8.913  28.534  25.250  1.00  0.00     0.039 C 
BRANCH  13  17
ATOM     17  C   UNL     1      -9.771  31.262  24.556  1.00  0.00     0.066 CG0
ATOM     18  G   UNL     1      -8.813  32.042  25.424  1.00  0.00     0.000 G0
ENDBRANCH  13  17
ENDBRANCH  11  13
ENDBRANCH  10  11
ENDBRANCH   1  10
TORSDOF 0
ENDMDL
MODEL 4
REMARK VINA RESULT:    -4.787      1.774      2.900
REMARK INTER + INTRA:          -6.364
REMARK INTER:                  -6.712
REMARK INTRA:                   0.349
REMARK UNBOUND:                 0.382
REMARK SMILES CC1=CCC(=C(C)C)C(=O)CC(C)=CCC1
REMARK SMILES IDX 12 1 14 2 13 3 15 4 16 5 2 6 1 7 3 8 11 10 9 11 10 12 5 13
REMARK SMILES IDX 6 14 7 15 8 16 4 17
REMARK H PARENT
REMARK Flexibility Score: 60.00
ROOT
ATOM      1  C   UNL     1      -8.180  34.192  25.690  1.00  0.00    -0.070 C 
ATOM      2  C   UNL     1      -7.851  33.662  26.892  1.00  0.00    -0.027 C 
ATOM      3  C   UNL     1      -7.812  35.634  25.441  1.00  0.00     0.039 C 
ENDROOT
BRANCH   2   4
ATOM      4  C   UNL     1      -8.212  32.284  27.390  1.00  0.00     0.032 C 
BRANCH   4   5
ATOM      5  C   UNL     1      -7.230  31.202  26.906  1.00  0.00     0.034 C 
BRANCH   5   6
ATOM      6  C   UNL     1      -7.936  30.059  26.203  1.00  0.00    -0.077 C 
ATOM      7  C   UNL     1      -8.816  29.149  27.022  1.00  0.00     0.039 C 
ATOM      8  C   UNL     1      -7.845  29.824  24.875  1.00  0.00    -0.023 CG0
ATOM      9  G   UNL     1      -7.047  30.640  23.887  1.00  0.00     0.000 G0
ENDBRANCH   5   6
ENDBRANCH   4   5
ENDBRANCH   2   4
BRANCH   1  10
ATOM     10  C   UNL     1      -8.951  33.440  24.617  1.00  0.00     0.111 C 
BRANCH  10  11
ATOM     11  C   UNL     1      -8.046  32.984  23.500  1.00  0.00     0.163 C 
ATOM     12  O   UNL     1      -7.307  33.843  22.947  1.00  0.00    -0.294 OA
BRANCH  11  13
ATOM     13  C   UNL     1      -7.970  31.551  23.076  1.00  0.00    -0.002 C 
ATOM     14  C   UNL     1      -8.747  31.057  22.066  1.00  0.00    -0.069 C 
ATOM     15  C   UNL     1      -9.781  31.916  21.370  1.00  0.00     0.039 C 
ATOM     16  C   UNL     1      -8.638  29.617  21.619  1.00  0.00     0.039 C 
BRANCH  13  17
ATOM     17  C   UNL     1      -7.044  30.646  23.869  1.00  0.00     0.066 CG0
ATOM     18  G   UNL     1      -7.845  29.838  24.862  1.00  0.00     0.000 G0
ENDBRANCH  13  17
ENDBRANCH  11  13
ENDBRANCH  10  11
ENDBRANCH   1  10
TORSDOF 0
ENDMDL
MODEL 5
REMARK VINA RESULT:    -4.685      1.800      3.728
REMARK INTER + INTRA:          -6.221
REMARK INTER:                  -6.790
REMARK INTRA:                   0.569
REMARK UNBOUND:                 0.382
REMARK SMILES CC1=CCC(=C(C)C)C(=O)CC(C)=CCC1
REMARK SMILES IDX 12 1 14 2 13 3 15 4 16 5 2 6 1 7 3 8 11 10 9 11 10 12 5 13
REMARK SMILES IDX 6 14 7 15 8 16 4 17
REMARK H PARENT
REMARK Flexibility Score: 60.00
ROOT
ATOM      1  C   UNL     1      -8.101  30.137  26.829  1.00  0.00    -0.070 C 
ATOM      2  C   UNL     1      -8.004  31.241  27.606  1.00  0.00    -0.027 C 
ATOM      3  C   UNL     1      -8.486  28.842  27.503  1.00  0.00     0.039 C 
ENDROOT
BRANCH   2   4
ATOM      4  C   UNL     1      -7.536  32.606  27.165  1.00  0.00     0.032 C 
BRANCH   4   5
ATOM      5  C   UNL     1      -8.628  33.395  26.420  1.00  0.00     0.034 C 
BRANCH   5   6
ATOM      6  C   UNL     1      -8.100  34.058  25.163  1.00  0.00    -0.077 C 
ATOM      7  C   UNL     1      -6.997  35.077  25.301  1.00  0.00     0.039 C 
ATOM      8  C   UNL     1      -8.541  33.769  23.918  1.00  0.00    -0.023 CG0
ATOM      9  G   UNL     1      -9.608  32.758  23.574  1.00  0.00     0.000 G0
ENDBRANCH   5   6
ENDBRANCH   4   5
ENDBRANCH   2   4
BRANCH   1  10
ATOM     10  C   UNL     1      -7.783  30.118  25.343  1.00  0.00     0.111 C 
BRANCH  10  11
ATOM     11  C   UNL     1      -8.998  30.443  24.510  1.00  0.00     0.163 C 
ATOM     12  O   UNL     1     -10.096  29.914  24.832  1.00  0.00    -0.294 OA
BRANCH  11  13
ATOM     13  C   UNL     1      -8.940  31.402  23.363  1.00  0.00    -0.002 C 
ATOM     14  C   UNL     1      -8.264  31.107  22.212  1.00  0.00    -0.069 C 
ATOM     15  C   UNL     1      -7.476  29.823  22.063  1.00  0.00     0.039 C 
ATOM     16  C   UNL     1      -8.241  32.066  21.042  1.00  0.00     0.039 C 
BRANCH  13  17
ATOM     17  C   UNL     1      -9.602  32.754  23.560  1.00  0.00     0.066 CG0
ATOM     18  G   UNL     1      -8.559  33.788  23.910  1.00  0.00     0.000 G0
ENDBRANCH  13  17
ENDBRANCH  11  13
ENDBRANCH  10  11
ENDBRANCH   1  10
TORSDOF 0
ENDMDL
MODEL 6
REMARK VINA RESULT:    -4.657      1.870      3.940
REMARK INTER + INTRA:          -6.180
REMARK INTER:                  -6.850
REMARK INTRA:                   0.670
REMARK UNBOUND:                 0.382
REMARK SMILES CC1=CCC(=C(C)C)C(=O)CC(C)=CCC1
REMARK SMILES IDX 12 1 14 2 13 3 15 4 16 5 2 6 1 7 3 8 11 10 9 11 10 12 5 13
REMARK SMILES IDX 6 14 7 15 8 16 4 17
REMARK H PARENT
REMARK Flexibility Score: 60.00
ROOT
ATOM      1  C   UNL     1      -7.641  30.150  22.539  1.00  0.00    -0.070 C 
ATOM      2  C   UNL     1      -7.519  31.167  21.654  1.00  0.00    -0.027 C 
ATOM      3  C   UNL     1      -6.378  29.637  23.187  1.00  0.00     0.039 C 
ENDROOT
BRANCH   2   4
ATOM      4  C   UNL     1      -8.626  31.761  20.818  1.00  0.00     0.032 C 
BRANCH   4   5
ATOM      5  C   UNL     1      -9.519  32.729  21.616  1.00  0.00     0.034 C 
BRANCH   5   6
ATOM      6  C   UNL     1      -8.748  33.459  22.700  1.00  0.00    -0.077 C 
ATOM      7  C   UNL     1      -7.800  34.556  22.287  1.00  0.00     0.039 C 
ATOM      8  C   UNL     1      -8.881  33.200  24.020  1.00  0.00    -0.023 CG0
ATOM      9  G   UNL     1      -9.800  32.169  24.628  1.00  0.00     0.000 G0
ENDBRANCH   5   6
ENDBRANCH   4   5
ENDBRANCH   2   4
BRANCH   1  10
ATOM     10  C   UNL     1      -8.957  29.461  22.860  1.00  0.00     0.111 C 
BRANCH  10  11
ATOM     11  C   UNL     1      -9.349  29.657  24.303  1.00  0.00     0.163 C 
ATOM     12  O   UNL     1      -9.917  28.702  24.899  1.00  0.00    -0.294 OA
BRANCH  11  13
ATOM     13  C   UNL     1      -9.037  30.919  25.045  1.00  0.00    -0.002 C 
ATOM     14  C   UNL     1      -8.145  30.943  26.081  1.00  0.00    -0.069 C 
ATOM     15  C   UNL     1      -7.480  29.679  26.583  1.00  0.00     0.039 C 
ATOM     16  C   UNL     1      -7.806  32.229  26.801  1.00  0.00     0.039 C 
BRANCH  13  17
ATOM     17  C   UNL     1      -9.810  32.163  24.646  1.00  0.00     0.066 CG0
ATOM     18  G   UNL     1      -8.872  33.173  24.029  1.00  0.00     0.000 G0
ENDBRANCH  13  17
ENDBRANCH  11  13
ENDBRANCH  10  11
ENDBRANCH   1  10
TORSDOF 0
ENDMDL
MODEL 7
REMARK VINA RESULT:    -4.653      1.461      3.689
REMARK INTER + INTRA:          -6.176
REMARK INTER:                  -6.568
REMARK INTRA:                   0.392
REMARK UNBOUND:                 0.382
REMARK SMILES CC1=CCC(=C(C)C)C(=O)CC(C)=CCC1
REMARK SMILES IDX 12 1 14 2 13 3 15 4 16 5 2 6 1 7 3 8 11 10 9 11 10 12 5 13
REMARK SMILES IDX 6 14 7 15 8 16 4 17
REMARK H PARENT
REMARK Flexibility Score: 60.00
ROOT
ATOM      1  C   UNL     1      -7.825  33.465  22.202  1.00  0.00    -0.070 C 
ATOM      2  C   UNL     1      -8.029  32.590  21.189  1.00  0.00    -0.027 C 
ATOM      3  C   UNL     1      -7.986  34.934  21.896  1.00  0.00     0.039 C 
ENDROOT
BRANCH   2   4
ATOM      4  C   UNL     1      -7.823  31.096  21.244  1.00  0.00     0.032 C 
BRANCH   4   5
ATOM      5  C   UNL     1      -9.038  30.350  21.825  1.00  0.00     0.034 C 
BRANCH   5   6
ATOM      6  C   UNL     1      -8.676  29.533  23.051  1.00  0.00    -0.077 C 
ATOM      7  C   UNL     1      -7.836  28.295  22.862  1.00  0.00     0.039 C 
ATOM      8  C   UNL     1      -9.040  29.865  24.309  1.00  0.00    -0.023 CG0
ATOM      9  G   UNL     1      -9.848  31.079  24.703  1.00  0.00     0.000 G0
ENDBRANCH   5   6
ENDBRANCH   4   5
ENDBRANCH   2   4
BRANCH   1  10
ATOM     10  C   UNL     1      -7.383  33.055  23.597  1.00  0.00     0.111 C 
BRANCH  10  11
ATOM     11  C   UNL     1      -8.493  33.228  24.605  1.00  0.00     0.163 C 
ATOM     12  O   UNL     1      -9.031  34.363  24.705  1.00  0.00    -0.294 OA
BRANCH  11  13
ATOM     13  C   UNL     1      -8.994  32.088  25.435  1.00  0.00    -0.002 C 
ATOM     14  C   UNL     1      -8.631  31.937  26.744  1.00  0.00    -0.069 C 
ATOM     15  C   UNL     1      -7.643  32.874  27.405  1.00  0.00     0.039 C 
ATOM     16  C   UNL     1      -9.172  30.804  27.587  1.00  0.00     0.039 C 
BRANCH  13  17
ATOM     17  C   UNL     1      -9.867  31.059  24.739  1.00  0.00     0.066 CG0
ATOM     18  G   UNL     1      -9.028  29.876  24.319  1.00  0.00     0.000 G0
ENDBRANCH  13  17
ENDBRANCH  11  13
ENDBRANCH  10  11
ENDBRANCH   1  10
TORSDOF 0
ENDMDL
MODEL 8
REMARK VINA RESULT:    -4.205      1.704      3.533
REMARK INTER + INTRA:          -5.544
REMARK INTER:                  -6.413
REMARK INTRA:                   0.869
REMARK UNBOUND:                 0.382
REMARK SMILES CC1=CCC(=C(C)C)C(=O)CC(C)=CCC1
REMARK SMILES IDX 12 1 14 2 13 3 15 4 16 5 2 6 1 7 3 8 11 10 9 11 10 12 5 13
REMARK SMILES IDX 6 14 7 15 8 16 4 17
REMARK H PARENT
REMARK Flexibility Score: 60.00
ROOT
ATOM      1  C   UNL     1      -7.374  29.965  24.152  1.00  0.00    -0.070 C 
ATOM      2  C   UNL     1      -7.146  30.112  25.478  1.00  0.00    -0.027 C 
ATOM      3  C   UNL     1      -6.187  30.061  23.226  1.00  0.00     0.039 C 
ENDROOT
BRANCH   2   4
ATOM      4  C   UNL     1      -8.191  30.156  26.566  1.00  0.00     0.032 C 
BRANCH   4   5
ATOM      5  C   UNL     1      -9.198  31.305  26.373  1.00  0.00     0.034 C 
BRANCH   5   6
ATOM      6  C   UNL     1      -8.521  32.598  25.961  1.00  0.00    -0.077 C 
ATOM      7  C   UNL     1      -7.501  33.201  26.894  1.00  0.00     0.039 C 
ATOM      8  C   UNL     1      -8.757  33.230  24.790  1.00  0.00    -0.023 CG0
ATOM      9  G   UNL     1      -9.711  32.766  23.714  1.00  0.00     0.000 G0
ENDBRANCH   5   6
ENDBRANCH   4   5
ENDBRANCH   2   4
BRANCH   1  10
ATOM     10  C   UNL     1      -8.756  29.778  23.547  1.00  0.00     0.111 C 
BRANCH  10  11
ATOM     11  C   UNL     1      -8.980  30.702  22.376  1.00  0.00     0.163 C 
ATOM     12  O   UNL     1      -9.228  30.186  21.253  1.00  0.00    -0.294 OA
BRANCH  11  13
ATOM     13  C   UNL     1      -8.965  32.191  22.526  1.00  0.00    -0.002 C 
ATOM     14  C   UNL     1      -8.251  32.992  21.679  1.00  0.00    -0.069 C 
ATOM     15  C   UNL     1      -7.378  32.412  20.588  1.00  0.00     0.039 C 
ATOM     16  C   UNL     1      -8.271  34.498  21.815  1.00  0.00     0.039 C 
BRANCH  13  17
ATOM     17  C   UNL     1      -9.717  32.772  23.710  1.00  0.00     0.066 CG0
ATOM     18  G   UNL     1      -8.739  33.219  24.769  1.00  0.00     0.000 G0
ENDBRANCH  13  17
ENDBRANCH  11  13
ENDBRANCH  10  11
ENDBRANCH   1  10
TORSDOF 0
ENDMDL
MODEL 9
REMARK VINA RESULT:    -3.960      1.750      3.425
REMARK INTER + INTRA:          -5.198
REMARK INTER:                  -6.451
REMARK INTRA:                   1.253
REMARK UNBOUND:                 0.382
REMARK SMILES CC1=CCC(=C(C)C)C(=O)CC(C)=CCC1
REMARK SMILES IDX 12 1 14 2 13 3 15 4 16 5 2 6 1 7 3 8 11 10 9 11 10 12 5 13
REMARK SMILES IDX 6 14 7 15 8 16 4 17
REMARK H PARENT
REMARK Flexibility Score: 60.00
ROOT
ATOM      1  C   UNL     1      -8.012  32.848  26.660  1.00  0.00    -0.070 C 
ATOM      2  C   UNL     1      -7.502  34.098  26.558  1.00  0.00    -0.027 C 
ATOM      3  C   UNL     1      -7.066  31.740  27.053  1.00  0.00     0.039 C 
ENDROOT
BRANCH   2   4
ATOM      4  C   UNL     1      -8.237  35.327  26.082  1.00  0.00     0.032 C 
BRANCH   4   5
ATOM      5  C   UNL     1      -8.735  35.195  24.631  1.00  0.00     0.034 C 
BRANCH   5   6
ATOM      6  C   UNL     1      -7.756  34.436  23.756  1.00  0.00    -0.077 C 
ATOM      7  C   UNL     1      -6.376  35.010  23.563  1.00  0.00     0.039 C 
ATOM      8  C   UNL     1      -8.041  33.257  23.159  1.00  0.00    -0.023 CG0
ATOM      9  G   UNL     1      -9.348  32.509  23.260  1.00  0.00     0.000 G0
ENDBRANCH   5   6
ENDBRANCH   4   5
ENDBRANCH   2   4
BRANCH   1  10
ATOM     10  C   UNL     1      -9.454  32.494  26.337  1.00  0.00     0.111 C 
BRANCH  10  11
ATOM     11  C   UNL     1      -9.546  31.241  25.503  1.00  0.00     0.163 C 
ATOM     12  O   UNL     1     -10.009  30.201  26.044  1.00  0.00    -0.294 OA
BRANCH  11  13
ATOM     13  C   UNL     1      -9.153  31.219  24.059  1.00  0.00    -0.002 C 
ATOM     14  C   UNL     1      -8.586  30.117  23.484  1.00  0.00    -0.069 C 
ATOM     15  C   UNL     1      -8.255  28.882  24.295  1.00  0.00     0.039 C 
ATOM     16  C   UNL     1      -8.226  30.090  22.015  1.00  0.00     0.039 C 
BRANCH  13  17
ATOM     17  C   UNL     1      -9.343  32.505  23.274  1.00  0.00     0.066 CG0
ATOM     18  G   UNL     1      -8.030  33.244  23.176  1.00  0.00     0.000 G0
ENDBRANCH  13  17
ENDBRANCH  11  13
ENDBRANCH  10  11
ENDBRANCH   1  10
TORSDOF 0
ENDMDL
