MODEL 1
REMARK VINA RESULT:    -4.189      0.000      0.000
REMARK INTER + INTRA:          -4.899
REMARK INTER:                  -4.679
REMARK INTRA:                  -0.220
REMARK UNBOUND:                -0.220
REMARK SMILES CC(C)c1ccc(C(=O)[O-])cc1
REMARK SMILES IDX 7 1 6 2 11 3 5 4 12 5 4 6 8 7 9 8 10 9 2 10 1 11 3 12
REMARK H PARENT
REMARK Flexibility Score: inf
ROOT
ATOM      1  C   UNL     1      -5.517  35.406  20.162  1.00  0.00    -0.003 A 
ATOM      2  C   UNL     1      -5.060  36.731  20.270  1.00  0.00     0.010 A 
ATOM      3  C   UNL     1      -6.048  34.775  21.299  1.00  0.00     0.010 A 
ATOM      4  C   UNL     1      -5.132  37.409  21.489  1.00  0.00     0.004 A 
ATOM      5  C   UNL     1      -6.120  35.454  22.519  1.00  0.00     0.004 A 
ATOM      6  C   UNL     1      -5.662  36.778  22.628  1.00  0.00    -0.045 A 
ENDROOT
BRANCH   1   7
ATOM      7  C   UNL     1      -5.443  34.685  18.873  1.00  0.00     0.071 C 
ATOM      8  O   UNL     1      -6.125  33.643  18.681  1.00  0.00    -0.545 OA
ATOM      9  O   UNL     1      -4.618  35.146  17.853  1.00  0.00    -0.545 OA
ENDBRANCH   1   7
BRANCH   6  10
ATOM     10  C   UNL     1      -5.747  37.503  23.958  1.00  0.00     0.013 C 
ATOM     11  C   UNL     1      -4.892  38.776  23.950  1.00  0.00     0.012 C 
ATOM     12  C   UNL     1      -5.351  36.580  25.117  1.00  0.00     0.012 C 
ENDBRANCH   6  10
TORSDOF 2
ENDMDL
MODEL 2
REMARK VINA RESULT:    -4.048      0.948      1.421
REMARK INTER + INTRA:          -4.741
REMARK INTER:                  -4.522
REMARK INTRA:                  -0.219
REMARK UNBOUND:                -0.220
REMARK SMILES CC(C)c1ccc(C(=O)[O-])cc1
REMARK SMILES IDX 7 1 6 2 11 3 5 4 12 5 4 6 8 7 9 8 10 9 2 10 1 11 3 12
REMARK H PARENT
REMARK Flexibility Score: inf
ROOT
ATOM      1  C   UNL     1      -5.493  35.750  20.828  1.00  0.00    -0.003 A 
ATOM      2  C   UNL     1      -5.226  37.069  21.233  1.00  0.00     0.010 A 
ATOM      3  C   UNL     1      -5.892  34.810  21.792  1.00  0.00     0.010 A 
ATOM      4  C   UNL     1      -5.354  37.439  22.574  1.00  0.00     0.004 A 
ATOM      5  C   UNL     1      -6.019  35.180  23.134  1.00  0.00     0.004 A 
ATOM      6  C   UNL     1      -5.751  36.498  23.541  1.00  0.00    -0.045 A 
ENDROOT
BRANCH   1   7
ATOM      7  C   UNL     1      -5.360  35.355  19.409  1.00  0.00     0.071 C 
ATOM      8  O   UNL     1      -4.625  36.013  18.625  1.00  0.00    -0.545 OA
ATOM      9  O   UNL     1      -6.045  34.249  18.918  1.00  0.00    -0.545 OA
ENDBRANCH   1   7
BRANCH   6  10
ATOM     10  C   UNL     1      -5.893  36.886  25.001  1.00  0.00     0.013 C 
ATOM     11  C   UNL     1      -4.677  37.687  25.482  1.00  0.00     0.012 C 
ATOM     12  C   UNL     1      -6.125  35.651  25.880  1.00  0.00     0.012 C 
ENDBRANCH   6  10
TORSDOF 2
ENDMDL
MODEL 3
REMARK VINA RESULT:    -3.785      3.405      5.285
REMARK INTER + INTRA:          -4.447
REMARK INTER:                  -4.228
REMARK INTRA:                  -0.218
REMARK UNBOUND:                -0.220
REMARK SMILES CC(C)c1ccc(C(=O)[O-])cc1
REMARK SMILES IDX 7 1 6 2 11 3 5 4 12 5 4 6 8 7 9 8 10 9 2 10 1 11 3 12
REMARK H PARENT
REMARK Flexibility Score: inf
ROOT
ATOM      1  C   UNL     1      -5.566  36.350  23.844  1.00  0.00    -0.003 A 
ATOM      2  C   UNL     1      -5.964  35.088  23.372  1.00  0.00     0.010 A 
ATOM      3  C   UNL     1      -5.271  37.362  22.915  1.00  0.00     0.010 A 
ATOM      4  C   UNL     1      -6.063  34.842  22.000  1.00  0.00     0.004 A 
ATOM      5  C   UNL     1      -5.370  37.116  21.543  1.00  0.00     0.004 A 
ATOM      6  C   UNL     1      -5.766  35.854  21.069  1.00  0.00    -0.045 A 
ENDROOT
BRANCH   1   7
ATOM      7  C   UNL     1      -5.460  36.615  25.295  1.00  0.00     0.071 C 
ATOM      8  O   UNL     1      -6.125  35.934  26.122  1.00  0.00    -0.545 OA
ATOM      9  O   UNL     1      -4.623  37.619  25.769  1.00  0.00    -0.545 OA
ENDBRANCH   1   7
BRANCH   6  10
ATOM     10  C   UNL     1      -5.870  35.601  19.577  1.00  0.00     0.013 C 
ATOM     11  C   UNL     1      -6.102  34.114  19.282  1.00  0.00     0.012 C 
ATOM     12  C   UNL     1      -4.631  36.123  18.840  1.00  0.00     0.012 C 
ENDBRANCH   6  10
TORSDOF 2
ENDMDL
MODEL 4
REMARK VINA RESULT:    -2.795      1.469      2.600
REMARK INTER + INTRA:          -3.341
REMARK INTER:                  -3.124
REMARK INTRA:                  -0.217
REMARK UNBOUND:                -0.220
REMARK SMILES CC(C)c1ccc(C(=O)[O-])cc1
REMARK SMILES IDX 7 1 6 2 11 3 5 4 12 5 4 6 8 7 9 8 10 9 2 10 1 11 3 12
REMARK H PARENT
REMARK Flexibility Score: inf
ROOT
ATOM      1  C   UNL     1      -5.224  37.156  21.170  1.00  0.00    -0.003 A 
ATOM      2  C   UNL     1      -5.729  36.013  21.814  1.00  0.00     0.010 A 
ATOM      3  C   UNL     1      -4.888  38.280  21.942  1.00  0.00     0.010 A 
ATOM      4  C   UNL     1      -5.895  35.996  23.200  1.00  0.00     0.004 A 
ATOM      5  C   UNL     1      -5.055  38.263  23.330  1.00  0.00     0.004 A 
ATOM      6  C   UNL     1      -5.560  37.122  23.975  1.00  0.00    -0.045 A 
ENDROOT
BRANCH   1   7
ATOM      7  C   UNL     1      -5.046  37.178  19.701  1.00  0.00     0.071 C 
ATOM      8  O   UNL     1      -5.199  38.247  19.052  1.00  0.00    -0.545 OA
ATOM      9  O   UNL     1      -4.707  36.017  19.015  1.00  0.00    -0.545 OA
ENDBRANCH   1   7
BRANCH   6  10
ATOM     10  C   UNL     1      -5.736  37.117  25.482  1.00  0.00     0.013 C 
ATOM     11  C   UNL     1      -4.474  37.628  26.188  1.00  0.00     0.012 C 
ATOM     12  C   UNL     1      -6.125  35.723  25.989  1.00  0.00     0.012 C 
ENDBRANCH   6  10
TORSDOF 2
ENDMDL
MODEL 5
REMARK VINA RESULT:    -1.600      3.150      5.113
REMARK INTER + INTRA:          -2.007
REMARK INTER:                  -1.788
REMARK INTRA:                  -0.219
REMARK UNBOUND:                -0.220
REMARK SMILES CC(C)c1ccc(C(=O)[O-])cc1
REMARK SMILES IDX 7 1 6 2 11 3 5 4 12 5 4 6 8 7 9 8 10 9 2 10 1 11 3 12
REMARK H PARENT
REMARK Flexibility Score: inf
ROOT
ATOM      1  C   UNL     1      -5.287  37.854  21.607  1.00  0.00    -0.003 A 
ATOM      2  C   UNL     1      -5.045  38.089  20.243  1.00  0.00     0.010 A 
ATOM      3  C   UNL     1      -5.701  36.575  22.015  1.00  0.00     0.010 A 
ATOM      4  C   UNL     1      -5.216  37.067  19.306  1.00  0.00     0.004 A 
ATOM      5  C   UNL     1      -5.872  35.552  21.077  1.00  0.00     0.004 A 
ATOM      6  C   UNL     1      -5.632  35.786  19.713  1.00  0.00    -0.045 A 
ENDROOT
BRANCH   1   7
ATOM      7  C   UNL     1      -5.107  38.933  22.603  1.00  0.00     0.071 C 
ATOM      8  O   UNL     1      -5.105  40.142  22.246  1.00  0.00    -0.545 OA
ATOM      9  O   UNL     1      -4.936  38.629  23.949  1.00  0.00    -0.545 OA
ENDBRANCH   1   7
BRANCH   6  10
ATOM     10  C   UNL     1      -5.822  34.667  18.706  1.00  0.00     0.013 C 
ATOM     11  C   UNL     1      -6.124  33.337  19.407  1.00  0.00     0.012 C 
ATOM     12  C   UNL     1      -4.603  34.540  17.784  1.00  0.00     0.012 C 
ENDBRANCH   6  10
TORSDOF 2
ENDMDL
MODEL 6
REMARK VINA RESULT:    -1.222      2.781      4.050
REMARK INTER + INTRA:          -1.585
REMARK INTER:                  -1.364
REMARK INTRA:                  -0.221
REMARK UNBOUND:                -0.220
REMARK SMILES CC(C)c1ccc(C(=O)[O-])cc1
REMARK SMILES IDX 7 1 6 2 11 3 5 4 12 5 4 6 8 7 9 8 10 9 2 10 1 11 3 12
REMARK H PARENT
REMARK Flexibility Score: inf
ROOT
ATOM      1  C   UNL     1      -5.909  34.703  23.428  1.00  0.00    -0.003 A 
ATOM      2  C   UNL     1      -5.863  34.726  22.024  1.00  0.00     0.010 A 
ATOM      3  C   UNL     1      -5.817  35.916  24.132  1.00  0.00     0.010 A 
ATOM      4  C   UNL     1      -5.725  35.935  21.338  1.00  0.00     0.004 A 
ATOM      5  C   UNL     1      -5.679  37.126  23.445  1.00  0.00     0.004 A 
ATOM      6  C   UNL     1      -5.631  37.149  22.041  1.00  0.00    -0.045 A 
ENDROOT
BRANCH   1   7
ATOM      7  C   UNL     1      -6.055  33.425  24.158  1.00  0.00     0.071 C 
ATOM      8  O   UNL     1      -6.118  32.333  23.533  1.00  0.00    -0.545 OA
ATOM      9  O   UNL     1      -6.125  33.411  25.547  1.00  0.00    -0.545 OA
ENDBRANCH   1   7
BRANCH   6  10
ATOM     10  C   UNL     1      -5.482  38.470  21.309  1.00  0.00     0.013 C 
ATOM     11  C   UNL     1      -4.800  38.275  19.950  1.00  0.00     0.012 C 
ATOM     12  C   UNL     1      -4.726  39.494  22.165  1.00  0.00     0.012 C 
ENDBRANCH   6  10
TORSDOF 2
ENDMDL
