MODEL 1
REMARK VINA RESULT:    -3.390      0.000      0.000
REMARK INTER + INTRA:          -8.111
REMARK INTER:                  -5.767
REMARK INTRA:                  -2.344
REMARK UNBOUND:                -2.344
REMARK SMILES CCCCCCCCCCCCCC(=O)[O-]
REMARK SMILES IDX 8 1 9 2 10 3 11 4 12 5 13 6 14 7 15 8 16 9 7 10 6 11 5 12
REMARK SMILES IDX 4 13 3 14 2 15 1 16
REMARK H PARENT
REMARK Flexibility Score: inf
ROOT
ATOM      1  C   UNL     1       4.307  38.377  -7.881  1.00  0.00     0.000 C 
ENDROOT
BRANCH   1   2
ATOM      2  C   UNL     1       4.513  37.013  -8.558  1.00  0.00     0.000 C 
BRANCH   2   3
ATOM      3  C   UNL     1       3.666  35.902  -7.917  1.00  0.00     0.000 C 
BRANCH   3   4
ATOM      4  C   UNL     1       4.521  34.740  -7.381  1.00  0.00     0.000 C 
BRANCH   4   5
ATOM      5  C   UNL     1       6.033  34.973  -7.555  1.00  0.00     0.006 C 
BRANCH   5   6
ATOM      6  C   UNL     1       6.858  34.689  -6.289  1.00  0.00     0.053 C 
BRANCH   6   7
ATOM      7  C   UNL     1       6.487  33.394  -5.633  1.00  0.00     0.041 C 
ATOM      8  O   UNL     1       6.761  32.298  -6.190  1.00  0.00    -0.550 OA
ATOM      9  O   UNL     1       5.811  33.397  -4.419  1.00  0.00    -0.550 OA
ENDBRANCH   6   7
ENDBRANCH   5   6
ENDBRANCH   4   5
ENDBRANCH   3   4
ENDBRANCH   2   3
ENDBRANCH   1   2
BRANCH   1  10
ATOM     10  C   UNL     1       5.650  38.976  -7.437  1.00  0.00     0.000 C 
BRANCH  10  11
ATOM     11  C   UNL     1       6.134  38.415  -6.089  1.00  0.00    -0.000 C 
BRANCH  11  12
ATOM     12  C   UNL     1       5.035  38.430  -5.013  1.00  0.00    -0.000 C 
BRANCH  12  13
ATOM     13  C   UNL     1       4.709  37.024  -4.484  1.00  0.00    -0.000 C 
BRANCH  13  14
ATOM     14  C   UNL     1       3.196  36.758  -4.406  1.00  0.00    -0.000 C 
BRANCH  14  15
ATOM     15  C   UNL     1       2.362  38.020  -4.679  1.00  0.00    -0.003 C 
ATOM     16  C   UNL     1       1.308  37.812  -5.767  1.00  0.00     0.004 C 
ENDBRANCH  14  15
ENDBRANCH  13  14
ENDBRANCH  12  13
ENDBRANCH  11  12
ENDBRANCH  10  11
ENDBRANCH   1  10
TORSDOF 12
ENDMDL
MODEL 2
REMARK VINA RESULT:    -3.353      1.256      2.855
REMARK INTER + INTRA:          -8.048
REMARK INTER:                  -5.785
REMARK INTRA:                  -2.264
REMARK UNBOUND:                -2.344
REMARK SMILES CCCCCCCCCCCCCC(=O)[O-]
REMARK SMILES IDX 8 1 9 2 10 3 11 4 12 5 13 6 14 7 15 8 16 9 7 10 6 11 5 12
REMARK SMILES IDX 4 13 3 14 2 15 1 16
REMARK H PARENT
REMARK Flexibility Score: inf
ROOT
ATOM      1  C   UNL     1       2.152  36.722  -7.571  1.00  0.00     0.000 C 
ENDROOT
BRANCH   1   2
ATOM      2  C   UNL     1       3.367  36.953  -8.484  1.00  0.00     0.000 C 
BRANCH   2   3
ATOM      3  C   UNL     1       4.520  35.980  -8.191  1.00  0.00     0.000 C 
BRANCH   3   4
ATOM      4  C   UNL     1       4.206  35.025  -7.026  1.00  0.00     0.000 C 
BRANCH   4   5
ATOM      5  C   UNL     1       5.393  34.840  -6.063  1.00  0.00     0.006 C 
BRANCH   5   6
ATOM      6  C   UNL     1       6.767  34.857  -6.755  1.00  0.00     0.053 C 
BRANCH   6   7
ATOM      7  C   UNL     1       7.127  33.536  -7.363  1.00  0.00     0.041 C 
ATOM      8  O   UNL     1       7.088  32.485  -6.670  1.00  0.00    -0.550 OA
ATOM      9  O   UNL     1       7.535  33.468  -8.690  1.00  0.00    -0.550 OA
ENDBRANCH   6   7
ENDBRANCH   5   6
ENDBRANCH   4   5
ENDBRANCH   3   4
ENDBRANCH   2   3
ENDBRANCH   1   2
BRANCH   1  10
ATOM     10  C   UNL     1       1.904  37.941  -6.671  1.00  0.00     0.000 C 
BRANCH  10  11
ATOM     11  C   UNL     1       1.879  37.581  -5.176  1.00  0.00    -0.000 C 
BRANCH  11  12
ATOM     12  C   UNL     1       3.269  37.667  -4.523  1.00  0.00    -0.000 C 
BRANCH  12  13
ATOM     13  C   UNL     1       4.128  38.797  -5.115  1.00  0.00    -0.000 C 
BRANCH  13  14
ATOM     14  C   UNL     1       5.547  38.329  -5.484  1.00  0.00    -0.000 C 
BRANCH  14  15
ATOM     15  C   UNL     1       6.072  38.997  -6.765  1.00  0.00    -0.003 C 
ATOM     16  C   UNL     1       5.053  39.940  -7.403  1.00  0.00     0.004 C 
ENDBRANCH  14  15
ENDBRANCH  13  14
ENDBRANCH  12  13
ENDBRANCH  11  12
ENDBRANCH  10  11
ENDBRANCH   1  10
TORSDOF 12
ENDMDL
MODEL 3
REMARK VINA RESULT:    -3.331      2.627      5.396
REMARK INTER + INTRA:          -8.011
REMARK INTER:                  -6.486
REMARK INTRA:                  -1.524
REMARK UNBOUND:                -2.344
REMARK SMILES CCCCCCCCCCCCCC(=O)[O-]
REMARK SMILES IDX 8 1 9 2 10 3 11 4 12 5 13 6 14 7 15 8 16 9 7 10 6 11 5 12
REMARK SMILES IDX 4 13 3 14 2 15 1 16
REMARK H PARENT
REMARK Flexibility Score: inf
ROOT
ATOM      1  C   UNL     1       4.383  37.048  -4.654  1.00  0.00     0.000 C 
ENDROOT
BRANCH   1   2
ATOM      2  C   UNL     1       5.134  38.355  -4.959  1.00  0.00     0.000 C 
BRANCH   2   3
ATOM      3  C   UNL     1       6.151  38.199  -6.101  1.00  0.00     0.000 C 
BRANCH   3   4
ATOM      4  C   UNL     1       5.990  39.276  -7.188  1.00  0.00     0.000 C 
BRANCH   4   5
ATOM      5  C   UNL     1       4.606  39.951  -7.167  1.00  0.00     0.006 C 
BRANCH   5   6
ATOM      6  C   UNL     1       3.657  39.464  -8.275  1.00  0.00     0.053 C 
BRANCH   6   7
ATOM      7  C   UNL     1       2.981  38.172  -7.933  1.00  0.00     0.041 C 
ATOM      8  O   UNL     1       3.353  37.097  -8.474  1.00  0.00    -0.550 OA
ATOM      9  O   UNL     1       1.918  38.158  -7.039  1.00  0.00    -0.550 OA
ENDBRANCH   6   7
ENDBRANCH   5   6
ENDBRANCH   4   5
ENDBRANCH   3   4
ENDBRANCH   2   3
ENDBRANCH   1   2
BRANCH   1  10
ATOM     10  C   UNL     1       4.961  35.882  -5.470  1.00  0.00     0.000 C 
BRANCH  10  11
ATOM     11  C   UNL     1       5.627  34.812  -4.589  1.00  0.00    -0.000 C 
BRANCH  11  12
ATOM     12  C   UNL     1       6.903  34.234  -5.225  1.00  0.00    -0.000 C 
BRANCH  12  13
ATOM     13  C   UNL     1       7.021  34.571  -6.721  1.00  0.00    -0.000 C 
BRANCH  13  14
ATOM     14  C   UNL     1       7.267  33.325  -7.589  1.00  0.00    -0.000 C 
BRANCH  14  15
ATOM     15  C   UNL     1       6.459  32.107  -7.114  1.00  0.00    -0.003 C 
ATOM     16  C   UNL     1       5.003  32.143  -7.577  1.00  0.00     0.004 C 
ENDBRANCH  14  15
ENDBRANCH  13  14
ENDBRANCH  12  13
ENDBRANCH  11  12
ENDBRANCH  10  11
ENDBRANCH   1  10
TORSDOF 12
ENDMDL
MODEL 4
REMARK VINA RESULT:    -3.306      1.238      3.507
REMARK INTER + INTRA:          -7.969
REMARK INTER:                  -6.090
REMARK INTRA:                  -1.879
REMARK UNBOUND:                -2.344
REMARK SMILES CCCCCCCCCCCCCC(=O)[O-]
REMARK SMILES IDX 8 1 9 2 10 3 11 4 12 5 13 6 14 7 15 8 16 9 7 10 6 11 5 12
REMARK SMILES IDX 4 13 3 14 2 15 1 16
REMARK H PARENT
REMARK Flexibility Score: inf
ROOT
ATOM      1  C   UNL     1       3.323  36.754  -4.427  1.00  0.00     0.000 C 
ENDROOT
BRANCH   1   2
ATOM      2  C   UNL     1       4.850  36.828  -4.584  1.00  0.00     0.000 C 
BRANCH   2   3
ATOM      3  C   UNL     1       5.434  35.584  -5.274  1.00  0.00     0.000 C 
BRANCH   3   4
ATOM      4  C   UNL     1       4.631  35.166  -6.519  1.00  0.00     0.000 C 
BRANCH   4   5
ATOM      5  C   UNL     1       5.525  34.705  -7.685  1.00  0.00     0.006 C 
BRANCH   5   6
ATOM      6  C   UNL     1       6.974  34.391  -7.274  1.00  0.00     0.053 C 
BRANCH   6   7
ATOM      7  C   UNL     1       7.305  32.935  -7.384  1.00  0.00     0.041 C 
ATOM      8  O   UNL     1       8.087  32.526  -8.283  1.00  0.00    -0.550 OA
ATOM      9  O   UNL     1       6.727  32.021  -6.510  1.00  0.00    -0.550 OA
ENDBRANCH   6   7
ENDBRANCH   5   6
ENDBRANCH   4   5
ENDBRANCH   3   4
ENDBRANCH   2   3
ENDBRANCH   1   2
BRANCH   1  10
ATOM     10  C   UNL     1       2.684  38.135  -4.630  1.00  0.00     0.000 C 
BRANCH  10  11
ATOM     11  C   UNL     1       1.642  38.148  -5.761  1.00  0.00    -0.000 C 
BRANCH  11  12
ATOM     12  C   UNL     1       2.205  37.616  -7.090  1.00  0.00    -0.000 C 
BRANCH  12  13
ATOM     13  C   UNL     1       2.920  38.706  -7.905  1.00  0.00    -0.000 C 
BRANCH  13  14
ATOM     14  C   UNL     1       4.427  38.438  -8.057  1.00  0.00    -0.000 C 
BRANCH  14  15
ATOM     15  C   UNL     1       5.284  39.413  -7.234  1.00  0.00    -0.003 C 
ATOM     16  C   UNL     1       6.730  38.945  -7.075  1.00  0.00     0.004 C 
ENDBRANCH  14  15
ENDBRANCH  13  14
ENDBRANCH  12  13
ENDBRANCH  11  12
ENDBRANCH  10  11
ENDBRANCH   1  10
TORSDOF 12
ENDMDL
MODEL 5
REMARK VINA RESULT:    -3.303      1.346      2.819
REMARK INTER + INTRA:          -7.964
REMARK INTER:                  -6.187
REMARK INTRA:                  -1.778
REMARK UNBOUND:                -2.344
REMARK SMILES CCCCCCCCCCCCCC(=O)[O-]
REMARK SMILES IDX 8 1 9 2 10 3 11 4 12 5 13 6 14 7 15 8 16 9 7 10 6 11 5 12
REMARK SMILES IDX 4 13 3 14 2 15 1 16
REMARK H PARENT
REMARK Flexibility Score: inf
ROOT
ATOM      1  C   UNL     1       5.884  39.133  -7.409  1.00  0.00     0.000 C 
ENDROOT
BRANCH   1   2
ATOM      2  C   UNL     1       6.257  38.334  -6.150  1.00  0.00     0.000 C 
BRANCH   2   3
ATOM      3  C   UNL     1       5.180  38.419  -5.057  1.00  0.00     0.000 C 
BRANCH   3   4
ATOM      4  C   UNL     1       4.871  37.051  -4.423  1.00  0.00     0.000 C 
BRANCH   4   5
ATOM      5  C   UNL     1       4.842  35.904  -5.449  1.00  0.00     0.006 C 
BRANCH   5   6
ATOM      6  C   UNL     1       5.378  34.568  -4.906  1.00  0.00     0.053 C 
BRANCH   6   7
ATOM      7  C   UNL     1       6.440  33.972  -5.778  1.00  0.00     0.041 C 
ATOM      8  O   UNL     1       6.735  32.751  -5.677  1.00  0.00    -0.550 OA
ATOM      9  O   UNL     1       7.128  34.771  -6.683  1.00  0.00    -0.550 OA
ENDBRANCH   6   7
ENDBRANCH   5   6
ENDBRANCH   4   5
ENDBRANCH   3   4
ENDBRANCH   2   3
ENDBRANCH   1   2
BRANCH   1  10
ATOM     10  C   UNL     1       4.529  39.834  -7.232  1.00  0.00     0.000 C 
BRANCH  10  11
ATOM     11  C   UNL     1       3.474  39.356  -8.244  1.00  0.00    -0.000 C 
BRANCH  11  12
ATOM     12  C   UNL     1       3.011  37.914  -7.977  1.00  0.00    -0.000 C 
BRANCH  12  13
ATOM     13  C   UNL     1       1.594  37.851  -7.383  1.00  0.00    -0.000 C 
BRANCH  13  14
ATOM     14  C   UNL     1       1.584  38.038  -5.856  1.00  0.00    -0.000 C 
BRANCH  14  15
ATOM     15  C   UNL     1       1.067  36.795  -5.115  1.00  0.00    -0.003 C 
ATOM     16  C   UNL     1       1.361  36.833  -3.615  1.00  0.00     0.004 C 
ENDBRANCH  14  15
ENDBRANCH  13  14
ENDBRANCH  12  13
ENDBRANCH  11  12
ENDBRANCH  10  11
ENDBRANCH   1  10
TORSDOF 12
ENDMDL
MODEL 6
REMARK VINA RESULT:    -3.284      1.187      2.445
REMARK INTER + INTRA:          -7.932
REMARK INTER:                  -6.028
REMARK INTRA:                  -1.904
REMARK UNBOUND:                -2.344
REMARK SMILES CCCCCCCCCCCCCC(=O)[O-]
REMARK SMILES IDX 8 1 9 2 10 3 11 4 12 5 13 6 14 7 15 8 16 9 7 10 6 11 5 12
REMARK SMILES IDX 4 13 3 14 2 15 1 16
REMARK H PARENT
REMARK Flexibility Score: inf
ROOT
ATOM      1  C   UNL     1       2.704  37.589  -7.871  1.00  0.00     0.000 C 
ENDROOT
BRANCH   1   2
ATOM      2  C   UNL     1       3.259  36.168  -7.687  1.00  0.00     0.000 C 
BRANCH   2   3
ATOM      3  C   UNL     1       4.524  35.916  -8.523  1.00  0.00     0.000 C 
BRANCH   3   4
ATOM      4  C   UNL     1       5.350  34.727  -8.001  1.00  0.00     0.000 C 
BRANCH   4   5
ATOM      5  C   UNL     1       6.475  35.151  -7.039  1.00  0.00     0.006 C 
BRANCH   5   6
ATOM      6  C   UNL     1       7.192  33.972  -6.359  1.00  0.00     0.053 C 
BRANCH   6   7
ATOM      7  C   UNL     1       6.458  33.462  -5.157  1.00  0.00     0.041 C 
ATOM      8  O   UNL     1       6.355  34.177  -4.125  1.00  0.00    -0.550 OA
ATOM      9  O   UNL     1       5.914  32.183  -5.163  1.00  0.00    -0.550 OA
ENDBRANCH   6   7
ENDBRANCH   5   6
ENDBRANCH   4   5
ENDBRANCH   3   4
ENDBRANCH   2   3
ENDBRANCH   1   2
BRANCH   1  10
ATOM     10  C   UNL     1       3.522  38.366  -8.913  1.00  0.00     0.000 C 
BRANCH  10  11
ATOM     11  C   UNL     1       3.705  39.848  -8.542  1.00  0.00    -0.000 C 
BRANCH  11  12
ATOM     12  C   UNL     1       4.440  40.035  -7.203  1.00  0.00    -0.000 C 
BRANCH  12  13
ATOM     13  C   UNL     1       5.838  39.394  -7.204  1.00  0.00    -0.000 C 
BRANCH  13  14
ATOM     14  C   UNL     1       6.064  38.468  -5.996  1.00  0.00    -0.000 C 
BRANCH  14  15
ATOM     15  C   UNL     1       4.892  38.501  -5.002  1.00  0.00    -0.003 C 
ATOM     16  C   UNL     1       4.517  37.114  -4.481  1.00  0.00     0.004 C 
ENDBRANCH  14  15
ENDBRANCH  13  14
ENDBRANCH  12  13
ENDBRANCH  11  12
ENDBRANCH  10  11
ENDBRANCH   1  10
TORSDOF 12
ENDMDL
MODEL 7
REMARK VINA RESULT:    -3.244      2.315      4.845
REMARK INTER + INTRA:          -7.864
REMARK INTER:                  -6.150
REMARK INTRA:                  -1.714
REMARK UNBOUND:                -2.344
REMARK SMILES CCCCCCCCCCCCCC(=O)[O-]
REMARK SMILES IDX 8 1 9 2 10 3 11 4 12 5 13 6 14 7 15 8 16 9 7 10 6 11 5 12
REMARK SMILES IDX 4 13 3 14 2 15 1 16
REMARK H PARENT
REMARK Flexibility Score: inf
ROOT
ATOM      1  C   UNL     1       3.750  39.678  -8.456  1.00  0.00     0.000 C 
ENDROOT
BRANCH   1   2
ATOM      2  C   UNL     1       4.517  40.024  -7.170  1.00  0.00     0.000 C 
BRANCH   2   3
ATOM      3  C   UNL     1       5.875  39.309  -7.082  1.00  0.00     0.000 C 
BRANCH   3   4
ATOM      4  C   UNL     1       5.927  38.274  -5.944  1.00  0.00     0.000 C 
BRANCH   4   5
ATOM      5  C   UNL     1       4.775  38.431  -4.934  1.00  0.00     0.006 C 
BRANCH   5   6
ATOM      6  C   UNL     1       4.093  37.104  -4.555  1.00  0.00     0.053 C 
BRANCH   6   7
ATOM      7  C   UNL     1       2.623  37.256  -4.314  1.00  0.00     0.041 C 
ATOM      8  O   UNL     1       2.014  36.445  -3.567  1.00  0.00    -0.550 OA
ATOM      9  O   UNL     1       1.916  38.277  -4.939  1.00  0.00    -0.550 OA
ENDBRANCH   6   7
ENDBRANCH   5   6
ENDBRANCH   4   5
ENDBRANCH   3   4
ENDBRANCH   2   3
ENDBRANCH   1   2
BRANCH   1  10
ATOM     10  C   UNL     1       2.864  38.441  -8.249  1.00  0.00     0.000 C 
BRANCH  10  11
ATOM     11  C   UNL     1       3.467  37.167  -8.864  1.00  0.00    -0.000 C 
BRANCH  11  12
ATOM     12  C   UNL     1       3.604  36.024  -7.844  1.00  0.00    -0.000 C 
BRANCH  12  13
ATOM     13  C   UNL     1       4.837  35.144  -8.106  1.00  0.00    -0.000 C 
BRANCH  13  14
ATOM     14  C   UNL     1       5.372  34.479  -6.826  1.00  0.00    -0.000 C 
BRANCH  14  15
ATOM     15  C   UNL     1       6.904  34.356  -6.824  1.00  0.00    -0.003 C 
ATOM     16  C   UNL     1       7.406  33.178  -7.659  1.00  0.00     0.004 C 
ENDBRANCH  14  15
ENDBRANCH  13  14
ENDBRANCH  12  13
ENDBRANCH  11  12
ENDBRANCH  10  11
ENDBRANCH   1  10
TORSDOF 12
ENDMDL
MODEL 8
REMARK VINA RESULT:    -3.239      2.926      4.840
REMARK INTER + INTRA:          -7.855
REMARK INTER:                  -5.960
REMARK INTRA:                  -1.895
REMARK UNBOUND:                -2.344
REMARK SMILES CCCCCCCCCCCCCC(=O)[O-]
REMARK SMILES IDX 8 1 9 2 10 3 11 4 12 5 13 6 14 7 15 8 16 9 7 10 6 11 5 12
REMARK SMILES IDX 4 13 3 14 2 15 1 16
REMARK H PARENT
REMARK Flexibility Score: inf
ROOT
ATOM      1  C   UNL     1       5.893  39.079  -7.180  1.00  0.00     0.000 C 
ENDROOT
BRANCH   1   2
ATOM      2  C   UNL     1       4.608  39.898  -7.382  1.00  0.00     0.000 C 
BRANCH   2   3
ATOM      3  C   UNL     1       3.711  39.326  -8.491  1.00  0.00     0.000 C 
BRANCH   3   4
ATOM      4  C   UNL     1       3.904  37.811  -8.685  1.00  0.00     0.000 C 
BRANCH   4   5
ATOM      5  C   UNL     1       2.612  37.005  -8.456  1.00  0.00     0.006 C 
BRANCH   5   6
ATOM      6  C   UNL     1       1.328  37.850  -8.531  1.00  0.00     0.053 C 
BRANCH   6   7
ATOM      7  C   UNL     1       0.572  37.871  -7.238  1.00  0.00     0.041 C 
ATOM      8  O   UNL     1      -0.645  37.546  -7.209  1.00  0.00    -0.550 OA
ATOM      9  O   UNL     1       1.202  38.279  -6.069  1.00  0.00    -0.550 OA
ENDBRANCH   6   7
ENDBRANCH   5   6
ENDBRANCH   4   5
ENDBRANCH   3   4
ENDBRANCH   2   3
ENDBRANCH   1   2
BRANCH   1  10
ATOM     10  C   UNL     1       5.959  38.507  -5.756  1.00  0.00     0.000 C 
BRANCH  10  11
ATOM     11  C   UNL     1       4.607  38.569  -5.026  1.00  0.00    -0.000 C 
BRANCH  11  12
ATOM     12  C   UNL     1       4.084  37.178  -4.632  1.00  0.00    -0.000 C 
BRANCH  12  13
ATOM     13  C   UNL     1       5.108  36.063  -4.905  1.00  0.00    -0.000 C 
BRANCH  13  14
ATOM     14  C   UNL     1       4.613  35.051  -5.953  1.00  0.00    -0.000 C 
BRANCH  14  15
ATOM     15  C   UNL     1       5.557  34.946  -7.161  1.00  0.00    -0.003 C 
ATOM     16  C   UNL     1       7.005  34.667  -6.761  1.00  0.00     0.004 C 
ENDBRANCH  14  15
ENDBRANCH  13  14
ENDBRANCH  12  13
ENDBRANCH  11  12
ENDBRANCH  10  11
ENDBRANCH   1  10
TORSDOF 12
ENDMDL
MODEL 9
REMARK VINA RESULT:    -3.197      1.350      2.726
REMARK INTER + INTRA:          -7.784
REMARK INTER:                  -5.869
REMARK INTRA:                  -1.915
REMARK UNBOUND:                -2.344
REMARK SMILES CCCCCCCCCCCCCC(=O)[O-]
REMARK SMILES IDX 8 1 9 2 10 3 11 4 12 5 13 6 14 7 15 8 16 9 7 10 6 11 5 12
REMARK SMILES IDX 4 13 3 14 2 15 1 16
REMARK H PARENT
REMARK Flexibility Score: inf
ROOT
ATOM      1  C   UNL     1       4.477  36.967  -4.569  1.00  0.00     0.000 C 
ENDROOT
BRANCH   1   2
ATOM      2  C   UNL     1       5.332  35.984  -5.384  1.00  0.00     0.000 C 
BRANCH   2   3
ATOM      3  C   UNL     1       4.528  35.271  -6.482  1.00  0.00     0.000 C 
BRANCH   3   4
ATOM      4  C   UNL     1       5.179  35.399  -7.871  1.00  0.00     0.000 C 
BRANCH   4   5
ATOM      5  C   UNL     1       5.639  34.047  -8.447  1.00  0.00     0.006 C 
BRANCH   5   6
ATOM      6  C   UNL     1       7.055  33.633  -8.014  1.00  0.00     0.053 C 
BRANCH   6   7
ATOM      7  C   UNL     1       7.060  32.436  -7.114  1.00  0.00     0.041 C 
ATOM      8  O   UNL     1       6.692  32.541  -5.914  1.00  0.00    -0.550 OA
ATOM      9  O   UNL     1       7.499  31.207  -7.592  1.00  0.00    -0.550 OA
ENDBRANCH   6   7
ENDBRANCH   5   6
ENDBRANCH   4   5
ENDBRANCH   3   4
ENDBRANCH   2   3
ENDBRANCH   1   2
BRANCH   1  10
ATOM     10  C   UNL     1       4.856  38.420  -4.892  1.00  0.00     0.000 C 
BRANCH  10  11
ATOM     11  C   UNL     1       6.016  38.523  -5.896  1.00  0.00    -0.000 C 
BRANCH  11  12
ATOM     12  C   UNL     1       5.610  39.239  -7.196  1.00  0.00    -0.000 C 
BRANCH  12  13
ATOM     13  C   UNL     1       4.092  39.462  -7.297  1.00  0.00    -0.000 C 
BRANCH  13  14
ATOM     14  C   UNL     1       3.479  38.801  -8.543  1.00  0.00    -0.000 C 
BRANCH  14  15
ATOM     15  C   UNL     1       2.375  37.792  -8.191  1.00  0.00    -0.003 C 
ATOM     16  C   UNL     1       1.769  38.034  -6.809  1.00  0.00     0.004 C 
ENDBRANCH  14  15
ENDBRANCH  13  14
ENDBRANCH  12  13
ENDBRANCH  11  12
ENDBRANCH  10  11
ENDBRANCH   1  10
TORSDOF 12
ENDMDL
