MODEL 1
REMARK VINA RESULT:    -3.705      0.000      0.000
REMARK INTER + INTRA:          -4.436
REMARK INTER:                  -4.355
REMARK INTRA:                  -0.081
REMARK UNBOUND:                -0.081
REMARK SMILES O=C([O-])CCC(=O)[O-]
REMARK SMILES IDX 4 1 2 2 1 3 3 4 5 5 6 6 7 7 8 8
REMARK H PARENT
REMARK Flexibility Score: inf
ROOT
ATOM      1  C   UNL     1     139.993 135.650 130.144  1.00  0.00     0.059 C 
ENDROOT
BRANCH   1   2
ATOM      2  C   UNL     1     140.411 134.574 131.099  1.00  0.00     0.042 C 
ATOM      3  O   UNL     1     141.132 134.852 132.092  1.00  0.00    -0.550 OA
ATOM      4  O   UNL     1     139.971 133.269 130.911  1.00  0.00    -0.550 OA
ENDBRANCH   1   2
BRANCH   1   5
ATOM      5  C   UNL     1     139.401 136.857 130.879  1.00  0.00     0.059 C 
BRANCH   5   6
ATOM      6  C   UNL     1     137.923 136.966 130.660  1.00  0.00     0.042 C 
ATOM      7  O   UNL     1     137.211 135.928 130.622  1.00  0.00    -0.550 OA
ATOM      8  O   UNL     1     137.339 138.209 130.459  1.00  0.00    -0.550 OA
ENDBRANCH   5   6
ENDBRANCH   1   5
TORSDOF 3
ENDMDL
MODEL 2
REMARK VINA RESULT:    -3.621      0.310      3.731
REMARK INTER + INTRA:          -4.337
REMARK INTER:                  -4.269
REMARK INTRA:                  -0.068
REMARK UNBOUND:                -0.081
REMARK SMILES O=C([O-])CCC(=O)[O-]
REMARK SMILES IDX 4 1 2 2 1 3 3 4 5 5 6 6 7 7 8 8
REMARK H PARENT
REMARK Flexibility Score: inf
ROOT
ATOM      1  C   UNL     1     139.629 136.681 130.501  1.00  0.00     0.059 C 
ENDROOT
BRANCH   1   2
ATOM      2  C   UNL     1     138.143 136.869 130.550  1.00  0.00     0.042 C 
ATOM      3  O   UNL     1     137.644 138.013 130.394  1.00  0.00    -0.550 OA
ATOM      4  O   UNL     1     137.309 135.772 130.729  1.00  0.00    -0.550 OA
ENDBRANCH   1   2
BRANCH   1   5
ATOM      5  C   UNL     1     140.004 135.281 130.005  1.00  0.00     0.059 C 
BRANCH   5   6
ATOM      6  C   UNL     1     140.381 134.376 131.138  1.00  0.00     0.042 C 
ATOM      7  O   UNL     1     139.922 133.204 131.191  1.00  0.00    -0.550 OA
ATOM      8  O   UNL     1     141.206 134.839 132.154  1.00  0.00    -0.550 OA
ENDBRANCH   5   6
ENDBRANCH   1   5
TORSDOF 3
ENDMDL
MODEL 3
REMARK VINA RESULT:    -3.595      1.419      3.580
REMARK INTER + INTRA:          -4.307
REMARK INTER:                  -4.192
REMARK INTRA:                  -0.114
REMARK UNBOUND:                -0.081
REMARK SMILES O=C([O-])CCC(=O)[O-]
REMARK SMILES IDX 4 1 2 2 1 3 3 4 5 5 6 6 7 7 8 8
REMARK H PARENT
REMARK Flexibility Score: inf
ROOT
ATOM      1  C   UNL     1     140.000 135.827 130.939  1.00  0.00     0.059 C 
ENDROOT
BRANCH   1   2
ATOM      2  C   UNL     1     138.956 136.859 130.642  1.00  0.00     0.042 C 
ATOM      3  O   UNL     1     139.282 137.965 130.138  1.00  0.00    -0.550 OA
ATOM      4  O   UNL     1     137.615 136.582 130.885  1.00  0.00    -0.550 OA
ENDBRANCH   1   2
BRANCH   1   5
ATOM      5  C   UNL     1     140.132 134.813 129.798  1.00  0.00     0.059 C 
BRANCH   5   6
ATOM      6  C   UNL     1     139.286 133.600 130.037  1.00  0.00     0.042 C 
ATOM      7  O   UNL     1     139.611 132.766 130.923  1.00  0.00    -0.550 OA
ATOM      8  O   UNL     1     138.163 133.369 129.254  1.00  0.00    -0.550 OA
ENDBRANCH   5   6
ENDBRANCH   1   5
TORSDOF 3
ENDMDL
MODEL 4
REMARK VINA RESULT:    -3.576      1.456      2.207
REMARK INTER + INTRA:          -4.284
REMARK INTER:                  -4.180
REMARK INTRA:                  -0.104
REMARK UNBOUND:                -0.081
REMARK SMILES O=C([O-])CCC(=O)[O-]
REMARK SMILES IDX 4 1 2 2 1 3 3 4 5 5 6 6 7 7 8 8
REMARK H PARENT
REMARK Flexibility Score: inf
ROOT
ATOM      1  C   UNL     1     140.015 134.755 129.693  1.00  0.00     0.059 C 
ENDROOT
BRANCH   1   2
ATOM      2  C   UNL     1     139.124 133.589 129.991  1.00  0.00     0.042 C 
ATOM      3  O   UNL     1     138.146 133.330 129.244  1.00  0.00    -0.550 OA
ATOM      4  O   UNL     1     139.400 132.762 131.074  1.00  0.00    -0.550 OA
ENDBRANCH   1   2
BRANCH   1   5
ATOM      5  C   UNL     1     139.989 135.789 130.823  1.00  0.00     0.059 C 
BRANCH   5   6
ATOM      6  C   UNL     1     138.949 136.841 130.585  1.00  0.00     0.042 C 
ATOM      7  O   UNL     1     139.282 137.972 130.141  1.00  0.00    -0.550 OA
ATOM      8  O   UNL     1     137.618 136.586 130.890  1.00  0.00    -0.550 OA
ENDBRANCH   5   6
ENDBRANCH   1   5
TORSDOF 3
ENDMDL
MODEL 5
REMARK VINA RESULT:    -3.548      1.865      3.045
REMARK INTER + INTRA:          -4.251
REMARK INTER:                  -4.065
REMARK INTRA:                  -0.186
REMARK UNBOUND:                -0.081
REMARK SMILES O=C([O-])CCC(=O)[O-]
REMARK SMILES IDX 4 1 2 2 1 3 3 4 5 5 6 6 7 7 8 8
REMARK H PARENT
REMARK Flexibility Score: inf
ROOT
ATOM      1  C   UNL     1     140.008 134.797 129.548  1.00  0.00     0.059 C 
ENDROOT
BRANCH   1   2
ATOM      2  C   UNL     1     140.209 135.402 130.903  1.00  0.00     0.042 C 
ATOM      3  O   UNL     1     140.947 134.834 131.749  1.00  0.00    -0.550 OA
ATOM      4  O   UNL     1     139.611 136.617 131.218  1.00  0.00    -0.550 OA
ENDBRANCH   1   2
BRANCH   1   5
ATOM      5  C   UNL     1     138.526 134.535 129.261  1.00  0.00     0.059 C 
BRANCH   5   6
ATOM      6  C   UNL     1     137.936 133.569 130.242  1.00  0.00     0.042 C 
ATOM      7  O   UNL     1     136.909 133.883 130.900  1.00  0.00    -0.550 OA
ATOM      8  O   UNL     1     138.543 132.339 130.460  1.00  0.00    -0.550 OA
ENDBRANCH   5   6
ENDBRANCH   1   5
TORSDOF 3
ENDMDL
MODEL 6
REMARK VINA RESULT:    -3.469      4.260      5.398
REMARK INTER + INTRA:          -4.158
REMARK INTER:                  -3.969
REMARK INTRA:                  -0.189
REMARK UNBOUND:                -0.081
REMARK SMILES O=C([O-])CCC(=O)[O-]
REMARK SMILES IDX 4 1 2 2 1 3 3 4 5 5 6 6 7 7 8 8
REMARK H PARENT
REMARK Flexibility Score: inf
ROOT
ATOM      1  C   UNL     1     134.223 133.864 129.877  1.00  0.00     0.059 C 
ENDROOT
BRANCH   1   2
ATOM      2  C   UNL     1     134.304 132.587 130.656  1.00  0.00     0.042 C 
ATOM      3  O   UNL     1     134.138 131.481 130.080  1.00  0.00    -0.550 OA
ATOM      4  O   UNL     1     134.603 132.619 132.013  1.00  0.00    -0.550 OA
ENDBRANCH   1   2
BRANCH   1   5
ATOM      5  C   UNL     1     135.355 133.972 128.851  1.00  0.00     0.059 C 
BRANCH   5   6
ATOM      6  C   UNL     1     136.697 134.023 129.514  1.00  0.00     0.042 C 
ATOM      7  O   UNL     1     137.562 133.143 129.262  1.00  0.00    -0.550 OA
ATOM      8  O   UNL     1     136.979 135.019 130.440  1.00  0.00    -0.550 OA
ENDBRANCH   5   6
ENDBRANCH   1   5
TORSDOF 3
ENDMDL
MODEL 7
REMARK VINA RESULT:    -3.468      1.813      3.974
REMARK INTER + INTRA:          -4.157
REMARK INTER:                  -4.053
REMARK INTRA:                  -0.104
REMARK UNBOUND:                -0.081
REMARK SMILES O=C([O-])CCC(=O)[O-]
REMARK SMILES IDX 4 1 2 2 1 3 3 4 5 5 6 6 7 7 8 8
REMARK H PARENT
REMARK Flexibility Score: inf
ROOT
ATOM      1  C   UNL     1     139.991 134.987 129.890  1.00  0.00     0.059 C 
ENDROOT
BRANCH   1   2
ATOM      2  C   UNL     1     139.109 136.136 130.272  1.00  0.00     0.042 C 
ATOM      3  O   UNL     1     137.938 135.929 130.681  1.00  0.00    -0.550 OA
ATOM      4  O   UNL     1     139.598 137.436 130.214  1.00  0.00    -0.550 OA
ENDBRANCH   1   2
BRANCH   1   5
ATOM      5  C   UNL     1     140.096 133.957 131.020  1.00  0.00     0.059 C 
BRANCH   5   6
ATOM      6  C   UNL     1     139.293 132.728 130.723  1.00  0.00     0.042 C 
ATOM      7  O   UNL     1     138.147 132.584 131.226  1.00  0.00    -0.550 OA
ATOM      8  O   UNL     1     139.826 131.724 129.926  1.00  0.00    -0.550 OA
ENDBRANCH   5   6
ENDBRANCH   1   5
TORSDOF 3
ENDMDL
MODEL 8
REMARK VINA RESULT:    -3.441      3.910      5.155
REMARK INTER + INTRA:          -4.125
REMARK INTER:                  -3.955
REMARK INTRA:                  -0.171
REMARK UNBOUND:                -0.081
REMARK SMILES O=C([O-])CCC(=O)[O-]
REMARK SMILES IDX 4 1 2 2 1 3 3 4 5 5 6 6 7 7 8 8
REMARK H PARENT
REMARK Flexibility Score: inf
ROOT
ATOM      1  C   UNL     1     139.693 131.221 129.693  1.00  0.00     0.059 C 
ENDROOT
BRANCH   1   2
ATOM      2  C   UNL     1     139.270 132.406 130.505  1.00  0.00     0.042 C 
ATOM      3  O   UNL     1     139.412 133.571 130.050  1.00  0.00    -0.550 OA
ATOM      4  O   UNL     1     138.680 132.221 131.750  1.00  0.00    -0.550 OA
ENDBRANCH   1   2
BRANCH   1   5
ATOM      5  C   UNL     1     138.519 130.274 129.422  1.00  0.00     0.059 C 
BRANCH   5   6
ATOM      6  C   UNL     1     137.519 130.888 128.490  1.00  0.00     0.042 C 
ATOM      7  O   UNL     1     137.796 131.034 127.271  1.00  0.00    -0.550 OA
ATOM      8  O   UNL     1     136.297 131.334 128.977  1.00  0.00    -0.550 OA
ENDBRANCH   5   6
ENDBRANCH   1   5
TORSDOF 3
ENDMDL
MODEL 9
REMARK VINA RESULT:    -3.404      4.221      5.087
REMARK INTER + INTRA:          -4.082
REMARK INTER:                  -3.919
REMARK INTRA:                  -0.163
REMARK UNBOUND:                -0.081
REMARK SMILES O=C([O-])CCC(=O)[O-]
REMARK SMILES IDX 4 1 2 2 1 3 3 4 5 5 6 6 7 7 8 8
REMARK H PARENT
REMARK Flexibility Score: inf
ROOT
ATOM      1  C   UNL     1     135.483 133.870 128.827  1.00  0.00     0.059 C 
ENDROOT
BRANCH   1   2
ATOM      2  C   UNL     1     136.813 134.071 129.486  1.00  0.00     0.042 C 
ATOM      3  O   UNL     1     136.972 134.995 130.325  1.00  0.00    -0.550 OA
ATOM      4  O   UNL     1     137.867 133.210 129.202  1.00  0.00    -0.550 OA
ENDBRANCH   1   2
BRANCH   1   5
ATOM      5  C   UNL     1     134.344 133.844 129.851  1.00  0.00     0.059 C 
BRANCH   5   6
ATOM      6  C   UNL     1     134.360 132.585 130.663  1.00  0.00     0.042 C 
ATOM      7  O   UNL     1     134.032 131.488 130.138  1.00  0.00    -0.550 OA
ATOM      8  O   UNL     1     134.699 132.630 132.009  1.00  0.00    -0.550 OA
ENDBRANCH   5   6
ENDBRANCH   1   5
TORSDOF 3
ENDMDL
