MODEL 1
REMARK VINA RESULT:    -5.909      0.000      0.000
REMARK INTER + INTRA:          -9.538
REMARK INTER:                  -8.500
REMARK INTRA:                  -1.038
REMARK UNBOUND:                -1.038
REMARK SMILES CC(C)=CCCC(C)=CCCC(C)=CCO
REMARK SMILES IDX 10 1 9 2 7 3 8 4 6 5 5 6 4 7 1 8 2 9 3 10 11 11 12 12 14 13
REMARK SMILES IDX 13 14 15 15 16 16
REMARK H PARENT 16 17
REMARK Flexibility Score: inf
ROOT
ATOM      1  C   UNL     1      21.189  -3.393 -28.060  1.00  0.00     0.032 C 
ENDROOT
BRANCH   1   2
ATOM      2  C   UNL     1      21.744  -2.249 -27.251  1.00  0.00    -0.028 C 
ATOM      3  C   UNL     1      22.530  -2.379 -26.157  1.00  0.00    -0.077 C 
ATOM      4  C   UNL     1      23.035  -1.125 -25.490  1.00  0.00     0.039 C 
BRANCH   3   5
ATOM      5  C   UNL     1      22.900  -3.720 -25.547  1.00  0.00     0.034 C 
BRANCH   5   6
ATOM      6  C   UNL     1      22.632  -3.758 -24.036  1.00  0.00     0.032 C 
BRANCH   6   7
ATOM      7  C   UNL     1      23.705  -4.528 -23.304  1.00  0.00    -0.028 C 
ATOM      8  C   UNL     1      25.677  -4.884 -21.883  1.00  0.00     0.039 C 
ATOM      9  C   UNL     1      24.727  -3.972 -22.618  1.00  0.00    -0.080 C 
ATOM     10  C   UNL     1      24.944  -2.479 -22.568  1.00  0.00     0.039 C 
ENDBRANCH   6   7
ENDBRANCH   5   6
ENDBRANCH   3   5
ENDBRANCH   1   2
BRANCH   1  11
ATOM     11  C   UNL     1      19.667  -3.271 -28.212  1.00  0.00     0.034 C 
BRANCH  11  12
ATOM     12  C   UNL     1      18.966  -4.411 -27.508  1.00  0.00    -0.075 C 
ATOM     13  C   UNL     1      17.669  -4.662 -27.795  1.00  0.00    -0.000 C 
ATOM     14  C   UNL     1      19.729  -5.242 -26.503  1.00  0.00     0.039 C 
BRANCH  13  15
ATOM     15  C   UNL     1      16.869  -5.771 -27.167  1.00  0.00     0.183 C 
BRANCH  15  16
ATOM     16  O   UNL     1      16.530  -6.722 -28.137  1.00  0.00    -0.392 OA
ATOM     17  H   UNL     1      16.483  -6.231 -28.998  1.00  0.00     0.210 HD
ENDBRANCH  15  16
ENDBRANCH  13  15
ENDBRANCH  11  12
ENDBRANCH   1  11
TORSDOF 8
ENDMDL
MODEL 2
REMARK VINA RESULT:    -5.903      8.853     10.882
REMARK INTER + INTRA:          -9.529
REMARK INTER:                  -8.127
REMARK INTRA:                  -1.403
REMARK UNBOUND:                -1.038
REMARK SMILES CC(C)=CCCC(C)=CCCC(C)=CCO
REMARK SMILES IDX 10 1 9 2 7 3 8 4 6 5 5 6 4 7 1 8 2 9 3 10 11 11 12 12 14 13
REMARK SMILES IDX 13 14 15 15 16 16
REMARK H PARENT 16 17
REMARK Flexibility Score: inf
ROOT
ATOM      1  C   UNL     1      20.220   1.642 -16.006  1.00  0.00     0.032 C 
ENDROOT
BRANCH   1   2
ATOM      2  C   UNL     1      21.397   0.794 -16.415  1.00  0.00    -0.028 C 
ATOM      3  C   UNL     1      22.388   1.190 -17.248  1.00  0.00    -0.077 C 
ATOM      4  C   UNL     1      23.516   0.226 -17.518  1.00  0.00     0.039 C 
BRANCH   3   5
ATOM      5  C   UNL     1      22.407   2.538 -17.947  1.00  0.00     0.034 C 
BRANCH   5   6
ATOM      6  C   UNL     1      22.477   2.392 -19.474  1.00  0.00     0.032 C 
BRANCH   6   7
ATOM      7  C   UNL     1      21.194   2.843 -20.130  1.00  0.00    -0.028 C 
ATOM      8  C   UNL     1      18.929   2.651 -21.061  1.00  0.00     0.039 C 
ATOM      9  C   UNL     1      20.172   2.030 -20.475  1.00  0.00    -0.080 C 
ATOM     10  C   UNL     1      20.239   0.534 -20.294  1.00  0.00     0.039 C 
ENDBRANCH   6   7
ENDBRANCH   5   6
ENDBRANCH   3   5
ENDBRANCH   1   2
BRANCH   1  11
ATOM     11  C   UNL     1      19.092   0.776 -15.430  1.00  0.00     0.034 C 
BRANCH  11  12
ATOM     12  C   UNL     1      17.835   0.911 -16.260  1.00  0.00    -0.075 C 
ATOM     13  C   UNL     1      16.673   0.415 -15.778  1.00  0.00    -0.000 C 
ATOM     14  C   UNL     1      17.906   1.597 -17.604  1.00  0.00     0.039 C 
BRANCH  13  15
ATOM     15  C   UNL     1      15.359   0.496 -16.507  1.00  0.00     0.183 C 
BRANCH  15  16
ATOM     16  O   UNL     1      14.597   1.552 -15.997  1.00  0.00    -0.392 OA
ATOM     17  H   UNL     1      14.598   2.255 -16.697  1.00  0.00     0.210 HD
ENDBRANCH  15  16
ENDBRANCH  13  15
ENDBRANCH  11  12
ENDBRANCH   1  11
TORSDOF 8
ENDMDL
MODEL 3
REMARK VINA RESULT:    -5.842      9.727     12.014
REMARK INTER + INTRA:          -9.442
REMARK INTER:                  -7.783
REMARK INTRA:                  -1.659
REMARK UNBOUND:                -1.038
REMARK SMILES CC(C)=CCCC(C)=CCCC(C)=CCO
REMARK SMILES IDX 10 1 9 2 7 3 8 4 6 5 5 6 4 7 1 8 2 9 3 10 11 11 12 12 14 13
REMARK SMILES IDX 13 14 15 15 16 16
REMARK H PARENT 16 17
REMARK Flexibility Score: inf
ROOT
ATOM      1  C   UNL     1      28.211  -0.761 -15.519  1.00  0.00     0.032 C 
ENDROOT
BRANCH   1   2
ATOM      2  C   UNL     1      29.707  -0.891 -15.393  1.00  0.00    -0.028 C 
ATOM      3  C   UNL     1      30.612  -0.224 -16.147  1.00  0.00    -0.077 C 
ATOM      4  C   UNL     1      32.076  -0.441 -15.858  1.00  0.00     0.039 C 
BRANCH   3   5
ATOM      5  C   UNL     1      30.231   0.706 -17.286  1.00  0.00     0.034 C 
BRANCH   5   6
ATOM      6  C   UNL     1      30.779   0.216 -18.634  1.00  0.00     0.032 C 
BRANCH   6   7
ATOM      7  C   UNL     1      30.141  -1.087 -19.049  1.00  0.00    -0.028 C 
ATOM      8  C   UNL     1      28.529  -2.577 -20.151  1.00  0.00     0.039 C 
ATOM      9  C   UNL     1      28.996  -1.199 -19.758  1.00  0.00    -0.080 C 
ATOM     10  C   UNL     1      28.180   0.005 -20.161  1.00  0.00     0.039 C 
ENDBRANCH   6   7
ENDBRANCH   5   6
ENDBRANCH   3   5
ENDBRANCH   1   2
BRANCH   1  11
ATOM     11  C   UNL     1      27.641  -1.847 -16.440  1.00  0.00     0.034 C 
BRANCH  11  12
ATOM     12  C   UNL     1      26.200  -1.549 -16.792  1.00  0.00    -0.075 C 
ATOM     13  C   UNL     1      25.484  -0.729 -15.990  1.00  0.00    -0.000 C 
ATOM     14  C   UNL     1      25.596  -2.172 -18.029  1.00  0.00     0.039 C 
BRANCH  13  15
ATOM     15  C   UNL     1      24.048  -0.354 -16.240  1.00  0.00     0.183 C 
BRANCH  15  16
ATOM     16  O   UNL     1      23.989   0.812 -17.012  1.00  0.00    -0.392 OA
ATOM     17  H   UNL     1      23.094   0.813 -17.440  1.00  0.00     0.210 HD
ENDBRANCH  15  16
ENDBRANCH  13  15
ENDBRANCH  11  12
ENDBRANCH   1  11
TORSDOF 8
ENDMDL
MODEL 4
REMARK VINA RESULT:    -5.747      6.786     10.475
REMARK INTER + INTRA:          -9.305
REMARK INTER:                  -8.412
REMARK INTRA:                  -0.893
REMARK UNBOUND:                -1.038
REMARK SMILES CC(C)=CCCC(C)=CCCC(C)=CCO
REMARK SMILES IDX 10 1 9 2 7 3 8 4 6 5 5 6 4 7 1 8 2 9 3 10 11 11 12 12 14 13
REMARK SMILES IDX 13 14 15 15 16 16
REMARK H PARENT 16 17
REMARK Flexibility Score: inf
ROOT
ATOM      1  C   UNL     1      27.817  -1.779 -18.936  1.00  0.00     0.032 C 
ENDROOT
BRANCH   1   2
ATOM      2  C   UNL     1      26.653  -1.527 -18.012  1.00  0.00    -0.028 C 
ATOM      3  C   UNL     1      26.734  -1.449 -16.664  1.00  0.00    -0.077 C 
ATOM      4  C   UNL     1      25.473  -1.148 -15.893  1.00  0.00     0.039 C 
BRANCH   3   5
ATOM      5  C   UNL     1      28.017  -1.681 -15.886  1.00  0.00     0.034 C 
BRANCH   5   6
ATOM      6  C   UNL     1      28.674  -0.363 -15.454  1.00  0.00     0.032 C 
BRANCH   6   7
ATOM      7  C   UNL     1      30.180  -0.451 -15.512  1.00  0.00    -0.028 C 
ATOM      8  C   UNL     1      32.449  -0.043 -16.362  1.00  0.00     0.039 C 
ATOM      9  C   UNL     1      30.951   0.074 -16.490  1.00  0.00    -0.080 C 
ATOM     10  C   UNL     1      30.361   0.767 -17.693  1.00  0.00     0.039 C 
ENDBRANCH   6   7
ENDBRANCH   5   6
ENDBRANCH   3   5
ENDBRANCH   1   2
BRANCH   1  11
ATOM     11  C   UNL     1      27.411  -1.571 -20.401  1.00  0.00     0.034 C 
BRANCH  11  12
ATOM     12  C   UNL     1      27.297  -2.898 -21.119  1.00  0.00    -0.075 C 
ATOM     13  C   UNL     1      26.112  -3.249 -21.666  1.00  0.00    -0.000 C 
ATOM     14  C   UNL     1      28.508  -3.798 -21.207  1.00  0.00     0.039 C 
BRANCH  13  15
ATOM     15  C   UNL     1      25.879  -4.537 -22.409  1.00  0.00     0.183 C 
BRANCH  15  16
ATOM     16  O   UNL     1      25.665  -5.579 -21.500  1.00  0.00    -0.392 OA
ATOM     17  H   UNL     1      25.671  -6.415 -22.035  1.00  0.00     0.210 HD
ENDBRANCH  15  16
ENDBRANCH  13  15
ENDBRANCH  11  12
ENDBRANCH   1  11
TORSDOF 8
ENDMDL
MODEL 5
REMARK VINA RESULT:    -5.728      9.476     12.942
REMARK INTER + INTRA:          -9.277
REMARK INTER:                  -8.221
REMARK INTRA:                  -1.056
REMARK UNBOUND:                -1.038
REMARK SMILES CC(C)=CCCC(C)=CCCC(C)=CCO
REMARK SMILES IDX 10 1 9 2 7 3 8 4 6 5 5 6 4 7 1 8 2 9 3 10 11 11 12 12 14 13
REMARK SMILES IDX 13 14 15 15 16 16
REMARK H PARENT 16 17
REMARK Flexibility Score: inf
ROOT
ATOM      1  C   UNL     1      27.884  -1.587 -16.020  1.00  0.00     0.032 C 
ENDROOT
BRANCH   1   2
ATOM      2  C   UNL     1      26.541  -0.903 -15.983  1.00  0.00    -0.028 C 
ATOM      3  C   UNL     1      25.497  -1.196 -16.793  1.00  0.00    -0.077 C 
ATOM      4  C   UNL     1      24.207  -0.440 -16.591  1.00  0.00     0.039 C 
BRANCH   3   5
ATOM      5  C   UNL     1      25.566  -2.220 -17.912  1.00  0.00     0.034 C 
BRANCH   5   6
ATOM      6  C   UNL     1      25.754  -1.558 -19.285  1.00  0.00     0.032 C 
BRANCH   6   7
ATOM      7  C   UNL     1      27.197  -1.604 -19.726  1.00  0.00    -0.028 C 
ATOM      8  C   UNL     1      29.200  -2.464 -20.858  1.00  0.00     0.039 C 
ATOM      9  C   UNL     1      27.760  -2.606 -20.437  1.00  0.00    -0.080 C 
ATOM     10  C   UNL     1      26.994  -3.850 -20.817  1.00  0.00     0.039 C 
ENDBRANCH   6   7
ENDBRANCH   5   6
ENDBRANCH   3   5
ENDBRANCH   1   2
BRANCH   1  11
ATOM     11  C   UNL     1      28.943  -0.756 -15.284  1.00  0.00     0.034 C 
BRANCH  11  12
ATOM     12  C   UNL     1      30.152  -0.529 -16.164  1.00  0.00    -0.075 C 
ATOM     13  C   UNL     1      31.377  -0.466 -15.595  1.00  0.00    -0.000 C 
ATOM     14  C   UNL     1      29.963  -0.377 -17.655  1.00  0.00     0.039 C 
BRANCH  13  15
ATOM     15  C   UNL     1      32.651  -0.251 -16.366  1.00  0.00     0.183 C 
BRANCH  15  16
ATOM     16  O   UNL     1      33.736  -0.758 -15.642  1.00  0.00    -0.392 OA
ATOM     17  H   UNL     1      33.654  -0.384 -14.727  1.00  0.00     0.210 HD
ENDBRANCH  15  16
ENDBRANCH  13  15
ENDBRANCH  11  12
ENDBRANCH   1  11
TORSDOF 8
ENDMDL
MODEL 6
REMARK VINA RESULT:    -5.704      2.182      6.181
REMARK INTER + INTRA:          -9.243
REMARK INTER:                  -8.362
REMARK INTRA:                  -0.881
REMARK UNBOUND:                -1.038
REMARK SMILES CC(C)=CCCC(C)=CCCC(C)=CCO
REMARK SMILES IDX 10 1 9 2 7 3 8 4 6 5 5 6 4 7 1 8 2 9 3 10 11 11 12 12 14 13
REMARK SMILES IDX 13 14 15 15 16 16
REMARK H PARENT 16 17
REMARK Flexibility Score: inf
ROOT
ATOM      1  C   UNL     1      24.110  -2.212 -23.943  1.00  0.00     0.032 C 
ENDROOT
BRANCH   1   2
ATOM      2  C   UNL     1      24.437  -1.754 -25.341  1.00  0.00    -0.028 C 
ATOM      3  C   UNL     1      23.567  -1.737 -26.377  1.00  0.00    -0.077 C 
ATOM      4  C   UNL     1      24.051  -1.206 -27.703  1.00  0.00     0.039 C 
BRANCH   3   5
ATOM      5  C   UNL     1      22.142  -2.254 -26.284  1.00  0.00     0.034 C 
BRANCH   5   6
ATOM      6  C   UNL     1      22.006  -3.671 -26.860  1.00  0.00     0.032 C 
BRANCH   6   7
ATOM      7  C   UNL     1      20.586  -4.174 -26.759  1.00  0.00    -0.028 C 
ATOM      8  C   UNL     1      18.294  -4.668 -27.490  1.00  0.00     0.039 C 
ATOM      9  C   UNL     1      19.648  -4.048 -27.723  1.00  0.00    -0.080 C 
ATOM     10  C   UNL     1      19.915  -3.310 -29.012  1.00  0.00     0.039 C 
ENDBRANCH   6   7
ENDBRANCH   5   6
ENDBRANCH   3   5
ENDBRANCH   1   2
BRANCH   1  11
ATOM     11  C   UNL     1      25.176  -3.182 -23.418  1.00  0.00     0.034 C 
BRANCH  11  12
ATOM     12  C   UNL     1      24.538  -4.312 -22.641  1.00  0.00    -0.075 C 
ATOM     13  C   UNL     1      23.239  -4.612 -22.865  1.00  0.00    -0.000 C 
ATOM     14  C   UNL     1      25.364  -5.077 -21.634  1.00  0.00     0.039 C 
BRANCH  13  15
ATOM     15  C   UNL     1      22.498  -5.716 -22.160  1.00  0.00     0.183 C 
BRANCH  15  16
ATOM     16  O   UNL     1      21.317  -6.013 -22.850  1.00  0.00    -0.392 OA
ATOM     17  H   UNL     1      21.360  -5.502 -23.699  1.00  0.00     0.210 HD
ENDBRANCH  15  16
ENDBRANCH  13  15
ENDBRANCH  11  12
ENDBRANCH   1  11
TORSDOF 8
ENDMDL
MODEL 7
REMARK VINA RESULT:    -5.703      2.109      2.715
REMARK INTER + INTRA:          -9.242
REMARK INTER:                  -7.743
REMARK INTRA:                  -1.499
REMARK UNBOUND:                -1.038
REMARK SMILES CC(C)=CCCC(C)=CCCC(C)=CCO
REMARK SMILES IDX 10 1 9 2 7 3 8 4 6 5 5 6 4 7 1 8 2 9 3 10 11 11 12 12 14 13
REMARK SMILES IDX 13 14 15 15 16 16
REMARK H PARENT 16 17
REMARK Flexibility Score: inf
ROOT
ATOM      1  C   UNL     1      22.015  -3.293 -27.270  1.00  0.00     0.032 C 
ENDROOT
BRANCH   1   2
ATOM      2  C   UNL     1      22.492  -1.863 -27.262  1.00  0.00    -0.028 C 
ATOM      3  C   UNL     1      23.576  -1.409 -26.591  1.00  0.00    -0.077 C 
ATOM      4  C   UNL     1      23.937   0.048 -26.727  1.00  0.00     0.039 C 
BRANCH   3   5
ATOM      5  C   UNL     1      24.427  -2.282 -25.685  1.00  0.00     0.034 C 
BRANCH   5   6
ATOM      6  C   UNL     1      24.039  -2.128 -24.208  1.00  0.00     0.032 C 
BRANCH   6   7
ATOM      7  C   UNL     1      23.302  -3.344 -23.701  1.00  0.00    -0.028 C 
ATOM      8  C   UNL     1      21.417  -4.660 -22.836  1.00  0.00     0.039 C 
ATOM      9  C   UNL     1      22.031  -3.344 -23.242  1.00  0.00    -0.080 C 
ATOM     10  C   UNL     1      21.218  -2.078 -23.124  1.00  0.00     0.039 C 
ENDBRANCH   6   7
ENDBRANCH   5   6
ENDBRANCH   3   5
ENDBRANCH   1   2
BRANCH   1  11
ATOM     11  C   UNL     1      20.795  -3.459 -28.186  1.00  0.00     0.034 C 
BRANCH  11  12
ATOM     12  C   UNL     1      19.538  -3.671 -27.371  1.00  0.00    -0.075 C 
ATOM     13  C   UNL     1      19.629  -3.720 -26.023  1.00  0.00    -0.000 C 
ATOM     14  C   UNL     1      18.213  -3.822 -28.081  1.00  0.00     0.039 C 
BRANCH  13  15
ATOM     15  C   UNL     1      18.451  -3.917 -25.109  1.00  0.00     0.183 C 
BRANCH  15  16
ATOM     16  O   UNL     1      17.989  -2.677 -24.653  1.00  0.00    -0.392 OA
ATOM     17  H   UNL     1      18.710  -2.309 -24.081  1.00  0.00     0.210 HD
ENDBRANCH  15  16
ENDBRANCH  13  15
ENDBRANCH  11  12
ENDBRANCH   1  11
TORSDOF 8
ENDMDL
MODEL 8
REMARK VINA RESULT:    -5.666      8.088     10.978
REMARK INTER + INTRA:          -9.188
REMARK INTER:                  -7.993
REMARK INTRA:                  -1.195
REMARK UNBOUND:                -1.038
REMARK SMILES CC(C)=CCCC(C)=CCCC(C)=CCO
REMARK SMILES IDX 10 1 9 2 7 3 8 4 6 5 5 6 4 7 1 8 2 9 3 10 11 11 12 12 14 13
REMARK SMILES IDX 13 14 15 15 16 16
REMARK H PARENT 16 17
REMARK Flexibility Score: inf
ROOT
ATOM      1  C   UNL     1      21.130   1.792 -16.546  1.00  0.00     0.032 C 
ENDROOT
BRANCH   1   2
ATOM      2  C   UNL     1      20.026   1.126 -15.766  1.00  0.00    -0.028 C 
ATOM      3  C   UNL     1      18.728   1.072 -16.146  1.00  0.00    -0.077 C 
ATOM      4  C   UNL     1      17.759   0.325 -15.265  1.00  0.00     0.039 C 
BRANCH   3   5
ATOM      5  C   UNL     1      18.192   1.750 -17.395  1.00  0.00     0.034 C 
BRANCH   5   6
ATOM      6  C   UNL     1      18.086   0.777 -18.578  1.00  0.00     0.032 C 
BRANCH   6   7
ATOM      7  C   UNL     1      19.359   0.754 -19.389  1.00  0.00    -0.028 C 
ATOM      8  C   UNL     1      20.991   1.481 -21.075  1.00  0.00     0.039 C 
ATOM      9  C   UNL     1      19.642   1.591 -20.412  1.00  0.00    -0.080 C 
ATOM     10  C   UNL     1      18.655   2.621 -20.903  1.00  0.00     0.039 C 
ENDBRANCH   6   7
ENDBRANCH   5   6
ENDBRANCH   3   5
ENDBRANCH   1   2
BRANCH   1  11
ATOM     11  C   UNL     1      22.501   1.482 -15.932  1.00  0.00     0.034 C 
BRANCH  11  12
ATOM     12  C   UNL     1      23.256   0.484 -16.782  1.00  0.00    -0.075 C 
ATOM     13  C   UNL     1      22.938   0.363 -18.091  1.00  0.00    -0.000 C 
ATOM     14  C   UNL     1      24.345  -0.352 -16.151  1.00  0.00     0.039 C 
BRANCH  13  15
ATOM     15  C   UNL     1      23.622  -0.587 -19.036  1.00  0.00     0.183 C 
BRANCH  15  16
ATOM     16  O   UNL     1      22.706  -1.538 -19.501  1.00  0.00    -0.392 OA
ATOM     17  H   UNL     1      23.223  -2.159 -20.077  1.00  0.00     0.210 HD
ENDBRANCH  15  16
ENDBRANCH  13  15
ENDBRANCH  11  12
ENDBRANCH   1  11
TORSDOF 8
ENDMDL
MODEL 9
REMARK VINA RESULT:    -5.606      3.096      6.642
REMARK INTER + INTRA:          -9.103
REMARK INTER:                  -8.116
REMARK INTRA:                  -0.986
REMARK UNBOUND:                -1.038
REMARK SMILES CC(C)=CCCC(C)=CCCC(C)=CCO
REMARK SMILES IDX 10 1 9 2 7 3 8 4 6 5 5 6 4 7 1 8 2 9 3 10 11 11 12 12 14 13
REMARK SMILES IDX 13 14 15 15 16 16
REMARK H PARENT 16 17
REMARK Flexibility Score: inf
ROOT
ATOM      1  C   UNL     1      21.094  -2.834 -24.266  1.00  0.00     0.032 C 
ENDROOT
BRANCH   1   2
ATOM      2  C   UNL     1      22.049  -2.126 -25.192  1.00  0.00    -0.028 C 
ATOM      3  C   UNL     1      22.234  -2.429 -26.498  1.00  0.00    -0.077 C 
ATOM      4  C   UNL     1      23.201  -1.589 -27.293  1.00  0.00     0.039 C 
BRANCH   3   5
ATOM      5  C   UNL     1      21.543  -3.589 -27.195  1.00  0.00     0.034 C 
BRANCH   5   6
ATOM      6  C   UNL     1      20.366  -3.120 -28.061  1.00  0.00     0.032 C 
BRANCH   6   7
ATOM      7  C   UNL     1      19.298  -4.182 -28.162  1.00  0.00    -0.028 C 
ATOM      8  C   UNL     1      17.208  -5.360 -27.633  1.00  0.00     0.039 C 
ATOM      9  C   UNL     1      18.220  -4.278 -27.353  1.00  0.00    -0.080 C 
ATOM     10  C   UNL     1      18.003  -3.342 -26.189  1.00  0.00     0.039 C 
ENDBRANCH   6   7
ENDBRANCH   5   6
ENDBRANCH   3   5
ENDBRANCH   1   2
BRANCH   1  11
ATOM     11  C   UNL     1      21.641  -4.208 -23.858  1.00  0.00     0.034 C 
BRANCH  11  12
ATOM     12  C   UNL     1      22.707  -4.067 -22.794  1.00  0.00    -0.075 C 
ATOM     13  C   UNL     1      23.802  -4.857 -22.851  1.00  0.00    -0.000 C 
ATOM     14  C   UNL     1      22.524  -3.047 -21.694  1.00  0.00     0.039 C 
BRANCH  13  15
ATOM     15  C   UNL     1      24.930  -4.803 -21.857  1.00  0.00     0.183 C 
BRANCH  15  16
ATOM     16  O   UNL     1      25.995  -4.064 -22.385  1.00  0.00    -0.392 OA
ATOM     17  H   UNL     1      25.626  -3.170 -22.605  1.00  0.00     0.210 HD
ENDBRANCH  15  16
ENDBRANCH  13  15
ENDBRANCH  11  12
ENDBRANCH   1  11
TORSDOF 8
ENDMDL
