MODEL 1
REMARK VINA RESULT:    -7.811      0.000      0.000
REMARK INTER + INTRA:          -9.949
REMARK INTER:                  -9.638
REMARK INTRA:                  -0.312
REMARK UNBOUND:                -0.312
REMARK SMILES O=c1c(O)c(-c2cc(O)c(O)c(O)c2)oc2cc(O)cc(O)c12
REMARK SMILES IDX 5 1 3 2 2 3 1 4 23 5 21 6 20 7 18 8 17 9 16 10 15 11 6 12
REMARK SMILES IDX 7 13 8 14 14 15 10 16 12 17 9 18 11 20 13 22 4 24 22 26
REMARK SMILES IDX 19 28
REMARK H PARENT 9 19 11 21 13 23 4 25 22 27 19 29
REMARK Flexibility Score: inf
ROOT
ATOM      1  C   UNL     1     -26.023  -3.791 -17.748  1.00  0.00     0.180 A 
ATOM      2  C   UNL     1     -24.835  -4.434 -17.357  1.00  0.00     0.208 A 
ATOM      3  C   UNL     1     -24.851  -5.255 -16.217  1.00  0.00     0.238 A 
ATOM      4  O   UNL     1     -23.799  -5.871 -15.903  1.00  0.00    -0.285 OA
ATOM      5  C   UNL     1     -26.047  -5.410 -15.476  1.00  0.00     0.111 A 
ATOM      6  C   UNL     1     -26.166  -6.185 -14.283  1.00  0.00     0.134 A 
ATOM      7  C   UNL     1     -27.428  -6.373 -13.706  1.00  0.00     0.093 A 
ATOM      8  C   UNL     1     -28.563  -5.760 -14.240  1.00  0.00     0.123 A 
ATOM      9  C   UNL     1     -28.448  -4.954 -15.370  1.00  0.00     0.094 A 
ATOM     10  C   UNL     1     -27.209  -4.776 -15.990  1.00  0.00     0.146 A 
ATOM     11  O   UNL     1     -27.144  -4.008 -17.071  1.00  0.00    -0.452 OA
ENDROOT
BRANCH   1  12
ATOM     12  C   UNL     1     -26.079  -2.891 -18.923  1.00  0.00     0.029 A 
ATOM     13  C   UNL     1     -25.543  -1.597 -18.829  1.00  0.00     0.062 A 
ATOM     14  C   UNL     1     -25.564  -0.733 -19.928  1.00  0.00     0.162 A 
ATOM     15  C   UNL     1     -26.607  -3.324 -20.150  1.00  0.00     0.062 A 
ATOM     16  C   UNL     1     -26.112  -1.163 -21.148  1.00  0.00     0.200 A 
ATOM     17  C   UNL     1     -26.630  -2.465 -21.258  1.00  0.00     0.162 A 
BRANCH  14  18
ATOM     18  O   UNL     1     -25.033   0.549 -19.789  1.00  0.00    -0.504 OA
ATOM     19  H   UNL     1     -24.082   0.708 -19.477  1.00  0.00     0.293 HD
ENDBRANCH  14  18
BRANCH  16  20
ATOM     20  O   UNL     1     -26.132  -0.294 -22.240  1.00  0.00    -0.502 OA
ATOM     21  H   UNL     1     -26.990   0.112 -22.591  1.00  0.00     0.293 HD
ENDBRANCH  16  20
BRANCH  17  22
ATOM     22  O   UNL     1     -27.164  -2.903 -22.470  1.00  0.00    -0.504 OA
ATOM     23  H   UNL     1     -26.909  -3.799 -22.870  1.00  0.00     0.293 HD
ENDBRANCH  17  22
ENDBRANCH   1  12
BRANCH   2  24
ATOM     24  O   UNL     1     -23.672  -4.284 -18.116  1.00  0.00    -0.502 OA
ATOM     25  H   UNL     1     -23.571  -3.561 -18.819  1.00  0.00     0.293 HD
ENDBRANCH   2  24
BRANCH   6  26
ATOM     26  O   UNL     1     -25.083  -6.763 -13.616  1.00  0.00    -0.507 OA
ATOM     27  H   UNL     1     -24.770  -6.500 -12.693  1.00  0.00     0.293 HD
ENDBRANCH   6  26
BRANCH   8  28
ATOM     28  O   UNL     1     -29.813  -5.940 -13.650  1.00  0.00    -0.508 OA
ATOM     29  H   UNL     1     -30.613  -6.251 -14.189  1.00  0.00     0.293 HD
ENDBRANCH   8  28
TORSDOF 7
ENDMDL
MODEL 2
REMARK VINA RESULT:    -7.461      1.331      3.453
REMARK INTER + INTRA:          -9.517
REMARK INTER:                  -9.198
REMARK INTRA:                  -0.319
REMARK UNBOUND:                -0.312
REMARK SMILES O=c1c(O)c(-c2cc(O)c(O)c(O)c2)oc2cc(O)cc(O)c12
REMARK SMILES IDX 5 1 3 2 2 3 1 4 23 5 21 6 20 7 18 8 17 9 16 10 15 11 6 12
REMARK SMILES IDX 7 13 8 14 14 15 10 16 12 17 9 18 11 20 13 22 4 24 22 26
REMARK SMILES IDX 19 28
REMARK H PARENT 9 19 11 21 13 23 4 25 22 27 19 29
REMARK Flexibility Score: inf
ROOT
ATOM      1  C   UNL     1     -25.750  -4.053 -17.649  1.00  0.00     0.180 A 
ATOM      2  C   UNL     1     -26.916  -4.189 -16.876  1.00  0.00     0.208 A 
ATOM      3  C   UNL     1     -26.869  -4.967 -15.707  1.00  0.00     0.238 A 
ATOM      4  O   UNL     1     -27.902  -5.042 -14.990  1.00  0.00    -0.285 OA
ATOM      5  C   UNL     1     -25.665  -5.611 -15.336  1.00  0.00     0.111 A 
ATOM      6  C   UNL     1     -25.515  -6.456 -14.196  1.00  0.00     0.134 A 
ATOM      7  C   UNL     1     -24.244  -6.934 -13.853  1.00  0.00     0.093 A 
ATOM      8  C   UNL     1     -23.131  -6.653 -14.647  1.00  0.00     0.123 A 
ATOM      9  C   UNL     1     -23.276  -5.879 -15.795  1.00  0.00     0.094 A 
ATOM     10  C   UNL     1     -24.525  -5.357 -16.143  1.00  0.00     0.146 A 
ATOM     11  O   UNL     1     -24.619  -4.614 -17.240  1.00  0.00    -0.452 OA
ENDROOT
BRANCH   1  12
ATOM     12  C   UNL     1     -25.727  -3.269 -18.906  1.00  0.00     0.029 A 
ATOM     13  C   UNL     1     -26.268  -3.824 -20.076  1.00  0.00     0.062 A 
ATOM     14  C   UNL     1     -26.279  -3.099 -21.272  1.00  0.00     0.162 A 
ATOM     15  C   UNL     1     -25.227  -1.957 -18.940  1.00  0.00     0.062 A 
ATOM     16  C   UNL     1     -25.758  -1.794 -21.306  1.00  0.00     0.200 A 
ATOM     17  C   UNL     1     -25.236  -1.222 -20.134  1.00  0.00     0.162 A 
BRANCH  14  18
ATOM     18  O   UNL     1     -26.813  -3.692 -22.416  1.00  0.00    -0.504 OA
ATOM     19  H   UNL     1     -27.571  -4.364 -22.371  1.00  0.00     0.293 HD
ENDBRANCH  14  18
BRANCH  16  20
ATOM     20  O   UNL     1     -25.770  -1.079 -22.504  1.00  0.00    -0.502 OA
ATOM     21  H   UNL     1     -25.791  -1.537 -23.407  1.00  0.00     0.293 HD
ENDBRANCH  16  20
BRANCH  17  22
ATOM     22  O   UNL     1     -24.730   0.077 -20.158  1.00  0.00    -0.504 OA
ATOM     23  H   UNL     1     -24.458   0.558 -19.307  1.00  0.00     0.293 HD
ENDBRANCH  17  22
ENDBRANCH   1  12
BRANCH   2  24
ATOM     24  O   UNL     1     -28.088  -3.527 -17.249  1.00  0.00    -0.502 OA
ATOM     25  H   UNL     1     -28.753  -3.173 -16.569  1.00  0.00     0.293 HD
ENDBRANCH   2  24
BRANCH   6  26
ATOM     26  O   UNL     1     -26.577  -6.874 -13.389  1.00  0.00    -0.507 OA
ATOM     27  H   UNL     1     -27.035  -7.770 -13.462  1.00  0.00     0.293 HD
ENDBRANCH   6  26
BRANCH   8  28
ATOM     28  O   UNL     1     -21.873  -7.147 -14.308  1.00  0.00    -0.508 OA
ATOM     29  H   UNL     1     -21.702  -7.593 -13.414  1.00  0.00     0.293 HD
ENDBRANCH   8  28
TORSDOF 7
ENDMDL
MODEL 3
REMARK VINA RESULT:    -7.166      4.771     10.585
REMARK INTER + INTRA:          -9.153
REMARK INTER:                  -8.827
REMARK INTRA:                  -0.326
REMARK UNBOUND:                -0.312
REMARK SMILES O=c1c(O)c(-c2cc(O)c(O)c(O)c2)oc2cc(O)cc(O)c12
REMARK SMILES IDX 5 1 3 2 2 3 1 4 23 5 21 6 20 7 18 8 17 9 16 10 15 11 6 12
REMARK SMILES IDX 7 13 8 14 14 15 10 16 12 17 9 18 11 20 13 22 4 24 22 26
REMARK SMILES IDX 19 28
REMARK H PARENT 9 19 11 21 13 23 4 25 22 27 19 29
REMARK Flexibility Score: inf
ROOT
ATOM      1  C   UNL     1     -26.066   0.455 -23.993  1.00  0.00     0.180 A 
ATOM      2  C   UNL     1     -24.846   1.064 -24.333  1.00  0.00     0.208 A 
ATOM      3  C   UNL     1     -24.766   1.810 -25.520  1.00  0.00     0.238 A 
ATOM      4  O   UNL     1     -23.686   2.398 -25.792  1.00  0.00    -0.285 OA
ATOM      5  C   UNL     1     -25.900   1.925 -26.358  1.00  0.00     0.111 A 
ATOM      6  C   UNL     1     -25.921   2.623 -27.604  1.00  0.00     0.134 A 
ATOM      7  C   UNL     1     -27.133   2.782 -28.286  1.00  0.00     0.093 A 
ATOM      8  C   UNL     1     -28.312   2.213 -27.802  1.00  0.00     0.123 A 
ATOM      9  C   UNL     1     -28.292   1.479 -26.618  1.00  0.00     0.094 A 
ATOM     10  C   UNL     1     -27.105   1.334 -25.896  1.00  0.00     0.146 A 
ATOM     11  O   UNL     1     -27.131   0.636 -24.766  1.00  0.00    -0.452 OA
ENDROOT
BRANCH   1  12
ATOM     12  C   UNL     1     -26.222  -0.367 -22.771  1.00  0.00     0.029 A 
ATOM     13  C   UNL     1     -26.124  -1.764 -22.862  1.00  0.00     0.062 A 
ATOM     14  C   UNL     1     -26.246  -2.565 -21.721  1.00  0.00     0.162 A 
ATOM     15  C   UNL     1     -26.408   0.224 -21.511  1.00  0.00     0.062 A 
ATOM     16  C   UNL     1     -26.453  -1.969 -20.465  1.00  0.00     0.200 A 
ATOM     17  C   UNL     1     -26.529  -0.570 -20.362  1.00  0.00     0.162 A 
BRANCH  14  18
ATOM     18  O   UNL     1     -26.158  -3.950 -21.857  1.00  0.00    -0.504 OA
ATOM     19  H   UNL     1     -25.527  -4.387 -22.518  1.00  0.00     0.293 HD
ENDBRANCH  14  18
BRANCH  16  20
ATOM     20  O   UNL     1     -26.577  -2.775 -19.333  1.00  0.00    -0.502 OA
ATOM     21  H   UNL     1     -25.906  -3.500 -19.110  1.00  0.00     0.293 HD
ENDBRANCH  16  20
BRANCH  17  22
ATOM     22  O   UNL     1     -26.720   0.028 -19.117  1.00  0.00    -0.504 OA
ATOM     23  H   UNL     1     -26.669   1.033 -18.996  1.00  0.00     0.293 HD
ENDBRANCH  17  22
ENDBRANCH   1  12
BRANCH   2  24
ATOM     24  O   UNL     1     -23.745   0.956 -23.480  1.00  0.00    -0.502 OA
ATOM     25  H   UNL     1     -23.652   1.513 -22.638  1.00  0.00     0.293 HD
ENDBRANCH   2  24
BRANCH   6  26
ATOM     26  O   UNL     1     -24.783   3.150 -28.222  1.00  0.00    -0.507 OA
ATOM     27  H   UNL     1     -24.403   4.067 -28.040  1.00  0.00     0.293 HD
ENDBRANCH   6  26
BRANCH   8  28
ATOM     28  O   UNL     1     -29.511   2.362 -28.495  1.00  0.00    -0.508 OA
ATOM     29  H   UNL     1     -30.348   1.861 -28.220  1.00  0.00     0.293 HD
ENDBRANCH   8  28
TORSDOF 7
ENDMDL
MODEL 4
REMARK VINA RESULT:    -7.021      4.686     10.632
REMARK INTER + INTRA:          -8.974
REMARK INTER:                  -8.860
REMARK INTRA:                  -0.115
REMARK UNBOUND:                -0.312
REMARK SMILES O=c1c(O)c(-c2cc(O)c(O)c(O)c2)oc2cc(O)cc(O)c12
REMARK SMILES IDX 5 1 3 2 2 3 1 4 23 5 21 6 20 7 18 8 17 9 16 10 15 11 6 12
REMARK SMILES IDX 7 13 8 14 14 15 10 16 12 17 9 18 11 20 13 22 4 24 22 26
REMARK SMILES IDX 19 28
REMARK H PARENT 9 19 11 21 13 23 4 25 22 27 19 29
REMARK Flexibility Score: inf
ROOT
ATOM      1  C   UNL     1     -25.954   0.328 -23.814  1.00  0.00     0.180 A 
ATOM      2  C   UNL     1     -27.180   0.323 -24.502  1.00  0.00     0.208 A 
ATOM      3  C   UNL     1     -27.306   1.091 -25.671  1.00  0.00     0.238 A 
ATOM      4  O   UNL     1     -28.388   1.040 -26.313  1.00  0.00    -0.285 OA
ATOM      5  C   UNL     1     -26.213   1.864 -26.128  1.00  0.00     0.111 A 
ATOM      6  C   UNL     1     -26.242   2.710 -27.278  1.00  0.00     0.134 A 
ATOM      7  C   UNL     1     -25.062   3.328 -27.711  1.00  0.00     0.093 A 
ATOM      8  C   UNL     1     -23.870   3.183 -26.999  1.00  0.00     0.123 A 
ATOM      9  C   UNL     1     -23.844   2.408 -25.842  1.00  0.00     0.094 A 
ATOM     10  C   UNL     1     -24.996   1.750 -25.405  1.00  0.00     0.146 A 
ATOM     11  O   UNL     1     -24.926   1.012 -24.303  1.00  0.00    -0.452 OA
ENDROOT
BRANCH   1  12
ATOM     12  C   UNL     1     -25.752  -0.435 -22.561  1.00  0.00     0.029 A 
ATOM     13  C   UNL     1     -25.422   0.248 -21.380  1.00  0.00     0.062 A 
ATOM     14  C   UNL     1     -25.246  -0.445 -20.178  1.00  0.00     0.162 A 
ATOM     15  C   UNL     1     -25.941  -1.827 -22.515  1.00  0.00     0.062 A 
ATOM     16  C   UNL     1     -25.415  -1.839 -20.142  1.00  0.00     0.200 A 
ATOM     17  C   UNL     1     -25.768  -2.529 -21.314  1.00  0.00     0.162 A 
BRANCH  14  18
ATOM     18  O   UNL     1     -24.904   0.270 -19.031  1.00  0.00    -0.504 OA
ATOM     19  H   UNL     1     -24.564  -0.186 -18.193  1.00  0.00     0.293 HD
ENDBRANCH  14  18
BRANCH  16  20
ATOM     20  O   UNL     1     -25.235  -2.524 -18.939  1.00  0.00    -0.502 OA
ATOM     21  H   UNL     1     -25.900  -2.463 -18.178  1.00  0.00     0.293 HD
ENDBRANCH  16  20
BRANCH  17  22
ATOM     22  O   UNL     1     -25.951  -3.911 -21.281  1.00  0.00    -0.504 OA
ATOM     23  H   UNL     1     -26.731  -4.333 -20.789  1.00  0.00     0.293 HD
ENDBRANCH  17  22
ENDBRANCH   1  12
BRANCH   2  24
ATOM     24  O   UNL     1     -28.239  -0.465 -24.045  1.00  0.00    -0.502 OA
ATOM     25  H   UNL     1     -28.102  -1.251 -23.420  1.00  0.00     0.293 HD
ENDBRANCH   2  24
BRANCH   6  26
ATOM     26  O   UNL     1     -27.400   2.996 -28.007  1.00  0.00    -0.507 OA
ATOM     27  H   UNL     1     -28.113   3.650 -27.719  1.00  0.00     0.293 HD
ENDBRANCH   6  26
BRANCH   8  28
ATOM     28  O   UNL     1     -22.704   3.814 -27.428  1.00  0.00    -0.508 OA
ATOM     29  H   UNL     1     -22.582   4.101 -28.392  1.00  0.00     0.293 HD
ENDBRANCH   8  28
TORSDOF 7
ENDMDL
MODEL 5
REMARK VINA RESULT:    -6.927      2.532      7.374
REMARK INTER + INTRA:          -8.858
REMARK INTER:                  -9.300
REMARK INTRA:                   0.441
REMARK UNBOUND:                -0.312
REMARK SMILES O=c1c(O)c(-c2cc(O)c(O)c(O)c2)oc2cc(O)cc(O)c12
REMARK SMILES IDX 5 1 3 2 2 3 1 4 23 5 21 6 20 7 18 8 17 9 16 10 15 11 6 12
REMARK SMILES IDX 7 13 8 14 14 15 10 16 12 17 9 18 11 20 13 22 4 24 22 26
REMARK SMILES IDX 19 28
REMARK H PARENT 9 19 11 21 13 23 4 25 22 27 19 29
REMARK Flexibility Score: inf
ROOT
ATOM      1  C   UNL     1     -28.350  -5.829 -14.300  1.00  0.00     0.180 A 
ATOM      2  C   UNL     1     -27.316  -6.584 -13.719  1.00  0.00     0.208 A 
ATOM      3  C   UNL     1     -26.019  -6.479 -14.247  1.00  0.00     0.238 A 
ATOM      4  O   UNL     1     -25.086  -7.115 -13.689  1.00  0.00    -0.285 OA
ATOM      5  C   UNL     1     -25.775  -5.634 -15.356  1.00  0.00     0.111 A 
ATOM      6  C   UNL     1     -24.509  -5.482 -15.997  1.00  0.00     0.134 A 
ATOM      7  C   UNL     1     -24.354  -4.521 -17.003  1.00  0.00     0.093 A 
ATOM      8  C   UNL     1     -25.437  -3.753 -17.437  1.00  0.00     0.123 A 
ATOM      9  C   UNL     1     -26.691  -3.935 -16.860  1.00  0.00     0.094 A 
ATOM     10  C   UNL     1     -26.868  -4.861 -15.829  1.00  0.00     0.146 A 
ATOM     11  O   UNL     1     -28.078  -4.996 -15.297  1.00  0.00    -0.452 OA
ENDROOT
BRANCH   1  12
ATOM     12  C   UNL     1     -29.747  -5.905 -13.815  1.00  0.00     0.029 A 
ATOM     13  C   UNL     1     -30.753  -5.200 -14.494  1.00  0.00     0.062 A 
ATOM     14  C   UNL     1     -32.085  -5.270 -14.071  1.00  0.00     0.162 A 
ATOM     15  C   UNL     1     -30.099  -6.716 -12.724  1.00  0.00     0.062 A 
ATOM     16  C   UNL     1     -32.429  -6.066 -12.965  1.00  0.00     0.200 A 
ATOM     17  C   UNL     1     -31.432  -6.794 -12.294  1.00  0.00     0.162 A 
BRANCH  14  18
ATOM     18  O   UNL     1     -33.052  -4.542 -14.764  1.00  0.00    -0.504 OA
ATOM     19  H   UNL     1     -33.204  -3.554 -14.598  1.00  0.00     0.293 HD
ENDBRANCH  14  18
BRANCH  16  20
ATOM     20  O   UNL     1     -33.759  -6.129 -12.548  1.00  0.00    -0.502 OA
ATOM     21  H   UNL     1     -34.379  -5.330 -12.602  1.00  0.00     0.293 HD
ENDBRANCH  16  20
BRANCH  17  22
ATOM     22  O   UNL     1     -31.768  -7.596 -11.205  1.00  0.00    -0.504 OA
ATOM     23  H   UNL     1     -31.081  -8.183 -10.744  1.00  0.00     0.293 HD
ENDBRANCH  17  22
ENDBRANCH   1  12
BRANCH   2  24
ATOM     24  O   UNL     1     -27.574  -7.394 -12.611  1.00  0.00    -0.502 OA
ATOM     25  H   UNL     1     -28.496  -7.766 -12.413  1.00  0.00     0.293 HD
ENDBRANCH   2  24
BRANCH   6  26
ATOM     26  O   UNL     1     -23.387  -6.263 -15.704  1.00  0.00    -0.507 OA
ATOM     27  H   UNL     1     -22.608  -6.408 -16.329  1.00  0.00     0.293 HD
ENDBRANCH   6  26
BRANCH   8  28
ATOM     28  O   UNL     1     -25.279  -2.810 -18.451  1.00  0.00    -0.508 OA
ATOM     29  H   UNL     1     -24.596  -2.935 -19.189  1.00  0.00     0.293 HD
ENDBRANCH   8  28
TORSDOF 7
ENDMDL
MODEL 6
REMARK VINA RESULT:    -6.772      3.409      7.879
REMARK INTER + INTRA:          -8.667
REMARK INTER:                  -8.898
REMARK INTRA:                   0.231
REMARK UNBOUND:                -0.312
REMARK SMILES O=c1c(O)c(-c2cc(O)c(O)c(O)c2)oc2cc(O)cc(O)c12
REMARK SMILES IDX 5 1 3 2 2 3 1 4 23 5 21 6 20 7 18 8 17 9 16 10 15 11 6 12
REMARK SMILES IDX 7 13 8 14 14 15 10 16 12 17 9 18 11 20 13 22 4 24 22 26
REMARK SMILES IDX 19 28
REMARK H PARENT 9 19 11 21 13 23 4 25 22 27 19 29
REMARK Flexibility Score: inf
ROOT
ATOM      1  C   UNL     1     -23.659  -6.487 -15.004  1.00  0.00     0.180 A 
ATOM      2  C   UNL     1     -24.962  -6.897 -14.673  1.00  0.00     0.208 A 
ATOM      3  C   UNL     1     -26.047  -6.334 -15.365  1.00  0.00     0.238 A 
ATOM      4  O   UNL     1     -27.208  -6.745 -15.103  1.00  0.00    -0.285 OA
ATOM      5  C   UNL     1     -25.817  -5.360 -16.366  1.00  0.00     0.111 A 
ATOM      6  C   UNL     1     -26.844  -4.695 -17.101  1.00  0.00     0.134 A 
ATOM      7  C   UNL     1     -26.497  -3.845 -18.158  1.00  0.00     0.093 A 
ATOM      8  C   UNL     1     -25.159  -3.584 -18.462  1.00  0.00     0.123 A 
ATOM      9  C   UNL     1     -24.149  -4.182 -17.712  1.00  0.00     0.094 A 
ATOM     10  C   UNL     1     -24.464  -5.063 -16.676  1.00  0.00     0.146 A 
ATOM     11  O   UNL     1     -23.471  -5.620 -15.992  1.00  0.00    -0.452 OA
ENDROOT
BRANCH   1  12
ATOM     12  C   UNL     1     -22.466  -7.016 -14.303  1.00  0.00     0.029 A 
ATOM     13  C   UNL     1     -21.229  -7.038 -14.965  1.00  0.00     0.062 A 
ATOM     14  C   UNL     1     -20.082  -7.513 -14.320  1.00  0.00     0.162 A 
ATOM     15  C   UNL     1     -22.533  -7.442 -12.966  1.00  0.00     0.062 A 
ATOM     16  C   UNL     1     -20.158  -7.958 -12.990  1.00  0.00     0.200 A 
ATOM     17  C   UNL     1     -21.388  -7.917 -12.311  1.00  0.00     0.162 A 
BRANCH  14  18
ATOM     18  O   UNL     1     -18.875  -7.532 -15.018  1.00  0.00    -0.504 OA
ATOM     19  H   UNL     1     -18.745  -8.090 -15.855  1.00  0.00     0.293 HD
ENDBRANCH  14  18
BRANCH  16  20
ATOM     20  O   UNL     1     -19.010  -8.433 -12.354  1.00  0.00    -0.502 OA
ATOM     21  H   UNL     1     -18.926  -9.390 -12.036  1.00  0.00     0.293 HD
ENDBRANCH  16  20
BRANCH  17  22
ATOM     22  O   UNL     1     -21.468  -8.345 -10.987  1.00  0.00    -0.504 OA
ATOM     23  H   UNL     1     -22.360  -8.451 -10.515  1.00  0.00     0.293 HD
ENDBRANCH  17  22
ENDBRANCH   1  12
BRANCH   2  24
ATOM     24  O   UNL     1     -25.165  -7.876 -13.698  1.00  0.00    -0.502 OA
ATOM     25  H   UNL     1     -26.022  -7.938 -13.160  1.00  0.00     0.293 HD
ENDBRANCH   2  24
BRANCH   6  26
ATOM     26  O   UNL     1     -28.208  -4.813 -16.818  1.00  0.00    -0.507 OA
ATOM     27  H   UNL     1     -28.737  -4.162 -16.258  1.00  0.00     0.293 HD
ENDBRANCH   6  26
BRANCH   8  28
ATOM     28  O   UNL     1     -24.822  -2.724 -19.505  1.00  0.00    -0.508 OA
ATOM     29  H   UNL     1     -25.444  -2.574 -20.291  1.00  0.00     0.293 HD
ENDBRANCH   8  28
TORSDOF 7
ENDMDL
MODEL 7
REMARK VINA RESULT:    -6.685      2.066      7.434
REMARK INTER + INTRA:          -8.560
REMARK INTER:                  -8.905
REMARK INTRA:                   0.346
REMARK UNBOUND:                -0.312
REMARK SMILES O=c1c(O)c(-c2cc(O)c(O)c(O)c2)oc2cc(O)cc(O)c12
REMARK SMILES IDX 5 1 3 2 2 3 1 4 23 5 21 6 20 7 18 8 17 9 16 10 15 11 6 12
REMARK SMILES IDX 7 13 8 14 14 15 10 16 12 17 9 18 11 20 13 22 4 24 22 26
REMARK SMILES IDX 19 28
REMARK H PARENT 9 19 11 21 13 23 4 25 22 27 19 29
REMARK Flexibility Score: inf
ROOT
ATOM      1  C   UNL     1     -27.948  -5.400 -14.588  1.00  0.00     0.180 A 
ATOM      2  C   UNL     1     -26.638  -5.506 -14.088  1.00  0.00     0.208 A 
ATOM      3  C   UNL     1     -25.566  -5.100 -14.899  1.00  0.00     0.238 A 
ATOM      4  O   UNL     1     -24.400  -5.147 -14.426  1.00  0.00    -0.285 OA
ATOM      5  C   UNL     1     -25.815  -4.608 -16.203  1.00  0.00     0.111 A 
ATOM      6  C   UNL     1     -24.802  -4.207 -17.125  1.00  0.00     0.134 A 
ATOM      7  C   UNL     1     -25.169  -3.613 -18.339  1.00  0.00     0.093 A 
ATOM      8  C   UNL     1     -26.512  -3.468 -18.692  1.00  0.00     0.123 A 
ATOM      9  C   UNL     1     -27.508  -3.911 -17.825  1.00  0.00     0.094 A 
ATOM     10  C   UNL     1     -27.174  -4.474 -16.591  1.00  0.00     0.146 A 
ATOM     11  O   UNL     1     -28.154  -4.873 -15.789  1.00  0.00    -0.452 OA
ENDROOT
BRANCH   1  12
ATOM     12  C   UNL     1     -29.127  -5.831 -13.802  1.00  0.00     0.029 A 
ATOM     13  C   UNL     1     -28.971  -6.795 -12.795  1.00  0.00     0.062 A 
ATOM     14  C   UNL     1     -30.063  -7.205 -12.023  1.00  0.00     0.162 A 
ATOM     15  C   UNL     1     -30.391  -5.252 -14.004  1.00  0.00     0.062 A 
ATOM     16  C   UNL     1     -31.330  -6.639 -12.243  1.00  0.00     0.200 A 
ATOM     17  C   UNL     1     -31.491  -5.656 -13.234  1.00  0.00     0.162 A 
BRANCH  14  18
ATOM     18  O   UNL     1     -29.869  -8.177 -11.041  1.00  0.00    -0.504 OA
ATOM     19  H   UNL     1     -29.090  -8.825 -11.071  1.00  0.00     0.293 HD
ENDBRANCH  14  18
BRANCH  16  20
ATOM     20  O   UNL     1     -32.415  -7.056 -11.471  1.00  0.00    -0.502 OA
ATOM     21  H   UNL     1     -32.343  -7.199 -10.471  1.00  0.00     0.293 HD
ENDBRANCH  16  20
BRANCH  17  22
ATOM     22  O   UNL     1     -32.742  -5.080 -13.448  1.00  0.00    -0.504 OA
ATOM     23  H   UNL     1     -33.565  -5.393 -12.945  1.00  0.00     0.293 HD
ENDBRANCH  17  22
ENDBRANCH   1  12
BRANCH   2  24
ATOM     24  O   UNL     1     -26.417  -5.974 -12.790  1.00  0.00    -0.502 OA
ATOM     25  H   UNL     1     -26.684  -6.906 -12.496  1.00  0.00     0.293 HD
ENDBRANCH   2  24
BRANCH   6  26
ATOM     26  O   UNL     1     -23.433  -4.392 -16.910  1.00  0.00    -0.507 OA
ATOM     27  H   UNL     1     -22.733  -4.398 -17.637  1.00  0.00     0.293 HD
ENDBRANCH   6  26
BRANCH   8  28
ATOM     28  O   UNL     1     -26.869  -2.892 -19.909  1.00  0.00    -0.508 OA
ATOM     29  H   UNL     1     -26.225  -2.864 -20.691  1.00  0.00     0.293 HD
ENDBRANCH   8  28
TORSDOF 7
ENDMDL
MODEL 8
REMARK VINA RESULT:    -6.662      7.388     11.554
REMARK INTER + INTRA:          -8.532
REMARK INTER:                  -8.371
REMARK INTRA:                  -0.161
REMARK UNBOUND:                -0.312
REMARK SMILES O=c1c(O)c(-c2cc(O)c(O)c(O)c2)oc2cc(O)cc(O)c12
REMARK SMILES IDX 5 1 3 2 2 3 1 4 23 5 21 6 20 7 18 8 17 9 16 10 15 11 6 12
REMARK SMILES IDX 7 13 8 14 14 15 10 16 12 17 9 18 11 20 13 22 4 24 22 26
REMARK SMILES IDX 19 28
REMARK H PARENT 9 19 11 21 13 23 4 25 22 27 19 29
REMARK Flexibility Score: inf
ROOT
ATOM      1  C   UNL     1     -27.571   2.276 -27.087  1.00  0.00     0.180 A 
ATOM      2  C   UNL     1     -26.239   2.718 -27.159  1.00  0.00     0.208 A 
ATOM      3  C   UNL     1     -25.309   2.228 -26.228  1.00  0.00     0.238 A 
ATOM      4  O   UNL     1     -24.106   2.586 -26.330  1.00  0.00    -0.285 OA
ATOM      5  C   UNL     1     -25.725   1.317 -25.229  1.00  0.00     0.111 A 
ATOM      6  C   UNL     1     -24.877   0.788 -24.210  1.00  0.00     0.134 A 
ATOM      7  C   UNL     1     -25.364  -0.207 -23.353  1.00  0.00     0.093 A 
ATOM      8  C   UNL     1     -26.688  -0.644 -23.436  1.00  0.00     0.123 A 
ATOM      9  C   UNL     1     -27.541  -0.091 -24.388  1.00  0.00     0.094 A 
ATOM     10  C   UNL     1     -27.074   0.877 -25.280  1.00  0.00     0.146 A 
ATOM     11  O   UNL     1     -27.917   1.371 -26.180  1.00  0.00    -0.452 OA
ENDROOT
BRANCH   1  12
ATOM     12  C   UNL     1     -28.614   2.766 -28.018  1.00  0.00     0.029 A 
ATOM     13  C   UNL     1     -29.347   1.844 -28.781  1.00  0.00     0.062 A 
ATOM     14  C   UNL     1     -30.352   2.276 -29.653  1.00  0.00     0.162 A 
ATOM     15  C   UNL     1     -28.927   4.132 -28.112  1.00  0.00     0.062 A 
ATOM     16  C   UNL     1     -30.647   3.646 -29.759  1.00  0.00     0.200 A 
ATOM     17  C   UNL     1     -29.934   4.574 -28.981  1.00  0.00     0.162 A 
BRANCH  14  18
ATOM     18  O   UNL     1     -31.046   1.329 -30.405  1.00  0.00    -0.504 OA
ATOM     19  H   UNL     1     -31.655   0.642 -29.976  1.00  0.00     0.293 HD
ENDBRANCH  14  18
BRANCH  16  20
ATOM     20  O   UNL     1     -31.649   4.069 -30.633  1.00  0.00    -0.502 OA
ATOM     21  H   UNL     1     -32.453   3.494 -30.852  1.00  0.00     0.293 HD
ENDBRANCH  16  20
BRANCH  17  22
ATOM     22  O   UNL     1     -30.232   5.933 -29.071  1.00  0.00    -0.504 OA
ATOM     23  H   UNL     1     -29.516   6.643 -28.957  1.00  0.00     0.293 HD
ENDBRANCH  17  22
ENDBRANCH   1  12
BRANCH   2  24
ATOM     24  O   UNL     1     -25.845   3.602 -28.167  1.00  0.00    -0.502 OA
ATOM     25  H   UNL     1     -24.904   3.613 -28.543  1.00  0.00     0.293 HD
ENDBRANCH   2  24
BRANCH   6  26
ATOM     26  O   UNL     1     -23.568   1.221 -23.981  1.00  0.00    -0.507 OA
ATOM     27  H   UNL     1     -23.321   2.086 -23.524  1.00  0.00     0.293 HD
ENDBRANCH   6  26
BRANCH   8  28
ATOM     28  O   UNL     1     -27.170  -1.622 -22.569  1.00  0.00    -0.508 OA
ATOM     29  H   UNL     1     -28.143  -1.905 -22.578  1.00  0.00     0.293 HD
ENDBRANCH   8  28
TORSDOF 7
ENDMDL
MODEL 9
REMARK VINA RESULT:    -6.542      1.708      2.941
REMARK INTER + INTRA:          -8.383
REMARK INTER:                  -8.826
REMARK INTRA:                   0.442
REMARK UNBOUND:                -0.312
REMARK SMILES O=c1c(O)c(-c2cc(O)c(O)c(O)c2)oc2cc(O)cc(O)c12
REMARK SMILES IDX 5 1 3 2 2 3 1 4 23 5 21 6 20 7 18 8 17 9 16 10 15 11 6 12
REMARK SMILES IDX 7 13 8 14 14 15 10 16 12 17 9 18 11 20 13 22 4 24 22 26
REMARK SMILES IDX 19 28
REMARK H PARENT 9 19 11 21 13 23 4 25 22 27 19 29
REMARK Flexibility Score: inf
ROOT
ATOM      1  C   UNL     1     -26.545  -5.238 -15.656  1.00  0.00     0.180 A 
ATOM      2  C   UNL     1     -25.606  -6.133 -15.113  1.00  0.00     0.208 A 
ATOM      3  C   UNL     1     -25.938  -6.839 -13.946  1.00  0.00     0.238 A 
ATOM      4  O   UNL     1     -25.115  -7.679 -13.494  1.00  0.00    -0.285 OA
ATOM      5  C   UNL     1     -27.195  -6.632 -13.329  1.00  0.00     0.111 A 
ATOM      6  C   UNL     1     -27.619  -7.263 -12.121  1.00  0.00     0.134 A 
ATOM      7  C   UNL     1     -28.933  -7.083 -11.672  1.00  0.00     0.093 A 
ATOM      8  C   UNL     1     -29.817  -6.241 -12.351  1.00  0.00     0.123 A 
ATOM      9  C   UNL     1     -29.394  -5.572 -13.497  1.00  0.00     0.094 A 
ATOM     10  C   UNL     1     -28.100  -5.761 -13.990  1.00  0.00     0.146 A 
ATOM     11  O   UNL     1     -27.740  -5.114 -15.092  1.00  0.00    -0.452 OA
ENDROOT
BRANCH   1  12
ATOM     12  C   UNL     1     -26.258  -4.439 -16.870  1.00  0.00     0.029 A 
ATOM     13  C   UNL     1     -27.144  -3.419 -17.251  1.00  0.00     0.062 A 
ATOM     14  C   UNL     1     -26.889  -2.635 -18.381  1.00  0.00     0.162 A 
ATOM     15  C   UNL     1     -25.087  -4.641 -17.619  1.00  0.00     0.062 A 
ATOM     16  C   UNL     1     -25.726  -2.855 -19.138  1.00  0.00     0.200 A 
ATOM     17  C   UNL     1     -24.822  -3.858 -18.751  1.00  0.00     0.162 A 
BRANCH  14  18
ATOM     18  O   UNL     1     -27.802  -1.642 -18.733  1.00  0.00    -0.504 OA
ATOM     19  H   UNL     1     -27.669  -0.671 -18.475  1.00  0.00     0.293 HD
ENDBRANCH  14  18
BRANCH  16  20
ATOM     20  O   UNL     1     -25.480  -2.070 -20.266  1.00  0.00    -0.502 OA
ATOM     21  H   UNL     1     -24.986  -2.427 -21.074  1.00  0.00     0.293 HD
ENDBRANCH  16  20
BRANCH  17  22
ATOM     22  O   UNL     1     -23.660  -4.072 -19.491  1.00  0.00    -0.504 OA
ATOM     23  H   UNL     1     -23.462  -4.968 -19.925  1.00  0.00     0.293 HD
ENDBRANCH  17  22
ENDBRANCH   1  12
BRANCH   2  24
ATOM     24  O   UNL     1     -24.381  -6.339 -15.751  1.00  0.00    -0.502 OA
ATOM     25  H   UNL     1     -23.733  -5.583 -15.942  1.00  0.00     0.293 HD
ENDBRANCH   2  24
BRANCH   6  26
ATOM     26  O   UNL     1     -26.788  -8.050 -11.318  1.00  0.00    -0.507 OA
ATOM     27  H   UNL     1     -27.111  -8.775 -10.694  1.00  0.00     0.293 HD
ENDBRANCH   6  26
BRANCH   8  28
ATOM     28  O   UNL     1     -31.117  -6.053 -11.888  1.00  0.00    -0.508 OA
ATOM     29  H   UNL     1     -31.377  -5.230 -11.357  1.00  0.00     0.293 HD
ENDBRANCH   8  28
TORSDOF 7
ENDMDL
