MODEL 1
REMARK VINA RESULT:    -4.092      0.000      0.000
REMARK INTER + INTRA:          -5.834
REMARK INTER:                  -5.408
REMARK INTRA:                  -0.427
REMARK UNBOUND:                -0.427
REMARK SMILES C=CCC[C@@H](O)CCC
REMARK SMILES IDX 4 1 5 2 7 3 8 4 9 5 6 6 3 8 2 9 1 10
REMARK H PARENT 6 7
REMARK Flexibility Score: inf
ROOT
ATOM      1  C   UNL     1     -37.620  21.041   5.204  1.00  0.00     0.036 C 
ENDROOT
BRANCH   1   2
ATOM      2  C   UNL     1     -36.835  22.360   5.063  1.00  0.00     0.114 C 
BRANCH   2   3
ATOM      3  C   UNL     1     -37.589  23.410   4.217  1.00  0.00     0.031 C 
BRANCH   3   4
ATOM      4  C   UNL     1     -38.101  24.651   4.975  1.00  0.00    -0.001 C 
ATOM      5  C   UNL     1     -38.063  24.496   6.495  1.00  0.00     0.004 C 
ENDBRANCH   3   4
ENDBRANCH   2   3
BRANCH   2   6
ATOM      6  O   UNL     1     -35.567  22.122   4.508  1.00  0.00    -0.393 OA
ATOM      7  H   UNL     1     -35.037  22.956   4.609  1.00  0.00     0.210 HD
ENDBRANCH   2   6
ENDBRANCH   1   2
BRANCH   1   8
ATOM      8  C   UNL     1     -37.917  20.707   6.673  1.00  0.00     0.029 C 
BRANCH   8   9
ATOM      9  C   UNL     1     -36.870  21.285   7.585  1.00  0.00    -0.035 C 
ATOM     10  C   UNL     1     -36.051  20.509   8.300  1.00  0.00     0.004 C 
ENDBRANCH   8   9
ENDBRANCH   1   8
TORSDOF 6
ENDMDL
MODEL 2
REMARK VINA RESULT:    -3.512      1.705      2.546
REMARK INTER + INTRA:          -5.068
REMARK INTER:                  -4.641
REMARK INTRA:                  -0.427
REMARK UNBOUND:                -0.427
REMARK SMILES C=CCC[C@@H](O)CCC
REMARK SMILES IDX 4 1 5 2 7 3 8 4 9 5 6 6 3 8 2 9 1 10
REMARK H PARENT 6 7
REMARK Flexibility Score: inf
ROOT
ATOM      1  C   UNL     1     -37.098  20.337   7.339  1.00  0.00     0.036 C 
ENDROOT
BRANCH   1   2
ATOM      2  C   UNL     1     -38.111  21.323   6.724  1.00  0.00     0.114 C 
BRANCH   2   3
ATOM      3  C   UNL     1     -37.908  21.507   5.204  1.00  0.00     0.031 C 
BRANCH   3   4
ATOM      4  C   UNL     1     -36.963  22.649   4.779  1.00  0.00    -0.001 C 
ATOM      5  C   UNL     1     -37.696  23.876   4.237  1.00  0.00     0.004 C 
ENDBRANCH   3   4
ENDBRANCH   2   3
BRANCH   2   6
ATOM      6  O   UNL     1     -38.040  22.569   7.368  1.00  0.00    -0.393 OA
ATOM      7  H   UNL     1     -37.737  22.404   8.300  1.00  0.00     0.210 HD
ENDBRANCH   2   6
ENDBRANCH   1   2
BRANCH   1   8
ATOM      8  C   UNL     1     -36.194  21.019   8.376  1.00  0.00     0.029 C 
BRANCH   8   9
ATOM      9  C   UNL     1     -34.788  21.164   7.860  1.00  0.00    -0.035 C 
ATOM     10  C   UNL     1     -34.384  22.262   7.216  1.00  0.00     0.004 C 
ENDBRANCH   8   9
ENDBRANCH   1   8
TORSDOF 6
ENDMDL
MODEL 3
REMARK VINA RESULT:    -3.493      0.859      3.715
REMARK INTER + INTRA:          -5.043
REMARK INTER:                  -4.689
REMARK INTRA:                  -0.354
REMARK UNBOUND:                -0.427
REMARK SMILES C=CCC[C@@H](O)CCC
REMARK SMILES IDX 4 1 5 2 7 3 8 4 9 5 6 6 3 8 2 9 1 10
REMARK H PARENT 6 7
REMARK Flexibility Score: inf
ROOT
ATOM      1  C   UNL     1     -37.000  22.700   4.878  1.00  0.00     0.036 C 
ENDROOT
BRANCH   1   2
ATOM      2  C   UNL     1     -37.739  21.379   5.175  1.00  0.00     0.114 C 
BRANCH   2   3
ATOM      3  C   UNL     1     -38.063  21.207   6.676  1.00  0.00     0.031 C 
BRANCH   3   4
ATOM      4  C   UNL     1     -36.946  21.607   7.661  1.00  0.00    -0.001 C 
ATOM      5  C   UNL     1     -36.284  20.414   8.348  1.00  0.00     0.004 C 
ENDBRANCH   3   4
ENDBRANCH   2   3
BRANCH   2   6
ATOM      6  O   UNL     1     -36.989  20.282   4.721  1.00  0.00    -0.393 OA
ATOM      7  H   UNL     1     -37.023  20.290   3.728  1.00  0.00     0.210 HD
ENDBRANCH   2   6
ENDBRANCH   1   2
BRANCH   1   8
ATOM      8  C   UNL     1     -37.932  23.747   4.252  1.00  0.00     0.029 C 
BRANCH   8   9
ATOM      9  C   UNL     1     -38.125  24.922   5.172  1.00  0.00    -0.035 C 
ATOM     10  C   UNL     1     -38.125  24.785   6.501  1.00  0.00     0.004 C 
ENDBRANCH   8   9
ENDBRANCH   1   8
TORSDOF 6
ENDMDL
MODEL 4
REMARK VINA RESULT:    -3.397      1.973      4.043
REMARK INTER + INTRA:          -4.916
REMARK INTER:                  -4.508
REMARK INTRA:                  -0.409
REMARK UNBOUND:                -0.427
REMARK SMILES C=CCC[C@@H](O)CCC
REMARK SMILES IDX 4 1 5 2 7 3 8 4 9 5 6 6 3 8 2 9 1 10
REMARK H PARENT 6 7
REMARK Flexibility Score: inf
ROOT
ATOM      1  C   UNL     1     -37.853  20.673   6.223  1.00  0.00     0.036 C 
ENDROOT
BRANCH   1   2
ATOM      2  C   UNL     1     -37.197  21.401   7.414  1.00  0.00     0.114 C 
BRANCH   2   3
ATOM      3  C   UNL     1     -35.952  20.658   7.948  1.00  0.00     0.031 C 
BRANCH   3   4
ATOM      4  C   UNL     1     -34.644  21.473   7.994  1.00  0.00    -0.001 C 
ATOM      5  C   UNL     1     -34.358  22.240   6.704  1.00  0.00     0.004 C 
ENDBRANCH   3   4
ENDBRANCH   2   3
BRANCH   2   6
ATOM      6  O   UNL     1     -38.125  21.583   8.453  1.00  0.00    -0.393 OA
ATOM      7  H   UNL     1     -37.735  21.181   9.273  1.00  0.00     0.210 HD
ENDBRANCH   2   6
ENDBRANCH   1   2
BRANCH   1   8
ATOM      8  C   UNL     1     -37.572  21.386   4.893  1.00  0.00     0.029 C 
BRANCH   8   9
ATOM      9  C   UNL     1     -37.380  22.864   5.098  1.00  0.00    -0.035 C 
ATOM     10  C   UNL     1     -38.041  23.768   4.370  1.00  0.00     0.004 C 
ENDBRANCH   8   9
ENDBRANCH   1   8
TORSDOF 6
ENDMDL
MODEL 5
REMARK VINA RESULT:    -3.328      2.028      4.360
REMARK INTER + INTRA:          -4.825
REMARK INTER:                  -4.695
REMARK INTRA:                  -0.130
REMARK UNBOUND:                -0.427
REMARK SMILES C=CCC[C@@H](O)CCC
REMARK SMILES IDX 4 1 5 2 7 3 8 4 9 5 6 6 3 8 2 9 1 10
REMARK H PARENT 6 7
REMARK Flexibility Score: inf
ROOT
ATOM      1  C   UNL     1     -36.124  22.838   7.259  1.00  0.00     0.036 C 
ENDROOT
BRANCH   1   2
ATOM      2  C   UNL     1     -35.949  21.308   7.351  1.00  0.00     0.114 C 
BRANCH   2   3
ATOM      3  C   UNL     1     -37.274  20.546   7.127  1.00  0.00     0.031 C 
BRANCH   3   4
ATOM      4  C   UNL     1     -38.100  20.236   8.391  1.00  0.00    -0.001 C 
ATOM      5  C   UNL     1     -38.125  18.752   8.754  1.00  0.00     0.004 C 
ENDBRANCH   3   4
ENDBRANCH   2   3
BRANCH   2   6
ATOM      6  O   UNL     1     -35.397  20.950   8.592  1.00  0.00    -0.393 OA
ATOM      7  H   UNL     1     -34.557  21.468   8.703  1.00  0.00     0.210 HD
ENDBRANCH   2   6
ENDBRANCH   1   2
BRANCH   1   8
ATOM      8  C   UNL     1     -37.407  23.221   6.507  1.00  0.00     0.029 C 
BRANCH   8   9
ATOM      9  C   UNL     1     -37.166  23.294   5.024  1.00  0.00    -0.035 C 
ATOM     10  C   UNL     1     -37.823  24.159   4.246  1.00  0.00     0.004 C 
ENDBRANCH   8   9
ENDBRANCH   1   8
TORSDOF 6
ENDMDL
MODEL 6
REMARK VINA RESULT:    -1.934     19.010     19.656
REMARK INTER + INTRA:          -2.982
REMARK INTER:                  -2.750
REMARK INTRA:                  -0.233
REMARK UNBOUND:                -0.427
REMARK SMILES C=CCC[C@@H](O)CCC
REMARK SMILES IDX 4 1 5 2 7 3 8 4 9 5 6 6 3 8 2 9 1 10
REMARK H PARENT 6 7
REMARK Flexibility Score: inf
ROOT
ATOM      1  C   UNL     1     -19.848  29.376   9.114  1.00  0.00     0.036 C 
ENDROOT
BRANCH   1   2
ATOM      2  C   UNL     1     -18.817  28.659   8.218  1.00  0.00     0.114 C 
BRANCH   2   3
ATOM      3  C   UNL     1     -19.479  27.688   7.216  1.00  0.00     0.031 C 
BRANCH   3   4
ATOM      4  C   UNL     1     -20.486  28.313   6.229  1.00  0.00    -0.001 C 
ATOM      5  C   UNL     1     -21.288  27.278   5.441  1.00  0.00     0.004 C 
ENDBRANCH   3   4
ENDBRANCH   2   3
BRANCH   2   6
ATOM      6  O   UNL     1     -17.879  27.968   9.003  1.00  0.00    -0.393 OA
ATOM      7  H   UNL     1     -17.682  27.110   8.542  1.00  0.00     0.210 HD
ENDBRANCH   2   6
ENDBRANCH   1   2
BRANCH   1   8
ATOM      8  C   UNL     1     -19.635  30.896   9.125  1.00  0.00     0.029 C 
BRANCH   8   9
ATOM      9  C   UNL     1     -18.254  31.256   8.650  1.00  0.00    -0.035 C 
ATOM     10  C   UNL     1     -17.912  32.516   8.368  1.00  0.00     0.004 C 
ENDBRANCH   8   9
ENDBRANCH   1   8
TORSDOF 6
ENDMDL
MODEL 7
REMARK VINA RESULT:    -1.686     18.924     19.511
REMARK INTER + INTRA:          -2.655
REMARK INTER:                  -2.337
REMARK INTRA:                  -0.318
REMARK UNBOUND:                -0.427
REMARK SMILES C=CCC[C@@H](O)CCC
REMARK SMILES IDX 4 1 5 2 7 3 8 4 9 5 6 6 3 8 2 9 1 10
REMARK H PARENT 6 7
REMARK Flexibility Score: inf
ROOT
ATOM      1  C   UNL     1     -20.205  29.367   7.918  1.00  0.00     0.036 C 
ENDROOT
BRANCH   1   2
ATOM      2  C   UNL     1     -18.985  28.863   8.715  1.00  0.00     0.114 C 
BRANCH   2   3
ATOM      3  C   UNL     1     -18.018  30.004   9.101  1.00  0.00     0.031 C 
BRANCH   3   4
ATOM      4  C   UNL     1     -18.597  31.431   9.047  1.00  0.00    -0.001 C 
ATOM      5  C   UNL     1     -17.875  32.344   8.056  1.00  0.00     0.004 C 
ENDBRANCH   3   4
ENDBRANCH   2   3
BRANCH   2   6
ATOM      6  O   UNL     1     -18.294  27.879   7.988  1.00  0.00    -0.393 OA
ATOM      7  H   UNL     1     -18.960  27.200   7.701  1.00  0.00     0.210 HD
ENDBRANCH   2   6
ENDBRANCH   1   2
BRANCH   1   8
ATOM      8  C   UNL     1     -20.052  29.107   6.413  1.00  0.00     0.029 C 
BRANCH   8   9
ATOM      9  C   UNL     1     -21.217  28.322   5.875  1.00  0.00    -0.035 C 
ATOM     10  C   UNL     1     -21.071  27.085   5.392  1.00  0.00     0.004 C 
ENDBRANCH   8   9
ENDBRANCH   1   8
TORSDOF 6
ENDMDL
