MODEL 1
REMARK VINA RESULT:    -3.984      0.000      0.000
REMARK INTER + INTRA:          -7.533
REMARK INTER:                  -6.081
REMARK INTRA:                  -1.452
REMARK UNBOUND:                -1.452
REMARK SMILES OC[C@@H]1O[C@@](CO)(O[C@@H]2O[C@H](CO)[C@@H](O)[C@H](O)[C@H]2O)[C@H](O)[C@H]1O
REMARK SMILES IDX 8 1 9 2 11 3 14 4 10 5 16 6 18 7 12 8 13 9 15 11 17 13 19 15
REMARK SMILES IDX 5 17 20 18 4 19 22 20 3 21 6 22 7 23 21 25 23 27 2 29 1 30
REMARK H PARENT 13 10 15 12 17 14 19 16 7 24 21 26 23 28 1 31
REMARK Flexibility Score: inf
ROOT
ATOM      1  O   UNL     1     -29.204   5.752 -10.307  1.00  0.00    -0.313 OA
ENDROOT
BRANCH   1   2
ATOM      2  C   UNL     1     -28.768   4.700 -11.144  1.00  0.00     0.285 C 
ATOM      3  C   UNL     1     -28.898   2.373 -11.415  1.00  0.00     0.178 C 
ATOM      4  C   UNL     1     -27.458   2.391 -12.020  1.00  0.00     0.177 C 
ATOM      5  O   UNL     1     -29.137   3.476 -10.540  1.00  0.00    -0.341 OA
ATOM      6  C   UNL     1     -26.577   3.374 -11.207  1.00  0.00     0.179 C 
ATOM      7  C   UNL     1     -27.218   4.787 -11.224  1.00  0.00     0.202 C 
BRANCH   3   8
ATOM      8  C   UNL     1     -29.140   1.059 -10.635  1.00  0.00     0.191 C 
BRANCH   8   9
ATOM      9  O   UNL     1     -27.920   0.446 -10.283  1.00  0.00    -0.394 OA
ATOM     10  H   UNL     1     -27.813   0.517  -9.302  1.00  0.00     0.210 HD
ENDBRANCH   8   9
ENDBRANCH   3   8
BRANCH   4  11
ATOM     11  O   UNL     1     -27.536   2.743 -13.386  1.00  0.00    -0.387 OA
ATOM     12  H   UNL     1     -28.036   2.016 -13.847  1.00  0.00     0.211 HD
ENDBRANCH   4  11
BRANCH   6  13
ATOM     13  O   UNL     1     -26.460   2.898  -9.880  1.00  0.00    -0.387 OA
ATOM     14  H   UNL     1     -26.951   3.527  -9.286  1.00  0.00     0.211 HD
ENDBRANCH   6  13
BRANCH   7  15
ATOM     15  O   UNL     1     -26.806   5.465 -12.382  1.00  0.00    -0.385 OA
ATOM     16  H   UNL     1     -26.930   4.850 -13.146  1.00  0.00     0.211 HD
ENDBRANCH   7  15
ENDBRANCH   1   2
BRANCH   1  17
ATOM     17  C   UNL     1     -30.290   6.538 -10.804  1.00  0.00     0.224 C 
ATOM     18  C   UNL     1     -30.195   7.893 -10.066  1.00  0.00     0.208 C 
ATOM     19  O   UNL     1     -30.113   6.826 -12.182  1.00  0.00    -0.337 OA
ATOM     20  C   UNL     1     -29.150   8.617 -10.880  1.00  0.00     0.180 C 
ATOM     21  C   UNL     1     -29.299   7.981 -12.276  1.00  0.00     0.179 C 
BRANCH  17  22
ATOM     22  C   UNL     1     -31.653   5.842 -10.540  1.00  0.00     0.225 C 
BRANCH  22  23
ATOM     23  O   UNL     1     -32.581   6.092 -11.557  1.00  0.00    -0.391 OA
ATOM     24  H   UNL     1     -33.459   6.218 -11.128  1.00  0.00     0.210 HD
ENDBRANCH  22  23
ENDBRANCH  17  22
BRANCH  18  25
ATOM     25  O   UNL     1     -31.408   8.622 -10.139  1.00  0.00    -0.385 OA
ATOM     26  H   UNL     1     -31.965   8.195 -10.836  1.00  0.00     0.211 HD
ENDBRANCH  18  25
BRANCH  20  27
ATOM     27  O   UNL     1     -27.879   8.347 -10.351  1.00  0.00    -0.387 OA
ATOM     28  H   UNL     1     -27.899   7.402 -10.026  1.00  0.00     0.211 HD
ENDBRANCH  20  27
BRANCH  21  29
ATOM     29  C   UNL     1     -29.914   8.958 -13.280  1.00  0.00     0.191 C 
BRANCH  29  30
ATOM     30  O   UNL     1     -31.309   8.808 -13.323  1.00  0.00    -0.394 OA
ATOM     31  H   UNL     1     -31.610   8.910 -12.372  1.00  0.00     0.210 HD
ENDBRANCH  29  30
ENDBRANCH  21  29
ENDBRANCH   1  17
TORSDOF 13
ENDMDL
MODEL 2
REMARK VINA RESULT:    -3.495      1.394      5.980
REMARK INTER + INTRA:          -6.786
REMARK INTER:                  -5.601
REMARK INTRA:                  -1.185
REMARK UNBOUND:                -1.452
REMARK SMILES OC[C@@H]1O[C@@](CO)(O[C@@H]2O[C@H](CO)[C@@H](O)[C@H](O)[C@H]2O)[C@H](O)[C@H]1O
REMARK SMILES IDX 8 1 9 2 11 3 14 4 10 5 16 6 18 7 12 8 13 9 15 11 17 13 19 15
REMARK SMILES IDX 5 17 20 18 4 19 22 20 3 21 6 22 7 23 21 25 23 27 2 29 1 30
REMARK H PARENT 13 10 15 12 17 14 19 16 7 24 21 26 23 28 1 31
REMARK Flexibility Score: inf
ROOT
ATOM      1  O   UNL     1     -28.158   5.092 -12.012  1.00  0.00    -0.313 OA
ENDROOT
BRANCH   1   2
ATOM      2  C   UNL     1     -28.652   6.266 -11.398  1.00  0.00     0.285 C 
ATOM      3  C   UNL     1     -30.648   7.373 -10.857  1.00  0.00     0.178 C 
ATOM      4  C   UNL     1     -29.912   8.737 -11.054  1.00  0.00     0.177 C 
ATOM      5  O   UNL     1     -30.049   6.316 -11.607  1.00  0.00    -0.341 OA
ATOM      6  C   UNL     1     -28.989   8.642 -12.295  1.00  0.00     0.179 C 
ATOM      7  C   UNL     1     -27.982   7.475 -12.109  1.00  0.00     0.202 C 
BRANCH   3   8
ATOM      8  C   UNL     1     -32.133   7.496 -11.271  1.00  0.00     0.191 C 
BRANCH   8   9
ATOM      9  O   UNL     1     -32.296   7.263 -12.652  1.00  0.00    -0.394 OA
ATOM     10  H   UNL     1     -31.424   6.975 -13.020  1.00  0.00     0.210 HD
ENDBRANCH   8   9
ENDBRANCH   3   8
BRANCH   4  11
ATOM     11  O   UNL     1     -29.200   9.051  -9.875  1.00  0.00    -0.387 OA
ATOM     12  H   UNL     1     -28.607   9.822 -10.087  1.00  0.00     0.211 HD
ENDBRANCH   4  11
BRANCH   6  13
ATOM     13  O   UNL     1     -29.783   8.433 -13.446  1.00  0.00    -0.387 OA
ATOM     14  H   UNL     1     -29.253   7.887 -14.087  1.00  0.00     0.211 HD
ENDBRANCH   6  13
BRANCH   7  15
ATOM     15  O   UNL     1     -26.871   7.937 -11.386  1.00  0.00    -0.385 OA
ATOM     16  H   UNL     1     -26.146   7.275 -11.500  1.00  0.00     0.211 HD
ENDBRANCH   7  15
ENDBRANCH   1   2
BRANCH   1  17
ATOM     17  C   UNL     1     -28.062   3.940 -11.172  1.00  0.00     0.224 C 
ATOM     18  C   UNL     1     -28.585   2.760 -12.022  1.00  0.00     0.208 C 
ATOM     19  O   UNL     1     -26.707   3.643 -10.877  1.00  0.00    -0.337 OA
ATOM     20  C   UNL     1     -27.368   2.404 -12.841  1.00  0.00     0.180 C 
ATOM     21  C   UNL     1     -26.202   2.850 -11.936  1.00  0.00     0.179 C 
BRANCH  17  22
ATOM     22  C   UNL     1     -28.899   4.120  -9.875  1.00  0.00     0.225 C 
BRANCH  22  23
ATOM     23  O   UNL     1     -30.227   3.713 -10.042  1.00  0.00    -0.391 OA
ATOM     24  H   UNL     1     -30.413   3.032  -9.354  1.00  0.00     0.210 HD
ENDBRANCH  22  23
ENDBRANCH  17  22
BRANCH  18  25
ATOM     25  O   UNL     1     -28.933   1.643 -11.222  1.00  0.00    -0.385 OA
ATOM     26  H   UNL     1     -29.690   1.920 -10.647  1.00  0.00     0.211 HD
ENDBRANCH  18  25
BRANCH  20  27
ATOM     27  O   UNL     1     -27.377   3.143 -14.033  1.00  0.00    -0.387 OA
ATOM     28  H   UNL     1     -27.433   2.481 -14.779  1.00  0.00     0.211 HD
ENDBRANCH  20  27
BRANCH  21  29
ATOM     29  C   UNL     1     -25.442   1.653 -11.363  1.00  0.00     0.191 C 
BRANCH  29  30
ATOM     30  O   UNL     1     -26.067   0.451 -11.728  1.00  0.00    -0.394 OA
ATOM     31  H   UNL     1     -26.387   0.600 -12.667  1.00  0.00     0.210 HD
ENDBRANCH  29  30
ENDBRANCH  21  29
ENDBRANCH   1  17
TORSDOF 13
ENDMDL
MODEL 3
REMARK VINA RESULT:    -3.381      8.283     11.643
REMARK INTER + INTRA:          -6.612
REMARK INTER:                  -5.860
REMARK INTRA:                  -0.752
REMARK UNBOUND:                -1.452
REMARK SMILES OC[C@@H]1O[C@@](CO)(O[C@@H]2O[C@H](CO)[C@@H](O)[C@H](O)[C@H]2O)[C@H](O)[C@H]1O
REMARK SMILES IDX 8 1 9 2 11 3 14 4 10 5 16 6 18 7 12 8 13 9 15 11 17 13 19 15
REMARK SMILES IDX 5 17 20 18 4 19 22 20 3 21 6 22 7 23 21 25 23 27 2 29 1 30
REMARK H PARENT 13 10 15 12 17 14 19 16 7 24 21 26 23 28 1 31
REMARK Flexibility Score: inf
ROOT
ATOM      1  O   UNL     1     -21.785  -2.929 -11.618  1.00  0.00    -0.313 OA
ENDROOT
BRANCH   1   2
ATOM      2  C   UNL     1     -20.420  -2.757 -11.942  1.00  0.00     0.285 C 
ATOM      3  C   UNL     1     -18.904  -2.924 -13.724  1.00  0.00     0.178 C 
ATOM      4  C   UNL     1     -17.793  -3.334 -12.705  1.00  0.00     0.177 C 
ATOM      5  O   UNL     1     -20.217  -3.235 -13.256  1.00  0.00    -0.341 OA
ATOM      6  C   UNL     1     -18.398  -4.305 -11.658  1.00  0.00     0.179 C 
ATOM      7  C   UNL     1     -19.598  -3.624 -10.947  1.00  0.00     0.202 C 
BRANCH   3   8
ATOM      8  C   UNL     1     -18.680  -3.631 -15.081  1.00  0.00     0.191 C 
BRANCH   8   9
ATOM      9  O   UNL     1     -18.167  -4.931 -14.897  1.00  0.00    -0.394 OA
ATOM     10  H   UNL     1     -17.825  -5.253 -15.769  1.00  0.00     0.210 HD
ENDBRANCH   8   9
ENDBRANCH   3   8
BRANCH   4  11
ATOM     11  O   UNL     1     -17.258  -2.169 -12.113  1.00  0.00    -0.387 OA
ATOM     12  H   UNL     1     -17.765  -1.394 -12.480  1.00  0.00     0.211 HD
ENDBRANCH   4  11
BRANCH   6  13
ATOM     13  O   UNL     1     -18.814  -5.487 -12.312  1.00  0.00    -0.387 OA
ATOM     14  H   UNL     1     -18.050  -5.822 -12.854  1.00  0.00     0.211 HD
ENDBRANCH   6  13
BRANCH   7  15
ATOM     15  O   UNL     1     -19.121  -2.854  -9.875  1.00  0.00    -0.385 OA
ATOM     16  H   UNL     1     -19.833  -2.824  -9.191  1.00  0.00     0.211 HD
ENDBRANCH   7  15
ENDBRANCH   1   2
BRANCH   1  17
ATOM     17  C   UNL     1     -22.659  -1.867 -12.009  1.00  0.00     0.224 C 
ATOM     18  C   UNL     1     -24.005  -2.542 -12.360  1.00  0.00     0.208 C 
ATOM     19  O   UNL     1     -22.924  -1.005 -10.914  1.00  0.00    -0.337 OA
ATOM     20  C   UNL     1     -24.632  -2.709 -10.998  1.00  0.00     0.180 C 
ATOM     21  C   UNL     1     -24.005  -1.558 -10.186  1.00  0.00     0.179 C 
BRANCH  17  22
ATOM     22  C   UNL     1     -22.083  -1.085 -13.221  1.00  0.00     0.225 C 
BRANCH  22  23
ATOM     23  O   UNL     1     -22.554   0.232 -13.273  1.00  0.00    -0.391 OA
ATOM     24  H   UNL     1     -22.670   0.538 -12.343  1.00  0.00     0.210 HD
ENDBRANCH  22  23
ENDBRANCH  17  22
BRANCH  18  25
ATOM     25  O   UNL     1     -24.834  -1.698 -13.138  1.00  0.00    -0.385 OA
ATOM     26  H   UNL     1     -25.618  -1.463 -12.582  1.00  0.00     0.211 HD
ENDBRANCH  18  25
BRANCH  20  27
ATOM     27  O   UNL     1     -24.258  -3.950 -10.461  1.00  0.00    -0.387 OA
ATOM     28  H   UNL     1     -24.942  -4.181  -9.770  1.00  0.00     0.211 HD
ENDBRANCH  20  27
BRANCH  21  29
ATOM     29  C   UNL     1     -25.027  -0.463  -9.875  1.00  0.00     0.191 C 
BRANCH  29  30
ATOM     30  O   UNL     1     -25.559   0.065 -11.062  1.00  0.00    -0.394 OA
ATOM     31  H   UNL     1     -25.447  -0.664 -11.742  1.00  0.00     0.210 HD
ENDBRANCH  29  30
ENDBRANCH  21  29
ENDBRANCH   1  17
TORSDOF 13
ENDMDL
MODEL 4
REMARK VINA RESULT:    -3.140      1.353      5.964
REMARK INTER + INTRA:          -6.244
REMARK INTER:                  -5.214
REMARK INTRA:                  -1.030
REMARK UNBOUND:                -1.452
REMARK SMILES OC[C@@H]1O[C@@](CO)(O[C@@H]2O[C@H](CO)[C@@H](O)[C@H](O)[C@H]2O)[C@H](O)[C@H]1O
REMARK SMILES IDX 8 1 9 2 11 3 14 4 10 5 16 6 18 7 12 8 13 9 15 11 17 13 19 15
REMARK SMILES IDX 5 17 20 18 4 19 22 20 3 21 6 22 7 23 21 25 23 27 2 29 1 30
REMARK H PARENT 13 10 15 12 17 14 19 16 7 24 21 26 23 28 1 31
REMARK Flexibility Score: inf
ROOT
ATOM      1  O   UNL     1     -28.829   4.981 -12.565  1.00  0.00    -0.313 OA
ENDROOT
BRANCH   1   2
ATOM      2  C   UNL     1     -29.018   6.196 -11.866  1.00  0.00     0.285 C 
ATOM      3  C   UNL     1     -30.653   7.459 -10.754  1.00  0.00     0.178 C 
ATOM      4  C   UNL     1     -29.927   8.760 -11.224  1.00  0.00     0.177 C 
ATOM      5  O   UNL     1     -30.401   6.351 -11.619  1.00  0.00    -0.341 OA
ATOM      6  C   UNL     1     -29.461   8.581 -12.691  1.00  0.00     0.179 C 
ATOM      7  C   UNL     1     -28.531   7.343 -12.796  1.00  0.00     0.202 C 
BRANCH   3   8
ATOM      8  C   UNL     1     -32.180   7.690 -10.675  1.00  0.00     0.191 C 
BRANCH   8   9
ATOM      9  O   UNL     1     -32.843   7.077 -11.758  1.00  0.00    -0.394 OA
ATOM     10  H   UNL     1     -32.622   7.583 -12.580  1.00  0.00     0.210 HD
ENDBRANCH   8   9
ENDBRANCH   3   8
BRANCH   4  11
ATOM     11  O   UNL     1     -28.854   9.031 -10.347  1.00  0.00    -0.387 OA
ATOM     12  H   UNL     1     -28.965   9.968 -10.028  1.00  0.00     0.211 HD
ENDBRANCH   4  11
BRANCH   6  13
ATOM     13  O   UNL     1     -30.595   8.421 -13.519  1.00  0.00    -0.387 OA
ATOM     14  H   UNL     1     -31.143   9.248 -13.451  1.00  0.00     0.211 HD
ENDBRANCH   6  13
BRANCH   7  15
ATOM     15  O   UNL     1     -27.217   7.726 -12.484  1.00  0.00    -0.385 OA
ATOM     16  H   UNL     1     -26.795   6.975 -12.001  1.00  0.00     0.211 HD
ENDBRANCH   7  15
ENDBRANCH   1   2
BRANCH   1  17
ATOM     17  C   UNL     1     -27.828   4.107 -12.040  1.00  0.00     0.224 C 
ATOM     18  C   UNL     1     -27.882   4.285 -10.505  1.00  0.00     0.208 C 
ATOM     19  O   UNL     1     -28.161   2.752 -12.292  1.00  0.00    -0.337 OA
ATOM     20  C   UNL     1     -29.029   3.380 -10.129  1.00  0.00     0.180 C 
ATOM     21  C   UNL     1     -29.014   2.320 -11.247  1.00  0.00     0.179 C 
BRANCH  17  22
ATOM     22  C   UNL     1     -26.424   4.460 -12.604  1.00  0.00     0.225 C 
BRANCH  22  23
ATOM     23  O   UNL     1     -25.558   3.361 -12.596  1.00  0.00    -0.391 OA
ATOM     24  H   UNL     1     -24.848   3.552 -11.940  1.00  0.00     0.210 HD
ENDBRANCH  22  23
ENDBRANCH  17  22
BRANCH  18  25
ATOM     25  O   UNL     1     -26.706   3.808  -9.875  1.00  0.00    -0.385 OA
ATOM     26  H   UNL     1     -26.519   4.409  -9.111  1.00  0.00     0.211 HD
ENDBRANCH  18  25
BRANCH  20  27
ATOM     27  O   UNL     1     -30.227   4.110 -10.161  1.00  0.00    -0.387 OA
ATOM     28  H   UNL     1     -30.148   4.820  -9.462  1.00  0.00     0.211 HD
ENDBRANCH  20  27
BRANCH  21  29
ATOM     29  C   UNL     1     -28.541   0.960 -10.730  1.00  0.00     0.191 C 
BRANCH  29  30
ATOM     30  O   UNL     1     -27.141   0.869 -10.791  1.00  0.00    -0.394 OA
ATOM     31  H   UNL     1     -26.921   0.925 -11.768  1.00  0.00     0.210 HD
ENDBRANCH  29  30
ENDBRANCH  21  29
ENDBRANCH   1  17
TORSDOF 13
ENDMDL
MODEL 5
REMARK VINA RESULT:    -2.922      1.593      5.840
REMARK INTER + INTRA:          -5.912
REMARK INTER:                  -4.663
REMARK INTRA:                  -1.249
REMARK UNBOUND:                -1.452
REMARK SMILES OC[C@@H]1O[C@@](CO)(O[C@@H]2O[C@H](CO)[C@@H](O)[C@H](O)[C@H]2O)[C@H](O)[C@H]1O
REMARK SMILES IDX 8 1 9 2 11 3 14 4 10 5 16 6 18 7 12 8 13 9 15 11 17 13 19 15
REMARK SMILES IDX 5 17 20 18 4 19 22 20 3 21 6 22 7 23 21 25 23 27 2 29 1 30
REMARK H PARENT 13 10 15 12 17 14 19 16 7 24 21 26 23 28 1 31
REMARK Flexibility Score: inf
ROOT
ATOM      1  O   UNL     1     -28.974   5.265 -12.460  1.00  0.00    -0.313 OA
ENDROOT
BRANCH   1   2
ATOM      2  C   UNL     1     -29.711   6.192 -11.688  1.00  0.00     0.285 C 
ATOM      3  C   UNL     1     -31.552   6.349 -10.242  1.00  0.00     0.178 C 
ATOM      4  C   UNL     1     -31.817   7.791 -10.781  1.00  0.00     0.177 C 
ATOM      5  O   UNL     1     -30.856   5.533 -11.185  1.00  0.00    -0.341 OA
ATOM      6  C   UNL     1     -31.597   7.809 -12.315  1.00  0.00     0.179 C 
ATOM      7  C   UNL     1     -30.154   7.337 -12.641  1.00  0.00     0.202 C 
BRANCH   3   8
ATOM      8  C   UNL     1     -32.885   5.656  -9.875  1.00  0.00     0.191 C 
BRANCH   8   9
ATOM      9  O   UNL     1     -33.209   4.651 -10.809  1.00  0.00    -0.394 OA
ATOM     10  H   UNL     1     -32.451   4.562 -11.440  1.00  0.00     0.210 HD
ENDBRANCH   8   9
ENDBRANCH   3   8
BRANCH   4  11
ATOM     11  O   UNL     1     -30.971   8.698 -10.104  1.00  0.00    -0.387 OA
ATOM     12  H   UNL     1     -30.048   8.329 -10.151  1.00  0.00     0.211 HD
ENDBRANCH   4  11
BRANCH   6  13
ATOM     13  O   UNL     1     -32.547   6.960 -12.927  1.00  0.00    -0.387 OA
ATOM     14  H   UNL     1     -32.071   6.144 -13.240  1.00  0.00     0.211 HD
ENDBRANCH   6  13
BRANCH   7  15
ATOM     15  O   UNL     1     -29.282   8.433 -12.559  1.00  0.00    -0.385 OA
ATOM     16  H   UNL     1     -28.362   8.077 -12.502  1.00  0.00     0.211 HD
ENDBRANCH   7  15
ENDBRANCH   1   2
BRANCH   1  17
ATOM     17  C   UNL     1     -27.663   4.955 -11.982  1.00  0.00     0.224 C 
ATOM     18  C   UNL     1     -27.874   4.160 -10.673  1.00  0.00     0.208 C 
ATOM     19  O   UNL     1     -26.996   4.077 -12.874  1.00  0.00    -0.337 OA
ATOM     20  C   UNL     1     -28.135   2.769 -11.195  1.00  0.00     0.180 C 
ATOM     21  C   UNL     1     -27.377   2.755 -12.537  1.00  0.00     0.179 C 
BRANCH  17  22
ATOM     22  C   UNL     1     -26.836   6.248 -11.735  1.00  0.00     0.225 C 
BRANCH  22  23
ATOM     23  O   UNL     1     -26.630   6.976 -12.912  1.00  0.00    -0.391 OA
ATOM     24  H   UNL     1     -26.853   7.916 -12.716  1.00  0.00     0.210 HD
ENDBRANCH  22  23
ENDBRANCH  17  22
BRANCH  18  25
ATOM     25  O   UNL     1     -26.703   4.131  -9.877  1.00  0.00    -0.385 OA
ATOM     26  H   UNL     1     -26.126   4.878 -10.175  1.00  0.00     0.211 HD
ENDBRANCH  18  25
BRANCH  20  27
ATOM     27  O   UNL     1     -29.512   2.602 -11.406  1.00  0.00    -0.387 OA
ATOM     28  H   UNL     1     -29.974   3.033 -10.633  1.00  0.00     0.211 HD
ENDBRANCH  20  27
BRANCH  21  29
ATOM     29  C   UNL     1     -26.135   1.865 -12.476  1.00  0.00     0.191 C 
BRANCH  29  30
ATOM     30  O   UNL     1     -26.346   0.784 -11.605  1.00  0.00    -0.394 OA
ATOM     31  H   UNL     1     -27.293   0.499 -11.771  1.00  0.00     0.210 HD
ENDBRANCH  29  30
ENDBRANCH  21  29
ENDBRANCH   1  17
TORSDOF 13
ENDMDL
MODEL 6
REMARK VINA RESULT:    -2.534      4.348      8.858
REMARK INTER + INTRA:          -5.319
REMARK INTER:                  -4.095
REMARK INTRA:                  -1.225
REMARK UNBOUND:                -1.452
REMARK SMILES OC[C@@H]1O[C@@](CO)(O[C@@H]2O[C@H](CO)[C@@H](O)[C@H](O)[C@H]2O)[C@H](O)[C@H]1O
REMARK SMILES IDX 8 1 9 2 11 3 14 4 10 5 16 6 18 7 12 8 13 9 15 11 17 13 19 15
REMARK SMILES IDX 5 17 20 18 4 19 22 20 3 21 6 22 7 23 21 25 23 27 2 29 1 30
REMARK H PARENT 13 10 15 12 17 14 19 16 7 24 21 26 23 28 1 31
REMARK Flexibility Score: inf
ROOT
ATOM      1  O   UNL     1     -24.894  -0.190 -12.125  1.00  0.00    -0.313 OA
ENDROOT
BRANCH   1   2
ATOM      2  C   UNL     1     -25.554   0.883 -11.484  1.00  0.00     0.285 C 
ATOM      3  C   UNL     1     -27.606   1.486 -10.520  1.00  0.00     0.178 C 
ATOM      4  C   UNL     1     -27.364   2.956 -10.992  1.00  0.00     0.177 C 
ATOM      5  O   UNL     1     -26.914   0.533 -11.327  1.00  0.00    -0.341 OA
ATOM      6  C   UNL     1     -26.763   2.939 -12.420  1.00  0.00     0.179 C 
ATOM      7  C   UNL     1     -25.446   2.117 -12.423  1.00  0.00     0.202 C 
BRANCH   3   8
ATOM      8  C   UNL     1     -29.116   1.153 -10.544  1.00  0.00     0.191 C 
BRANCH   8   9
ATOM      9  O   UNL     1     -29.806   1.984 -11.450  1.00  0.00    -0.394 OA
ATOM     10  H   UNL     1     -30.769   1.952 -11.225  1.00  0.00     0.210 HD
ENDBRANCH   8   9
ENDBRANCH   3   8
BRANCH   4  11
ATOM     11  O   UNL     1     -26.523   3.606 -10.061  1.00  0.00    -0.387 OA
ATOM     12  H   UNL     1     -26.715   4.581 -10.123  1.00  0.00     0.211 HD
ENDBRANCH   4  11
BRANCH   6  13
ATOM     13  O   UNL     1     -27.704   2.372 -13.310  1.00  0.00    -0.387 OA
ATOM     14  H   UNL     1     -28.105   1.578 -12.865  1.00  0.00     0.211 HD
ENDBRANCH   6  13
BRANCH   7  15
ATOM     15  O   UNL     1     -24.382   2.952 -12.045  1.00  0.00    -0.385 OA
ATOM     16  H   UNL     1     -24.073   2.654 -11.156  1.00  0.00     0.211 HD
ENDBRANCH   7  15
ENDBRANCH   1   2
BRANCH   1  17
ATOM     17  C   UNL     1     -24.154  -1.068 -11.273  1.00  0.00     0.224 C 
ATOM     18  C   UNL     1     -24.126  -2.430 -12.003  1.00  0.00     0.208 C 
ATOM     19  O   UNL     1     -22.804  -0.648 -11.170  1.00  0.00    -0.337 OA
ATOM     20  C   UNL     1     -22.991  -2.236 -12.978  1.00  0.00     0.180 C 
ATOM     21  C   UNL     1     -22.099  -1.199 -12.267  1.00  0.00     0.179 C 
BRANCH  17  22
ATOM     22  C   UNL     1     -24.821  -1.186  -9.875  1.00  0.00     0.225 C 
BRANCH  22  23
ATOM     23  O   UNL     1     -25.895  -2.083  -9.875  1.00  0.00    -0.391 OA
ATOM     24  H   UNL     1     -25.516  -2.993  -9.909  1.00  0.00     0.210 HD
ENDBRANCH  22  23
ENDBRANCH  17  22
BRANCH  18  25
ATOM     25  O   UNL     1     -23.792  -3.493 -11.128  1.00  0.00    -0.385 OA
ATOM     26  H   UNL     1     -23.112  -4.047 -11.586  1.00  0.00     0.211 HD
ENDBRANCH  18  25
BRANCH  20  27
ATOM     27  O   UNL     1     -23.493  -1.711 -14.178  1.00  0.00    -0.387 OA
ATOM     28  H   UNL     1     -24.489  -1.741 -14.109  1.00  0.00     0.211 HD
ENDBRANCH  20  27
BRANCH  21  29
ATOM     29  C   UNL     1     -20.791  -1.822 -11.774  1.00  0.00     0.191 C 
BRANCH  29  30
ATOM     30  O   UNL     1     -20.986  -2.467 -10.542  1.00  0.00    -0.394 OA
ATOM     31  H   UNL     1     -20.283  -2.086  -9.936  1.00  0.00     0.210 HD
ENDBRANCH  29  30
ENDBRANCH  21  29
ENDBRANCH   1  17
TORSDOF 13
ENDMDL
MODEL 7
REMARK VINA RESULT:    -2.281      1.916      5.271
REMARK INTER + INTRA:          -4.933
REMARK INTER:                  -3.665
REMARK INTRA:                  -1.268
REMARK UNBOUND:                -1.452
REMARK SMILES OC[C@@H]1O[C@@](CO)(O[C@@H]2O[C@H](CO)[C@@H](O)[C@H](O)[C@H]2O)[C@H](O)[C@H]1O
REMARK SMILES IDX 8 1 9 2 11 3 14 4 10 5 16 6 18 7 12 8 13 9 15 11 17 13 19 15
REMARK SMILES IDX 5 17 20 18 4 19 22 20 3 21 6 22 7 23 21 25 23 27 2 29 1 30
REMARK H PARENT 13 10 15 12 17 14 19 16 7 24 21 26 23 28 1 31
REMARK Flexibility Score: inf
ROOT
ATOM      1  O   UNL     1     -29.833   5.842 -12.050  1.00  0.00    -0.313 OA
ENDROOT
BRANCH   1   2
ATOM      2  C   UNL     1     -30.905   6.440 -11.348  1.00  0.00     0.285 C 
ATOM      3  C   UNL     1     -32.825   5.918 -10.105  1.00  0.00     0.178 C 
ATOM      4  C   UNL     1     -33.497   7.219 -10.650  1.00  0.00     0.177 C 
ATOM      5  O   UNL     1     -31.812   5.420 -10.979  1.00  0.00    -0.341 OA
ATOM      6  C   UNL     1     -33.148   7.381 -12.152  1.00  0.00     0.179 C 
ATOM      7  C   UNL     1     -31.607   7.421 -12.329  1.00  0.00     0.202 C 
BRANCH   3   8
ATOM      8  C   UNL     1     -33.884   4.812  -9.892  1.00  0.00     0.191 C 
BRANCH   8   9
ATOM      9  O   UNL     1     -34.057   4.042 -11.059  1.00  0.00    -0.394 OA
ATOM     10  H   UNL     1     -34.898   3.529 -10.968  1.00  0.00     0.210 HD
ENDBRANCH   8   9
ENDBRANCH   3   8
BRANCH   4  11
ATOM     11  O   UNL     1     -33.067   8.319  -9.876  1.00  0.00    -0.387 OA
ATOM     12  H   UNL     1     -33.695   8.401  -9.108  1.00  0.00     0.211 HD
ENDBRANCH   4  11
BRANCH   6  13
ATOM     13  O   UNL     1     -33.703   6.299 -12.873  1.00  0.00    -0.387 OA
ATOM     14  H   UNL     1     -34.617   6.131 -12.519  1.00  0.00     0.211 HD
ENDBRANCH   6  13
BRANCH   7  15
ATOM     15  O   UNL     1     -31.156   8.737 -12.140  1.00  0.00    -0.385 OA
ATOM     16  H   UNL     1     -31.149   9.178 -13.024  1.00  0.00     0.211 HD
ENDBRANCH   7  15
ENDBRANCH   1   2
BRANCH   1  17
ATOM     17  C   UNL     1     -28.581   5.800 -11.362  1.00  0.00     0.224 C 
ATOM     18  C   UNL     1     -27.511   6.146 -12.423  1.00  0.00     0.208 C 
ATOM     19  O   UNL     1     -28.510   6.823 -10.382  1.00  0.00    -0.337 OA
ATOM     20  C   UNL     1     -27.575   7.653 -12.447  1.00  0.00     0.180 C 
ATOM     21  C   UNL     1     -28.060   8.001 -11.026  1.00  0.00     0.179 C 
BRANCH  17  22
ATOM     22  C   UNL     1     -28.331   4.399 -10.738  1.00  0.00     0.225 C 
BRANCH  22  23
ATOM     23  O   UNL     1     -28.793   3.364 -11.560  1.00  0.00    -0.391 OA
ATOM     24  H   UNL     1     -29.551   3.720 -12.080  1.00  0.00     0.210 HD
ENDBRANCH  22  23
ENDBRANCH  17  22
BRANCH  18  25
ATOM     25  O   UNL     1     -26.212   5.756 -12.011  1.00  0.00    -0.385 OA
ATOM     26  H   UNL     1     -26.239   5.638 -11.029  1.00  0.00     0.211 HD
ENDBRANCH  18  25
BRANCH  20  27
ATOM     27  O   UNL     1     -28.517   8.063 -13.402  1.00  0.00    -0.387 OA
ATOM     28  H   UNL     1     -29.397   7.683 -13.118  1.00  0.00     0.211 HD
ENDBRANCH  20  27
BRANCH  21  29
ATOM     29  C   UNL     1     -26.951   8.647 -10.193  1.00  0.00     0.191 C 
BRANCH  29  30
ATOM     30  O   UNL     1     -25.758   8.714 -10.929  1.00  0.00    -0.394 OA
ATOM     31  H   UNL     1     -25.405   7.775 -10.936  1.00  0.00     0.210 HD
ENDBRANCH  29  30
ENDBRANCH  21  29
ENDBRANCH   1  17
TORSDOF 13
ENDMDL
MODEL 8
REMARK VINA RESULT:    -2.067      7.652     10.955
REMARK INTER + INTRA:          -4.607
REMARK INTER:                  -5.498
REMARK INTRA:                   0.891
REMARK UNBOUND:                -1.452
REMARK SMILES OC[C@@H]1O[C@@](CO)(O[C@@H]2O[C@H](CO)[C@@H](O)[C@H](O)[C@H]2O)[C@H](O)[C@H]1O
REMARK SMILES IDX 8 1 9 2 11 3 14 4 10 5 16 6 18 7 12 8 13 9 15 11 17 13 19 15
REMARK SMILES IDX 5 17 20 18 4 19 22 20 3 21 6 22 7 23 21 25 23 27 2 29 1 30
REMARK H PARENT 13 10 15 12 17 14 19 16 7 24 21 26 23 28 1 31
REMARK Flexibility Score: inf
ROOT
ATOM      1  O   UNL     1     -21.799  -1.451 -10.883  1.00  0.00    -0.313 OA
ENDROOT
BRANCH   1   2
ATOM      2  C   UNL     1     -21.103  -2.497 -11.531  1.00  0.00     0.285 C 
ATOM      3  C   UNL     1     -19.402  -4.077 -11.194  1.00  0.00     0.178 C 
ATOM      4  C   UNL     1     -19.032  -3.961 -12.708  1.00  0.00     0.177 C 
ATOM      5  O   UNL     1     -20.037  -2.900 -10.695  1.00  0.00    -0.341 OA
ATOM      6  C   UNL     1     -19.106  -2.473 -13.136  1.00  0.00     0.179 C 
ATOM      7  C   UNL     1     -20.528  -1.918 -12.854  1.00  0.00     0.202 C 
BRANCH   3   8
ATOM      8  C   UNL     1     -18.137  -4.356 -10.349  1.00  0.00     0.191 C 
BRANCH   8   9
ATOM      9  O   UNL     1     -17.302  -3.221 -10.296  1.00  0.00    -0.394 OA
ATOM     10  H   UNL     1     -16.953  -3.139  -9.374  1.00  0.00     0.210 HD
ENDBRANCH   8   9
ENDBRANCH   3   8
BRANCH   4  11
ATOM     11  O   UNL     1     -19.903  -4.781 -13.459  1.00  0.00    -0.387 OA
ATOM     12  H   UNL     1     -20.813  -4.675 -13.071  1.00  0.00     0.211 HD
ENDBRANCH   4  11
BRANCH   6  13
ATOM     13  O   UNL     1     -18.135  -1.738 -12.417  1.00  0.00    -0.387 OA
ATOM     14  H   UNL     1     -17.819  -2.304 -11.663  1.00  0.00     0.211 HD
ENDBRANCH   6  13
BRANCH   7  15
ATOM     15  O   UNL     1     -21.362  -2.215 -13.944  1.00  0.00    -0.385 OA
ATOM     16  H   UNL     1     -22.225  -1.760 -13.789  1.00  0.00     0.211 HD
ENDBRANCH   7  15
ENDBRANCH   1   2
BRANCH   1  17
ATOM     17  C   UNL     1     -23.013  -1.027 -11.507  1.00  0.00     0.224 C 
ATOM     18  C   UNL     1     -23.733  -2.325 -11.941  1.00  0.00     0.208 C 
ATOM     19  O   UNL     1     -23.868  -0.397 -10.567  1.00  0.00    -0.337 OA
ATOM     20  C   UNL     1     -24.407  -2.749 -10.659  1.00  0.00     0.180 C 
ATOM     21  C   UNL     1     -24.614  -1.412  -9.919  1.00  0.00     0.179 C 
BRANCH  17  22
ATOM     22  C   UNL     1     -22.727  -0.103 -12.722  1.00  0.00     0.225 C 
BRANCH  22  23
ATOM     23  O   UNL     1     -23.718   0.871 -12.892  1.00  0.00    -0.391 OA
ATOM     24  H   UNL     1     -24.567   0.398 -13.057  1.00  0.00     0.210 HD
ENDBRANCH  22  23
ENDBRANCH  17  22
BRANCH  18  25
ATOM     25  O   UNL     1     -24.732  -2.076 -12.914  1.00  0.00    -0.385 OA
ATOM     26  H   UNL     1     -25.608  -2.229 -12.481  1.00  0.00     0.211 HD
ENDBRANCH  18  25
BRANCH  20  27
ATOM     27  O   UNL     1     -23.544  -3.583  -9.933  1.00  0.00    -0.387 OA
ATOM     28  H   UNL     1     -22.632  -3.460 -10.324  1.00  0.00     0.211 HD
ENDBRANCH  20  27
BRANCH  21  29
ATOM     29  C   UNL     1     -26.090  -1.013  -9.875  1.00  0.00     0.191 C 
BRANCH  29  30
ATOM     30  O   UNL     1     -26.299   0.181 -10.583  1.00  0.00    -0.394 OA
ATOM     31  H   UNL     1     -26.679   0.819  -9.908  1.00  0.00     0.210 HD
ENDBRANCH  29  30
ENDBRANCH  21  29
ENDBRANCH   1  17
TORSDOF 13
ENDMDL
MODEL 9
REMARK VINA RESULT:    -1.699      8.986     13.134
REMARK INTER + INTRA:          -4.046
REMARK INTER:                  -3.546
REMARK INTRA:                  -0.500
REMARK UNBOUND:                -1.452
REMARK SMILES OC[C@@H]1O[C@@](CO)(O[C@@H]2O[C@H](CO)[C@@H](O)[C@H](O)[C@H]2O)[C@H](O)[C@H]1O
REMARK SMILES IDX 8 1 9 2 11 3 14 4 10 5 16 6 18 7 12 8 13 9 15 11 17 13 19 15
REMARK SMILES IDX 5 17 20 18 4 19 22 20 3 21 6 22 7 23 21 25 23 27 2 29 1 30
REMARK H PARENT 13 10 15 12 17 14 19 16 7 24 21 26 23 28 1 31
REMARK Flexibility Score: inf
ROOT
ATOM      1  O   UNL     1     -20.163  -2.354 -12.330  1.00  0.00    -0.313 OA
ENDROOT
BRANCH   1   2
ATOM      2  C   UNL     1     -21.486  -2.680 -11.952  1.00  0.00     0.285 C 
ATOM      3  C   UNL     1     -23.718  -2.035 -12.278  1.00  0.00     0.178 C 
ATOM      4  C   UNL     1     -24.032  -2.487 -10.816  1.00  0.00     0.177 C 
ATOM      5  O   UNL     1     -22.347  -1.679 -12.457  1.00  0.00    -0.341 OA
ATOM      6  C   UNL     1     -22.869  -2.053  -9.888  1.00  0.00     0.179 C 
ATOM      7  C   UNL     1     -21.538  -2.668 -10.399  1.00  0.00     0.202 C 
BRANCH   3   8
ATOM      8  C   UNL     1     -24.600  -0.828 -12.673  1.00  0.00     0.191 C 
BRANCH   8   9
ATOM      9  O   UNL     1     -25.272  -0.302 -11.551  1.00  0.00    -0.394 OA
ATOM     10  H   UNL     1     -25.066   0.664 -11.494  1.00  0.00     0.210 HD
ENDBRANCH   8   9
ENDBRANCH   3   8
BRANCH   4  11
ATOM     11  O   UNL     1     -24.243  -3.883 -10.800  1.00  0.00    -0.387 OA
ATOM     12  H   UNL     1     -25.199  -4.033 -10.568  1.00  0.00     0.211 HD
ENDBRANCH   4  11
BRANCH   6  13
ATOM     13  O   UNL     1     -22.790  -0.641  -9.876  1.00  0.00    -0.387 OA
ATOM     14  H   UNL     1     -22.795  -0.344  -8.926  1.00  0.00     0.211 HD
ENDBRANCH   6  13
BRANCH   7  15
ATOM     15  O   UNL     1     -21.398  -3.963  -9.875  1.00  0.00    -0.385 OA
ATOM     16  H   UNL     1     -22.118  -4.518 -10.262  1.00  0.00     0.211 HD
ENDBRANCH   7  15
ENDBRANCH   1   2
BRANCH   1  17
ATOM     17  C   UNL     1     -19.280  -3.459 -12.534  1.00  0.00     0.224 C 
ATOM     18  C   UNL     1     -18.096  -2.900 -13.355  1.00  0.00     0.208 C 
ATOM     19  O   UNL     1     -18.733  -3.900 -11.302  1.00  0.00    -0.337 OA
ATOM     20  C   UNL     1     -17.243  -2.272 -12.280  1.00  0.00     0.180 C 
ATOM     21  C   UNL     1     -17.593  -3.105 -11.031  1.00  0.00     0.179 C 
BRANCH  17  22
ATOM     22  C   UNL     1     -19.995  -4.616 -13.285  1.00  0.00     0.225 C 
BRANCH  22  23
ATOM     23  O   UNL     1     -19.190  -5.176 -14.283  1.00  0.00    -0.391 OA
ATOM     24  H   UNL     1     -18.576  -5.809 -13.844  1.00  0.00     0.210 HD
ENDBRANCH  22  23
ENDBRANCH  17  22
BRANCH  18  25
ATOM     25  O   UNL     1     -17.349  -3.930 -13.978  1.00  0.00    -0.385 OA
ATOM     26  H   UNL     1     -16.553  -3.509 -14.387  1.00  0.00     0.211 HD
ENDBRANCH  18  25
BRANCH  20  27
ATOM     27  O   UNL     1     -17.628  -0.935 -12.103  1.00  0.00    -0.387 OA
ATOM     28  H   UNL     1     -17.104  -0.396 -12.762  1.00  0.00     0.211 HD
ENDBRANCH  20  27
BRANCH  21  29
ATOM     29  C   UNL     1     -16.431  -4.004 -10.607  1.00  0.00     0.191 C 
BRANCH  29  30
ATOM     30  O   UNL     1     -15.317  -3.231 -10.243  1.00  0.00    -0.394 OA
ATOM     31  H   UNL     1     -15.386  -3.130  -9.248  1.00  0.00     0.210 HD
ENDBRANCH  29  30
ENDBRANCH  21  29
ENDBRANCH   1  17
TORSDOF 13
ENDMDL
