MODEL 1
REMARK VINA RESULT:    -6.137      0.000      0.000
REMARK INTER + INTRA:          -6.316
REMARK INTER:                  -6.316
REMARK INTRA:                   0.000
REMARK UNBOUND:                 0.000
REMARK SMILES O=c1ccc2ccc(O)cc2o1
REMARK SMILES IDX 6 1 7 2 8 3 10 4 11 5 5 6 4 7 3 8 2 9 1 10 12 11 9 12
REMARK H PARENT 9 13
REMARK Flexibility Score: inf
ROOT
ATOM      1  C   UNL     1     -32.231   9.027 -33.831  1.00  0.00     0.016 A 
ATOM      2  C   UNL     1     -32.168   9.397 -32.484  1.00  0.00     0.047 A 
ATOM      3  C   UNL     1     -32.706  10.622 -32.060  1.00  0.00     0.119 A 
ATOM      4  C   UNL     1     -33.307  11.478 -32.989  1.00  0.00     0.094 A 
ATOM      5  C   UNL     1     -33.375  11.117 -34.340  1.00  0.00     0.142 A 
ATOM      6  C   UNL     1     -32.833   9.883 -34.763  1.00  0.00     0.018 A 
ATOM      7  C   UNL     1     -32.915   9.548 -36.118  1.00  0.00     0.019 A 
ATOM      8  C   UNL     1     -33.524  10.435 -37.006  1.00  0.00     0.094 A 
ATOM      9  C   UNL     1     -34.039  11.640 -36.515  1.00  0.00     0.336 A 
ATOM     10  O   UNL     1     -34.593  12.453 -37.300  1.00  0.00    -0.246 OA
ATOM     11  O   UNL     1     -33.948  11.933 -35.220  1.00  0.00    -0.423 OA
ENDROOT
BRANCH   3  12
ATOM     12  O   UNL     1     -32.647  10.997 -30.720  1.00  0.00    -0.508 OA
ATOM     13  H   UNL     1     -33.335  10.674 -30.049  1.00  0.00     0.293 HD
ENDBRANCH   3  12
TORSDOF 1
ENDMDL
MODEL 2
REMARK VINA RESULT:    -6.070      0.840      4.219
REMARK INTER + INTRA:          -6.247
REMARK INTER:                  -6.247
REMARK INTRA:                   0.000
REMARK UNBOUND:                 0.000
REMARK SMILES O=c1ccc2ccc(O)cc2o1
REMARK SMILES IDX 6 1 7 2 8 3 10 4 11 5 5 6 4 7 3 8 2 9 1 10 12 11 9 12
REMARK H PARENT 9 13
REMARK Flexibility Score: inf
ROOT
ATOM      1  C   UNL     1     -33.183   9.488 -36.202  1.00  0.00     0.016 A 
ATOM      2  C   UNL     1     -33.777  10.438 -37.039  1.00  0.00     0.047 A 
ATOM      3  C   UNL     1     -34.120  11.704 -36.540  1.00  0.00     0.119 A 
ATOM      4  C   UNL     1     -33.868  12.018 -35.200  1.00  0.00     0.094 A 
ATOM      5  C   UNL     1     -33.275  11.073 -34.354  1.00  0.00     0.142 A 
ATOM      6  C   UNL     1     -32.930   9.800 -34.859  1.00  0.00     0.018 A 
ATOM      7  C   UNL     1     -32.338   8.877 -33.992  1.00  0.00     0.019 A 
ATOM      8  C   UNL     1     -32.107   9.236 -32.664  1.00  0.00     0.094 A 
ATOM      9  C   UNL     1     -32.475  10.516 -32.234  1.00  0.00     0.336 A 
ATOM     10  O   UNL     1     -32.274  10.860 -31.040  1.00  0.00    -0.246 OA
ATOM     11  O   UNL     1     -33.036  11.376 -33.081  1.00  0.00    -0.423 OA
ENDROOT
BRANCH   3  12
ATOM     12  O   UNL     1     -34.711  12.655 -37.368  1.00  0.00    -0.508 OA
ATOM     13  H   UNL     1     -34.171  13.408 -37.781  1.00  0.00     0.293 HD
ENDBRANCH   3  12
TORSDOF 1
ENDMDL
MODEL 3
REMARK VINA RESULT:    -5.836      1.287      1.640
REMARK INTER + INTRA:          -6.006
REMARK INTER:                  -6.006
REMARK INTRA:                   0.000
REMARK UNBOUND:                 0.000
REMARK SMILES O=c1ccc2ccc(O)cc2o1
REMARK SMILES IDX 6 1 7 2 8 3 10 4 11 5 5 6 4 7 3 8 2 9 1 10 12 11 9 12
REMARK H PARENT 9 13
REMARK Flexibility Score: inf
ROOT
ATOM      1  C   UNL     1     -31.897   9.665 -32.562  1.00  0.00     0.016 A 
ATOM      2  C   UNL     1     -32.497  10.520 -31.632  1.00  0.00     0.047 A 
ATOM      3  C   UNL     1     -33.473  11.441 -32.044  1.00  0.00     0.119 A 
ATOM      4  C   UNL     1     -33.847  11.505 -33.392  1.00  0.00     0.094 A 
ATOM      5  C   UNL     1     -33.252  10.653 -34.329  1.00  0.00     0.142 A 
ATOM      6  C   UNL     1     -32.271   9.727 -33.911  1.00  0.00     0.018 A 
ATOM      7  C   UNL     1     -31.694   8.889 -34.870  1.00  0.00     0.019 A 
ATOM      8  C   UNL     1     -32.100   8.990 -36.200  1.00  0.00     0.094 A 
ATOM      9  C   UNL     1     -33.078   9.931 -36.541  1.00  0.00     0.336 A 
ATOM     10  O   UNL     1     -33.458  10.037 -37.737  1.00  0.00    -0.246 OA
ATOM     11  O   UNL     1     -33.612  10.716 -35.609  1.00  0.00    -0.423 OA
ENDROOT
BRANCH   3  12
ATOM     12  O   UNL     1     -34.075  12.295 -31.124  1.00  0.00    -0.508 OA
ATOM     13  H   UNL     1     -34.551  13.141 -31.419  1.00  0.00     0.293 HD
ENDBRANCH   3  12
TORSDOF 1
ENDMDL
MODEL 4
REMARK VINA RESULT:    -5.824      1.742      2.319
REMARK INTER + INTRA:          -5.994
REMARK INTER:                  -5.994
REMARK INTRA:                   0.000
REMARK UNBOUND:                 0.000
REMARK SMILES O=c1ccc2ccc(O)cc2o1
REMARK SMILES IDX 6 1 7 2 8 3 10 4 11 5 5 6 4 7 3 8 2 9 1 10 12 11 9 12
REMARK H PARENT 9 13
REMARK Flexibility Score: inf
ROOT
ATOM      1  C   UNL     1     -33.436  11.962 -33.858  1.00  0.00     0.016 A 
ATOM      2  C   UNL     1     -33.249  11.315 -32.633  1.00  0.00     0.047 A 
ATOM      3  C   UNL     1     -33.400   9.923 -32.537  1.00  0.00     0.119 A 
ATOM      4  C   UNL     1     -33.741   9.179 -33.672  1.00  0.00     0.094 A 
ATOM      5  C   UNL     1     -33.932   9.817 -34.902  1.00  0.00     0.142 A 
ATOM      6  C   UNL     1     -33.778  11.219 -34.996  1.00  0.00     0.018 A 
ATOM      7  C   UNL     1     -33.974  11.829 -36.239  1.00  0.00     0.019 A 
ATOM      8  C   UNL     1     -34.313  11.045 -37.340  1.00  0.00     0.094 A 
ATOM      9  C   UNL     1     -34.448   9.662 -37.173  1.00  0.00     0.336 A 
ATOM     10  O   UNL     1     -34.752   8.936 -38.156  1.00  0.00    -0.246 OA
ATOM     11  O   UNL     1     -34.255   9.106 -35.979  1.00  0.00    -0.423 OA
ENDROOT
BRANCH   3  12
ATOM     12  O   UNL     1     -33.214   9.272 -31.320  1.00  0.00    -0.508 OA
ATOM     13  H   UNL     1     -32.299   8.949 -31.026  1.00  0.00     0.293 HD
ENDBRANCH   3  12
TORSDOF 1
ENDMDL
MODEL 5
REMARK VINA RESULT:    -5.501      0.640      0.640
REMARK INTER + INTRA:          -5.662
REMARK INTER:                  -5.662
REMARK INTRA:                   0.000
REMARK UNBOUND:                 0.000
REMARK SMILES O=c1ccc2ccc(O)cc2o1
REMARK SMILES IDX 6 1 7 2 8 3 10 4 11 5 5 6 4 7 3 8 2 9 1 10 12 11 9 12
REMARK H PARENT 9 13
REMARK Flexibility Score: inf
ROOT
ATOM      1  C   UNL     1     -31.807   8.876 -34.508  1.00  0.00     0.016 A 
ATOM      2  C   UNL     1     -31.753   9.108 -33.130  1.00  0.00     0.047 A 
ATOM      3  C   UNL     1     -32.487  10.159 -32.559  1.00  0.00     0.119 A 
ATOM      4  C   UNL     1     -33.276  10.981 -33.372  1.00  0.00     0.094 A 
ATOM      5  C   UNL     1     -33.336  10.757 -34.753  1.00  0.00     0.142 A 
ATOM      6  C   UNL     1     -32.596   9.698 -35.324  1.00  0.00     0.018 A 
ATOM      7  C   UNL     1     -32.675   9.499 -36.706  1.00  0.00     0.019 A 
ATOM      8  C   UNL     1     -33.475  10.344 -37.474  1.00  0.00     0.094 A 
ATOM      9  C   UNL     1     -34.180  11.373 -36.839  1.00  0.00     0.336 A 
ATOM     10  O   UNL     1     -34.908  12.146 -37.515  1.00  0.00    -0.246 OA
ATOM     11  O   UNL     1     -34.088  11.540 -35.522  1.00  0.00    -0.423 OA
ENDROOT
BRANCH   3  12
ATOM     12  O   UNL     1     -32.439  10.395 -31.188  1.00  0.00    -0.508 OA
ATOM     13  H   UNL     1     -32.975   9.835 -30.534  1.00  0.00     0.293 HD
ENDBRANCH   3  12
TORSDOF 1
ENDMDL
MODEL 6
REMARK VINA RESULT:    -5.331      1.721      4.634
REMARK INTER + INTRA:          -5.486
REMARK INTER:                  -5.486
REMARK INTRA:                   0.000
REMARK UNBOUND:                 0.000
REMARK SMILES O=c1ccc2ccc(O)cc2o1
REMARK SMILES IDX 6 1 7 2 8 3 10 4 11 5 5 6 4 7 3 8 2 9 1 10 12 11 9 12
REMARK H PARENT 9 13
REMARK Flexibility Score: inf
ROOT
ATOM      1  C   UNL     1     -33.961  11.599 -35.871  1.00  0.00     0.016 A 
ATOM      2  C   UNL     1     -33.608  10.820 -36.978  1.00  0.00     0.047 A 
ATOM      3  C   UNL     1     -32.801   9.684 -36.815  1.00  0.00     0.119 A 
ATOM      4  C   UNL     1     -32.346   9.328 -35.540  1.00  0.00     0.094 A 
ATOM      5  C   UNL     1     -32.693  10.101 -34.427  1.00  0.00     0.142 A 
ATOM      6  C   UNL     1     -33.506  11.245 -34.594  1.00  0.00     0.018 A 
ATOM      7  C   UNL     1     -33.837  11.998 -33.463  1.00  0.00     0.019 A 
ATOM      8  C   UNL     1     -33.359  11.603 -32.214  1.00  0.00     0.094 A 
ATOM      9  C   UNL     1     -32.559  10.459 -32.125  1.00  0.00     0.336 A 
ATOM     10  O   UNL     1     -32.118  10.086 -31.006  1.00  0.00    -0.246 OA
ATOM     11  O   UNL     1     -32.259   9.759 -33.216  1.00  0.00    -0.423 OA
ENDROOT
BRANCH   3  12
ATOM     12  O   UNL     1     -32.447   8.903 -37.912  1.00  0.00    -0.508 OA
ATOM     13  H   UNL     1     -31.766   9.223 -38.593  1.00  0.00     0.293 HD
ENDBRANCH   3  12
TORSDOF 1
ENDMDL
MODEL 7
REMARK VINA RESULT:    -5.295      1.813      4.919
REMARK INTER + INTRA:          -5.450
REMARK INTER:                  -5.450
REMARK INTRA:                   0.000
REMARK UNBOUND:                 0.000
REMARK SMILES O=c1ccc2ccc(O)cc2o1
REMARK SMILES IDX 6 1 7 2 8 3 10 4 11 5 5 6 4 7 3 8 2 9 1 10 12 11 9 12
REMARK H PARENT 9 13
REMARK Flexibility Score: inf
ROOT
ATOM      1  C   UNL     1     -34.360  12.132 -36.562  1.00  0.00     0.016 A 
ATOM      2  C   UNL     1     -34.805  11.545 -37.751  1.00  0.00     0.047 A 
ATOM      3  C   UNL     1     -34.741  10.154 -37.922  1.00  0.00     0.119 A 
ATOM      4  C   UNL     1     -34.228   9.349 -36.899  1.00  0.00     0.094 A 
ATOM      5  C   UNL     1     -33.779   9.926 -35.706  1.00  0.00     0.142 A 
ATOM      6  C   UNL     1     -33.845  11.327 -35.537  1.00  0.00     0.018 A 
ATOM      7  C   UNL     1     -33.390  11.876 -34.334  1.00  0.00     0.019 A 
ATOM      8  C   UNL     1     -32.886  11.032 -33.344  1.00  0.00     0.094 A 
ATOM      9  C   UNL     1     -32.851   9.654 -33.582  1.00  0.00     0.336 A 
ATOM     10  O   UNL     1     -32.402   8.875 -32.700  1.00  0.00    -0.246 OA
ATOM     11  O   UNL     1     -33.292   9.157 -34.735  1.00  0.00    -0.423 OA
ENDROOT
BRANCH   3  12
ATOM     12  O   UNL     1     -35.184   9.563 -39.103  1.00  0.00    -0.508 OA
ATOM     13  H   UNL     1     -34.585   8.953 -39.647  1.00  0.00     0.293 HD
ENDBRANCH   3  12
TORSDOF 1
ENDMDL
MODEL 8
REMARK VINA RESULT:    -4.703      2.609      3.919
REMARK INTER + INTRA:          -4.840
REMARK INTER:                  -4.840
REMARK INTRA:                   0.000
REMARK UNBOUND:                 0.000
REMARK SMILES O=c1ccc2ccc(O)cc2o1
REMARK SMILES IDX 6 1 7 2 8 3 10 4 11 5 5 6 4 7 3 8 2 9 1 10 12 11 9 12
REMARK H PARENT 9 13
REMARK Flexibility Score: inf
ROOT
ATOM      1  C   UNL     1     -33.993  11.940 -36.153  1.00  0.00     0.016 A 
ATOM      2  C   UNL     1     -32.935  11.499 -35.353  1.00  0.00     0.047 A 
ATOM      3  C   UNL     1     -32.275  10.297 -35.651  1.00  0.00     0.119 A 
ATOM      4  C   UNL     1     -32.679   9.535 -36.753  1.00  0.00     0.094 A 
ATOM      5  C   UNL     1     -33.737   9.968 -37.560  1.00  0.00     0.142 A 
ATOM      6  C   UNL     1     -34.399  11.179 -37.258  1.00  0.00     0.018 A 
ATOM      7  C   UNL     1     -35.453  11.586 -38.081  1.00  0.00     0.019 A 
ATOM      8  C   UNL     1     -35.818  10.793 -39.168  1.00  0.00     0.094 A 
ATOM      9  C   UNL     1     -35.117   9.605 -39.407  1.00  0.00     0.336 A 
ATOM     10  O   UNL     1     -35.431   8.875 -40.383  1.00  0.00    -0.246 OA
ATOM     11  O   UNL     1     -34.117   9.241 -38.607  1.00  0.00    -0.423 OA
ENDROOT
BRANCH   3  12
ATOM     12  O   UNL     1     -31.220   9.852 -34.859  1.00  0.00    -0.508 OA
ATOM     13  H   UNL     1     -30.532   9.196 -35.212  1.00  0.00     0.293 HD
ENDBRANCH   3  12
TORSDOF 1
ENDMDL
MODEL 9
REMARK VINA RESULT:    -4.679      2.139      2.900
REMARK INTER + INTRA:          -4.816
REMARK INTER:                  -4.816
REMARK INTRA:                   0.000
REMARK UNBOUND:                 0.000
REMARK SMILES O=c1ccc2ccc(O)cc2o1
REMARK SMILES IDX 6 1 7 2 8 3 10 4 11 5 5 6 4 7 3 8 2 9 1 10 12 11 9 12
REMARK H PARENT 9 13
REMARK Flexibility Score: inf
ROOT
ATOM      1  C   UNL     1     -34.033  12.209 -32.730  1.00  0.00     0.016 A 
ATOM      2  C   UNL     1     -33.769  12.258 -31.358  1.00  0.00     0.047 A 
ATOM      3  C   UNL     1     -32.755  11.461 -30.803  1.00  0.00     0.119 A 
ATOM      4  C   UNL     1     -32.005  10.613 -31.626  1.00  0.00     0.094 A 
ATOM      5  C   UNL     1     -32.263  10.557 -33.001  1.00  0.00     0.142 A 
ATOM      6  C   UNL     1     -33.283  11.361 -33.557  1.00  0.00     0.018 A 
ATOM      7  C   UNL     1     -33.517  11.283 -34.933  1.00  0.00     0.019 A 
ATOM      8  C   UNL     1     -32.744  10.423 -35.711  1.00  0.00     0.094 A 
ATOM      9  C   UNL     1     -31.750   9.657 -35.092  1.00  0.00     0.336 A 
ATOM     10  O   UNL     1     -31.040   8.875 -35.778  1.00  0.00    -0.246 OA
ATOM     11  O   UNL     1     -31.547   9.750 -33.780  1.00  0.00    -0.423 OA
ENDROOT
BRANCH   3  12
ATOM     12  O   UNL     1     -32.486  11.505 -29.438  1.00  0.00    -0.508 OA
ATOM     13  H   UNL     1     -33.231  11.496 -28.750  1.00  0.00     0.293 HD
ENDBRANCH   3  12
TORSDOF 1
ENDMDL
