MODEL 1
REMARK VINA RESULT:    -3.837      0.000      0.000
REMARK INTER + INTRA:          -5.132
REMARK INTER:                  -4.959
REMARK INTRA:                  -0.173
REMARK UNBOUND:                -0.173
REMARK SMILES CCCCCCC(=O)[O-]
REMARK SMILES IDX 5 1 6 2 7 3 8 4 9 5 4 6 3 7 2 8 1 9
REMARK H PARENT
REMARK Flexibility Score: inf
ROOT
ATOM      1  C   UNL     1     -13.587 -10.715   7.014  1.00  0.00     0.006 C 
ENDROOT
BRANCH   1   2
ATOM      2  C   UNL     1     -14.947 -10.046   7.258  1.00  0.00     0.053 C 
BRANCH   2   3
ATOM      3  C   UNL     1     -15.201  -9.819   8.717  1.00  0.00     0.041 C 
ATOM      4  O   UNL     1     -16.266  -9.262   9.095  1.00  0.00    -0.550 OA
ATOM      5  O   UNL     1     -14.249 -10.192   9.657  1.00  0.00    -0.550 OA
ENDBRANCH   2   3
ENDBRANCH   1   2
BRANCH   1   6
ATOM      6  C   UNL     1     -12.505  -9.703   6.611  1.00  0.00     0.000 C 
BRANCH   6   7
ATOM      7  C   UNL     1     -11.341 -10.400   5.897  1.00  0.00    -0.000 C 
BRANCH   7   8
ATOM      8  C   UNL     1     -10.755 -11.520   6.765  1.00  0.00    -0.003 C 
ATOM      9  C   UNL     1     -10.240 -12.672   5.906  1.00  0.00     0.004 C 
ENDBRANCH   7   8
ENDBRANCH   6   7
ENDBRANCH   1   6
TORSDOF 5
ENDMDL
MODEL 2
REMARK VINA RESULT:    -3.792     12.739     13.781
REMARK INTER + INTRA:          -5.073
REMARK INTER:                  -4.884
REMARK INTRA:                  -0.189
REMARK UNBOUND:                -0.173
REMARK SMILES CCCCCCC(=O)[O-]
REMARK SMILES IDX 5 1 6 2 7 3 8 4 9 5 4 6 3 7 2 8 1 9
REMARK H PARENT
REMARK Flexibility Score: inf
ROOT
ATOM      1  C   UNL     1     -11.552 -20.153  15.979  1.00  0.00     0.006 C 
ENDROOT
BRANCH   1   2
ATOM      2  C   UNL     1     -11.229 -20.479  14.514  1.00  0.00     0.053 C 
BRANCH   2   3
ATOM      3  C   UNL     1     -10.455 -19.377  13.857  1.00  0.00     0.041 C 
ATOM      4  O   UNL     1      -9.246 -19.189  14.153  1.00  0.00    -0.550 OA
ATOM      5  O   UNL     1     -11.078 -18.537  12.943  1.00  0.00    -0.550 OA
ENDBRANCH   2   3
ENDBRANCH   1   2
BRANCH   1   6
ATOM      6  C   UNL     1     -10.611 -20.872  16.956  1.00  0.00     0.000 C 
BRANCH   6   7
ATOM      7  C   UNL     1     -10.910 -20.467  18.404  1.00  0.00    -0.000 C 
BRANCH   7   8
ATOM      8  C   UNL     1     -12.255 -19.737  18.504  1.00  0.00    -0.003 C 
ATOM      9  C   UNL     1     -12.910 -19.971  19.863  1.00  0.00     0.004 C 
ENDBRANCH   7   8
ENDBRANCH   6   7
ENDBRANCH   1   6
TORSDOF 5
ENDMDL
MODEL 3
REMARK VINA RESULT:    -3.748      1.467      2.038
REMARK INTER + INTRA:          -5.017
REMARK INTER:                  -4.818
REMARK INTRA:                  -0.198
REMARK UNBOUND:                -0.173
REMARK SMILES CCCCCCC(=O)[O-]
REMARK SMILES IDX 5 1 6 2 7 3 8 4 9 5 4 6 3 7 2 8 1 9
REMARK H PARENT
REMARK Flexibility Score: inf
ROOT
ATOM      1  C   UNL     1     -13.058  -9.554   7.615  1.00  0.00     0.006 C 
ENDROOT
BRANCH   1   2
ATOM      2  C   UNL     1     -14.022  -9.941   8.746  1.00  0.00     0.053 C 
BRANCH   2   3
ATOM      3  C   UNL     1     -15.452  -9.712   8.360  1.00  0.00     0.041 C 
ATOM      4  O   UNL     1     -16.272  -9.267   9.206  1.00  0.00    -0.550 OA
ATOM      5  O   UNL     1     -15.885 -10.019   7.077  1.00  0.00    -0.550 OA
ENDBRANCH   2   3
ENDBRANCH   1   2
BRANCH   1   6
ATOM      6  C   UNL     1     -12.355 -10.776   7.007  1.00  0.00     0.000 C 
BRANCH   6   7
ATOM      7  C   UNL     1     -11.466 -10.366   5.827  1.00  0.00    -0.000 C 
BRANCH   7   8
ATOM      8  C   UNL     1     -10.890  -8.960   6.035  1.00  0.00    -0.003 C 
ATOM      9  C   UNL     1      -9.400  -9.017   6.358  1.00  0.00     0.004 C 
ENDBRANCH   7   8
ENDBRANCH   6   7
ENDBRANCH   1   6
TORSDOF 5
ENDMDL
MODEL 4
REMARK VINA RESULT:    -3.682      1.099      1.484
REMARK INTER + INTRA:          -4.932
REMARK INTER:                  -4.710
REMARK INTRA:                  -0.222
REMARK UNBOUND:                -0.173
REMARK SMILES CCCCCCC(=O)[O-]
REMARK SMILES IDX 5 1 6 2 7 3 8 4 9 5 4 6 3 7 2 8 1 9
REMARK H PARENT
REMARK Flexibility Score: inf
ROOT
ATOM      1  C   UNL     1     -12.372  -9.680   6.711  1.00  0.00     0.006 C 
ENDROOT
BRANCH   1   2
ATOM      2  C   UNL     1     -13.535 -10.650   6.961  1.00  0.00     0.053 C 
BRANCH   2   3
ATOM      3  C   UNL     1     -14.692  -9.970   7.627  1.00  0.00     0.041 C 
ATOM      4  O   UNL     1     -15.825  -9.965   7.076  1.00  0.00    -0.550 OA
ATOM      5  O   UNL     1     -14.513  -9.316   8.839  1.00  0.00    -0.550 OA
ENDBRANCH   2   3
ENDBRANCH   1   2
BRANCH   1   6
ATOM      6  C   UNL     1     -11.274 -10.303   5.837  1.00  0.00     0.000 C 
BRANCH   6   7
ATOM      7  C   UNL     1      -9.919 -10.274   6.556  1.00  0.00    -0.000 C 
BRANCH   7   8
ATOM      8  C   UNL     1      -9.336 -11.686   6.687  1.00  0.00    -0.003 C 
ATOM      9  C   UNL     1     -10.157 -12.698   5.892  1.00  0.00     0.004 C 
ENDBRANCH   7   8
ENDBRANCH   6   7
ENDBRANCH   1   6
TORSDOF 5
ENDMDL
MODEL 5
REMARK VINA RESULT:    -3.669      3.358      5.086
REMARK INTER + INTRA:          -4.914
REMARK INTER:                  -4.724
REMARK INTRA:                  -0.190
REMARK UNBOUND:                -0.173
REMARK SMILES CCCCCCC(=O)[O-]
REMARK SMILES IDX 5 1 6 2 7 3 8 4 9 5 4 6 3 7 2 8 1 9
REMARK H PARENT
REMARK Flexibility Score: inf
ROOT
ATOM      1  C   UNL     1     -11.711 -10.304   7.777  1.00  0.00     0.006 C 
ENDROOT
BRANCH   1   2
ATOM      2  C   UNL     1     -11.517 -10.950   6.398  1.00  0.00     0.053 C 
BRANCH   2   3
ATOM      3  C   UNL     1     -10.265 -11.772   6.342  1.00  0.00     0.041 C 
ATOM      4  O   UNL     1      -9.164 -11.274   6.698  1.00  0.00    -0.550 OA
ATOM      5  O   UNL     1     -10.308 -13.076   5.865  1.00  0.00    -0.550 OA
ENDBRANCH   2   3
ENDBRANCH   1   2
BRANCH   1   6
ATOM      6  C   UNL     1     -13.188 -10.010   8.078  1.00  0.00     0.000 C 
BRANCH   6   7
ATOM      7  C   UNL     1     -14.077 -10.393   6.888  1.00  0.00    -0.000 C 
BRANCH   7   8
ATOM      8  C   UNL     1     -15.546 -10.058   7.170  1.00  0.00    -0.003 C 
ATOM      9  C   UNL     1     -15.778  -9.800   8.656  1.00  0.00     0.004 C 
ENDBRANCH   7   8
ENDBRANCH   6   7
ENDBRANCH   1   6
TORSDOF 5
ENDMDL
MODEL 6
REMARK VINA RESULT:    -3.590      3.105      5.019
REMARK INTER + INTRA:          -4.813
REMARK INTER:                  -4.681
REMARK INTRA:                  -0.131
REMARK UNBOUND:                -0.173
REMARK SMILES CCCCCCC(=O)[O-]
REMARK SMILES IDX 5 1 6 2 7 3 8 4 9 5 4 6 3 7 2 8 1 9
REMARK H PARENT
REMARK Flexibility Score: inf
ROOT
ATOM      1  C   UNL     1     -13.002 -10.624   6.497  1.00  0.00     0.006 C 
ENDROOT
BRANCH   1   2
ATOM      2  C   UNL     1     -11.640  -9.960   6.248  1.00  0.00     0.053 C 
BRANCH   2   3
ATOM      3  C   UNL     1     -10.510 -10.927   6.427  1.00  0.00     0.041 C 
ATOM      4  O   UNL     1     -10.516 -12.028   5.815  1.00  0.00    -0.550 OA
ATOM      5  O   UNL     1      -9.467 -10.627   7.294  1.00  0.00    -0.550 OA
ENDBRANCH   2   3
ENDBRANCH   1   2
BRANCH   1   6
ATOM      6  C   UNL     1     -13.755  -9.981   7.671  1.00  0.00     0.000 C 
BRANCH   6   7
ATOM      7  C   UNL     1     -15.270 -10.019   7.437  1.00  0.00    -0.000 C 
BRANCH   7   8
ATOM      8  C   UNL     1     -16.032  -9.568   8.689  1.00  0.00    -0.003 C 
ATOM      9  C   UNL     1     -15.139  -9.618   9.925  1.00  0.00     0.004 C 
ENDBRANCH   7   8
ENDBRANCH   6   7
ENDBRANCH   1   6
TORSDOF 5
ENDMDL
MODEL 7
REMARK VINA RESULT:    -3.517     13.945     15.190
REMARK INTER + INTRA:          -4.718
REMARK INTER:                  -4.485
REMARK INTRA:                  -0.233
REMARK UNBOUND:                -0.173
REMARK SMILES CCCCCCC(=O)[O-]
REMARK SMILES IDX 5 1 6 2 7 3 8 4 9 5 4 6 3 7 2 8 1 9
REMARK H PARENT
REMARK Flexibility Score: inf
ROOT
ATOM      1  C   UNL     1      -9.339 -20.680  14.848  1.00  0.00     0.006 C 
ENDROOT
BRANCH   1   2
ATOM      2  C   UNL     1      -8.411 -21.004  16.026  1.00  0.00     0.053 C 
BRANCH   2   3
ATOM      3  C   UNL     1      -7.433 -22.086  15.683  1.00  0.00     0.041 C 
ATOM      4  O   UNL     1      -6.580 -22.460  16.531  1.00  0.00    -0.550 OA
ATOM      5  O   UNL     1      -7.441 -22.656  14.417  1.00  0.00    -0.550 OA
ENDBRANCH   2   3
ENDBRANCH   1   2
BRANCH   1   6
ATOM      6  C   UNL     1     -10.822 -20.723  15.246  1.00  0.00     0.000 C 
BRANCH   6   7
ATOM      7  C   UNL     1     -10.984 -21.157  16.708  1.00  0.00    -0.000 C 
BRANCH   7   8
ATOM      8  C   UNL     1     -11.768 -20.110  17.508  1.00  0.00    -0.003 C 
ATOM      9  C   UNL     1     -11.439 -20.192  18.996  1.00  0.00     0.004 C 
ENDBRANCH   7   8
ENDBRANCH   6   7
ENDBRANCH   1   6
TORSDOF 5
ENDMDL
MODEL 8
REMARK VINA RESULT:    -3.498     13.213     13.875
REMARK INTER + INTRA:          -4.694
REMARK INTER:                  -4.537
REMARK INTRA:                  -0.157
REMARK UNBOUND:                -0.173
REMARK SMILES CCCCCCC(=O)[O-]
REMARK SMILES IDX 5 1 6 2 7 3 8 4 9 5 4 6 3 7 2 8 1 9
REMARK H PARENT
REMARK Flexibility Score: inf
ROOT
ATOM      1  C   UNL     1     -10.981 -20.362  18.396  1.00  0.00     0.006 C 
ENDROOT
BRANCH   1   2
ATOM      2  C   UNL     1     -11.920 -20.069  19.574  1.00  0.00     0.053 C 
BRANCH   2   3
ATOM      3  C   UNL     1     -12.445 -18.666  19.531  1.00  0.00     0.041 C 
ATOM      4  O   UNL     1     -13.684 -18.456  19.456  1.00  0.00    -0.550 OA
ATOM      5  O   UNL     1     -11.564 -17.592  19.542  1.00  0.00    -0.550 OA
ENDBRANCH   2   3
ENDBRANCH   1   2
BRANCH   1   6
ATOM      6  C   UNL     1     -11.668 -20.149  17.039  1.00  0.00     0.000 C 
BRANCH   6   7
ATOM      7  C   UNL     1     -10.940 -20.919  15.930  1.00  0.00    -0.000 C 
BRANCH   7   8
ATOM      8  C   UNL     1     -11.214 -20.294  14.556  1.00  0.00    -0.003 C 
ATOM      9  C   UNL     1     -10.019 -19.478  14.073  1.00  0.00     0.004 C 
ENDBRANCH   7   8
ENDBRANCH   6   7
ENDBRANCH   1   6
TORSDOF 5
ENDMDL
MODEL 9
REMARK VINA RESULT:    -3.322     10.601     12.957
REMARK INTER + INTRA:          -4.466
REMARK INTER:                  -4.270
REMARK INTRA:                  -0.196
REMARK UNBOUND:                -0.173
REMARK SMILES CCCCCCC(=O)[O-]
REMARK SMILES IDX 5 1 6 2 7 3 8 4 9 5 4 6 3 7 2 8 1 9
REMARK H PARENT
REMARK Flexibility Score: inf
ROOT
ATOM      1  C   UNL     1      -2.558 -16.094   4.938  1.00  0.00     0.006 C 
ENDROOT
BRANCH   1   2
ATOM      2  C   UNL     1      -2.608 -16.809   3.581  1.00  0.00     0.053 C 
BRANCH   2   3
ATOM      3  C   UNL     1      -1.649 -17.959   3.523  1.00  0.00     0.041 C 
ATOM      4  O   UNL     1      -1.515 -18.618   2.457  1.00  0.00    -0.550 OA
ATOM      5  O   UNL     1      -0.929 -18.323   4.652  1.00  0.00    -0.550 OA
ENDBRANCH   2   3
ENDBRANCH   1   2
BRANCH   1   6
ATOM      6  C   UNL     1      -3.945 -15.983   5.588  1.00  0.00     0.000 C 
BRANCH   6   7
ATOM      7  C   UNL     1      -5.048 -16.373   4.597  1.00  0.00    -0.000 C 
BRANCH   7   8
ATOM      8  C   UNL     1      -6.437 -16.188   5.220  1.00  0.00    -0.003 C 
ATOM      9  C   UNL     1      -6.797 -14.710   5.336  1.00  0.00     0.004 C 
ENDBRANCH   7   8
ENDBRANCH   6   7
ENDBRANCH   1   6
TORSDOF 5
ENDMDL
