MODEL 1
REMARK VINA RESULT:    -3.769      0.000      0.000
REMARK INTER + INTRA:          -5.386
REMARK INTER:                  -5.091
REMARK INTRA:                  -0.295
REMARK UNBOUND:                -0.295
REMARK SMILES CCCCCCCC(=O)[O-]
REMARK SMILES IDX 5 1 6 2 7 3 8 4 9 5 10 6 4 7 3 8 2 9 1 10
REMARK H PARENT
REMARK Flexibility Score: inf
ROOT
ATOM      1  C   UNL     1     -99.727  30.687 -36.907  1.00  0.00     0.000 C 
ENDROOT
BRANCH   1   2
ATOM      2  C   UNL     1     -99.534  31.476 -35.604  1.00  0.00     0.006 C 
BRANCH   2   3
ATOM      3  C   UNL     1    -100.442  30.967 -34.476  1.00  0.00     0.053 C 
BRANCH   3   4
ATOM      4  C   UNL     1    -101.580  31.905 -34.212  1.00  0.00     0.041 C 
ATOM      5  O   UNL     1    -102.031  32.629 -35.137  1.00  0.00    -0.550 OA
ATOM      6  O   UNL     1    -102.118  32.004 -32.936  1.00  0.00    -0.550 OA
ENDBRANCH   3   4
ENDBRANCH   2   3
ENDBRANCH   1   2
BRANCH   1   7
ATOM      7  C   UNL     1     -99.284  31.518 -38.121  1.00  0.00     0.000 C 
BRANCH   7   8
ATOM      8  C   UNL     1     -98.900  32.958 -37.744  1.00  0.00    -0.000 C 
BRANCH   8   9
ATOM      9  C   UNL     1     -98.093  33.662 -38.845  1.00  0.00    -0.003 C 
ATOM     10  C   UNL     1     -97.098  32.704 -39.494  1.00  0.00     0.004 C 
ENDBRANCH   8   9
ENDBRANCH   7   8
ENDBRANCH   1   7
TORSDOF 6
ENDMDL
MODEL 2
REMARK VINA RESULT:    -3.618      1.581      1.989
REMARK INTER + INTRA:          -5.182
REMARK INTER:                  -4.832
REMARK INTRA:                  -0.351
REMARK UNBOUND:                -0.295
REMARK SMILES CCCCCCCC(=O)[O-]
REMARK SMILES IDX 5 1 6 2 7 3 8 4 9 5 10 6 4 7 3 8 2 9 1 10
REMARK H PARENT
REMARK Flexibility Score: inf
ROOT
ATOM      1  C   UNL     1    -100.930  30.915 -38.437  1.00  0.00     0.000 C 
ENDROOT
BRANCH   1   2
ATOM      2  C   UNL     1    -101.657  30.553 -37.133  1.00  0.00     0.006 C 
BRANCH   2   3
ATOM      3  C   UNL     1    -102.905  31.415 -36.904  1.00  0.00     0.053 C 
BRANCH   3   4
ATOM      4  C   UNL     1    -102.749  32.316 -35.717  1.00  0.00     0.041 C 
ATOM      5  O   UNL     1    -101.755  32.192 -34.954  1.00  0.00    -0.550 OA
ATOM      6  O   UNL     1    -103.719  33.268 -35.435  1.00  0.00    -0.550 OA
ENDBRANCH   3   4
ENDBRANCH   2   3
ENDBRANCH   1   2
BRANCH   1   7
ATOM      7  C   UNL     1     -99.449  31.219 -38.173  1.00  0.00     0.000 C 
BRANCH   7   8
ATOM      8  C   UNL     1     -99.241  32.540 -37.414  1.00  0.00    -0.000 C 
BRANCH   8   9
ATOM      9  C   UNL     1     -98.342  33.524 -38.175  1.00  0.00    -0.003 C 
ATOM     10  C   UNL     1     -97.581  32.819 -39.295  1.00  0.00     0.004 C 
ENDBRANCH   8   9
ENDBRANCH   7   8
ENDBRANCH   1   7
TORSDOF 6
ENDMDL
MODEL 3
REMARK VINA RESULT:    -3.610      2.887      3.500
REMARK INTER + INTRA:          -5.171
REMARK INTER:                  -4.906
REMARK INTRA:                  -0.265
REMARK UNBOUND:                -0.295
REMARK SMILES CCCCCCCC(=O)[O-]
REMARK SMILES IDX 5 1 6 2 7 3 8 4 9 5 10 6 4 7 3 8 2 9 1 10
REMARK H PARENT
REMARK Flexibility Score: inf
ROOT
ATOM      1  C   UNL     1    -101.004  32.130 -36.135  1.00  0.00     0.000 C 
ENDROOT
BRANCH   1   2
ATOM      2  C   UNL     1    -101.929  30.972 -36.539  1.00  0.00     0.006 C 
BRANCH   2   3
ATOM      3  C   UNL     1    -103.234  31.465 -37.176  1.00  0.00     0.053 C 
BRANCH   3   4
ATOM      4  C   UNL     1    -103.308  31.120 -38.632  1.00  0.00     0.041 C 
ATOM      5  O   UNL     1    -102.319  30.600 -39.211  1.00  0.00    -0.550 OA
ATOM      6  O   UNL     1    -104.458  31.405 -39.357  1.00  0.00    -0.550 OA
ENDBRANCH   3   4
ENDBRANCH   2   3
ENDBRANCH   1   2
BRANCH   1   7
ATOM      7  C   UNL     1     -99.537  31.790 -36.435  1.00  0.00     0.000 C 
BRANCH   7   8
ATOM      8  C   UNL     1     -99.193  31.917 -37.928  1.00  0.00    -0.000 C 
BRANCH   8   9
ATOM      9  C   UNL     1     -98.347  33.160 -38.236  1.00  0.00    -0.003 C 
ATOM     10  C   UNL     1     -97.318  32.868 -39.325  1.00  0.00     0.004 C 
ENDBRANCH   8   9
ENDBRANCH   7   8
ENDBRANCH   1   7
TORSDOF 6
ENDMDL
MODEL 4
REMARK VINA RESULT:    -3.385      2.642      5.374
REMARK INTER + INTRA:          -4.867
REMARK INTER:                  -4.634
REMARK INTRA:                  -0.233
REMARK UNBOUND:                -0.295
REMARK SMILES CCCCCCCC(=O)[O-]
REMARK SMILES IDX 5 1 6 2 7 3 8 4 9 5 10 6 4 7 3 8 2 9 1 10
REMARK H PARENT
REMARK Flexibility Score: inf
ROOT
ATOM      1  C   UNL     1    -100.351  30.642 -36.211  1.00  0.00     0.000 C 
ENDROOT
BRANCH   1   2
ATOM      2  C   UNL     1    -100.224  31.843 -37.159  1.00  0.00     0.006 C 
BRANCH   2   3
ATOM      3  C   UNL     1     -99.212  31.593 -38.283  1.00  0.00     0.053 C 
BRANCH   3   4
ATOM      4  C   UNL     1     -98.330  32.782 -38.514  1.00  0.00     0.041 C 
ATOM      5  O   UNL     1     -97.314  32.683 -39.251  1.00  0.00    -0.550 OA
ATOM      6  O   UNL     1     -98.611  33.988 -37.887  1.00  0.00    -0.550 OA
ENDBRANCH   3   4
ENDBRANCH   2   3
ENDBRANCH   1   2
BRANCH   1   7
ATOM      7  C   UNL     1     -99.596  30.897 -34.898  1.00  0.00     0.000 C 
BRANCH   7   8
ATOM      8  C   UNL     1    -100.478  30.685 -33.657  1.00  0.00    -0.000 C 
BRANCH   8   9
ATOM      9  C   UNL     1    -101.560  31.765 -33.508  1.00  0.00    -0.003 C 
ATOM     10  C   UNL     1    -102.801  31.207 -32.816  1.00  0.00     0.004 C 
ENDBRANCH   8   9
ENDBRANCH   7   8
ENDBRANCH   1   7
TORSDOF 6
ENDMDL
MODEL 5
REMARK VINA RESULT:    -3.352      2.702      3.255
REMARK INTER + INTRA:          -4.823
REMARK INTER:                  -4.553
REMARK INTRA:                  -0.270
REMARK UNBOUND:                -0.295
REMARK SMILES CCCCCCCC(=O)[O-]
REMARK SMILES IDX 5 1 6 2 7 3 8 4 9 5 10 6 4 7 3 8 2 9 1 10
REMARK H PARENT
REMARK Flexibility Score: inf
ROOT
ATOM      1  C   UNL     1    -101.525  31.571 -36.523  1.00  0.00     0.000 C 
ENDROOT
BRANCH   1   2
ATOM      2  C   UNL     1    -101.831  30.810 -37.821  1.00  0.00     0.006 C 
BRANCH   2   3
ATOM      3  C   UNL     1    -103.101  31.324 -38.512  1.00  0.00     0.053 C 
BRANCH   3   4
ATOM      4  C   UNL     1    -104.247  31.441 -37.554  1.00  0.00     0.041 C 
ATOM      5  O   UNL     1    -104.754  30.407 -37.045  1.00  0.00    -0.550 OA
ATOM      6  O   UNL     1    -104.778  32.688 -37.252  1.00  0.00    -0.550 OA
ENDBRANCH   3   4
ENDBRANCH   2   3
ENDBRANCH   1   2
BRANCH   1   7
ATOM      7  C   UNL     1    -100.060  32.029 -36.489  1.00  0.00     0.000 C 
BRANCH   7   8
ATOM      8  C   UNL     1     -99.395  31.989 -37.874  1.00  0.00    -0.000 C 
BRANCH   8   9
ATOM      9  C   UNL     1     -98.221  32.972 -37.995  1.00  0.00    -0.003 C 
ATOM     10  C   UNL     1     -97.941  33.315 -39.456  1.00  0.00     0.004 C 
ENDBRANCH   8   9
ENDBRANCH   7   8
ENDBRANCH   1   7
TORSDOF 6
ENDMDL
MODEL 6
REMARK VINA RESULT:    -3.290      3.745      5.218
REMARK INTER + INTRA:          -4.740
REMARK INTER:                  -4.506
REMARK INTRA:                  -0.234
REMARK UNBOUND:                -0.295
REMARK SMILES CCCCCCCC(=O)[O-]
REMARK SMILES IDX 5 1 6 2 7 3 8 4 9 5 10 6 4 7 3 8 2 9 1 10
REMARK H PARENT
REMARK Flexibility Score: inf
ROOT
ATOM      1  C   UNL     1    -101.045  31.684 -36.547  1.00  0.00     0.000 C 
ENDROOT
BRANCH   1   2
ATOM      2  C   UNL     1     -99.538  31.913 -36.738  1.00  0.00     0.006 C 
BRANCH   2   3
ATOM      3  C   UNL     1     -99.103  31.738 -38.198  1.00  0.00     0.053 C 
BRANCH   3   4
ATOM      4  C   UNL     1     -98.216  32.857 -38.652  1.00  0.00     0.041 C 
ATOM      5  O   UNL     1     -98.498  34.048 -38.359  1.00  0.00    -0.550 OA
ATOM      6  O   UNL     1     -97.097  32.586 -39.428  1.00  0.00    -0.550 OA
ENDBRANCH   3   4
ENDBRANCH   2   3
ENDBRANCH   1   2
BRANCH   1   7
ATOM      7  C   UNL     1    -101.605  30.776 -37.651  1.00  0.00     0.000 C 
BRANCH   7   8
ATOM      8  C   UNL     1    -103.130  30.603 -37.559  1.00  0.00    -0.000 C 
BRANCH   8   9
ATOM      9  C   UNL     1    -103.896  31.751 -38.232  1.00  0.00    -0.003 C 
ATOM     10  C   UNL     1    -104.696  31.248 -39.431  1.00  0.00     0.004 C 
ENDBRANCH   8   9
ENDBRANCH   7   8
ENDBRANCH   1   7
TORSDOF 6
ENDMDL
MODEL 7
REMARK VINA RESULT:    -3.208     14.572     15.561
REMARK INTER + INTRA:          -4.628
REMARK INTER:                  -4.212
REMARK INTRA:                  -0.415
REMARK UNBOUND:                -0.295
REMARK SMILES CCCCCCCC(=O)[O-]
REMARK SMILES IDX 5 1 6 2 7 3 8 4 9 5 10 6 4 7 3 8 2 9 1 10
REMARK H PARENT
REMARK Flexibility Score: inf
ROOT
ATOM      1  C   UNL     1     -95.610  46.400 -35.673  1.00  0.00     0.000 C 
ENDROOT
BRANCH   1   2
ATOM      2  C   UNL     1     -96.499  47.617 -35.971  1.00  0.00     0.006 C 
BRANCH   2   3
ATOM      3  C   UNL     1     -97.948  47.218 -36.279  1.00  0.00     0.053 C 
BRANCH   3   4
ATOM      4  C   UNL     1     -98.903  48.342 -36.015  1.00  0.00     0.041 C 
ATOM      5  O   UNL     1     -98.604  49.246 -35.191  1.00  0.00    -0.550 OA
ATOM      6  O   UNL     1    -100.135  48.372 -36.653  1.00  0.00    -0.550 OA
ENDBRANCH   3   4
ENDBRANCH   2   3
ENDBRANCH   1   2
BRANCH   1   7
ATOM      7  C   UNL     1     -95.713  45.359 -36.798  1.00  0.00     0.000 C 
BRANCH   7   8
ATOM      8  C   UNL     1     -95.024  45.817 -38.093  1.00  0.00    -0.000 C 
BRANCH   8   9
ATOM      9  C   UNL     1     -96.008  45.983 -39.260  1.00  0.00    -0.003 C 
ATOM     10  C   UNL     1     -95.813  47.328 -39.955  1.00  0.00     0.004 C 
ENDBRANCH   8   9
ENDBRANCH   7   8
ENDBRANCH   1   7
TORSDOF 6
ENDMDL
MODEL 8
REMARK VINA RESULT:    -3.085      3.851      5.175
REMARK INTER + INTRA:          -4.462
REMARK INTER:                  -4.148
REMARK INTRA:                  -0.314
REMARK UNBOUND:                -0.295
REMARK SMILES CCCCCCCC(=O)[O-]
REMARK SMILES IDX 5 1 6 2 7 3 8 4 9 5 10 6 4 7 3 8 2 9 1 10
REMARK H PARENT
REMARK Flexibility Score: inf
ROOT
ATOM      1  C   UNL     1    -102.527  31.304 -36.981  1.00  0.00     0.000 C 
ENDROOT
BRANCH   1   2
ATOM      2  C   UNL     1    -101.064  31.019 -36.610  1.00  0.00     0.006 C 
BRANCH   2   3
ATOM      3  C   UNL     1    -100.214  32.295 -36.573  1.00  0.00     0.053 C 
BRANCH   3   4
ATOM      4  C   UNL     1     -99.256  32.359 -37.723  1.00  0.00     0.041 C 
ATOM      5  O   UNL     1     -99.032  31.334 -38.419  1.00  0.00    -0.550 OA
ATOM      6  O   UNL     1     -98.584  33.541 -38.004  1.00  0.00    -0.550 OA
ENDBRANCH   3   4
ENDBRANCH   2   3
ENDBRANCH   1   2
BRANCH   1   7
ATOM      7  C   UNL     1    -102.778  31.031 -38.471  1.00  0.00     0.000 C 
BRANCH   7   8
ATOM      8  C   UNL     1    -104.202  31.409 -38.910  1.00  0.00    -0.000 C 
BRANCH   8   9
ATOM      9  C   UNL     1    -105.050  31.962 -37.756  1.00  0.00    -0.003 C 
ATOM     10  C   UNL     1    -105.488  33.398 -38.036  1.00  0.00     0.004 C 
ENDBRANCH   8   9
ENDBRANCH   7   8
ENDBRANCH   1   7
TORSDOF 6
ENDMDL
MODEL 9
REMARK VINA RESULT:    -3.078     14.378     15.203
REMARK INTER + INTRA:          -4.453
REMARK INTER:                  -4.029
REMARK INTRA:                  -0.424
REMARK UNBOUND:                -0.295
REMARK SMILES CCCCCCCC(=O)[O-]
REMARK SMILES IDX 5 1 6 2 7 3 8 4 9 5 10 6 4 7 3 8 2 9 1 10
REMARK H PARENT
REMARK Flexibility Score: inf
ROOT
ATOM      1  C   UNL     1     -95.546  45.427 -36.632  1.00  0.00     0.000 C 
ENDROOT
BRANCH   1   2
ATOM      2  C   UNL     1     -95.364  46.678 -35.759  1.00  0.00     0.006 C 
BRANCH   2   3
ATOM      3  C   UNL     1     -96.703  47.250 -35.276  1.00  0.00     0.053 C 
BRANCH   3   4
ATOM      4  C   UNL     1     -96.966  46.914 -33.840  1.00  0.00     0.041 C 
ATOM      5  O   UNL     1     -97.986  47.370 -33.260  1.00  0.00    -0.550 OA
ATOM      6  O   UNL     1     -96.066  46.127 -33.134  1.00  0.00    -0.550 OA
ENDBRANCH   3   4
ENDBRANCH   2   3
ENDBRANCH   1   2
BRANCH   1   7
ATOM      7  C   UNL     1     -94.976  45.654 -38.040  1.00  0.00     0.000 C 
BRANCH   7   8
ATOM      8  C   UNL     1     -96.073  45.848 -39.098  1.00  0.00    -0.000 C 
BRANCH   8   9
ATOM      9  C   UNL     1     -95.849  47.099 -39.960  1.00  0.00    -0.003 C 
ATOM     10  C   UNL     1     -95.733  48.350 -39.092  1.00  0.00     0.004 C 
ENDBRANCH   8   9
ENDBRANCH   7   8
ENDBRANCH   1   7
TORSDOF 6
ENDMDL
