MODEL 1
REMARK VINA RESULT:    -6.753      0.000      0.000
REMARK INTER + INTRA:          -7.467
REMARK INTER:                  -7.345
REMARK INTRA:                  -0.122
REMARK UNBOUND:                -0.122
REMARK SMILES CC(=O)[C@@H]1CC[C@@H]2[C@@H]3CC=C4C[C@@H](O)CC[C@@]4(C)[C@@H]3CC[C@]21C
REMARK SMILES IDX 4 1 5 2 6 3 7 4 22 5 21 6 20 7 19 8 8 9 9 10 10 11 11 12
REMARK SMILES IDX 17 13 16 14 15 15 13 16 12 17 18 18 23 19 2 20 1 21 3 22
REMARK SMILES IDX 14 23
REMARK H PARENT 14 24
REMARK Flexibility Score: inf
ROOT
ATOM      1  C   UNL     1     118.793 129.211 129.543  1.00  0.00     0.062 C 
ATOM      2  C   UNL     1     117.843 129.479 130.743  1.00  0.00     0.012 C 
ATOM      3  C   UNL     1     117.025 128.187 130.951  1.00  0.00     0.005 C 
ATOM      4  C   UNL     1     117.452 127.303 129.789  1.00  0.00    -0.001 C 
ATOM      5  C   UNL     1     118.923 127.663 129.503  1.00  0.00    -0.020 C 
ATOM      6  C   UNL     1     119.296 127.067 128.127  1.00  0.00     0.008 C 
ATOM      7  C   UNL     1     118.981 125.546 128.048  1.00  0.00     0.005 C 
ATOM      8  C   UNL     1     117.491 125.205 128.386  1.00  0.00     0.003 C 
ATOM      9  C   UNL     1     117.073 125.805 129.759  1.00  0.00     0.000 C 
ATOM     10  C   UNL     1     117.611 124.956 130.916  1.00  0.00     0.031 C 
ATOM     11  C   UNL     1     117.127 123.549 130.793  1.00  0.00    -0.027 C 
ATOM     12  C   UNL     1     116.951 122.937 129.604  1.00  0.00    -0.065 C 
ATOM     13  C   UNL     1     117.058 123.674 128.252  1.00  0.00    -0.008 C 
ATOM     14  C   UNL     1     115.632 123.633 127.612  1.00  0.00     0.014 C 
ATOM     15  C   UNL     1     114.979 122.234 127.592  1.00  0.00     0.033 C 
ATOM     16  C   UNL     1     114.949 121.584 128.984  1.00  0.00     0.118 C 
ATOM     17  C   UNL     1     116.355 121.543 129.599  1.00  0.00     0.063 C 
ATOM     18  C   UNL     1     118.038 122.899 127.330  1.00  0.00     0.016 C 
ATOM     19  C   UNL     1     119.947 127.193 130.588  1.00  0.00     0.012 C 
ENDROOT
BRANCH   1  20
ATOM     20  C   UNL     1     120.096 129.991 129.582  1.00  0.00     0.133 C 
ATOM     21  C   UNL     1     120.998 130.023 128.385  1.00  0.00     0.088 C 
ATOM     22  O   UNL     1     120.444 130.575 130.598  1.00  0.00    -0.300 OA
ENDBRANCH   1  20
BRANCH  16  23
ATOM     23  O   UNL     1     114.071 122.299 129.816  1.00  0.00    -0.393 OA
ATOM     24  H   UNL     1     114.535 122.420 130.686  1.00  0.00     0.210 HD
ENDBRANCH  16  23
TORSDOF 2
ENDMDL
MODEL 2
REMARK VINA RESULT:    -6.731      1.565      3.206
REMARK INTER + INTRA:          -7.443
REMARK INTER:                  -7.382
REMARK INTRA:                  -0.060
REMARK UNBOUND:                -0.122
REMARK SMILES CC(=O)[C@@H]1CC[C@@H]2[C@@H]3CC=C4C[C@@H](O)CC[C@@]4(C)[C@@H]3CC[C@]21C
REMARK SMILES IDX 4 1 5 2 6 3 7 4 22 5 21 6 20 7 19 8 8 9 9 10 10 11 11 12
REMARK SMILES IDX 17 13 16 14 15 15 13 16 12 17 18 18 23 19 2 20 1 21 3 22
REMARK SMILES IDX 14 23
REMARK H PARENT 14 24
REMARK Flexibility Score: inf
ROOT
ATOM      1  C   UNL     1     119.229 127.347 129.522  1.00  0.00     0.062 C 
ATOM      2  C   UNL     1     119.628 127.201 128.027  1.00  0.00     0.012 C 
ATOM      3  C   UNL     1     119.116 125.819 127.570  1.00  0.00     0.005 C 
ATOM      4  C   UNL     1     118.572 125.199 128.848  1.00  0.00    -0.001 C 
ATOM      5  C   UNL     1     118.031 126.372 129.688  1.00  0.00    -0.020 C 
ATOM      6  C   UNL     1     117.796 125.854 131.126  1.00  0.00     0.008 C 
ATOM      7  C   UNL     1     116.900 124.583 131.146  1.00  0.00     0.005 C 
ATOM      8  C   UNL     1     117.451 123.423 130.249  1.00  0.00     0.003 C 
ATOM      9  C   UNL     1     117.716 123.913 128.796  1.00  0.00     0.000 C 
ATOM     10  C   UNL     1     116.409 124.010 128.002  1.00  0.00     0.031 C 
ATOM     11  C   UNL     1     115.713 122.690 127.988  1.00  0.00    -0.027 C 
ATOM     12  C   UNL     1     115.743 121.837 129.033  1.00  0.00    -0.065 C 
ATOM     13  C   UNL     1     116.636 122.051 130.272  1.00  0.00    -0.008 C 
ATOM     14  C   UNL     1     117.672 120.879 130.279  1.00  0.00     0.014 C 
ATOM     15  C   UNL     1     117.052 119.476 130.102  1.00  0.00     0.033 C 
ATOM     16  C   UNL     1     116.162 119.384 128.852  1.00  0.00     0.118 C 
ATOM     17  C   UNL     1     115.087 120.480 128.864  1.00  0.00     0.063 C 
ATOM     18  C   UNL     1     115.761 121.946 131.551  1.00  0.00     0.016 C 
ATOM     19  C   UNL     1     116.728 127.040 129.138  1.00  0.00     0.012 C 
ENDROOT
BRANCH   1  20
ATOM     20  C   UNL     1     118.995 128.777 129.976  1.00  0.00     0.133 C 
ATOM     21  C   UNL     1     119.399 129.927 129.103  1.00  0.00     0.088 C 
ATOM     22  O   UNL     1     118.507 129.013 131.072  1.00  0.00    -0.300 OA
ENDBRANCH   1  20
BRANCH  16  23
ATOM     23  O   UNL     1     116.959 119.494 127.700  1.00  0.00    -0.393 OA
ATOM     24  H   UNL     1     117.882 119.240 127.966  1.00  0.00     0.210 HD
ENDBRANCH  16  23
TORSDOF 2
ENDMDL
MODEL 3
REMARK VINA RESULT:    -6.635      3.369      6.843
REMARK INTER + INTRA:          -7.338
REMARK INTER:                  -7.261
REMARK INTRA:                  -0.077
REMARK UNBOUND:                -0.122
REMARK SMILES CC(=O)[C@@H]1CC[C@@H]2[C@@H]3CC=C4C[C@@H](O)CC[C@@]4(C)[C@@H]3CC[C@]21C
REMARK SMILES IDX 4 1 5 2 6 3 7 4 22 5 21 6 20 7 19 8 8 9 9 10 10 11 11 12
REMARK SMILES IDX 17 13 16 14 15 15 13 16 12 17 18 18 23 19 2 20 1 21 3 22
REMARK SMILES IDX 14 23
REMARK H PARENT 14 24
REMARK Flexibility Score: inf
ROOT
ATOM      1  C   UNL     1     117.703 120.693 134.197  1.00  0.00     0.062 C 
ATOM      2  C   UNL     1     116.192 120.372 134.024  1.00  0.00     0.012 C 
ATOM      3  C   UNL     1     115.709 121.182 132.803  1.00  0.00     0.005 C 
ATOM      4  C   UNL     1     116.925 122.016 132.424  1.00  0.00    -0.001 C 
ATOM      5  C   UNL     1     118.153 121.158 132.784  1.00  0.00    -0.020 C 
ATOM      6  C   UNL     1     119.396 122.077 132.757  1.00  0.00     0.008 C 
ATOM      7  C   UNL     1     119.521 122.843 131.410  1.00  0.00     0.005 C 
ATOM      8  C   UNL     1     118.242 123.672 131.048  1.00  0.00     0.003 C 
ATOM      9  C   UNL     1     116.967 122.782 131.083  1.00  0.00     0.000 C 
ATOM     10  C   UNL     1     116.862 121.922 129.818  1.00  0.00     0.031 C 
ATOM     11  C   UNL     1     116.860 122.788 128.603  1.00  0.00    -0.027 C 
ATOM     12  C   UNL     1     117.570 123.932 128.519  1.00  0.00    -0.065 C 
ATOM     13  C   UNL     1     118.313 124.555 129.720  1.00  0.00    -0.008 C 
ATOM     14  C   UNL     1     117.609 125.920 130.014  1.00  0.00     0.014 C 
ATOM     15  C   UNL     1     117.413 126.820 128.775  1.00  0.00     0.033 C 
ATOM     16  C   UNL     1     116.688 126.091 127.633  1.00  0.00     0.118 C 
ATOM     17  C   UNL     1     117.408 124.783 127.275  1.00  0.00     0.063 C 
ATOM     18  C   UNL     1     119.786 124.833 129.315  1.00  0.00     0.016 C 
ATOM     19  C   UNL     1     118.386 119.911 131.869  1.00  0.00     0.012 C 
ENDROOT
BRANCH   1  20
ATOM     20  C   UNL     1     118.518 119.574 134.824  1.00  0.00     0.133 C 
ATOM     21  C   UNL     1     119.973 119.772 135.125  1.00  0.00     0.088 C 
ATOM     22  O   UNL     1     118.009 118.488 135.060  1.00  0.00    -0.300 OA
ENDBRANCH   1  20
BRANCH  16  23
ATOM     23  O   UNL     1     115.360 125.831 128.012  1.00  0.00    -0.393 OA
ATOM     24  H   UNL     1     114.889 126.705 128.025  1.00  0.00     0.210 HD
ENDBRANCH  16  23
TORSDOF 2
ENDMDL
MODEL 4
REMARK VINA RESULT:    -6.389      3.550      5.230
REMARK INTER + INTRA:          -7.071
REMARK INTER:                  -6.863
REMARK INTRA:                  -0.209
REMARK UNBOUND:                -0.122
REMARK SMILES CC(=O)[C@@H]1CC[C@@H]2[C@@H]3CC=C4C[C@@H](O)CC[C@@]4(C)[C@@H]3CC[C@]21C
REMARK SMILES IDX 4 1 5 2 6 3 7 4 22 5 21 6 20 7 19 8 8 9 9 10 10 11 11 12
REMARK SMILES IDX 17 13 16 14 15 15 13 16 12 17 18 18 23 19 2 20 1 21 3 22
REMARK SMILES IDX 14 23
REMARK H PARENT 14 24
REMARK Flexibility Score: inf
ROOT
ATOM      1  C   UNL     1     117.896 125.750 127.818  1.00  0.00     0.062 C 
ATOM      2  C   UNL     1     116.447 125.189 127.860  1.00  0.00     0.012 C 
ATOM      3  C   UNL     1     116.536 123.712 127.423  1.00  0.00     0.005 C 
ATOM      4  C   UNL     1     117.997 123.543 127.033  1.00  0.00    -0.001 C 
ATOM      5  C   UNL     1     118.792 124.488 127.954  1.00  0.00    -0.020 C 
ATOM      6  C   UNL     1     120.218 124.625 127.373  1.00  0.00     0.008 C 
ATOM      7  C   UNL     1     120.887 123.240 127.144  1.00  0.00     0.005 C 
ATOM      8  C   UNL     1     120.037 122.285 126.240  1.00  0.00     0.003 C 
ATOM      9  C   UNL     1     118.587 122.136 126.785  1.00  0.00     0.000 C 
ATOM     10  C   UNL     1     118.545 121.174 127.977  1.00  0.00     0.031 C 
ATOM     11  C   UNL     1     119.093 119.842 127.586  1.00  0.00    -0.027 C 
ATOM     12  C   UNL     1     120.107 119.697 126.708  1.00  0.00    -0.065 C 
ATOM     13  C   UNL     1     120.685 120.869 125.886  1.00  0.00    -0.008 C 
ATOM     14  C   UNL     1     120.365 120.557 124.387  1.00  0.00     0.014 C 
ATOM     15  C   UNL     1     120.750 119.133 123.933  1.00  0.00     0.033 C 
ATOM     16  C   UNL     1     120.143 118.048 124.837  1.00  0.00     0.118 C 
ATOM     17  C   UNL     1     120.510 118.292 126.307  1.00  0.00     0.063 C 
ATOM     18  C   UNL     1     122.227 120.903 126.067  1.00  0.00     0.016 C 
ATOM     19  C   UNL     1     118.863 124.052 129.455  1.00  0.00     0.012 C 
ENDROOT
BRANCH   1  20
ATOM     20  C   UNL     1     118.167 126.873 128.805  1.00  0.00     0.133 C 
ATOM     21  C   UNL     1     117.146 127.237 129.840  1.00  0.00     0.088 C 
ATOM     22  O   UNL     1     119.205 127.517 128.748  1.00  0.00    -0.300 OA
ENDBRANCH   1  20
BRANCH  16  23
ATOM     23  O   UNL     1     118.747 118.033 124.676  1.00  0.00    -0.393 OA
ATOM     24  H   UNL     1     118.571 117.913 123.707  1.00  0.00     0.210 HD
ENDBRANCH  16  23
TORSDOF 2
ENDMDL
MODEL 5
REMARK VINA RESULT:    -6.315      1.716      6.942
REMARK INTER + INTRA:          -6.990
REMARK INTER:                  -7.009
REMARK INTRA:                   0.019
REMARK UNBOUND:                -0.122
REMARK SMILES CC(=O)[C@@H]1CC[C@@H]2[C@@H]3CC=C4C[C@@H](O)CC[C@@]4(C)[C@@H]3CC[C@]21C
REMARK SMILES IDX 4 1 5 2 6 3 7 4 22 5 21 6 20 7 19 8 8 9 9 10 10 11 11 12
REMARK SMILES IDX 17 13 16 14 15 15 13 16 12 17 18 18 23 19 2 20 1 21 3 22
REMARK SMILES IDX 14 23
REMARK H PARENT 14 24
REMARK Flexibility Score: inf
ROOT
ATOM      1  C   UNL     1     116.906 120.652 130.738  1.00  0.00     0.062 C 
ATOM      2  C   UNL     1     117.667 120.739 132.090  1.00  0.00     0.012 C 
ATOM      3  C   UNL     1     118.200 122.182 132.200  1.00  0.00     0.005 C 
ATOM      4  C   UNL     1     117.833 122.802 130.860  1.00  0.00    -0.001 C 
ATOM      5  C   UNL     1     116.519 122.125 130.428  1.00  0.00    -0.020 C 
ATOM      6  C   UNL     1     116.290 122.447 128.933  1.00  0.00     0.008 C 
ATOM      7  C   UNL     1     116.346 123.976 128.654  1.00  0.00     0.005 C 
ATOM      8  C   UNL     1     117.674 124.646 129.143  1.00  0.00     0.003 C 
ATOM      9  C   UNL     1     117.946 124.328 130.641  1.00  0.00     0.000 C 
ATOM     10  C   UNL     1     117.079 125.201 131.554  1.00  0.00     0.031 C 
ATOM     11  C   UNL     1     117.326 126.646 131.275  1.00  0.00    -0.027 C 
ATOM     12  C   UNL     1     117.595 127.117 130.039  1.00  0.00    -0.065 C 
ATOM     13  C   UNL     1     117.851 126.200 128.825  1.00  0.00    -0.008 C 
ATOM     14  C   UNL     1     119.337 126.436 128.399  1.00  0.00     0.014 C 
ATOM     15  C   UNL     1     119.731 127.920 128.245  1.00  0.00     0.033 C 
ATOM     16  C   UNL     1     119.409 128.744 129.502  1.00  0.00     0.118 C 
ATOM     17  C   UNL     1     117.933 128.588 129.894  1.00  0.00     0.063 C 
ATOM     18  C   UNL     1     116.926 126.637 127.657  1.00  0.00     0.016 C 
ATOM     19  C   UNL     1     115.257 122.524 131.263  1.00  0.00     0.012 C 
ENDROOT
BRANCH   1  20
ATOM     20  C   UNL     1     115.771 119.643 130.715  1.00  0.00     0.133 C 
ATOM     21  C   UNL     1     115.519 118.810 129.494  1.00  0.00     0.088 C 
ATOM     22  O   UNL     1     115.027 119.519 131.677  1.00  0.00    -0.300 OA
ENDBRANCH   1  20
BRANCH  16  23
ATOM     23  O   UNL     1     120.241 128.333 130.557  1.00  0.00    -0.393 OA
ATOM     24  H   UNL     1     119.694 127.743 131.141  1.00  0.00     0.210 HD
ENDBRANCH  16  23
TORSDOF 2
ENDMDL
MODEL 6
REMARK VINA RESULT:    -6.142      5.080      7.415
REMARK INTER + INTRA:          -6.802
REMARK INTER:                  -6.642
REMARK INTRA:                  -0.160
REMARK UNBOUND:                -0.122
REMARK SMILES CC(=O)[C@@H]1CC[C@@H]2[C@@H]3CC=C4C[C@@H](O)CC[C@@]4(C)[C@@H]3CC[C@]21C
REMARK SMILES IDX 4 1 5 2 6 3 7 4 22 5 21 6 20 7 19 8 8 9 9 10 10 11 11 12
REMARK SMILES IDX 17 13 16 14 15 15 13 16 12 17 18 18 23 19 2 20 1 21 3 22
REMARK SMILES IDX 14 23
REMARK H PARENT 14 24
REMARK Flexibility Score: inf
ROOT
ATOM      1  C   UNL     1     115.251 122.739 128.331  1.00  0.00     0.062 C 
ATOM      2  C   UNL     1     116.387 122.734 127.271  1.00  0.00     0.012 C 
ATOM      3  C   UNL     1     117.639 122.168 127.972  1.00  0.00     0.005 C 
ATOM      4  C   UNL     1     117.193 122.001 129.418  1.00  0.00    -0.001 C 
ATOM      5  C   UNL     1     115.692 121.661 129.360  1.00  0.00    -0.020 C 
ATOM      6  C   UNL     1     115.113 121.832 130.783  1.00  0.00     0.008 C 
ATOM      7  C   UNL     1     115.916 121.018 131.837  1.00  0.00     0.005 C 
ATOM      8  C   UNL     1     117.445 121.352 131.844  1.00  0.00     0.003 C 
ATOM      9  C   UNL     1     118.059 121.207 130.422  1.00  0.00     0.000 C 
ATOM     10  C   UNL     1     118.304 119.735 130.076  1.00  0.00     0.031 C 
ATOM     11  C   UNL     1     119.195 119.106 131.095  1.00  0.00    -0.027 C 
ATOM     12  C   UNL     1     119.161 119.439 132.402  1.00  0.00    -0.065 C 
ATOM     13  C   UNL     1     118.334 120.620 132.950  1.00  0.00    -0.008 C 
ATOM     14  C   UNL     1     119.361 121.660 133.505  1.00  0.00     0.014 C 
ATOM     15  C   UNL     1     120.431 121.064 134.445  1.00  0.00     0.033 C 
ATOM     16  C   UNL     1     121.175 119.879 133.807  1.00  0.00     0.118 C 
ATOM     17  C   UNL     1     120.186 118.809 133.325  1.00  0.00     0.063 C 
ATOM     18  C   UNL     1     117.453 120.117 134.127  1.00  0.00     0.016 C 
ATOM     19  C   UNL     1     115.352 120.237 128.809  1.00  0.00     0.012 C 
ENDROOT
BRANCH   1  20
ATOM     20  C   UNL     1     113.853 122.585 127.758  1.00  0.00     0.133 C 
ATOM     21  C   UNL     1     113.651 121.998 126.393  1.00  0.00     0.088 C 
ATOM     22  O   UNL     1     112.875 122.966 128.386  1.00  0.00    -0.300 OA
ENDBRANCH   1  20
BRANCH  16  23
ATOM     23  O   UNL     1     121.958 120.341 132.736  1.00  0.00    -0.393 OA
ATOM     24  H   UNL     1     121.746 121.304 132.619  1.00  0.00     0.210 HD
ENDBRANCH  16  23
TORSDOF 2
ENDMDL
MODEL 7
REMARK VINA RESULT:    -6.113      4.556      7.404
REMARK INTER + INTRA:          -6.771
REMARK INTER:                  -6.602
REMARK INTRA:                  -0.169
REMARK UNBOUND:                -0.122
REMARK SMILES CC(=O)[C@@H]1CC[C@@H]2[C@@H]3CC=C4C[C@@H](O)CC[C@@]4(C)[C@@H]3CC[C@]21C
REMARK SMILES IDX 4 1 5 2 6 3 7 4 22 5 21 6 20 7 19 8 8 9 9 10 10 11 11 12
REMARK SMILES IDX 17 13 16 14 15 15 13 16 12 17 18 18 23 19 2 20 1 21 3 22
REMARK SMILES IDX 14 23
REMARK H PARENT 14 24
REMARK Flexibility Score: inf
ROOT
ATOM      1  C   UNL     1     115.488 121.600 128.378  1.00  0.00     0.062 C 
ATOM      2  C   UNL     1     114.815 120.208 128.533  1.00  0.00     0.012 C 
ATOM      3  C   UNL     1     115.523 119.508 129.711  1.00  0.00     0.005 C 
ATOM      4  C   UNL     1     116.640 120.473 130.081  1.00  0.00    -0.001 C 
ATOM      5  C   UNL     1     116.096 121.883 129.779  1.00  0.00    -0.020 C 
ATOM      6  C   UNL     1     117.291 122.863 129.795  1.00  0.00     0.008 C 
ATOM      7  C   UNL     1     118.110 122.760 131.113  1.00  0.00     0.005 C 
ATOM      8  C   UNL     1     118.613 121.308 131.416  1.00  0.00     0.003 C 
ATOM      9  C   UNL     1     117.438 120.289 131.391  1.00  0.00     0.000 C 
ATOM     10  C   UNL     1     116.622 120.360 132.686  1.00  0.00     0.031 C 
ATOM     11  C   UNL     1     117.502 120.113 133.866  1.00  0.00    -0.027 C 
ATOM     12  C   UNL     1     118.786 120.521 133.919  1.00  0.00    -0.065 C 
ATOM     13  C   UNL     1     119.531 121.124 132.709  1.00  0.00    -0.008 C 
ATOM     14  C   UNL     1     120.672 120.118 132.347  1.00  0.00     0.014 C 
ATOM     15  C   UNL     1     121.538 119.674 133.545  1.00  0.00     0.033 C 
ATOM     16  C   UNL     1     120.693 119.115 134.701  1.00  0.00     0.118 C 
ATOM     17  C   UNL     1     119.614 120.121 135.125  1.00  0.00     0.063 C 
ATOM     18  C   UNL     1     120.173 122.473 133.131  1.00  0.00     0.016 C 
ATOM     19  C   UNL     1     114.975 122.385 130.748  1.00  0.00     0.012 C 
ENDROOT
BRANCH   1  20
ATOM     20  C   UNL     1     114.582 122.680 127.812  1.00  0.00     0.133 C 
ATOM     21  C   UNL     1     113.166 122.362 127.432  1.00  0.00     0.088 C 
ATOM     22  O   UNL     1     115.001 123.813 127.626  1.00  0.00    -0.300 OA
ENDBRANCH   1  20
BRANCH  16  23
ATOM     23  O   UNL     1     120.104 117.902 134.306  1.00  0.00    -0.393 OA
ATOM     24  H   UNL     1     120.671 117.532 133.580  1.00  0.00     0.210 HD
ENDBRANCH  16  23
TORSDOF 2
ENDMDL
MODEL 8
REMARK VINA RESULT:    -6.099      5.429      8.358
REMARK INTER + INTRA:          -6.755
REMARK INTER:                  -6.544
REMARK INTRA:                  -0.211
REMARK UNBOUND:                -0.122
REMARK SMILES CC(=O)[C@@H]1CC[C@@H]2[C@@H]3CC=C4C[C@@H](O)CC[C@@]4(C)[C@@H]3CC[C@]21C
REMARK SMILES IDX 4 1 5 2 6 3 7 4 22 5 21 6 20 7 19 8 8 9 9 10 10 11 11 12
REMARK SMILES IDX 17 13 16 14 15 15 13 16 12 17 18 18 23 19 2 20 1 21 3 22
REMARK SMILES IDX 14 23
REMARK H PARENT 14 24
REMARK Flexibility Score: inf
ROOT
ATOM      1  C   UNL     1     120.661 117.598 127.799  1.00  0.00     0.062 C 
ATOM      2  C   UNL     1     119.859 116.273 127.925  1.00  0.00     0.012 C 
ATOM      3  C   UNL     1     118.643 116.581 128.823  1.00  0.00     0.005 C 
ATOM      4  C   UNL     1     118.881 118.017 129.266  1.00  0.00    -0.001 C 
ATOM      5  C   UNL     1     119.611 118.704 128.096  1.00  0.00    -0.020 C 
ATOM      6  C   UNL     1     120.188 120.040 128.618  1.00  0.00     0.008 C 
ATOM      7  C   UNL     1     119.099 120.916 129.298  1.00  0.00     0.005 C 
ATOM      8  C   UNL     1     118.343 120.178 130.455  1.00  0.00     0.003 C 
ATOM      9  C   UNL     1     117.763 118.819 129.970  1.00  0.00     0.000 C 
ATOM     10  C   UNL     1     116.479 119.028 129.160  1.00  0.00     0.031 C 
ATOM     11  C   UNL     1     115.468 119.766 129.974  1.00  0.00    -0.027 C 
ATOM     12  C   UNL     1     115.803 120.723 130.864  1.00  0.00    -0.065 C 
ATOM     13  C   UNL     1     117.262 121.031 131.263  1.00  0.00    -0.008 C 
ATOM     14  C   UNL     1     117.394 120.661 132.776  1.00  0.00     0.014 C 
ATOM     15  C   UNL     1     116.287 121.249 133.678  1.00  0.00     0.033 C 
ATOM     16  C   UNL     1     114.877 120.903 133.173  1.00  0.00     0.118 C 
ATOM     17  C   UNL     1     114.701 121.329 131.709  1.00  0.00     0.063 C 
ATOM     18  C   UNL     1     117.520 122.553 131.100  1.00  0.00     0.016 C 
ATOM     19  C   UNL     1     118.738 118.957 126.823  1.00  0.00     0.012 C 
ENDROOT
BRANCH   1  20
ATOM     20  C   UNL     1     121.438 117.745 126.502  1.00  0.00     0.133 C 
ATOM     21  C   UNL     1     121.262 116.750 125.394  1.00  0.00     0.088 C 
ATOM     22  O   UNL     1     122.241 118.655 126.354  1.00  0.00    -0.300 OA
ENDBRANCH   1  20
BRANCH  16  23
ATOM     23  O   UNL     1     114.657 119.522 133.311  1.00  0.00    -0.393 OA
ATOM     24  H   UNL     1     115.530 119.076 133.159  1.00  0.00     0.210 HD
ENDBRANCH  16  23
TORSDOF 2
ENDMDL
MODEL 9
REMARK VINA RESULT:    -6.083      3.250      6.762
REMARK INTER + INTRA:          -6.738
REMARK INTER:                  -6.611
REMARK INTRA:                  -0.127
REMARK UNBOUND:                -0.122
REMARK SMILES CC(=O)[C@@H]1CC[C@@H]2[C@@H]3CC=C4C[C@@H](O)CC[C@@]4(C)[C@@H]3CC[C@]21C
REMARK SMILES IDX 4 1 5 2 6 3 7 4 22 5 21 6 20 7 19 8 8 9 9 10 10 11 11 12
REMARK SMILES IDX 17 13 16 14 15 15 13 16 12 17 18 18 23 19 2 20 1 21 3 22
REMARK SMILES IDX 14 23
REMARK H PARENT 14 24
REMARK Flexibility Score: inf
ROOT
ATOM      1  C   UNL     1     121.441 121.269 126.158  1.00  0.00     0.062 C 
ATOM      2  C   UNL     1     122.245 120.907 127.437  1.00  0.00     0.012 C 
ATOM      3  C   UNL     1     121.756 121.860 128.547  1.00  0.00     0.005 C 
ATOM      4  C   UNL     1     120.801 122.794 127.819  1.00  0.00    -0.001 C 
ATOM      5  C   UNL     1     120.156 121.952 126.702  1.00  0.00    -0.020 C 
ATOM      6  C   UNL     1     119.458 122.922 125.721  1.00  0.00     0.008 C 
ATOM      7  C   UNL     1     118.474 123.879 126.453  1.00  0.00     0.005 C 
ATOM      8  C   UNL     1     119.146 124.690 127.611  1.00  0.00     0.003 C 
ATOM      9  C   UNL     1     119.875 123.746 128.610  1.00  0.00     0.000 C 
ATOM     10  C   UNL     1     118.876 123.072 129.557  1.00  0.00     0.031 C 
ATOM     11  C   UNL     1     118.087 124.103 130.294  1.00  0.00    -0.027 C 
ATOM     12  C   UNL     1     117.723 125.279 129.742  1.00  0.00    -0.065 C 
ATOM     13  C   UNL     1     118.228 125.757 128.365  1.00  0.00    -0.008 C 
ATOM     14  C   UNL     1     119.094 127.032 128.631  1.00  0.00     0.014 C 
ATOM     15  C   UNL     1     118.418 128.089 129.529  1.00  0.00     0.033 C 
ATOM     16  C   UNL     1     117.930 127.499 130.861  1.00  0.00     0.118 C 
ATOM     17  C   UNL     1     117.014 126.291 130.621  1.00  0.00     0.063 C 
ATOM     18  C   UNL     1     117.010 126.158 127.490  1.00  0.00     0.016 C 
ATOM     19  C   UNL     1     119.145 120.861 127.189  1.00  0.00     0.012 C 
ENDROOT
BRANCH   1  20
ATOM     20  C   UNL     1     121.227 120.111 125.197  1.00  0.00     0.133 C 
ATOM     21  C   UNL     1     120.736 120.362 123.803  1.00  0.00     0.088 C 
ATOM     22  O   UNL     1     121.420 118.958 125.556  1.00  0.00    -0.300 OA
ENDBRANCH   1  20
BRANCH  16  23
ATOM     23  O   UNL     1     119.038 127.125 131.641  1.00  0.00    -0.393 OA
ATOM     24  H   UNL     1     119.554 127.955 131.822  1.00  0.00     0.210 HD
ENDBRANCH  16  23
TORSDOF 2
ENDMDL
