MODEL 1
REMARK VINA RESULT:    -4.634      0.000      0.000
REMARK INTER + INTRA:          -9.644
REMARK INTER:                  -8.426
REMARK INTRA:                  -1.218
REMARK UNBOUND:                -1.218
REMARK SMILES CCCCCCCCCCCCCCCC(=O)[O-]
REMARK SMILES IDX 9 1 10 2 11 3 12 4 13 5 14 6 15 7 16 8 17 9 18 10 8 11 7 12
REMARK SMILES IDX 6 13 5 14 4 15 3 16 2 17 1 18
REMARK H PARENT
REMARK Flexibility Score: inf
ROOT
ATOM      1  C   UNL     1       2.524  -2.646  -8.955  1.00  0.00     0.000 C 
ENDROOT
BRANCH   1   2
ATOM      2  C   UNL     1       2.907  -3.046  -7.519  1.00  0.00     0.000 C 
BRANCH   2   3
ATOM      3  C   UNL     1       2.276  -4.381  -7.090  1.00  0.00     0.000 C 
BRANCH   3   4
ATOM      4  C   UNL     1       3.046  -5.597  -7.632  1.00  0.00     0.000 C 
BRANCH   4   5
ATOM      5  C   UNL     1       4.467  -5.714  -7.049  1.00  0.00     0.000 C 
BRANCH   5   6
ATOM      6  C   UNL     1       4.531  -6.036  -5.545  1.00  0.00     0.006 C 
BRANCH   6   7
ATOM      7  C   UNL     1       5.873  -6.646  -5.120  1.00  0.00     0.053 C 
BRANCH   7   8
ATOM      8  C   UNL     1       5.654  -7.936  -4.394  1.00  0.00     0.041 C 
ATOM      9  O   UNL     1       4.914  -7.970  -3.375  1.00  0.00    -0.550 OA
ATOM     10  O   UNL     1       6.226  -9.108  -4.869  1.00  0.00    -0.550 OA
ENDBRANCH   7   8
ENDBRANCH   6   7
ENDBRANCH   5   6
ENDBRANCH   4   5
ENDBRANCH   3   4
ENDBRANCH   2   3
ENDBRANCH   1   2
BRANCH   1  11
ATOM     11  C   UNL     1       3.712  -2.725  -9.927  1.00  0.00     0.000 C 
BRANCH  11  12
ATOM     12  C   UNL     1       5.070  -2.621  -9.211  1.00  0.00    -0.000 C 
BRANCH  12  13
ATOM     13  C   UNL     1       6.027  -1.634  -9.901  1.00  0.00    -0.000 C 
BRANCH  13  14
ATOM     14  C   UNL     1       6.782  -0.739  -8.903  1.00  0.00    -0.000 C 
BRANCH  14  15
ATOM     15  C   UNL     1       5.892  -0.275  -7.739  1.00  0.00    -0.000 C 
BRANCH  15  16
ATOM     16  C   UNL     1       6.571   0.800  -6.871  1.00  0.00    -0.000 C 
BRANCH  16  17
ATOM     17  C   UNL     1       8.102   0.769  -6.988  1.00  0.00    -0.003 C 
ATOM     18  C   UNL     1       8.765  -0.013  -5.854  1.00  0.00     0.004 C 
ENDBRANCH  16  17
ENDBRANCH  15  16
ENDBRANCH  14  15
ENDBRANCH  13  14
ENDBRANCH  12  13
ENDBRANCH  11  12
ENDBRANCH   1  11
TORSDOF 14
ENDMDL
MODEL 2
REMARK VINA RESULT:    -4.590      1.215      2.547
REMARK INTER + INTRA:          -9.565
REMARK INTER:                  -7.931
REMARK INTRA:                  -1.634
REMARK UNBOUND:                -1.218
REMARK SMILES CCCCCCCCCCCCCCCC(=O)[O-]
REMARK SMILES IDX 9 1 10 2 11 3 12 4 13 5 14 6 15 7 16 8 17 9 18 10 8 11 7 12
REMARK SMILES IDX 6 13 5 14 4 15 3 16 2 17 1 18
REMARK H PARENT
REMARK Flexibility Score: inf
ROOT
ATOM      1  C   UNL     1       2.944  -4.769  -7.000  1.00  0.00     0.000 C 
ENDROOT
BRANCH   1   2
ATOM      2  C   UNL     1       3.029  -6.115  -7.743  1.00  0.00     0.000 C 
BRANCH   2   3
ATOM      3  C   UNL     1       4.277  -6.217  -8.635  1.00  0.00     0.000 C 
BRANCH   3   4
ATOM      4  C   UNL     1       5.579  -5.943  -7.861  1.00  0.00     0.000 C 
BRANCH   4   5
ATOM      5  C   UNL     1       6.265  -7.230  -7.367  1.00  0.00     0.000 C 
BRANCH   5   6
ATOM      6  C   UNL     1       6.641  -7.238  -5.874  1.00  0.00     0.006 C 
BRANCH   6   7
ATOM      7  C   UNL     1       5.695  -6.390  -5.014  1.00  0.00     0.053 C 
BRANCH   7   8
ATOM      8  C   UNL     1       4.594  -7.236  -4.459  1.00  0.00     0.041 C 
ATOM      9  O   UNL     1       3.465  -6.730  -4.222  1.00  0.00    -0.550 OA
ATOM     10  O   UNL     1       4.798  -8.593  -4.248  1.00  0.00    -0.550 OA
ENDBRANCH   7   8
ENDBRANCH   6   7
ENDBRANCH   5   6
ENDBRANCH   4   5
ENDBRANCH   3   4
ENDBRANCH   2   3
ENDBRANCH   1   2
BRANCH   1  11
ATOM     11  C   UNL     1       1.808  -3.876  -7.523  1.00  0.00     0.000 C 
BRANCH  11  12
ATOM     12  C   UNL     1       2.324  -2.566  -8.144  1.00  0.00    -0.000 C 
BRANCH  12  13
ATOM     13  C   UNL     1       3.851  -2.424  -8.038  1.00  0.00    -0.000 C 
BRANCH  13  14
ATOM     14  C   UNL     1       4.543  -2.386  -9.412  1.00  0.00    -0.000 C 
BRANCH  14  15
ATOM     15  C   UNL     1       6.035  -2.034  -9.311  1.00  0.00    -0.000 C 
BRANCH  15  16
ATOM     16  C   UNL     1       6.273  -0.524  -9.131  1.00  0.00    -0.000 C 
BRANCH  16  17
ATOM     17  C   UNL     1       6.588  -0.148  -7.675  1.00  0.00    -0.003 C 
ATOM     18  C   UNL     1       6.451   1.351  -7.410  1.00  0.00     0.004 C 
ENDBRANCH  16  17
ENDBRANCH  15  16
ENDBRANCH  14  15
ENDBRANCH  13  14
ENDBRANCH  12  13
ENDBRANCH  11  12
ENDBRANCH   1  11
TORSDOF 14
ENDMDL
MODEL 3
REMARK VINA RESULT:    -4.428      2.903      4.597
REMARK INTER + INTRA:          -9.270
REMARK INTER:                  -7.378
REMARK INTRA:                  -1.892
REMARK UNBOUND:                -1.218
REMARK SMILES CCCCCCCCCCCCCCCC(=O)[O-]
REMARK SMILES IDX 9 1 10 2 11 3 12 4 13 5 14 6 15 7 16 8 17 9 18 10 8 11 7 12
REMARK SMILES IDX 6 13 5 14 4 15 3 16 2 17 1 18
REMARK H PARENT
REMARK Flexibility Score: inf
ROOT
ATOM      1  C   UNL     1       4.669  -6.670  -9.140  1.00  0.00     0.000 C 
ENDROOT
BRANCH   1   2
ATOM      2  C   UNL     1       4.822  -7.957  -8.310  1.00  0.00     0.000 C 
BRANCH   2   3
ATOM      3  C   UNL     1       3.815  -8.035  -7.151  1.00  0.00     0.000 C 
BRANCH   3   4
ATOM      4  C   UNL     1       3.184  -6.670  -6.826  1.00  0.00     0.000 C 
BRANCH   4   5
ATOM      5  C   UNL     1       3.832  -5.986  -5.608  1.00  0.00     0.000 C 
BRANCH   5   6
ATOM      6  C   UNL     1       4.714  -6.900  -4.738  1.00  0.00     0.006 C 
BRANCH   6   7
ATOM      7  C   UNL     1       6.150  -6.383  -4.590  1.00  0.00     0.053 C 
BRANCH   7   8
ATOM      8  C   UNL     1       7.130  -7.444  -4.978  1.00  0.00     0.041 C 
ATOM      9  O   UNL     1       8.363  -7.186  -5.010  1.00  0.00    -0.550 OA
ATOM     10  O   UNL     1       6.689  -8.730  -5.256  1.00  0.00    -0.550 OA
ENDBRANCH   7   8
ENDBRANCH   6   7
ENDBRANCH   5   6
ENDBRANCH   4   5
ENDBRANCH   3   4
ENDBRANCH   2   3
ENDBRANCH   1   2
BRANCH   1  11
ATOM     11  C   UNL     1       5.944  -5.812  -9.142  1.00  0.00     0.000 C 
BRANCH  11  12
ATOM     12  C   UNL     1       5.643  -4.303  -9.150  1.00  0.00    -0.000 C 
BRANCH  12  13
ATOM     13  C   UNL     1       4.136  -4.003  -9.212  1.00  0.00    -0.000 C 
BRANCH  13  14
ATOM     14  C   UNL     1       3.745  -2.750  -8.408  1.00  0.00    -0.000 C 
BRANCH  14  15
ATOM     15  C   UNL     1       2.641  -3.033  -7.377  1.00  0.00    -0.000 C 
BRANCH  15  16
ATOM     16  C   UNL     1       1.379  -3.639  -8.017  1.00  0.00    -0.000 C 
BRANCH  16  17
ATOM     17  C   UNL     1       0.563  -2.602  -8.803  1.00  0.00    -0.003 C 
ATOM     18  C   UNL     1      -0.554  -3.235  -9.632  1.00  0.00     0.004 C 
ENDBRANCH  16  17
ENDBRANCH  15  16
ENDBRANCH  14  15
ENDBRANCH  13  14
ENDBRANCH  12  13
ENDBRANCH  11  12
ENDBRANCH   1  11
TORSDOF 14
ENDMDL
MODEL 4
REMARK VINA RESULT:    -4.370      3.479      6.838
REMARK INTER + INTRA:          -9.163
REMARK INTER:                  -8.064
REMARK INTRA:                  -1.099
REMARK UNBOUND:                -1.218
REMARK SMILES CCCCCCCCCCCCCCCC(=O)[O-]
REMARK SMILES IDX 9 1 10 2 11 3 12 4 13 5 14 6 15 7 16 8 17 9 18 10 8 11 7 12
REMARK SMILES IDX 6 13 5 14 4 15 3 16 2 17 1 18
REMARK H PARENT
REMARK Flexibility Score: inf
ROOT
ATOM      1  C   UNL     1       3.170  -2.947  -7.445  1.00  0.00     0.000 C 
ENDROOT
BRANCH   1   2
ATOM      2  C   UNL     1       3.603  -2.729  -8.906  1.00  0.00     0.000 C 
BRANCH   2   3
ATOM      3  C   UNL     1       5.123  -2.864  -9.096  1.00  0.00     0.000 C 
BRANCH   3   4
ATOM      4  C   UNL     1       5.730  -1.671  -9.854  1.00  0.00     0.000 C 
BRANCH   4   5
ATOM      5  C   UNL     1       6.628  -0.790  -8.966  1.00  0.00     0.000 C 
BRANCH   5   6
ATOM      6  C   UNL     1       5.941  -0.208  -7.717  1.00  0.00     0.006 C 
BRANCH   6   7
ATOM      7  C   UNL     1       6.647   1.039  -7.171  1.00  0.00     0.053 C 
BRANCH   7   8
ATOM      8  C   UNL     1       8.098   0.758  -6.939  1.00  0.00     0.041 C 
ATOM      9  O   UNL     1       8.450  -0.037  -6.027  1.00  0.00    -0.550 OA
ATOM     10  O   UNL     1       9.059   1.334  -7.759  1.00  0.00    -0.550 OA
ENDBRANCH   7   8
ENDBRANCH   6   7
ENDBRANCH   5   6
ENDBRANCH   4   5
ENDBRANCH   3   4
ENDBRANCH   2   3
ENDBRANCH   1   2
BRANCH   1  11
ATOM     11  C   UNL     1       2.242  -4.162  -7.279  1.00  0.00     0.000 C 
BRANCH  11  12
ATOM     12  C   UNL     1       2.920  -5.484  -7.678  1.00  0.00    -0.000 C 
BRANCH  12  13
ATOM     13  C   UNL     1       3.982  -5.932  -6.659  1.00  0.00    -0.000 C 
BRANCH  13  14
ATOM     14  C   UNL     1       3.370  -6.603  -5.417  1.00  0.00    -0.000 C 
BRANCH  14  15
ATOM     15  C   UNL     1       4.421  -6.924  -4.343  1.00  0.00    -0.000 C 
BRANCH  15  16
ATOM     16  C   UNL     1       5.793  -6.302  -4.657  1.00  0.00    -0.000 C 
BRANCH  16  17
ATOM     17  C   UNL     1       6.907  -7.354  -4.758  1.00  0.00    -0.003 C 
ATOM     18  C   UNL     1       7.486  -7.468  -6.168  1.00  0.00     0.004 C 
ENDBRANCH  16  17
ENDBRANCH  15  16
ENDBRANCH  14  15
ENDBRANCH  13  14
ENDBRANCH  12  13
ENDBRANCH  11  12
ENDBRANCH   1  11
TORSDOF 14
ENDMDL
MODEL 5
REMARK VINA RESULT:    -4.349      5.906      9.309
REMARK INTER + INTRA:          -9.125
REMARK INTER:                  -8.099
REMARK INTRA:                  -1.026
REMARK UNBOUND:                -1.218
REMARK SMILES CCCCCCCCCCCCCCCC(=O)[O-]
REMARK SMILES IDX 9 1 10 2 11 3 12 4 13 5 14 6 15 7 16 8 17 9 18 10 8 11 7 12
REMARK SMILES IDX 6 13 5 14 4 15 3 16 2 17 1 18
REMARK H PARENT
REMARK Flexibility Score: inf
ROOT
ATOM      1  C   UNL     1       6.821  -0.657  -8.929  1.00  0.00     0.000 C 
ENDROOT
BRANCH   1   2
ATOM      2  C   UNL     1       5.981  -0.229  -7.712  1.00  0.00     0.000 C 
BRANCH   2   3
ATOM      3  C   UNL     1       6.402   1.142  -7.158  1.00  0.00     0.000 C 
BRANCH   3   4
ATOM      4  C   UNL     1       7.231   1.956  -8.167  1.00  0.00     0.000 C 
BRANCH   4   5
ATOM      5  C   UNL     1       6.409   3.051  -8.872  1.00  0.00     0.000 C 
BRANCH   5   6
ATOM      6  C   UNL     1       6.668   4.485  -8.373  1.00  0.00     0.006 C 
BRANCH   6   7
ATOM      7  C   UNL     1       5.588   5.478  -8.819  1.00  0.00     0.053 C 
BRANCH   7   8
ATOM      8  C   UNL     1       5.819   6.817  -8.194  1.00  0.00     0.041 C 
ATOM      9  O   UNL     1       5.892   6.927  -6.941  1.00  0.00    -0.550 OA
ATOM     10  O   UNL     1       6.005   7.936  -8.995  1.00  0.00    -0.550 OA
ENDBRANCH   7   8
ENDBRANCH   6   7
ENDBRANCH   5   6
ENDBRANCH   4   5
ENDBRANCH   3   4
ENDBRANCH   2   3
ENDBRANCH   1   2
BRANCH   1  11
ATOM     11  C   UNL     1       6.157  -1.782  -9.740  1.00  0.00     0.000 C 
BRANCH  11  12
ATOM     12  C   UNL     1       4.845  -2.275  -9.105  1.00  0.00    -0.000 C 
BRANCH  12  13
ATOM     13  C   UNL     1       4.586  -3.767  -9.370  1.00  0.00    -0.000 C 
BRANCH  13  14
ATOM     14  C   UNL     1       4.036  -4.505  -8.137  1.00  0.00    -0.000 C 
BRANCH  14  15
ATOM     15  C   UNL     1       3.206  -3.588  -7.224  1.00  0.00    -0.000 C 
BRANCH  15  16
ATOM     16  C   UNL     1       1.693  -3.737  -7.460  1.00  0.00    -0.000 C 
BRANCH  16  17
ATOM     17  C   UNL     1       1.140  -2.675  -8.422  1.00  0.00    -0.003 C 
ATOM     18  C   UNL     1       0.576  -3.280  -9.707  1.00  0.00     0.004 C 
ENDBRANCH  16  17
ENDBRANCH  15  16
ENDBRANCH  14  15
ENDBRANCH  13  14
ENDBRANCH  12  13
ENDBRANCH  11  12
ENDBRANCH   1  11
TORSDOF 14
ENDMDL
MODEL 6
REMARK VINA RESULT:    -4.348      2.868      4.614
REMARK INTER + INTRA:          -9.124
REMARK INTER:                  -6.749
REMARK INTRA:                  -2.375
REMARK UNBOUND:                -1.218
REMARK SMILES CCCCCCCCCCCCCCCC(=O)[O-]
REMARK SMILES IDX 9 1 10 2 11 3 12 4 13 5 14 6 15 7 16 8 17 9 18 10 8 11 7 12
REMARK SMILES IDX 6 13 5 14 4 15 3 16 2 17 1 18
REMARK H PARENT
REMARK Flexibility Score: inf
ROOT
ATOM      1  C   UNL     1       3.386  -3.203  -7.491  1.00  0.00     0.000 C 
ENDROOT
BRANCH   1   2
ATOM      2  C   UNL     1       2.259  -4.201  -7.170  1.00  0.00     0.000 C 
BRANCH   2   3
ATOM      3  C   UNL     1       2.790  -5.613  -6.872  1.00  0.00     0.000 C 
BRANCH   3   4
ATOM      4  C   UNL     1       3.917  -5.611  -5.825  1.00  0.00     0.000 C 
BRANCH   4   5
ATOM      5  C   UNL     1       3.794  -6.761  -4.809  1.00  0.00     0.000 C 
BRANCH   5   6
ATOM      6  C   UNL     1       5.113  -7.182  -4.136  1.00  0.00     0.006 C 
BRANCH   6   7
ATOM      7  C   UNL     1       6.346  -6.532  -4.777  1.00  0.00     0.053 C 
BRANCH   7   8
ATOM      8  C   UNL     1       7.498  -7.487  -4.779  1.00  0.00     0.041 C 
ATOM      9  O   UNL     1       8.537  -7.223  -5.440  1.00  0.00    -0.550 OA
ATOM     10  O   UNL     1       7.444  -8.643  -4.013  1.00  0.00    -0.550 OA
ENDBRANCH   7   8
ENDBRANCH   6   7
ENDBRANCH   5   6
ENDBRANCH   4   5
ENDBRANCH   3   4
ENDBRANCH   2   3
ENDBRANCH   1   2
BRANCH   1  11
ATOM     11  C   UNL     1       3.264  -2.608  -8.903  1.00  0.00     0.000 C 
BRANCH  11  12
ATOM     12  C   UNL     1       4.191  -3.297  -9.919  1.00  0.00    -0.000 C 
BRANCH  12  13
ATOM     13  C   UNL     1       5.427  -3.928  -9.256  1.00  0.00    -0.000 C 
BRANCH  13  14
ATOM     14  C   UNL     1       5.467  -5.459  -9.405  1.00  0.00    -0.000 C 
BRANCH  14  15
ATOM     15  C   UNL     1       6.434  -6.122  -8.412  1.00  0.00    -0.000 C 
BRANCH  15  16
ATOM     16  C   UNL     1       6.433  -7.657  -8.525  1.00  0.00    -0.000 C 
BRANCH  16  17
ATOM     17  C   UNL     1       5.097  -8.277  -8.091  1.00  0.00    -0.003 C 
ATOM     18  C   UNL     1       5.276  -9.454  -7.132  1.00  0.00     0.004 C 
ENDBRANCH  16  17
ENDBRANCH  15  16
ENDBRANCH  14  15
ENDBRANCH  13  14
ENDBRANCH  12  13
ENDBRANCH  11  12
ENDBRANCH   1  11
TORSDOF 14
ENDMDL
MODEL 7
REMARK VINA RESULT:    -4.287      3.360      6.544
REMARK INTER + INTRA:          -9.013
REMARK INTER:                  -7.097
REMARK INTRA:                  -1.916
REMARK UNBOUND:                -1.218
REMARK SMILES CCCCCCCCCCCCCCCC(=O)[O-]
REMARK SMILES IDX 9 1 10 2 11 3 12 4 13 5 14 6 15 7 16 8 17 9 18 10 8 11 7 12
REMARK SMILES IDX 6 13 5 14 4 15 3 16 2 17 1 18
REMARK H PARENT
REMARK Flexibility Score: inf
ROOT
ATOM      1  C   UNL     1       3.089  -5.133  -6.780  1.00  0.00     0.000 C 
ENDROOT
BRANCH   1   2
ATOM      2  C   UNL     1       2.044  -4.100  -7.238  1.00  0.00     0.000 C 
BRANCH   2   3
ATOM      3  C   UNL     1       2.681  -2.882  -7.926  1.00  0.00     0.000 C 
BRANCH   3   4
ATOM      4  C   UNL     1       2.777  -3.050  -9.452  1.00  0.00     0.000 C 
BRANCH   4   5
ATOM      5  C   UNL     1       4.229  -3.039  -9.966  1.00  0.00     0.000 C 
BRANCH   5   6
ATOM      6  C   UNL     1       5.265  -2.459  -8.986  1.00  0.00     0.006 C 
BRANCH   6   7
ATOM      7  C   UNL     1       5.977  -1.216  -9.533  1.00  0.00     0.053 C 
BRANCH   7   8
ATOM      8  C   UNL     1       6.727  -0.520  -8.442  1.00  0.00     0.041 C 
ATOM      9  O   UNL     1       7.972  -0.673  -8.332  1.00  0.00    -0.550 OA
ATOM     10  O   UNL     1       6.059   0.335  -7.576  1.00  0.00    -0.550 OA
ENDBRANCH   7   8
ENDBRANCH   6   7
ENDBRANCH   5   6
ENDBRANCH   4   5
ENDBRANCH   3   4
ENDBRANCH   2   3
ENDBRANCH   1   2
BRANCH   1  11
ATOM     11  C   UNL     1       3.073  -6.410  -7.635  1.00  0.00     0.000 C 
BRANCH  11  12
ATOM     12  C   UNL     1       4.416  -6.668  -8.340  1.00  0.00    -0.000 C 
BRANCH  12  13
ATOM     13  C   UNL     1       5.609  -6.085  -7.566  1.00  0.00    -0.000 C 
BRANCH  13  14
ATOM     14  C   UNL     1       6.639  -7.155  -7.164  1.00  0.00    -0.000 C 
BRANCH  14  15
ATOM     15  C   UNL     1       6.884  -7.197  -5.647  1.00  0.00    -0.000 C 
BRANCH  15  16
ATOM     16  C   UNL     1       5.779  -6.479  -4.853  1.00  0.00    -0.000 C 
BRANCH  16  17
ATOM     17  C   UNL     1       4.879  -7.457  -4.082  1.00  0.00    -0.003 C 
ATOM     18  C   UNL     1       4.745  -8.811  -4.779  1.00  0.00     0.004 C 
ENDBRANCH  16  17
ENDBRANCH  15  16
ENDBRANCH  14  15
ENDBRANCH  13  14
ENDBRANCH  12  13
ENDBRANCH  11  12
ENDBRANCH   1  11
TORSDOF 14
ENDMDL
MODEL 8
REMARK VINA RESULT:    -4.257      3.960      6.832
REMARK INTER + INTRA:          -8.958
REMARK INTER:                  -7.108
REMARK INTRA:                  -1.850
REMARK UNBOUND:                -1.218
REMARK SMILES CCCCCCCCCCCCCCCC(=O)[O-]
REMARK SMILES IDX 9 1 10 2 11 3 12 4 13 5 14 6 15 7 16 8 17 9 18 10 8 11 7 12
REMARK SMILES IDX 6 13 5 14 4 15 3 16 2 17 1 18
REMARK H PARENT
REMARK Flexibility Score: inf
ROOT
ATOM      1  C   UNL     1       2.118  -3.970  -7.432  1.00  0.00     0.000 C 
ENDROOT
BRANCH   1   2
ATOM      2  C   UNL     1       3.337  -3.032  -7.411  1.00  0.00     0.000 C 
BRANCH   2   3
ATOM      3  C   UNL     1       3.675  -2.473  -8.803  1.00  0.00     0.000 C 
BRANCH   3   4
ATOM      4  C   UNL     1       5.168  -2.614  -9.148  1.00  0.00     0.000 C 
BRANCH   4   5
ATOM      5  C   UNL     1       5.815  -1.281  -9.568  1.00  0.00     0.000 C 
BRANCH   5   6
ATOM      6  C   UNL     1       6.809  -0.688  -8.552  1.00  0.00     0.006 C 
BRANCH   6   7
ATOM      7  C   UNL     1       6.151   0.292  -7.572  1.00  0.00     0.053 C 
BRANCH   7   8
ATOM      8  C   UNL     1       6.818   1.629  -7.643  1.00  0.00     0.041 C 
ATOM      9  O   UNL     1       6.167   2.643  -8.009  1.00  0.00    -0.550 OA
ATOM     10  O   UNL     1       8.145   1.764  -7.259  1.00  0.00    -0.550 OA
ENDBRANCH   7   8
ENDBRANCH   6   7
ENDBRANCH   5   6
ENDBRANCH   4   5
ENDBRANCH   3   4
ENDBRANCH   2   3
ENDBRANCH   1   2
BRANCH   1  11
ATOM     11  C   UNL     1       1.606  -4.243  -8.856  1.00  0.00     0.000 C 
BRANCH  11  12
ATOM     12  C   UNL     1       1.857  -5.693  -9.308  1.00  0.00    -0.000 C 
BRANCH  12  13
ATOM     13  C   UNL     1       3.296  -5.916  -9.802  1.00  0.00    -0.000 C 
BRANCH  13  14
ATOM     14  C   UNL     1       4.107  -6.839  -8.876  1.00  0.00    -0.000 C 
BRANCH  14  15
ATOM     15  C   UNL     1       5.163  -6.075  -8.062  1.00  0.00    -0.000 C 
BRANCH  15  16
ATOM     16  C   UNL     1       5.482  -6.760  -6.722  1.00  0.00    -0.000 C 
BRANCH  16  17
ATOM     17  C   UNL     1       4.883  -6.013  -5.521  1.00  0.00    -0.003 C 
ATOM     18  C   UNL     1       3.522  -6.566  -5.100  1.00  0.00     0.004 C 
ENDBRANCH  16  17
ENDBRANCH  15  16
ENDBRANCH  14  15
ENDBRANCH  13  14
ENDBRANCH  12  13
ENDBRANCH  11  12
ENDBRANCH   1  11
TORSDOF 14
ENDMDL
MODEL 9
REMARK VINA RESULT:    -4.191      4.464      7.375
REMARK INTER + INTRA:          -8.838
REMARK INTER:                  -6.567
REMARK INTRA:                  -2.272
REMARK UNBOUND:                -1.218
REMARK SMILES CCCCCCCCCCCCCCCC(=O)[O-]
REMARK SMILES IDX 9 1 10 2 11 3 12 4 13 5 14 6 15 7 16 8 17 9 18 10 8 11 7 12
REMARK SMILES IDX 6 13 5 14 4 15 3 16 2 17 1 18
REMARK H PARENT
REMARK Flexibility Score: inf
ROOT
ATOM      1  C   UNL     1       3.879  -6.834  -4.964  1.00  0.00     0.000 C 
ENDROOT
BRANCH   1   2
ATOM      2  C   UNL     1       3.011  -5.991  -5.916  1.00  0.00     0.000 C 
BRANCH   2   3
ATOM      3  C   UNL     1       3.847  -5.041  -6.789  1.00  0.00     0.000 C 
BRANCH   3   4
ATOM      4  C   UNL     1       3.089  -3.750  -7.147  1.00  0.00     0.000 C 
BRANCH   4   5
ATOM      5  C   UNL     1       3.556  -3.130  -8.477  1.00  0.00     0.000 C 
BRANCH   5   6
ATOM      6  C   UNL     1       2.474  -3.032  -9.568  1.00  0.00     0.006 C 
BRANCH   6   7
ATOM      7  C   UNL     1       1.213  -3.838  -9.234  1.00  0.00     0.053 C 
BRANCH   7   8
ATOM      8  C   UNL     1       0.011  -2.948  -9.224  1.00  0.00     0.041 C 
ATOM      9  O   UNL     1       0.084  -1.791  -8.730  1.00  0.00    -0.550 OA
ATOM     10  O   UNL     1      -1.176  -3.375  -9.803  1.00  0.00    -0.550 OA
ENDBRANCH   7   8
ENDBRANCH   6   7
ENDBRANCH   5   6
ENDBRANCH   4   5
ENDBRANCH   3   4
ENDBRANCH   2   3
ENDBRANCH   1   2
BRANCH   1  11
ATOM     11  C   UNL     1       5.326  -6.323  -4.875  1.00  0.00     0.000 C 
BRANCH  11  12
ATOM     12  C   UNL     1       6.362  -7.435  -5.115  1.00  0.00    -0.000 C 
BRANCH  12  13
ATOM     13  C   UNL     1       6.014  -8.313  -6.328  1.00  0.00    -0.000 C 
BRANCH  13  14
ATOM     14  C   UNL     1       6.378  -7.649  -7.668  1.00  0.00    -0.000 C 
BRANCH  14  15
ATOM     15  C   UNL     1       5.293  -7.849  -8.738  1.00  0.00    -0.000 C 
BRANCH  15  16
ATOM     16  C   UNL     1       4.120  -8.708  -8.234  1.00  0.00    -0.000 C 
BRANCH  16  17
ATOM     17  C   UNL     1       2.764  -8.223  -8.766  1.00  0.00    -0.003 C 
ATOM     18  C   UNL     1       2.897  -7.053  -9.742  1.00  0.00     0.004 C 
ENDBRANCH  16  17
ENDBRANCH  15  16
ENDBRANCH  14  15
ENDBRANCH  13  14
ENDBRANCH  12  13
ENDBRANCH  11  12
ENDBRANCH   1  11
TORSDOF 14
ENDMDL
