MODEL 1
REMARK VINA RESULT:    -4.531      0.000      0.000
REMARK INTER + INTRA:          -5.295
REMARK INTER:                  -5.194
REMARK INTRA:                  -0.101
REMARK UNBOUND:                -0.101
REMARK SMILES COc1cc(C(C)=O)ccc1O
REMARK SMILES IDX 5 1 4 2 3 3 11 4 10 5 9 6 6 7 7 8 8 9 2 10 1 11 12 12
REMARK H PARENT 12 13
REMARK Flexibility Score: inf
ROOT
ATOM      1  C   UNL     1       3.709  42.192  48.333  1.00  0.00     0.021 A 
ATOM      2  C   UNL     1       2.434  42.464  47.796  1.00  0.00     0.062 A 
ATOM      3  C   UNL     1       1.327  42.690  48.639  1.00  0.00     0.161 A 
ATOM      4  C   UNL     1       1.504  42.642  50.033  1.00  0.00     0.157 A 
ATOM      5  C   UNL     1       2.766  42.372  50.569  1.00  0.00     0.051 A 
ATOM      6  C   UNL     1       3.858  42.149  49.730  1.00  0.00     0.016 A 
ENDROOT
BRANCH   1   7
ATOM      7  C   UNL     1       4.886  41.952  47.453  1.00  0.00     0.159 C 
ATOM      8  C   UNL     1       5.934  43.001  47.223  1.00  0.00     0.093 C 
ATOM      9  O   UNL     1       5.020  40.838  46.878  1.00  0.00    -0.295 OA
ENDBRANCH   1   7
BRANCH   3  10
ATOM     10  O   UNL     1       0.048  42.963  48.129  1.00  0.00    -0.493 OA
ATOM     11  C   UNL     1      -0.515  42.344  46.977  1.00  0.00     0.278 C 
ENDBRANCH   3  10
BRANCH   4  12
ATOM     12  O   UNL     1       0.436  42.858  50.904  1.00  0.00    -0.504 OA
ATOM     13  H   UNL     1      -0.341  42.212  50.977  1.00  0.00     0.293 HD
ENDBRANCH   4  12
TORSDOF 3
ENDMDL
MODEL 2
REMARK VINA RESULT:    -4.327     16.476     17.218
REMARK INTER + INTRA:          -5.060
REMARK INTER:                  -4.962
REMARK INTRA:                  -0.098
REMARK UNBOUND:                -0.101
REMARK SMILES COc1cc(C(C)=O)ccc1O
REMARK SMILES IDX 5 1 4 2 3 3 11 4 10 5 9 6 6 7 7 8 8 9 2 10 1 11 12 12
REMARK H PARENT 12 13
REMARK Flexibility Score: inf
ROOT
ATOM      1  C   UNL     1      -0.180  27.268  53.247  1.00  0.00     0.021 A 
ATOM      2  C   UNL     1      -0.437  26.238  54.174  1.00  0.00     0.062 A 
ATOM      3  C   UNL     1       0.487  25.936  55.195  1.00  0.00     0.161 A 
ATOM      4  C   UNL     1       1.679  26.677  55.284  1.00  0.00     0.157 A 
ATOM      5  C   UNL     1       1.937  27.698  54.367  1.00  0.00     0.051 A 
ATOM      6  C   UNL     1       1.019  27.993  53.358  1.00  0.00     0.016 A 
ENDROOT
BRANCH   1   7
ATOM      7  C   UNL     1      -1.149  27.597  52.164  1.00  0.00     0.159 C 
ATOM      8  C   UNL     1      -1.831  26.532  51.358  1.00  0.00     0.093 C 
ATOM      9  O   UNL     1      -1.413  28.803  51.907  1.00  0.00    -0.295 OA
ENDBRANCH   1   7
BRANCH   3  10
ATOM     10  O   UNL     1       0.255  24.915  56.131  1.00  0.00    -0.493 OA
ATOM     11  C   UNL     1      -0.400  25.097  57.382  1.00  0.00     0.278 C 
ENDBRANCH   3  10
BRANCH   4  12
ATOM     12  O   UNL     1       2.621  26.410  56.277  1.00  0.00    -0.504 OA
ATOM     13  H   UNL     1       2.674  26.953  57.131  1.00  0.00     0.293 HD
ENDBRANCH   4  12
TORSDOF 3
ENDMDL
MODEL 3
REMARK VINA RESULT:    -4.227     15.270     15.889
REMARK INTER + INTRA:          -4.946
REMARK INTER:                  -4.829
REMARK INTRA:                  -0.117
REMARK UNBOUND:                -0.101
REMARK SMILES COc1cc(C(C)=O)ccc1O
REMARK SMILES IDX 5 1 4 2 3 3 11 4 10 5 9 6 6 7 7 8 8 9 2 10 1 11 12 12
REMARK H PARENT 12 13
REMARK Flexibility Score: inf
ROOT
ATOM      1  C   UNL     1       0.116  27.170  54.027  1.00  0.00     0.021 A 
ATOM      2  C   UNL     1       0.132  28.511  53.593  1.00  0.00     0.062 A 
ATOM      3  C   UNL     1      -0.568  28.904  52.434  1.00  0.00     0.161 A 
ATOM      4  C   UNL     1      -1.288  27.942  51.705  1.00  0.00     0.157 A 
ATOM      5  C   UNL     1      -1.305  26.612  52.132  1.00  0.00     0.051 A 
ATOM      6  C   UNL     1      -0.611  26.227  53.280  1.00  0.00     0.016 A 
ENDROOT
BRANCH   1   7
ATOM      7  C   UNL     1       0.850  26.741  55.250  1.00  0.00     0.159 C 
ATOM      8  C   UNL     1       0.193  25.930  56.327  1.00  0.00     0.093 C 
ATOM      9  O   UNL     1       2.060  27.062  55.396  1.00  0.00    -0.295 OA
ENDBRANCH   1   7
BRANCH   3  10
ATOM     10  O   UNL     1      -0.568  30.234  51.982  1.00  0.00    -0.493 OA
ATOM     11  C   UNL     1      -0.952  31.357  52.768  1.00  0.00     0.278 C 
ENDBRANCH   3  10
BRANCH   4  12
ATOM     12  O   UNL     1      -1.993  28.288  50.552  1.00  0.00    -0.504 OA
ATOM     13  H   UNL     1      -2.728  28.985  50.558  1.00  0.00     0.293 HD
ENDBRANCH   4  12
TORSDOF 3
ENDMDL
MODEL 4
REMARK VINA RESULT:    -4.168     16.342     17.314
REMARK INTER + INTRA:          -4.878
REMARK INTER:                  -4.763
REMARK INTRA:                  -0.116
REMARK UNBOUND:                -0.101
REMARK SMILES COc1cc(C(C)=O)ccc1O
REMARK SMILES IDX 5 1 4 2 3 3 11 4 10 5 9 6 6 7 7 8 8 9 2 10 1 11 12 12
REMARK H PARENT 12 13
REMARK Flexibility Score: inf
ROOT
ATOM      1  C   UNL     1      -1.366  27.797  55.221  1.00  0.00     0.021 A 
ATOM      2  C   UNL     1      -0.341  27.387  54.344  1.00  0.00     0.062 A 
ATOM      3  C   UNL     1       0.646  26.472  54.763  1.00  0.00     0.161 A 
ATOM      4  C   UNL     1       0.602  25.965  56.073  1.00  0.00     0.157 A 
ATOM      5  C   UNL     1      -0.411  26.369  56.945  1.00  0.00     0.051 A 
ATOM      6  C   UNL     1      -1.386  27.276  56.526  1.00  0.00     0.016 A 
ENDROOT
BRANCH   1   7
ATOM      7  C   UNL     1      -2.414  28.764  54.792  1.00  0.00     0.159 C 
ATOM      8  C   UNL     1      -2.249  30.244  54.965  1.00  0.00     0.093 C 
ATOM      9  O   UNL     1      -3.478  28.339  54.266  1.00  0.00    -0.295 OA
ENDBRANCH   1   7
BRANCH   3  10
ATOM     10  O   UNL     1       1.676  26.047  53.908  1.00  0.00    -0.493 OA
ATOM     11  C   UNL     1       2.815  26.829  53.561  1.00  0.00     0.278 C 
ENDBRANCH   3  10
BRANCH   4  12
ATOM     12  O   UNL     1       1.560  25.058  56.528  1.00  0.00    -0.504 OA
ATOM     13  H   UNL     1       1.381  24.062  56.574  1.00  0.00     0.293 HD
ENDBRANCH   4  12
TORSDOF 3
ENDMDL
MODEL 5
REMARK VINA RESULT:    -4.075     16.228     16.881
REMARK INTER + INTRA:          -4.771
REMARK INTER:                  -4.662
REMARK INTRA:                  -0.110
REMARK UNBOUND:                -0.101
REMARK SMILES COc1cc(C(C)=O)ccc1O
REMARK SMILES IDX 5 1 4 2 3 3 11 4 10 5 9 6 6 7 7 8 8 9 2 10 1 11 12 12
REMARK H PARENT 12 13
REMARK Flexibility Score: inf
ROOT
ATOM      1  C   UNL     1      -1.050  26.946  53.226  1.00  0.00     0.021 A 
ATOM      2  C   UNL     1      -1.807  27.641  54.191  1.00  0.00     0.062 A 
ATOM      3  C   UNL     1      -1.443  27.613  55.553  1.00  0.00     0.161 A 
ATOM      4  C   UNL     1      -0.310  26.881  55.947  1.00  0.00     0.157 A 
ATOM      5  C   UNL     1       0.443  26.191  54.994  1.00  0.00     0.051 A 
ATOM      6  C   UNL     1       0.078  26.222  53.647  1.00  0.00     0.016 A 
ENDROOT
BRANCH   1   7
ATOM      7  C   UNL     1      -1.424  26.967  51.785  1.00  0.00     0.159 C 
ATOM      8  C   UNL     1      -1.812  25.721  51.046  1.00  0.00     0.093 C 
ATOM      9  O   UNL     1      -1.417  28.059  51.154  1.00  0.00    -0.295 OA
ENDBRANCH   1   7
BRANCH   3  10
ATOM     10  O   UNL     1      -2.180  28.297  56.533  1.00  0.00    -0.493 OA
ATOM     11  C   UNL     1      -2.576  29.662  56.444  1.00  0.00     0.278 C 
ENDBRANCH   3  10
BRANCH   4  12
ATOM     12  O   UNL     1       0.085  26.827  57.284  1.00  0.00    -0.504 OA
ATOM     13  H   UNL     1      -0.318  26.168  57.939  1.00  0.00     0.293 HD
ENDBRANCH   4  12
TORSDOF 3
ENDMDL
MODEL 6
REMARK VINA RESULT:    -4.021     15.799     16.606
REMARK INTER + INTRA:          -4.709
REMARK INTER:                  -4.583
REMARK INTRA:                  -0.126
REMARK UNBOUND:                -0.101
REMARK SMILES COc1cc(C(C)=O)ccc1O
REMARK SMILES IDX 5 1 4 2 3 3 11 4 10 5 9 6 6 7 7 8 8 9 2 10 1 11 12 12
REMARK H PARENT 12 13
REMARK Flexibility Score: inf
ROOT
ATOM      1  C   UNL     1       0.281  26.688  55.364  1.00  0.00     0.021 A 
ATOM      2  C   UNL     1      -0.787  27.523  54.977  1.00  0.00     0.062 A 
ATOM      3  C   UNL     1      -0.624  28.478  53.953  1.00  0.00     0.161 A 
ATOM      4  C   UNL     1       0.622  28.593  53.312  1.00  0.00     0.157 A 
ATOM      5  C   UNL     1       1.682  27.768  53.693  1.00  0.00     0.051 A 
ATOM      6  C   UNL     1       1.516  26.825  54.708  1.00  0.00     0.016 A 
ENDROOT
BRANCH   1   7
ATOM      7  C   UNL     1       0.122  25.676  56.445  1.00  0.00     0.159 C 
ATOM      8  C   UNL     1       0.505  24.239  56.250  1.00  0.00     0.093 C 
ATOM      9  O   UNL     1      -0.346  26.023  57.562  1.00  0.00    -0.295 OA
ENDBRANCH   1   7
BRANCH   3  10
ATOM     10  O   UNL     1      -1.673  29.321  53.549  1.00  0.00    -0.493 OA
ATOM     11  C   UNL     1      -2.145  30.440  54.292  1.00  0.00     0.278 C 
ENDBRANCH   3  10
BRANCH   4  12
ATOM     12  O   UNL     1       0.826  29.525  52.294  1.00  0.00    -0.504 OA
ATOM     13  H   UNL     1       1.415  29.330  51.494  1.00  0.00     0.293 HD
ENDBRANCH   4  12
TORSDOF 3
ENDMDL
MODEL 7
REMARK VINA RESULT:    -3.999     15.766     16.421
REMARK INTER + INTRA:          -4.684
REMARK INTER:                  -4.565
REMARK INTRA:                  -0.119
REMARK UNBOUND:                -0.101
REMARK SMILES COc1cc(C(C)=O)ccc1O
REMARK SMILES IDX 5 1 4 2 3 3 11 4 10 5 9 6 6 7 7 8 8 9 2 10 1 11 12 12
REMARK H PARENT 12 13
REMARK Flexibility Score: inf
ROOT
ATOM      1  C   UNL     1      -0.220  26.889  54.464  1.00  0.00     0.021 A 
ATOM      2  C   UNL     1      -0.985  28.042  54.732  1.00  0.00     0.062 A 
ATOM      3  C   UNL     1      -1.913  28.530  53.788  1.00  0.00     0.161 A 
ATOM      4  C   UNL     1      -2.071  27.853  52.566  1.00  0.00     0.157 A 
ATOM      5  C   UNL     1      -1.313  26.711  52.297  1.00  0.00     0.051 A 
ATOM      6  C   UNL     1      -0.397  26.232  53.234  1.00  0.00     0.016 A 
ENDROOT
BRANCH   1   7
ATOM      7  C   UNL     1       0.763  26.363  55.452  1.00  0.00     0.159 C 
ATOM      8  C   UNL     1       0.482  25.145  56.280  1.00  0.00     0.093 C 
ATOM      9  O   UNL     1       1.868  26.949  55.606  1.00  0.00    -0.295 OA
ENDBRANCH   1   7
BRANCH   3  10
ATOM     10  O   UNL     1      -2.688  29.675  54.031  1.00  0.00    -0.493 OA
ATOM     11  C   UNL     1      -2.197  31.012  53.982  1.00  0.00     0.278 C 
ENDBRANCH   3  10
BRANCH   4  12
ATOM     12  O   UNL     1      -2.976  28.303  51.605  1.00  0.00    -0.504 OA
ATOM     13  H   UNL     1      -3.971  28.357  51.784  1.00  0.00     0.293 HD
ENDBRANCH   4  12
TORSDOF 3
ENDMDL
MODEL 8
REMARK VINA RESULT:    -3.979     15.733     16.245
REMARK INTER + INTRA:          -4.661
REMARK INTER:                  -4.543
REMARK INTRA:                  -0.118
REMARK UNBOUND:                -0.101
REMARK SMILES COc1cc(C(C)=O)ccc1O
REMARK SMILES IDX 5 1 4 2 3 3 11 4 10 5 9 6 6 7 7 8 8 9 2 10 1 11 12 12
REMARK H PARENT 12 13
REMARK Flexibility Score: inf
ROOT
ATOM      1  C   UNL     1       1.971  27.037  54.085  1.00  0.00     0.021 A 
ATOM      2  C   UNL     1       0.844  27.754  53.633  1.00  0.00     0.062 A 
ATOM      3  C   UNL     1      -0.350  27.773  54.382  1.00  0.00     0.161 A 
ATOM      4  C   UNL     1      -0.411  27.065  55.596  1.00  0.00     0.157 A 
ATOM      5  C   UNL     1       0.703  26.353  56.047  1.00  0.00     0.051 A 
ATOM      6  C   UNL     1       1.882  26.338  55.301  1.00  0.00     0.016 A 
ENDROOT
BRANCH   1   7
ATOM      7  C   UNL     1       3.238  27.009  53.302  1.00  0.00     0.159 C 
ATOM      8  C   UNL     1       3.931  25.724  52.959  1.00  0.00     0.093 C 
ATOM      9  O   UNL     1       3.754  28.090  52.910  1.00  0.00    -0.295 OA
ENDBRANCH   1   7
BRANCH   3  10
ATOM     10  O   UNL     1      -1.485  28.480  53.954  1.00  0.00    -0.493 OA
ATOM     11  C   UNL     1      -1.750  29.846  54.255  1.00  0.00     0.278 C 
ENDBRANCH   3  10
BRANCH   4  12
ATOM     12  O   UNL     1      -1.573  27.057  56.368  1.00  0.00    -0.504 OA
ATOM     13  H   UNL     1      -1.757  26.340  57.059  1.00  0.00     0.293 HD
ENDBRANCH   4  12
TORSDOF 3
ENDMDL
MODEL 9
REMARK VINA RESULT:    -3.955     16.145     16.672
REMARK INTER + INTRA:          -4.634
REMARK INTER:                  -4.521
REMARK INTRA:                  -0.112
REMARK UNBOUND:                -0.101
REMARK SMILES COc1cc(C(C)=O)ccc1O
REMARK SMILES IDX 5 1 4 2 3 3 11 4 10 5 9 6 6 7 7 8 8 9 2 10 1 11 12 12
REMARK H PARENT 12 13
REMARK Flexibility Score: inf
ROOT
ATOM      1  C   UNL     1       0.184  27.110  54.025  1.00  0.00     0.021 A 
ATOM      2  C   UNL     1      -0.595  26.189  53.295  1.00  0.00     0.062 A 
ATOM      3  C   UNL     1      -1.333  26.600  52.167  1.00  0.00     0.161 A 
ATOM      4  C   UNL     1      -1.290  27.948  51.771  1.00  0.00     0.157 A 
ATOM      5  C   UNL     1      -0.520  28.864  52.492  1.00  0.00     0.051 A 
ATOM      6  C   UNL     1       0.209  28.452  53.608  1.00  0.00     0.016 A 
ENDROOT
BRANCH   1   7
ATOM      7  C   UNL     1       0.969  26.688  55.218  1.00  0.00     0.159 C 
ATOM      8  C   UNL     1       0.438  25.694  56.208  1.00  0.00     0.093 C 
ATOM      9  O   UNL     1       2.115  27.173  55.415  1.00  0.00    -0.295 OA
ENDBRANCH   1   7
BRANCH   3  10
ATOM     10  O   UNL     1      -2.115  25.702  51.423  1.00  0.00    -0.493 OA
ATOM     11  C   UNL     1      -3.394  25.218  51.821  1.00  0.00     0.278 C 
ENDBRANCH   3  10
BRANCH   4  12
ATOM     12  O   UNL     1      -2.006  28.398  50.661  1.00  0.00    -0.504 OA
ATOM     13  H   UNL     1      -2.740  27.846  50.233  1.00  0.00     0.293 HD
ENDBRANCH   4  12
TORSDOF 3
ENDMDL
