MODEL 1
REMARK VINA RESULT:    -4.306      0.000      0.000
REMARK INTER + INTRA:          -4.432
REMARK INTER:                  -4.432
REMARK INTRA:                   0.000
REMARK UNBOUND:                 0.000
REMARK SMILES C[C@@H]1CC[C@H]2C(C)(C)[C@@H]3C[C@]12CC[C@]3(C)O
REMARK SMILES IDX 1 1 2 2 3 3 4 4 5 5 11 6 12 7 13 8 14 9 9 10 10 11 6 12 7 13
REMARK SMILES IDX 8 14 15 15 16 16
REMARK H PARENT 16 17
REMARK Flexibility Score: inf
ROOT
ATOM      1  C   UNL     1     140.894 136.152 147.852  1.00  0.00     0.008 C 
ATOM      2  C   UNL     1     140.956 136.146 146.314  1.00  0.00    -0.008 C 
ATOM      3  C   UNL     1     139.985 135.097 145.676  1.00  0.00     0.004 C 
ATOM      4  C   UNL     1     140.858 133.990 145.023  1.00  0.00     0.005 C 
ATOM      5  C   UNL     1     142.197 134.236 145.679  1.00  0.00     0.001 C 
ATOM      6  C   UNL     1     142.332 135.748 145.728  1.00  0.00    -0.023 C 
ATOM      7  C   UNL     1     142.495 136.504 144.352  1.00  0.00     0.010 C 
ATOM      8  C   UNL     1     143.797 136.284 143.538  1.00  0.00     0.036 C 
ATOM      9  C   UNL     1     145.008 135.706 144.326  1.00  0.00     0.065 C 
ATOM     10  C   UNL     1     144.529 134.922 145.597  1.00  0.00     0.027 C 
ATOM     11  C   UNL     1     143.649 135.863 146.473  1.00  0.00     0.014 C 
ATOM     12  C   UNL     1     143.589 133.666 145.315  1.00  0.00    -0.026 C 
ATOM     13  C   UNL     1     143.988 132.537 146.305  1.00  0.00     0.012 C 
ATOM     14  C   UNL     1     143.588 133.021 143.907  1.00  0.00     0.012 C 
ATOM     15  C   UNL     1     145.965 136.864 144.714  1.00  0.00     0.042 C 
ENDROOT
BRANCH   9  16
ATOM     16  O   UNL     1     145.725 134.850 143.468  1.00  0.00    -0.390 OA
ATOM     17  H   UNL     1     145.761 135.275 142.570  1.00  0.00     0.211 HD
ENDBRANCH   9  16
TORSDOF 1
ENDMDL
MODEL 2
REMARK VINA RESULT:    -4.287      6.945      9.218
REMARK INTER + INTRA:          -4.412
REMARK INTER:                  -4.412
REMARK INTRA:                   0.000
REMARK UNBOUND:                 0.000
REMARK SMILES C[C@@H]1CC[C@H]2C(C)(C)[C@@H]3C[C@]12CC[C@]3(C)O
REMARK SMILES IDX 1 1 2 2 3 3 4 4 5 5 11 6 12 7 13 8 14 9 9 10 10 11 6 12 7 13
REMARK SMILES IDX 8 14 15 15 16 16
REMARK H PARENT 16 17
REMARK Flexibility Score: inf
ROOT
ATOM      1  C   UNL     1     136.117 140.634 147.867  1.00  0.00     0.008 C 
ATOM      2  C   UNL     1     136.117 140.588 146.328  1.00  0.00    -0.008 C 
ATOM      3  C   UNL     1     135.073 141.569 145.697  1.00  0.00     0.004 C 
ATOM      4  C   UNL     1     133.967 140.706 145.030  1.00  0.00     0.005 C 
ATOM      5  C   UNL     1     134.207 139.358 145.672  1.00  0.00     0.001 C 
ATOM      6  C   UNL     1     135.718 139.220 145.726  1.00  0.00    -0.023 C 
ATOM      7  C   UNL     1     136.480 139.069 144.351  1.00  0.00     0.010 C 
ATOM      8  C   UNL     1     136.261 137.777 143.522  1.00  0.00     0.036 C 
ATOM      9  C   UNL     1     135.676 136.559 144.294  1.00  0.00     0.065 C 
ATOM     10  C   UNL     1     134.887 137.026 145.567  1.00  0.00     0.027 C 
ATOM     11  C   UNL     1     135.827 137.895 146.457  1.00  0.00     0.014 C 
ATOM     12  C   UNL     1     133.635 137.973 145.290  1.00  0.00    -0.026 C 
ATOM     13  C   UNL     1     132.501 137.565 146.271  1.00  0.00     0.012 C 
ATOM     14  C   UNL     1     132.996 137.990 143.880  1.00  0.00     0.012 C 
ATOM     15  C   UNL     1     136.830 135.595 144.677  1.00  0.00     0.042 C 
ENDROOT
BRANCH   9  16
ATOM     16  O   UNL     1     134.822 135.853 143.426  1.00  0.00    -0.390 OA
ATOM     17  H   UNL     1     134.308 136.518 142.894  1.00  0.00     0.211 HD
ENDBRANCH   9  16
TORSDOF 1
ENDMDL
MODEL 3
REMARK VINA RESULT:    -4.249      7.041      9.338
REMARK INTER + INTRA:          -4.373
REMARK INTER:                  -4.373
REMARK INTRA:                   0.000
REMARK UNBOUND:                 0.000
REMARK SMILES C[C@@H]1CC[C@H]2C(C)(C)[C@@H]3C[C@]12CC[C@]3(C)O
REMARK SMILES IDX 1 1 2 2 3 3 4 4 5 5 11 6 12 7 13 8 14 9 9 10 10 11 6 12 7 13
REMARK SMILES IDX 8 14 15 15 16 16
REMARK H PARENT 16 17
REMARK Flexibility Score: inf
ROOT
ATOM      1  C   UNL     1     145.793 141.148 148.076  1.00  0.00     0.008 C 
ATOM      2  C   UNL     1     145.700 141.092 146.541  1.00  0.00    -0.008 C 
ATOM      3  C   UNL     1     146.754 140.122 145.908  1.00  0.00     0.004 C 
ATOM      4  C   UNL     1     147.773 140.990 145.121  1.00  0.00     0.005 C 
ATOM      5  C   UNL     1     147.502 142.365 145.690  1.00  0.00     0.001 C 
ATOM      6  C   UNL     1     145.991 142.435 145.829  1.00  0.00    -0.023 C 
ATOM      7  C   UNL     1     145.143 142.457 144.497  1.00  0.00     0.010 C 
ATOM      8  C   UNL     1     145.247 143.700 143.577  1.00  0.00     0.036 C 
ATOM      9  C   UNL     1     145.812 144.993 144.232  1.00  0.00     0.065 C 
ATOM     10  C   UNL     1     146.698 144.650 145.481  1.00  0.00     0.027 C 
ATOM     11  C   UNL     1     145.857 143.798 146.480  1.00  0.00     0.014 C 
ATOM     12  C   UNL     1     147.979 143.748 145.187  1.00  0.00    -0.026 C 
ATOM     13  C   UNL     1     149.146 144.273 146.067  1.00  0.00     0.012 C 
ATOM     14  C   UNL     1     148.533 143.667 143.743  1.00  0.00     0.012 C 
ATOM     15  C   UNL     1     144.635 145.925 144.625  1.00  0.00     0.042 C 
ENDROOT
BRANCH   9  16
ATOM     16  O   UNL     1     146.576 145.680 143.269  1.00  0.00    -0.390 OA
ATOM     17  H   UNL     1     146.404 146.653 143.379  1.00  0.00     0.211 HD
ENDBRANCH   9  16
TORSDOF 1
ENDMDL
MODEL 4
REMARK VINA RESULT:    -4.234     11.296     13.119
REMARK INTER + INTRA:          -4.358
REMARK INTER:                  -4.358
REMARK INTRA:                   0.000
REMARK UNBOUND:                 0.000
REMARK SMILES C[C@@H]1CC[C@H]2C(C)(C)[C@@H]3C[C@]12CC[C@]3(C)O
REMARK SMILES IDX 1 1 2 2 3 3 4 4 5 5 11 6 12 7 13 8 14 9 9 10 10 11 6 12 7 13
REMARK SMILES IDX 8 14 15 15 16 16
REMARK H PARENT 16 17
REMARK Flexibility Score: inf
ROOT
ATOM      1  C   UNL     1     140.410 145.846 148.092  1.00  0.00     0.008 C 
ATOM      2  C   UNL     1     140.463 145.713 146.559  1.00  0.00    -0.008 C 
ATOM      3  C   UNL     1     141.442 146.740 145.899  1.00  0.00     0.004 C 
ATOM      4  C   UNL     1     140.583 147.748 145.087  1.00  0.00     0.005 C 
ATOM      5  C   UNL     1     139.207 147.506 145.664  1.00  0.00     0.001 C 
ATOM      6  C   UNL     1     139.122 146.000 145.843  1.00  0.00    -0.023 C 
ATOM      7  C   UNL     1     139.089 145.119 144.533  1.00  0.00     0.010 C 
ATOM      8  C   UNL     1     137.845 145.211 143.612  1.00  0.00     0.036 C 
ATOM      9  C   UNL     1     136.559 145.806 144.255  1.00  0.00     0.065 C 
ATOM     10  C   UNL     1     136.914 146.720 145.479  1.00  0.00     0.027 C 
ATOM     11  C   UNL     1     137.758 145.897 146.499  1.00  0.00     0.014 C 
ATOM     12  C   UNL     1     137.828 147.984 145.151  1.00  0.00    -0.026 C 
ATOM     13  C   UNL     1     137.317 149.178 146.002  1.00  0.00     0.012 C 
ATOM     14  C   UNL     1     137.912 148.500 143.694  1.00  0.00     0.012 C 
ATOM     15  C   UNL     1     135.616 144.649 144.678  1.00  0.00     0.042 C 
ENDROOT
BRANCH   9  16
ATOM     16  O   UNL     1     135.879 146.552 143.273  1.00  0.00    -0.390 OA
ATOM     17  H   UNL     1     135.802 145.988 142.458  1.00  0.00     0.211 HD
ENDBRANCH   9  16
TORSDOF 1
ENDMDL
MODEL 5
REMARK VINA RESULT:    -4.075      7.299      9.367
REMARK INTER + INTRA:          -4.194
REMARK INTER:                  -4.194
REMARK INTRA:                   0.000
REMARK UNBOUND:                 0.000
REMARK SMILES C[C@@H]1CC[C@H]2C(C)(C)[C@@H]3C[C@]12CC[C@]3(C)O
REMARK SMILES IDX 1 1 2 2 3 3 4 4 5 5 11 6 12 7 13 8 14 9 9 10 10 11 6 12 7 13
REMARK SMILES IDX 8 14 15 15 16 16
REMARK H PARENT 16 17
REMARK Flexibility Score: inf
ROOT
ATOM      1  C   UNL     1     131.269 136.071 146.661  1.00  0.00     0.008 C 
ATOM      2  C   UNL     1     131.709 136.447 145.235  1.00  0.00    -0.008 C 
ATOM      3  C   UNL     1     131.913 135.194 144.318  1.00  0.00     0.004 C 
ATOM      4  C   UNL     1     133.432 135.084 144.011  1.00  0.00     0.005 C 
ATOM      5  C   UNL     1     134.021 135.978 145.078  1.00  0.00     0.001 C 
ATOM      6  C   UNL     1     133.077 137.165 145.153  1.00  0.00    -0.023 C 
ATOM      7  C   UNL     1     133.029 138.130 143.904  1.00  0.00     0.010 C 
ATOM      8  C   UNL     1     134.284 138.982 143.580  1.00  0.00     0.036 C 
ATOM      9  C   UNL     1     135.309 139.158 144.737  1.00  0.00     0.065 C 
ATOM     10  C   UNL     1     135.186 137.994 145.781  1.00  0.00     0.027 C 
ATOM     11  C   UNL     1     133.716 137.929 146.297  1.00  0.00     0.014 C 
ATOM     12  C   UNL     1     135.460 136.530 145.212  1.00  0.00    -0.026 C 
ATOM     13  C   UNL     1     136.248 135.737 146.291  1.00  0.00     0.012 C 
ATOM     14  C   UNL     1     136.256 136.367 143.894  1.00  0.00     0.012 C 
ATOM     15  C   UNL     1     135.086 140.537 145.413  1.00  0.00     0.042 C 
ENDROOT
BRANCH   9  16
ATOM     16  O   UNL     1     136.603 139.178 144.182  1.00  0.00    -0.390 OA
ATOM     17  H   UNL     1     136.543 138.829 143.253  1.00  0.00     0.211 HD
ENDBRANCH   9  16
TORSDOF 1
ENDMDL
MODEL 6
REMARK VINA RESULT:    -4.064      8.768     10.606
REMARK INTER + INTRA:          -4.183
REMARK INTER:                  -4.183
REMARK INTRA:                   0.000
REMARK UNBOUND:                 0.000
REMARK SMILES C[C@@H]1CC[C@H]2C(C)(C)[C@@H]3C[C@]12CC[C@]3(C)O
REMARK SMILES IDX 1 1 2 2 3 3 4 4 5 5 11 6 12 7 13 8 14 9 9 10 10 11 6 12 7 13
REMARK SMILES IDX 8 14 15 15 16 16
REMARK H PARENT 16 17
REMARK Flexibility Score: inf
ROOT
ATOM      1  C   UNL     1     145.256 146.729 147.439  1.00  0.00     0.008 C 
ATOM      2  C   UNL     1     145.521 146.531 145.936  1.00  0.00    -0.008 C 
ATOM      3  C   UNL     1     144.366 145.755 145.218  1.00  0.00     0.004 C 
ATOM      4  C   UNL     1     144.931 144.372 144.790  1.00  0.00     0.005 C 
ATOM      5  C   UNL     1     146.179 144.280 145.638  1.00  0.00     0.001 C 
ATOM      6  C   UNL     1     146.770 145.678 145.610  1.00  0.00    -0.023 C 
ATOM      7  C   UNL     1     147.345 146.191 144.232  1.00  0.00     0.010 C 
ATOM      8  C   UNL     1     148.611 145.503 143.658  1.00  0.00     0.036 C 
ATOM      9  C   UNL     1     149.463 144.683 144.669  1.00  0.00     0.065 C 
ATOM     10  C   UNL     1     148.596 144.226 145.894  1.00  0.00     0.027 C 
ATOM     11  C   UNL     1     147.943 145.479 146.550  1.00  0.00     0.014 C 
ATOM     12  C   UNL     1     147.359 143.283 145.545  1.00  0.00    -0.026 C 
ATOM     13  C   UNL     1     147.248 142.206 146.659  1.00  0.00     0.012 C 
ATOM     14  C   UNL     1     147.347 142.514 144.201  1.00  0.00     0.012 C 
ATOM     15  C   UNL     1     150.672 145.539 145.132  1.00  0.00     0.042 C 
ENDROOT
BRANCH   9  16
ATOM     16  O   UNL     1     149.987 143.561 143.999  1.00  0.00    -0.390 OA
ATOM     17  H   UNL     1     150.967 143.695 143.899  1.00  0.00     0.211 HD
ENDBRANCH   9  16
TORSDOF 1
ENDMDL
MODEL 7
REMARK VINA RESULT:    -4.063      7.066      9.993
REMARK INTER + INTRA:          -4.182
REMARK INTER:                  -4.182
REMARK INTRA:                   0.000
REMARK UNBOUND:                 0.000
REMARK SMILES C[C@@H]1CC[C@H]2C(C)(C)[C@@H]3C[C@]12CC[C@]3(C)O
REMARK SMILES IDX 1 1 2 2 3 3 4 4 5 5 11 6 12 7 13 8 14 9 9 10 10 11 6 12 7 13
REMARK SMILES IDX 8 14 15 15 16 16
REMARK H PARENT 16 17
REMARK Flexibility Score: inf
ROOT
ATOM      1  C   UNL     1     136.300 134.910 147.526  1.00  0.00     0.008 C 
ATOM      2  C   UNL     1     136.057 135.070 146.014  1.00  0.00    -0.008 C 
ATOM      3  C   UNL     1     137.223 135.824 145.293  1.00  0.00     0.004 C 
ATOM      4  C   UNL     1     136.671 137.197 144.822  1.00  0.00     0.005 C 
ATOM      5  C   UNL     1     135.411 137.315 145.650  1.00  0.00     0.001 C 
ATOM      6  C   UNL     1     134.815 135.918 145.649  1.00  0.00    -0.023 C 
ATOM      7  C   UNL     1     134.257 135.372 144.277  1.00  0.00     0.010 C 
ATOM      8  C   UNL     1     133.002 136.049 143.668  1.00  0.00     0.036 C 
ATOM      9  C   UNL     1     132.139 136.898 144.646  1.00  0.00     0.065 C 
ATOM     10  C   UNL     1     132.991 137.385 145.870  1.00  0.00     0.027 C 
ATOM     11  C   UNL     1     133.630 136.146 146.568  1.00  0.00     0.014 C 
ATOM     12  C   UNL     1     134.237 138.313 145.514  1.00  0.00    -0.026 C 
ATOM     13  C   UNL     1     134.336 139.418 146.601  1.00  0.00     0.012 C 
ATOM     14  C   UNL     1     134.270 139.047 144.152  1.00  0.00     0.012 C 
ATOM     15  C   UNL     1     130.921 136.059 145.115  1.00  0.00     0.042 C 
ENDROOT
BRANCH   9  16
ATOM     16  O   UNL     1     131.629 138.004 143.940  1.00  0.00    -0.390 OA
ATOM     17  H   UNL     1     130.645 137.885 143.854  1.00  0.00     0.211 HD
ENDBRANCH   9  16
TORSDOF 1
ENDMDL
MODEL 8
REMARK VINA RESULT:    -4.059     12.435     14.015
REMARK INTER + INTRA:          -4.177
REMARK INTER:                  -4.177
REMARK INTRA:                   0.000
REMARK UNBOUND:                 0.000
REMARK SMILES C[C@@H]1CC[C@H]2C(C)(C)[C@@H]3C[C@]12CC[C@]3(C)O
REMARK SMILES IDX 1 1 2 2 3 3 4 4 5 5 11 6 12 7 13 8 14 9 9 10 10 11 6 12 7 13
REMARK SMILES IDX 8 14 15 15 16 16
REMARK H PARENT 16 17
REMARK Flexibility Score: inf
ROOT
ATOM      1  C   UNL     1     134.817 145.377 147.513  1.00  0.00     0.008 C 
ATOM      2  C   UNL     1     135.066 145.569 146.006  1.00  0.00    -0.008 C 
ATOM      3  C   UNL     1     135.868 144.384 145.372  1.00  0.00     0.004 C 
ATOM      4  C   UNL     1     137.264 144.931 144.965  1.00  0.00     0.005 C 
ATOM      5  C   UNL     1     137.325 146.219 145.754  1.00  0.00     0.001 C 
ATOM      6  C   UNL     1     135.927 146.803 145.649  1.00  0.00    -0.023 C 
ATOM      7  C   UNL     1     135.461 147.310 144.228  1.00  0.00     0.010 C 
ATOM      8  C   UNL     1     136.166 148.548 143.617  1.00  0.00     0.036 C 
ATOM      9  C   UNL     1     136.950 149.451 144.613  1.00  0.00     0.065 C 
ATOM     10  C   UNL     1     137.367 148.646 145.893  1.00  0.00     0.027 C 
ATOM     11  C   UNL     1     136.093 148.022 146.538  1.00  0.00     0.014 C 
ATOM     12  C   UNL     1     138.322 147.396 145.637  1.00  0.00    -0.026 C 
ATOM     13  C   UNL     1     139.361 147.343 146.791  1.00  0.00     0.012 C 
ATOM     14  C   UNL     1     139.137 147.322 144.323  1.00  0.00     0.012 C 
ATOM     15  C   UNL     1     136.077 150.678 144.987  1.00  0.00     0.042 C 
ENDROOT
BRANCH   9  16
ATOM     16  O   UNL     1     138.093 149.945 143.957  1.00  0.00    -0.390 OA
ATOM     17  H   UNL     1     138.797 150.100 144.642  1.00  0.00     0.211 HD
ENDBRANCH   9  16
TORSDOF 1
ENDMDL
MODEL 9
REMARK VINA RESULT:    -4.016      1.804      4.335
REMARK INTER + INTRA:          -4.134
REMARK INTER:                  -4.134
REMARK INTRA:                   0.000
REMARK UNBOUND:                 0.000
REMARK SMILES C[C@@H]1CC[C@H]2C(C)(C)[C@@H]3C[C@]12CC[C@]3(C)O
REMARK SMILES IDX 1 1 2 2 3 3 4 4 5 5 11 6 12 7 13 8 14 9 9 10 10 11 6 12 7 13
REMARK SMILES IDX 8 14 15 15 16 16
REMARK H PARENT 16 17
REMARK Flexibility Score: inf
ROOT
ATOM      1  C   UNL     1     145.547 131.372 146.779  1.00  0.00     0.008 C 
ATOM      2  C   UNL     1     145.107 131.713 145.344  1.00  0.00    -0.008 C 
ATOM      3  C   UNL     1     146.311 131.793 144.348  1.00  0.00     0.004 C 
ATOM      4  C   UNL     1     146.459 133.276 143.912  1.00  0.00     0.005 C 
ATOM      5  C   UNL     1     145.649 133.984 144.974  1.00  0.00     0.001 C 
ATOM      6  C   UNL     1     144.435 133.098 145.190  1.00  0.00    -0.023 C 
ATOM      7  C   UNL     1     143.399 132.991 144.003  1.00  0.00     0.010 C 
ATOM      8  C   UNL     1     142.576 134.250 143.625  1.00  0.00     0.036 C 
ATOM      9  C   UNL     1     142.503 135.370 144.703  1.00  0.00     0.065 C 
ATOM     10  C   UNL     1     143.721 135.282 145.688  1.00  0.00     0.027 C 
ATOM     11  C   UNL     1     143.762 133.857 146.318  1.00  0.00     0.014 C 
ATOM     12  C   UNL     1     145.158 135.451 145.021  1.00  0.00    -0.026 C 
ATOM     13  C   UNL     1     146.040 136.288 145.988  1.00  0.00     0.012 C 
ATOM     14  C   UNL     1     145.275 136.133 143.635  1.00  0.00     0.012 C 
ATOM     15  C   UNL     1     141.158 135.257 145.469  1.00  0.00     0.042 C 
ENDROOT
BRANCH   9  16
ATOM     16  O   UNL     1     142.499 136.616 144.047  1.00  0.00    -0.390 OA
ATOM     17  H   UNL     1     142.286 137.316 144.720  1.00  0.00     0.211 HD
ENDBRANCH   9  16
TORSDOF 1
ENDMDL
