MODEL 1
REMARK VINA RESULT:    -8.171      0.000      0.000
REMARK INTER + INTRA:          -9.892
REMARK INTER:                  -9.605
REMARK INTRA:                  -0.288
REMARK UNBOUND:                -0.288
REMARK SMILES O=c1c(O)c(-c2ccc(O)cc2)oc2cc(O)cc(O)c12
REMARK SMILES IDX 5 1 3 2 2 3 1 4 21 5 19 6 18 7 16 8 15 9 14 10 13 11 6 12
REMARK SMILES IDX 7 13 8 14 9 15 12 16 11 17 10 18 4 20 20 22 17 24
REMARK H PARENT 10 19 4 21 20 23 17 25
REMARK Flexibility Score: inf
ROOT
ATOM      1  C   UNL     1     -24.752 -20.074 -13.471  1.00  0.00     0.180 A 
ATOM      2  C   UNL     1     -24.582 -21.180 -14.322  1.00  0.00     0.208 A 
ATOM      3  C   UNL     1     -24.418 -22.456 -13.758  1.00  0.00     0.238 A 
ATOM      4  O   UNL     1     -24.320 -23.449 -14.525  1.00  0.00    -0.285 OA
ATOM      5  C   UNL     1     -24.407 -22.607 -12.350  1.00  0.00     0.111 A 
ATOM      6  C   UNL     1     -24.207 -23.846 -11.670  1.00  0.00     0.134 A 
ATOM      7  C   UNL     1     -24.346 -23.900 -10.277  1.00  0.00     0.093 A 
ATOM      8  C   UNL     1     -24.614 -22.751  -9.536  1.00  0.00     0.123 A 
ATOM      9  C   UNL     1     -24.753 -21.523 -10.185  1.00  0.00     0.094 A 
ATOM     10  C   UNL     1     -24.654 -21.443 -11.576  1.00  0.00     0.146 A 
ATOM     11  O   UNL     1     -24.803 -20.259 -12.156  1.00  0.00    -0.452 OA
ENDROOT
BRANCH   1  12
ATOM     12  C   UNL     1     -24.906 -18.697 -13.989  1.00  0.00     0.021 A 
ATOM     13  C   UNL     1     -26.176 -18.156 -14.266  1.00  0.00     0.016 A 
ATOM     14  C   UNL     1     -26.296 -16.861 -14.779  1.00  0.00     0.047 A 
ATOM     15  C   UNL     1     -25.151 -16.096 -15.035  1.00  0.00     0.115 A 
ATOM     16  C   UNL     1     -23.763 -17.930 -14.268  1.00  0.00     0.016 A 
ATOM     17  C   UNL     1     -23.886 -16.634 -14.781  1.00  0.00     0.047 A 
BRANCH  15  18
ATOM     18  O   UNL     1     -25.259 -14.804 -15.544  1.00  0.00    -0.508 OA
ATOM     19  H   UNL     1     -26.020 -14.191 -15.276  1.00  0.00     0.293 HD
ENDBRANCH  15  18
ENDBRANCH   1  12
BRANCH   2  20
ATOM     20  O   UNL     1     -24.618 -21.012 -15.709  1.00  0.00    -0.502 OA
ATOM     21  H   UNL     1     -25.463 -21.143 -16.251  1.00  0.00     0.293 HD
ENDBRANCH   2  20
BRANCH   6  22
ATOM     22  O   UNL     1     -23.844 -25.037 -12.307  1.00  0.00    -0.507 OA
ATOM     23  H   UNL     1     -22.951 -25.494 -12.204  1.00  0.00     0.293 HD
ENDBRANCH   6  22
BRANCH   8  24
ATOM     24  O   UNL     1     -24.731 -22.838  -8.151  1.00  0.00    -0.508 OA
ATOM     25  H   UNL     1     -25.357 -23.503  -7.712  1.00  0.00     0.293 HD
ENDBRANCH   8  24
TORSDOF 5
ENDMDL
MODEL 2
REMARK VINA RESULT:    -7.819      5.567      8.369
REMARK INTER + INTRA:          -9.479
REMARK INTER:                  -9.359
REMARK INTRA:                  -0.120
REMARK UNBOUND:                -0.288
REMARK SMILES O=c1c(O)c(-c2ccc(O)cc2)oc2cc(O)cc(O)c12
REMARK SMILES IDX 5 1 3 2 2 3 1 4 21 5 19 6 18 7 16 8 15 9 14 10 13 11 6 12
REMARK SMILES IDX 7 13 8 14 9 15 12 16 11 17 10 18 4 20 20 22 17 24
REMARK H PARENT 10 19 4 21 20 23 17 25
REMARK Flexibility Score: inf
ROOT
ATOM      1  C   UNL     1     -22.275 -14.227 -11.799  1.00  0.00     0.180 A 
ATOM      2  C   UNL     1     -21.508 -13.727 -12.866  1.00  0.00     0.208 A 
ATOM      3  C   UNL     1     -21.868 -14.065 -14.180  1.00  0.00     0.238 A 
ATOM      4  O   UNL     1     -21.211 -13.571 -15.133  1.00  0.00    -0.285 OA
ATOM      5  C   UNL     1     -22.979 -14.912 -14.411  1.00  0.00     0.111 A 
ATOM      6  C   UNL     1     -23.409 -15.351 -15.699  1.00  0.00     0.134 A 
ATOM      7  C   UNL     1     -24.599 -16.081 -15.818  1.00  0.00     0.093 A 
ATOM      8  C   UNL     1     -25.338 -16.442 -14.693  1.00  0.00     0.123 A 
ATOM      9  C   UNL     1     -24.895 -16.068 -13.423  1.00  0.00     0.094 A 
ATOM     10  C   UNL     1     -23.732 -15.309 -13.275  1.00  0.00     0.146 A 
ATOM     11  O   UNL     1     -23.350 -14.965 -12.051  1.00  0.00    -0.452 OA
ENDROOT
BRANCH   1  12
ATOM     12  C   UNL     1     -21.943 -13.936 -10.386  1.00  0.00     0.021 A 
ATOM     13  C   UNL     1     -22.802 -13.171  -9.574  1.00  0.00     0.016 A 
ATOM     14  C   UNL     1     -22.456 -12.887  -8.250  1.00  0.00     0.047 A 
ATOM     15  C   UNL     1     -21.243 -13.352  -7.723  1.00  0.00     0.115 A 
ATOM     16  C   UNL     1     -20.721 -14.380  -9.855  1.00  0.00     0.016 A 
ATOM     17  C   UNL     1     -20.377 -14.096  -8.530  1.00  0.00     0.047 A 
BRANCH  15  18
ATOM     18  O   UNL     1     -20.890 -13.077  -6.405  1.00  0.00    -0.508 OA
ATOM     19  H   UNL     1     -21.482 -13.349  -5.630  1.00  0.00     0.293 HD
ENDBRANCH  15  18
ENDBRANCH   1  12
BRANCH   2  20
ATOM     20  O   UNL     1     -20.429 -12.875 -12.617  1.00  0.00    -0.502 OA
ATOM     21  H   UNL     1     -20.033 -12.276 -13.331  1.00  0.00     0.293 HD
ENDBRANCH   2  20
BRANCH   6  22
ATOM     22  O   UNL     1     -22.696 -15.125 -16.880  1.00  0.00    -0.507 OA
ATOM     23  H   UNL     1     -22.406 -14.217 -17.210  1.00  0.00     0.293 HD
ENDBRANCH   6  22
BRANCH   8  24
ATOM     24  O   UNL     1     -26.508 -17.181 -14.847  1.00  0.00    -0.508 OA
ATOM     25  H   UNL     1     -27.410 -16.731 -14.958  1.00  0.00     0.293 HD
ENDBRANCH   8  24
TORSDOF 5
ENDMDL
MODEL 3
REMARK VINA RESULT:    -7.339      2.475      7.466
REMARK INTER + INTRA:          -8.914
REMARK INTER:                  -8.617
REMARK INTRA:                  -0.297
REMARK UNBOUND:                -0.288
REMARK SMILES O=c1c(O)c(-c2ccc(O)cc2)oc2cc(O)cc(O)c12
REMARK SMILES IDX 5 1 3 2 2 3 1 4 21 5 19 6 18 7 16 8 15 9 14 10 13 11 6 12
REMARK SMILES IDX 7 13 8 14 9 15 12 16 11 17 10 18 4 20 20 22 17 24
REMARK H PARENT 10 19 4 21 20 23 17 25
REMARK Flexibility Score: inf
ROOT
ATOM      1  C   UNL     1     -24.414 -17.631 -13.874  1.00  0.00     0.180 A 
ATOM      2  C   UNL     1     -25.301 -16.929 -14.709  1.00  0.00     0.208 A 
ATOM      3  C   UNL     1     -24.928 -15.663 -15.188  1.00  0.00     0.238 A 
ATOM      4  O   UNL     1     -25.702 -15.062 -15.978  1.00  0.00    -0.285 OA
ATOM      5  C   UNL     1     -23.681 -15.106 -14.811  1.00  0.00     0.111 A 
ATOM      6  C   UNL     1     -23.219 -13.814 -15.204  1.00  0.00     0.134 A 
ATOM      7  C   UNL     1     -21.914 -13.419 -14.880  1.00  0.00     0.093 A 
ATOM      8  C   UNL     1     -21.081 -14.242 -14.124  1.00  0.00     0.123 A 
ATOM      9  C   UNL     1     -21.543 -15.483 -13.685  1.00  0.00     0.094 A 
ATOM     10  C   UNL     1     -22.826 -15.919 -14.022  1.00  0.00     0.146 A 
ATOM     11  O   UNL     1     -23.225 -17.111 -13.593  1.00  0.00    -0.452 OA
ENDROOT
BRANCH   1  12
ATOM     12  C   UNL     1     -24.746 -18.959 -13.311  1.00  0.00     0.021 A 
ATOM     13  C   UNL     1     -25.403 -19.087 -12.074  1.00  0.00     0.016 A 
ATOM     14  C   UNL     1     -25.684 -20.353 -11.550  1.00  0.00     0.047 A 
ATOM     15  C   UNL     1     -25.302 -21.505 -12.250  1.00  0.00     0.115 A 
ATOM     16  C   UNL     1     -24.349 -20.120 -13.995  1.00  0.00     0.016 A 
ATOM     17  C   UNL     1     -24.632 -21.385 -13.470  1.00  0.00     0.047 A 
BRANCH  15  18
ATOM     18  O   UNL     1     -25.579 -22.771 -11.739  1.00  0.00    -0.508 OA
ATOM     19  H   UNL     1     -26.483 -22.995 -11.340  1.00  0.00     0.293 HD
ENDBRANCH  15  18
ENDBRANCH   1  12
BRANCH   2  20
ATOM     20  O   UNL     1     -26.516 -17.505 -15.087  1.00  0.00    -0.502 OA
ATOM     21  H   UNL     1     -26.576 -18.254 -15.766  1.00  0.00     0.293 HD
ENDBRANCH   2  20
BRANCH   6  22
ATOM     22  O   UNL     1     -24.004 -12.877 -15.882  1.00  0.00    -0.507 OA
ATOM     23  H   UNL     1     -23.663 -12.252 -16.597  1.00  0.00     0.293 HD
ENDBRANCH   6  22
BRANCH   8  24
ATOM     24  O   UNL     1     -19.794 -13.811 -13.808  1.00  0.00    -0.508 OA
ATOM     25  H   UNL     1     -19.585 -12.831 -13.655  1.00  0.00     0.293 HD
ENDBRANCH   8  24
TORSDOF 5
ENDMDL
MODEL 4
REMARK VINA RESULT:    -7.327      1.297      2.897
REMARK INTER + INTRA:          -8.899
REMARK INTER:                  -8.635
REMARK INTRA:                  -0.264
REMARK UNBOUND:                -0.288
REMARK SMILES O=c1c(O)c(-c2ccc(O)cc2)oc2cc(O)cc(O)c12
REMARK SMILES IDX 5 1 3 2 2 3 1 4 21 5 19 6 18 7 16 8 15 9 14 10 13 11 6 12
REMARK SMILES IDX 7 13 8 14 9 15 12 16 11 17 10 18 4 20 20 22 17 24
REMARK H PARENT 10 19 4 21 20 23 17 25
REMARK Flexibility Score: inf
ROOT
ATOM      1  C   UNL     1     -24.984 -19.576 -13.131  1.00  0.00     0.180 A 
ATOM      2  C   UNL     1     -25.409 -19.681 -11.795  1.00  0.00     0.208 A 
ATOM      3  C   UNL     1     -25.372 -20.936 -11.165  1.00  0.00     0.238 A 
ATOM      4  O   UNL     1     -25.703 -21.014  -9.954  1.00  0.00    -0.285 OA
ATOM      5  C   UNL     1     -24.928 -22.072 -11.884  1.00  0.00     0.111 A 
ATOM      6  C   UNL     1     -24.888 -23.398 -11.358  1.00  0.00     0.134 A 
ATOM      7  C   UNL     1     -24.307 -24.424 -12.115  1.00  0.00     0.093 A 
ATOM      8  C   UNL     1     -23.824 -24.185 -13.401  1.00  0.00     0.123 A 
ATOM      9  C   UNL     1     -23.912 -22.904 -13.948  1.00  0.00     0.094 A 
ATOM     10  C   UNL     1     -24.454 -21.853 -13.204  1.00  0.00     0.146 A 
ATOM     11  O   UNL     1     -24.510 -20.647 -13.757  1.00  0.00    -0.452 OA
ENDROOT
BRANCH   1  12
ATOM     12  C   UNL     1     -25.016 -18.293 -13.869  1.00  0.00     0.021 A 
ATOM     13  C   UNL     1     -26.214 -17.784 -14.403  1.00  0.00     0.016 A 
ATOM     14  C   UNL     1     -26.215 -16.583 -15.118  1.00  0.00     0.047 A 
ATOM     15  C   UNL     1     -25.020 -15.882 -15.320  1.00  0.00     0.115 A 
ATOM     16  C   UNL     1     -23.818 -17.594 -14.094  1.00  0.00     0.016 A 
ATOM     17  C   UNL     1     -23.823 -16.392 -14.809  1.00  0.00     0.047 A 
BRANCH  15  18
ATOM     18  O   UNL     1     -25.010 -14.683 -16.029  1.00  0.00    -0.508 OA
ATOM     19  H   UNL     1     -24.803 -13.802 -15.575  1.00  0.00     0.293 HD
ENDBRANCH  15  18
ENDBRANCH   1  12
BRANCH   2  20
ATOM     20  O   UNL     1     -25.823 -18.544 -11.097  1.00  0.00    -0.502 OA
ATOM     21  H   UNL     1     -26.359 -17.803 -11.533  1.00  0.00     0.293 HD
ENDBRANCH   2  20
BRANCH   6  22
ATOM     22  O   UNL     1     -25.426 -23.765 -10.121  1.00  0.00    -0.507 OA
ATOM     23  H   UNL     1     -26.064 -24.533  -9.977  1.00  0.00     0.293 HD
ENDBRANCH   6  22
BRANCH   8  24
ATOM     24  O   UNL     1     -23.267 -25.232 -14.131  1.00  0.00    -0.508 OA
ATOM     25  H   UNL     1     -22.492 -25.777 -13.771  1.00  0.00     0.293 HD
ENDBRANCH   8  24
TORSDOF 5
ENDMDL
MODEL 5
REMARK VINA RESULT:    -7.166      1.904      1.997
REMARK INTER + INTRA:          -8.710
REMARK INTER:                  -8.425
REMARK INTRA:                  -0.285
REMARK UNBOUND:                -0.288
REMARK SMILES O=c1c(O)c(-c2ccc(O)cc2)oc2cc(O)cc(O)c12
REMARK SMILES IDX 5 1 3 2 2 3 1 4 21 5 19 6 18 7 16 8 15 9 14 10 13 11 6 12
REMARK SMILES IDX 7 13 8 14 9 15 12 16 11 17 10 18 4 20 20 22 17 24
REMARK H PARENT 10 19 4 21 20 23 17 25
REMARK Flexibility Score: inf
ROOT
ATOM      1  C   UNL     1     -25.268 -19.083 -13.297  1.00  0.00     0.180 A 
ATOM      2  C   UNL     1     -24.411 -20.076 -13.806  1.00  0.00     0.208 A 
ATOM      3  C   UNL     1     -24.559 -21.398 -13.358  1.00  0.00     0.238 A 
ATOM      4  O   UNL     1     -23.826 -22.291 -13.856  1.00  0.00    -0.285 OA
ATOM      5  C   UNL     1     -25.547 -21.709 -12.392  1.00  0.00     0.111 A 
ATOM      6  C   UNL     1     -25.757 -23.007 -11.837  1.00  0.00     0.134 A 
ATOM      7  C   UNL     1     -26.849 -23.226 -10.987  1.00  0.00     0.093 A 
ATOM      8  C   UNL     1     -27.698 -22.183 -10.623  1.00  0.00     0.123 A 
ATOM      9  C   UNL     1     -27.467 -20.897 -11.113  1.00  0.00     0.094 A 
ATOM     10  C   UNL     1     -26.408 -20.654 -11.990  1.00  0.00     0.146 A 
ATOM     11  O   UNL     1     -26.228 -19.419 -12.443  1.00  0.00    -0.452 OA
ENDROOT
BRANCH   1  12
ATOM     12  C   UNL     1     -25.159 -17.664 -13.703  1.00  0.00     0.021 A 
ATOM     13  C   UNL     1     -25.916 -17.147 -14.770  1.00  0.00     0.016 A 
ATOM     14  C   UNL     1     -25.777 -15.809 -15.152  1.00  0.00     0.047 A 
ATOM     15  C   UNL     1     -24.873 -14.975 -14.482  1.00  0.00     0.115 A 
ATOM     16  C   UNL     1     -24.239 -16.826 -13.050  1.00  0.00     0.016 A 
ATOM     17  C   UNL     1     -24.103 -15.488 -13.433  1.00  0.00     0.047 A 
BRANCH  15  18
ATOM     18  O   UNL     1     -24.728 -13.641 -14.852  1.00  0.00    -0.508 OA
ATOM     19  H   UNL     1     -23.960 -13.076 -14.509  1.00  0.00     0.293 HD
ENDBRANCH  15  18
ENDBRANCH   1  12
BRANCH   2  20
ATOM     20  O   UNL     1     -23.457 -19.752 -14.774  1.00  0.00    -0.502 OA
ATOM     21  H   UNL     1     -22.520 -20.135 -14.764  1.00  0.00     0.293 HD
ENDBRANCH   2  20
BRANCH   6  22
ATOM     22  O   UNL     1     -24.914 -24.099 -12.063  1.00  0.00    -0.507 OA
ATOM     23  H   UNL     1     -24.569 -24.716 -11.343  1.00  0.00     0.293 HD
ENDBRANCH   6  22
BRANCH   8  24
ATOM     24  O   UNL     1     -28.765 -22.433  -9.764  1.00  0.00    -0.508 OA
ATOM     25  H   UNL     1     -29.461 -21.725  -9.561  1.00  0.00     0.293 HD
ENDBRANCH   8  24
TORSDOF 5
ENDMDL
MODEL 6
REMARK VINA RESULT:    -6.955      2.263      3.433
REMARK INTER + INTRA:          -8.462
REMARK INTER:                  -8.180
REMARK INTRA:                  -0.282
REMARK UNBOUND:                -0.288
REMARK SMILES O=c1c(O)c(-c2ccc(O)cc2)oc2cc(O)cc(O)c12
REMARK SMILES IDX 5 1 3 2 2 3 1 4 21 5 19 6 18 7 16 8 15 9 14 10 13 11 6 12
REMARK SMILES IDX 7 13 8 14 9 15 12 16 11 17 10 18 4 20 20 22 17 24
REMARK H PARENT 10 19 4 21 20 23 17 25
REMARK Flexibility Score: inf
ROOT
ATOM      1  C   UNL     1     -25.839 -19.770 -11.379  1.00  0.00     0.180 A 
ATOM      2  C   UNL     1     -27.009 -19.746 -10.599  1.00  0.00     0.208 A 
ATOM      3  C   UNL     1     -27.207 -20.751  -9.638  1.00  0.00     0.238 A 
ATOM      4  O   UNL     1     -28.230 -20.694  -8.907  1.00  0.00    -0.285 OA
ATOM      5  C   UNL     1     -26.243 -21.776  -9.481  1.00  0.00     0.111 A 
ATOM      6  C   UNL     1     -26.361 -22.866  -8.567  1.00  0.00     0.134 A 
ATOM      7  C   UNL     1     -25.287 -23.749  -8.403  1.00  0.00     0.093 A 
ATOM      8  C   UNL     1     -24.127 -23.621  -9.165  1.00  0.00     0.123 A 
ATOM      9  C   UNL     1     -24.024 -22.593 -10.104  1.00  0.00     0.094 A 
ATOM     10  C   UNL     1     -25.064 -21.676 -10.265  1.00  0.00     0.146 A 
ATOM     11  O   UNL     1     -24.923 -20.707 -11.162  1.00  0.00    -0.452 OA
ENDROOT
BRANCH   1  12
ATOM     12  C   UNL     1     -25.570 -18.760 -12.427  1.00  0.00     0.021 A 
ATOM     13  C   UNL     1     -26.146 -18.861 -13.707  1.00  0.00     0.016 A 
ATOM     14  C   UNL     1     -25.858 -17.909 -14.689  1.00  0.00     0.047 A 
ATOM     15  C   UNL     1     -24.982 -16.852 -14.410  1.00  0.00     0.115 A 
ATOM     16  C   UNL     1     -24.677 -17.708 -12.163  1.00  0.00     0.016 A 
ATOM     17  C   UNL     1     -24.391 -16.756 -13.146  1.00  0.00     0.047 A 
BRANCH  15  18
ATOM     18  O   UNL     1     -24.689 -15.896 -15.379  1.00  0.00    -0.508 OA
ATOM     19  H   UNL     1     -25.090 -14.966 -15.344  1.00  0.00     0.293 HD
ENDBRANCH  15  18
ENDBRANCH   1  12
BRANCH   2  20
ATOM     20  O   UNL     1     -27.937 -18.713 -10.755  1.00  0.00    -0.502 OA
ATOM     21  H   UNL     1     -28.707 -18.572 -10.113  1.00  0.00     0.293 HD
ENDBRANCH   2  20
BRANCH   6  22
ATOM     22  O   UNL     1     -27.513 -23.140  -7.824  1.00  0.00    -0.507 OA
ATOM     23  H   UNL     1     -28.407 -22.693  -7.963  1.00  0.00     0.293 HD
ENDBRANCH   6  22
BRANCH   8  24
ATOM     24  O   UNL     1     -23.084 -24.526  -8.987  1.00  0.00    -0.508 OA
ATOM     25  H   UNL     1     -22.738 -24.763  -8.064  1.00  0.00     0.293 HD
ENDBRANCH   8  24
TORSDOF 5
ENDMDL
MODEL 7
REMARK VINA RESULT:    -6.950      4.426      7.263
REMARK INTER + INTRA:          -8.456
REMARK INTER:                  -8.181
REMARK INTRA:                  -0.275
REMARK UNBOUND:                -0.288
REMARK SMILES O=c1c(O)c(-c2ccc(O)cc2)oc2cc(O)cc(O)c12
REMARK SMILES IDX 5 1 3 2 2 3 1 4 21 5 19 6 18 7 16 8 15 9 14 10 13 11 6 12
REMARK SMILES IDX 7 13 8 14 9 15 12 16 11 17 10 18 4 20 20 22 17 24
REMARK H PARENT 10 19 4 21 20 23 17 25
REMARK Flexibility Score: inf
ROOT
ATOM      1  C   UNL     1     -23.209 -14.913 -11.910  1.00  0.00     0.180 A 
ATOM      2  C   UNL     1     -23.413 -14.174 -13.088  1.00  0.00     0.208 A 
ATOM      3  C   UNL     1     -24.162 -14.746 -14.130  1.00  0.00     0.238 A 
ATOM      4  O   UNL     1     -24.387 -14.060 -15.160  1.00  0.00    -0.285 OA
ATOM      5  C   UNL     1     -24.680 -16.056 -13.987  1.00  0.00     0.111 A 
ATOM      6  C   UNL     1     -25.418 -16.749 -14.994  1.00  0.00     0.134 A 
ATOM      7  C   UNL     1     -25.996 -17.990 -14.696  1.00  0.00     0.093 A 
ATOM      8  C   UNL     1     -25.808 -18.590 -13.453  1.00  0.00     0.123 A 
ATOM      9  C   UNL     1     -25.040 -17.949 -12.481  1.00  0.00     0.094 A 
ATOM     10  C   UNL     1     -24.481 -16.694 -12.736  1.00  0.00     0.146 A 
ATOM     11  O   UNL     1     -23.765 -16.113 -11.781  1.00  0.00    -0.452 OA
ENDROOT
BRANCH   1  12
ATOM     12  C   UNL     1     -22.412 -14.388 -10.779  1.00  0.00     0.021 A 
ATOM     13  C   UNL     1     -21.061 -14.744 -10.605  1.00  0.00     0.016 A 
ATOM     14  C   UNL     1     -20.336 -14.255  -9.515  1.00  0.00     0.047 A 
ATOM     15  C   UNL     1     -20.952 -13.415  -8.578  1.00  0.00     0.115 A 
ATOM     16  C   UNL     1     -23.026 -13.562  -9.823  1.00  0.00     0.016 A 
ATOM     17  C   UNL     1     -22.298 -13.073  -8.734  1.00  0.00     0.047 A 
BRANCH  15  18
ATOM     18  O   UNL     1     -20.237 -12.920  -7.490  1.00  0.00    -0.508 OA
ATOM     19  H   UNL     1     -20.659 -12.281  -6.827  1.00  0.00     0.293 HD
ENDBRANCH  15  18
ENDBRANCH   1  12
BRANCH   2  20
ATOM     20  O   UNL     1     -22.911 -12.875 -13.199  1.00  0.00    -0.502 OA
ATOM     21  H   UNL     1     -23.393 -12.147 -13.713  1.00  0.00     0.293 HD
ENDBRANCH   2  20
BRANCH   6  22
ATOM     22  O   UNL     1     -25.587 -16.280 -16.300  1.00  0.00    -0.507 OA
ATOM     23  H   UNL     1     -24.833 -16.063 -16.935  1.00  0.00     0.293 HD
ENDBRANCH   6  22
BRANCH   8  24
ATOM     24  O   UNL     1     -26.385 -19.832 -13.196  1.00  0.00    -0.508 OA
ATOM     25  H   UNL     1     -26.578 -20.492 -13.940  1.00  0.00     0.293 HD
ENDBRANCH   8  24
TORSDOF 5
ENDMDL
MODEL 8
REMARK VINA RESULT:    -6.740      2.806      7.512
REMARK INTER + INTRA:          -8.209
REMARK INTER:                  -7.918
REMARK INTRA:                  -0.292
REMARK UNBOUND:                -0.288
REMARK SMILES O=c1c(O)c(-c2ccc(O)cc2)oc2cc(O)cc(O)c12
REMARK SMILES IDX 5 1 3 2 2 3 1 4 21 5 19 6 18 7 16 8 15 9 14 10 13 11 6 12
REMARK SMILES IDX 7 13 8 14 9 15 12 16 11 17 10 18 4 20 20 22 17 24
REMARK H PARENT 10 19 4 21 20 23 17 25
REMARK Flexibility Score: inf
ROOT
ATOM      1  C   UNL     1     -26.533 -22.805 -10.502  1.00  0.00     0.180 A 
ATOM      2  C   UNL     1     -26.554 -21.416 -10.286  1.00  0.00     0.208 A 
ATOM      3  C   UNL     1     -26.059 -20.564 -11.287  1.00  0.00     0.238 A 
ATOM      4  O   UNL     1     -26.129 -19.319 -11.111  1.00  0.00    -0.285 OA
ATOM      5  C   UNL     1     -25.533 -21.112 -12.482  1.00  0.00     0.111 A 
ATOM      6  C   UNL     1     -24.968 -20.344 -13.545  1.00  0.00     0.134 A 
ATOM      7  C   UNL     1     -24.598 -20.982 -14.736  1.00  0.00     0.093 A 
ATOM      8  C   UNL     1     -24.712 -22.364 -14.878  1.00  0.00     0.123 A 
ATOM      9  C   UNL     1     -25.208 -23.131 -13.823  1.00  0.00     0.094 A 
ATOM     10  C   UNL     1     -25.619 -22.520 -12.636  1.00  0.00     0.146 A 
ATOM     11  O   UNL     1     -26.095 -23.284 -11.661  1.00  0.00    -0.452 OA
ENDROOT
BRANCH   1  12
ATOM     12  C   UNL     1     -27.015 -23.767  -9.486  1.00  0.00     0.021 A 
ATOM     13  C   UNL     1     -26.138 -24.347  -8.551  1.00  0.00     0.016 A 
ATOM     14  C   UNL     1     -26.611 -25.273  -7.617  1.00  0.00     0.047 A 
ATOM     15  C   UNL     1     -27.963 -25.640  -7.611  1.00  0.00     0.115 A 
ATOM     16  C   UNL     1     -28.365 -24.156  -9.486  1.00  0.00     0.016 A 
ATOM     17  C   UNL     1     -28.836 -25.082  -8.549  1.00  0.00     0.047 A 
BRANCH  15  18
ATOM     18  O   UNL     1     -28.446 -26.559  -6.683  1.00  0.00    -0.508 OA
ATOM     19  H   UNL     1     -28.412 -27.556  -6.858  1.00  0.00     0.293 HD
ENDBRANCH  15  18
ENDBRANCH   1  12
BRANCH   2  20
ATOM     20  O   UNL     1     -27.098 -20.895  -9.109  1.00  0.00    -0.502 OA
ATOM     21  H   UNL     1     -27.284 -19.907  -8.987  1.00  0.00     0.293 HD
ENDBRANCH   2  20
BRANCH   6  22
ATOM     22  O   UNL     1     -24.724 -18.970 -13.472  1.00  0.00    -0.507 OA
ATOM     23  H   UNL     1     -23.807 -18.550 -13.445  1.00  0.00     0.293 HD
ENDBRANCH   6  22
BRANCH   8  24
ATOM     24  O   UNL     1     -24.321 -22.967 -16.071  1.00  0.00    -0.508 OA
ATOM     25  H   UNL     1     -24.848 -22.842 -16.927  1.00  0.00     0.293 HD
ENDBRANCH   8  24
TORSDOF 5
ENDMDL
MODEL 9
REMARK VINA RESULT:    -6.733      1.518      1.642
REMARK INTER + INTRA:          -8.202
REMARK INTER:                  -7.919
REMARK INTRA:                  -0.283
REMARK UNBOUND:                -0.288
REMARK SMILES O=c1c(O)c(-c2ccc(O)cc2)oc2cc(O)cc(O)c12
REMARK SMILES IDX 5 1 3 2 2 3 1 4 21 5 19 6 18 7 16 8 15 9 14 10 13 11 6 12
REMARK SMILES IDX 7 13 8 14 9 15 12 16 11 17 10 18 4 20 20 22 17 24
REMARK H PARENT 10 19 4 21 20 23 17 25
REMARK Flexibility Score: inf
ROOT
ATOM      1  C   UNL     1     -25.146 -19.629 -12.632  1.00  0.00     0.180 A 
ATOM      2  C   UNL     1     -24.292 -20.661 -13.059  1.00  0.00     0.208 A 
ATOM      3  C   UNL     1     -24.273 -21.869 -12.345  1.00  0.00     0.238 A 
ATOM      4  O   UNL     1     -23.547 -22.809 -12.763  1.00  0.00    -0.285 OA
ATOM      5  C   UNL     1     -25.093 -22.024 -11.201  1.00  0.00     0.111 A 
ATOM      6  C   UNL     1     -25.123 -23.190 -10.378  1.00  0.00     0.134 A 
ATOM      7  C   UNL     1     -26.069 -23.284  -9.348  1.00  0.00     0.093 A 
ATOM      8  C   UNL     1     -26.938 -22.231  -9.071  1.00  0.00     0.123 A 
ATOM      9  C   UNL     1     -26.878 -21.063  -9.832  1.00  0.00     0.094 A 
ATOM     10  C   UNL     1     -25.970 -20.953 -10.888  1.00  0.00     0.146 A 
ATOM     11  O   UNL     1     -25.951 -19.829 -11.595  1.00  0.00    -0.452 OA
ENDROOT
BRANCH   1  12
ATOM     12  C   UNL     1     -25.204 -18.319 -13.319  1.00  0.00     0.021 A 
ATOM     13  C   UNL     1     -26.147 -18.064 -14.332  1.00  0.00     0.016 A 
ATOM     14  C   UNL     1     -26.166 -16.828 -14.984  1.00  0.00     0.047 A 
ATOM     15  C   UNL     1     -25.238 -15.836 -14.642  1.00  0.00     0.115 A 
ATOM     16  C   UNL     1     -24.264 -17.326 -12.997  1.00  0.00     0.016 A 
ATOM     17  C   UNL     1     -24.286 -16.090 -13.650  1.00  0.00     0.047 A 
BRANCH  15  18
ATOM     18  O   UNL     1     -25.250 -14.600 -15.283  1.00  0.00    -0.508 OA
ATOM     19  H   UNL     1     -26.116 -14.112 -15.476  1.00  0.00     0.293 HD
ENDBRANCH  15  18
ENDBRANCH   1  12
BRANCH   2  20
ATOM     20  O   UNL     1     -23.507 -20.495 -14.204  1.00  0.00    -0.502 OA
ATOM     21  H   UNL     1     -22.740 -21.115 -14.432  1.00  0.00     0.293 HD
ENDBRANCH   2  20
BRANCH   6  22
ATOM     22  O   UNL     1     -24.236 -24.262 -10.509  1.00  0.00    -0.507 OA
ATOM     23  H   UNL     1     -24.298 -24.976 -11.220  1.00  0.00     0.293 HD
ENDBRANCH   6  22
BRANCH   8  24
ATOM     24  O   UNL     1     -27.855 -22.353  -8.030  1.00  0.00    -0.508 OA
ATOM     25  H   UNL     1     -28.074 -21.572  -7.421  1.00  0.00     0.293 HD
ENDBRANCH   8  24
TORSDOF 5
ENDMDL
