MODEL 1
REMARK VINA RESULT:    -3.863      0.000      0.000
REMARK INTER + INTRA:          -4.322
REMARK INTER:                  -4.201
REMARK INTRA:                  -0.121
REMARK UNBOUND:                -0.121
REMARK SMILES Cc1ccc(C(C)C)cc1O
REMARK SMILES IDX 1 1 2 2 10 3 9 4 5 5 4 6 3 7 11 8 6 10 7 11 8 12
REMARK H PARENT 11 9
REMARK Flexibility Score: inf
ROOT
ATOM      1  C   UNL     1     142.349 145.958 136.982  1.00  0.00     0.048 C 
ATOM      2  C   UNL     1     142.108 147.000 138.037  1.00  0.00    -0.009 A 
ATOM      3  C   UNL     1     143.164 147.432 138.860  1.00  0.00     0.118 A 
ATOM      4  C   UNL     1     142.931 148.404 139.843  1.00  0.00     0.050 A 
ATOM      5  C   UNL     1     141.649 148.957 140.019  1.00  0.00    -0.042 A 
ATOM      6  C   UNL     1     140.602 148.519 139.191  1.00  0.00     0.004 A 
ATOM      7  C   UNL     1     140.829 147.550 138.210  1.00  0.00     0.007 A 
ENDROOT
BRANCH   3   8
ATOM      8  O   UNL     1     144.439 146.893 138.699  1.00  0.00    -0.508 OA
ATOM      9  H   UNL     1     144.990 146.585 139.492  1.00  0.00     0.293 HD
ENDBRANCH   3   8
BRANCH   5  10
ATOM     10  C   UNL     1     141.388 150.010 141.079  1.00  0.00     0.013 C 
ATOM     11  C   UNL     1     140.165 149.647 141.930  1.00  0.00     0.012 C 
ATOM     12  C   UNL     1     142.626 150.230 141.957  1.00  0.00     0.012 C 
ENDBRANCH   5  10
TORSDOF 2
ENDMDL
MODEL 2
REMARK VINA RESULT:    -3.816     10.019     11.026
REMARK INTER + INTRA:          -4.272
REMARK INTER:                  -4.151
REMARK INTRA:                  -0.121
REMARK UNBOUND:                -0.121
REMARK SMILES Cc1ccc(C(C)C)cc1O
REMARK SMILES IDX 1 1 2 2 10 3 9 4 5 5 4 6 3 7 11 8 6 10 7 11 8 12
REMARK H PARENT 11 9
REMARK Flexibility Score: inf
ROOT
ATOM      1  C   UNL     1     145.971 139.075 136.904  1.00  0.00     0.048 C 
ATOM      2  C   UNL     1     147.008 139.350 137.956  1.00  0.00    -0.009 A 
ATOM      3  C   UNL     1     147.447 138.318 138.805  1.00  0.00     0.118 A 
ATOM      4  C   UNL     1     148.414 138.583 139.785  1.00  0.00     0.050 A 
ATOM      5  C   UNL     1     148.954 139.874 139.932  1.00  0.00    -0.042 A 
ATOM      6  C   UNL     1     148.508 140.897 139.078  1.00  0.00     0.004 A 
ATOM      7  C   UNL     1     147.545 140.638 138.100  1.00  0.00     0.007 A 
ENDROOT
BRANCH   3   8
ATOM      8  O   UNL     1     146.920 137.034 138.671  1.00  0.00    -0.508 OA
ATOM      9  H   UNL     1     147.519 136.220 138.593  1.00  0.00     0.293 HD
ENDBRANCH   3   8
BRANCH   5  10
ATOM     10  C   UNL     1     150.001 140.170 140.989  1.00  0.00     0.013 C 
ATOM     11  C   UNL     1     149.618 141.402 141.818  1.00  0.00     0.012 C 
ATOM     12  C   UNL     1     150.239 138.951 141.889  1.00  0.00     0.012 C 
ENDBRANCH   5  10
TORSDOF 2
ENDMDL
MODEL 3
REMARK VINA RESULT:    -3.815      9.848     10.890
REMARK INTER + INTRA:          -4.270
REMARK INTER:                  -4.150
REMARK INTRA:                  -0.121
REMARK UNBOUND:                -0.121
REMARK SMILES Cc1ccc(C(C)C)cc1O
REMARK SMILES IDX 1 1 2 2 10 3 9 4 5 5 4 6 3 7 11 8 6 10 7 11 8 12
REMARK H PARENT 11 9
REMARK Flexibility Score: inf
ROOT
ATOM      1  C   UNL     1     135.786 142.420 137.064  1.00  0.00     0.048 C 
ATOM      2  C   UNL     1     134.716 142.161 138.085  1.00  0.00    -0.009 A 
ATOM      3  C   UNL     1     134.245 143.206 138.899  1.00  0.00     0.118 A 
ATOM      4  C   UNL     1     133.246 142.956 139.851  1.00  0.00     0.050 A 
ATOM      5  C   UNL     1     132.705 141.666 140.003  1.00  0.00    -0.042 A 
ATOM      6  C   UNL     1     133.183 140.629 139.185  1.00  0.00     0.004 A 
ATOM      7  C   UNL     1     134.178 140.874 138.236  1.00  0.00     0.007 A 
ENDROOT
BRANCH   3   8
ATOM      8  O   UNL     1     134.771 144.490 138.760  1.00  0.00    -0.508 OA
ATOM      9  H   UNL     1     134.259 145.310 139.065  1.00  0.00     0.293 HD
ENDBRANCH   3   8
BRANCH   5  10
ATOM     10  C   UNL     1     131.624 141.386 141.030  1.00  0.00     0.013 C 
ATOM     11  C   UNL     1     131.986 140.176 141.900  1.00  0.00     0.012 C 
ATOM     12  C   UNL     1     131.346 142.622 141.893  1.00  0.00     0.012 C 
ENDBRANCH   5  10
TORSDOF 2
ENDMDL
MODEL 4
REMARK VINA RESULT:    -3.794     13.467     15.471
REMARK INTER + INTRA:          -4.247
REMARK INTER:                  -4.128
REMARK INTRA:                  -0.119
REMARK UNBOUND:                -0.121
REMARK SMILES Cc1ccc(C(C)C)cc1O
REMARK SMILES IDX 1 1 2 2 10 3 9 4 5 5 4 6 3 7 11 8 6 10 7 11 8 12
REMARK H PARENT 11 9
REMARK Flexibility Score: inf
ROOT
ATOM      1  C   UNL     1     139.349 135.701 136.985  1.00  0.00     0.048 C 
ATOM      2  C   UNL     1     139.589 134.638 138.019  1.00  0.00    -0.009 A 
ATOM      3  C   UNL     1     138.542 134.217 138.858  1.00  0.00     0.118 A 
ATOM      4  C   UNL     1     138.774 133.225 139.821  1.00  0.00     0.050 A 
ATOM      5  C   UNL     1     140.047 132.641 139.960  1.00  0.00    -0.042 A 
ATOM      6  C   UNL     1     141.085 133.069 139.116  1.00  0.00     0.004 A 
ATOM      7  C   UNL     1     140.859 134.058 138.155  1.00  0.00     0.007 A 
ENDROOT
BRANCH   3   8
ATOM      8  O   UNL     1     137.276 134.787 138.733  1.00  0.00    -0.508 OA
ATOM      9  H   UNL     1     137.126 135.638 138.204  1.00  0.00     0.293 HD
ENDBRANCH   3   8
BRANCH   5  10
ATOM     10  C   UNL     1     140.307 131.567 140.998  1.00  0.00     0.013 C 
ATOM     11  C   UNL     1     141.507 131.929 141.882  1.00  0.00     0.012 C 
ATOM     12  C   UNL     1     139.058 131.302 141.847  1.00  0.00     0.012 C 
ENDBRANCH   5  10
TORSDOF 2
ENDMDL
MODEL 5
REMARK VINA RESULT:    -3.759      9.486     11.093
REMARK INTER + INTRA:          -4.210
REMARK INTER:                  -4.082
REMARK INTRA:                  -0.128
REMARK UNBOUND:                -0.121
REMARK SMILES Cc1ccc(C(C)C)cc1O
REMARK SMILES IDX 1 1 2 2 10 3 9 4 5 5 4 6 3 7 11 8 6 10 7 11 8 12
REMARK H PARENT 11 9
REMARK Flexibility Score: inf
ROOT
ATOM      1  C   UNL     1     150.386 138.911 141.997  1.00  0.00     0.048 C 
ATOM      2  C   UNL     1     149.713 139.531 140.806  1.00  0.00    -0.009 A 
ATOM      3  C   UNL     1     149.204 140.840 140.881  1.00  0.00     0.118 A 
ATOM      4  C   UNL     1     148.576 141.411 139.766  1.00  0.00     0.050 A 
ATOM      5  C   UNL     1     148.447 140.689 138.564  1.00  0.00    -0.042 A 
ATOM      6  C   UNL     1     148.959 139.383 138.500  1.00  0.00     0.004 A 
ATOM      7  C   UNL     1     149.586 138.809 139.610  1.00  0.00     0.007 A 
ENDROOT
BRANCH   3   8
ATOM      8  O   UNL     1     149.324 141.568 142.064  1.00  0.00    -0.508 OA
ATOM      9  H   UNL     1     149.191 141.134 142.971  1.00  0.00     0.293 HD
ENDBRANCH   3   8
BRANCH   5  10
ATOM     10  C   UNL     1     147.770 141.299 137.352  1.00  0.00     0.013 C 
ATOM     11  C   UNL     1     148.723 141.350 136.152  1.00  0.00     0.012 C 
ATOM     12  C   UNL     1     146.480 140.548 137.001  1.00  0.00     0.012 C 
ENDBRANCH   5  10
TORSDOF 2
ENDMDL
MODEL 6
REMARK VINA RESULT:    -3.755     10.906     12.380
REMARK INTER + INTRA:          -4.205
REMARK INTER:                  -4.078
REMARK INTRA:                  -0.127
REMARK UNBOUND:                -0.121
REMARK SMILES Cc1ccc(C(C)C)cc1O
REMARK SMILES IDX 1 1 2 2 10 3 9 4 5 5 4 6 3 7 11 8 6 10 7 11 8 12
REMARK H PARENT 11 9
REMARK Flexibility Score: inf
ROOT
ATOM      1  C   UNL     1     131.236 142.695 141.976  1.00  0.00     0.048 C 
ATOM      2  C   UNL     1     131.911 142.052 140.798  1.00  0.00    -0.009 A 
ATOM      3  C   UNL     1     132.390 140.733 140.888  1.00  0.00     0.118 A 
ATOM      4  C   UNL     1     133.019 140.141 139.785  1.00  0.00     0.050 A 
ATOM      5  C   UNL     1     133.181 140.852 138.581  1.00  0.00    -0.042 A 
ATOM      6  C   UNL     1     132.699 142.169 138.502  1.00  0.00     0.004 A 
ATOM      7  C   UNL     1     132.071 142.764 139.600  1.00  0.00     0.007 A 
ENDROOT
BRANCH   3   8
ATOM      8  O   UNL     1     132.238 140.016 142.074  1.00  0.00    -0.508 OA
ATOM      9  H   UNL     1     132.596 140.364 142.956  1.00  0.00     0.293 HD
ENDBRANCH   3   8
BRANCH   5  10
ATOM     10  C   UNL     1     133.860 140.219 137.382  1.00  0.00     0.013 C 
ATOM     11  C   UNL     1     132.926 140.191 136.167  1.00  0.00     0.012 C 
ATOM     12  C   UNL     1     135.176 140.933 137.050  1.00  0.00     0.012 C 
ENDBRANCH   5  10
TORSDOF 2
ENDMDL
MODEL 7
REMARK VINA RESULT:    -3.715      2.196      4.569
REMARK INTER + INTRA:          -4.162
REMARK INTER:                  -4.034
REMARK INTRA:                  -0.128
REMARK UNBOUND:                -0.121
REMARK SMILES Cc1ccc(C(C)C)cc1O
REMARK SMILES IDX 1 1 2 2 10 3 9 4 5 5 4 6 3 7 11 8 6 10 7 11 8 12
REMARK H PARENT 11 9
REMARK Flexibility Score: inf
ROOT
ATOM      1  C   UNL     1     142.581 150.379 142.098  1.00  0.00     0.048 C 
ATOM      2  C   UNL     1     142.014 149.732 140.867  1.00  0.00    -0.009 A 
ATOM      3  C   UNL     1     140.713 149.198 140.883  1.00  0.00     0.118 A 
ATOM      4  C   UNL     1     140.191 148.595 139.730  1.00  0.00     0.050 A 
ATOM      5  C   UNL     1     140.954 148.516 138.551  1.00  0.00    -0.042 A 
ATOM      6  C   UNL     1     142.252 149.053 138.546  1.00  0.00     0.004 A 
ATOM      7  C   UNL     1     142.777 149.655 139.692  1.00  0.00     0.007 A 
ENDROOT
BRANCH   3   8
ATOM      8  O   UNL     1     139.944 149.268 142.044  1.00  0.00    -0.508 OA
ATOM      9  H   UNL     1     139.097 149.821 142.088  1.00  0.00     0.293 HD
ENDBRANCH   3   8
BRANCH   5  10
ATOM     10  C   UNL     1     140.397 147.866 137.299  1.00  0.00     0.013 C 
ATOM     11  C   UNL     1     140.192 148.898 136.183  1.00  0.00     0.012 C 
ATOM     12  C   UNL     1     141.294 146.715 136.827  1.00  0.00     0.012 C 
ENDBRANCH   5  10
TORSDOF 2
ENDMDL
MODEL 8
REMARK VINA RESULT:    -3.713     13.890     15.949
REMARK INTER + INTRA:          -4.159
REMARK INTER:                  -4.031
REMARK INTRA:                  -0.128
REMARK UNBOUND:                -0.121
REMARK SMILES Cc1ccc(C(C)C)cc1O
REMARK SMILES IDX 1 1 2 2 10 3 9 4 5 5 4 6 3 7 11 8 6 10 7 11 8 12
REMARK H PARENT 11 9
REMARK Flexibility Score: inf
ROOT
ATOM      1  C   UNL     1     139.089 131.228 141.996  1.00  0.00     0.048 C 
ATOM      2  C   UNL     1     139.704 131.900 140.801  1.00  0.00    -0.009 A 
ATOM      3  C   UNL     1     140.996 132.447 140.884  1.00  0.00     0.118 A 
ATOM      4  C   UNL     1     141.563 133.073 139.765  1.00  0.00     0.050 A 
ATOM      5  C   UNL     1     140.853 133.162 138.553  1.00  0.00    -0.042 A 
ATOM      6  C   UNL     1     139.563 132.611 138.482  1.00  0.00     0.004 A 
ATOM      7  C   UNL     1     138.993 131.986 139.595  1.00  0.00     0.007 A 
ENDROOT
BRANCH   3   8
ATOM      8  O   UNL     1     141.713 132.368 142.078  1.00  0.00    -0.508 OA
ATOM      9  H   UNL     1     141.250 132.414 142.978  1.00  0.00     0.293 HD
ENDBRANCH   3   8
BRANCH   5  10
ATOM     10  C   UNL     1     141.458 133.837 137.338  1.00  0.00     0.013 C 
ATOM     11  C   UNL     1     141.532 132.872 136.148  1.00  0.00     0.012 C 
ATOM     12  C   UNL     1     140.687 135.110 136.969  1.00  0.00     0.012 C 
ENDBRANCH   5  10
TORSDOF 2
ENDMDL
MODEL 9
REMARK VINA RESULT:    -3.610      1.430      2.041
REMARK INTER + INTRA:          -4.047
REMARK INTER:                  -3.919
REMARK INTRA:                  -0.127
REMARK UNBOUND:                -0.121
REMARK SMILES Cc1ccc(C(C)C)cc1O
REMARK SMILES IDX 1 1 2 2 10 3 9 4 5 5 4 6 3 7 11 8 6 10 7 11 8 12
REMARK H PARENT 11 9
REMARK Flexibility Score: inf
ROOT
ATOM      1  C   UNL     1     142.573 146.180 136.958  1.00  0.00     0.048 C 
ATOM      2  C   UNL     1     142.258 147.176 138.038  1.00  0.00    -0.009 A 
ATOM      3  C   UNL     1     140.930 147.582 138.262  1.00  0.00     0.118 A 
ATOM      4  C   UNL     1     140.644 148.512 139.271  1.00  0.00     0.050 A 
ATOM      5  C   UNL     1     141.674 149.048 140.067  1.00  0.00    -0.042 A 
ATOM      6  C   UNL     1     142.996 148.635 139.835  1.00  0.00     0.004 A 
ATOM      7  C   UNL     1     143.285 147.709 138.830  1.00  0.00     0.007 A 
ENDROOT
BRANCH   3   8
ATOM      8  O   UNL     1     139.900 147.060 137.481  1.00  0.00    -0.508 OA
ATOM      9  H   UNL     1     139.854 146.073 137.253  1.00  0.00     0.293 HD
ENDBRANCH   3   8
BRANCH   5  10
ATOM     10  C   UNL     1     141.374 150.055 141.161  1.00  0.00     0.013 C 
ATOM     11  C   UNL     1     140.160 149.623 141.994  1.00  0.00     0.012 C 
ATOM     12  C   UNL     1     142.600 150.286 142.053  1.00  0.00     0.012 C 
ENDBRANCH   5  10
TORSDOF 2
ENDMDL
