MODEL 1
REMARK VINA RESULT:    -3.427      0.000      0.000
REMARK INTER + INTRA:          -3.528
REMARK INTER:                  -3.528
REMARK INTRA:                   0.000
REMARK UNBOUND:                 0.000
REMARK SMILES O=c1ccc2ccc(O)cc2o1
REMARK SMILES IDX 6 1 7 2 8 3 10 4 11 5 5 6 4 7 3 8 2 9 1 10 12 11 9 12
REMARK H PARENT 9 13
REMARK Flexibility Score: inf
ROOT
ATOM      1  C   UNL     1     -10.124   4.451  -3.542  1.00  0.00     0.016 A 
ATOM      2  C   UNL     1     -10.124   5.773  -3.089  1.00  0.00     0.047 A 
ATOM      3  C   UNL     1     -10.125   6.835  -4.002  1.00  0.00     0.119 A 
ATOM      4  C   UNL     1     -10.125   6.572  -5.380  1.00  0.00     0.094 A 
ATOM      5  C   UNL     1     -10.124   5.251  -5.843  1.00  0.00     0.142 A 
ATOM      6  C   UNL     1     -10.124   4.184  -4.918  1.00  0.00     0.018 A 
ATOM      7  C   UNL     1     -10.124   2.875  -5.411  1.00  0.00     0.019 A 
ATOM      8  C   UNL     1     -10.123   2.663  -6.789  1.00  0.00     0.094 A 
ATOM      9  C   UNL     1     -10.124   3.769  -7.646  1.00  0.00     0.336 A 
ATOM     10  O   UNL     1     -10.124   3.598  -8.892  1.00  0.00    -0.246 OA
ATOM     11  O   UNL     1     -10.125   5.005  -7.151  1.00  0.00    -0.423 OA
ENDROOT
BRANCH   3  12
ATOM     12  O   UNL     1     -10.125   8.145  -3.531  1.00  0.00    -0.508 OA
ATOM     13  H   UNL     1     -10.002   8.933  -4.156  1.00  0.00     0.293 HD
ENDBRANCH   3  12
TORSDOF 1
ENDMDL
MODEL 2
REMARK VINA RESULT:    -3.169      2.709      4.239
REMARK INTER + INTRA:          -3.261
REMARK INTER:                  -3.261
REMARK INTRA:                   0.000
REMARK UNBOUND:                 0.000
REMARK SMILES O=c1ccc2ccc(O)cc2o1
REMARK SMILES IDX 6 1 7 2 8 3 10 4 11 5 5 6 4 7 3 8 2 9 1 10 12 11 9 12
REMARK H PARENT 9 13
REMARK Flexibility Score: inf
ROOT
ATOM      1  C   UNL     1      -9.946   6.174  -0.137  1.00  0.00     0.016 A 
ATOM      2  C   UNL     1      -9.861   7.346   0.622  1.00  0.00     0.047 A 
ATOM      3  C   UNL     1      -9.824   8.596  -0.009  1.00  0.00     0.119 A 
ATOM      4  C   UNL     1      -9.872   8.674  -1.409  1.00  0.00     0.094 A 
ATOM      5  C   UNL     1      -9.957   7.507  -2.175  1.00  0.00     0.142 A 
ATOM      6  C   UNL     1      -9.995   6.249  -1.535  1.00  0.00     0.018 A 
ATOM      7  C   UNL     1     -10.080   5.099  -2.328  1.00  0.00     0.019 A 
ATOM      8  C   UNL     1     -10.125   5.229  -3.715  1.00  0.00     0.094 A 
ATOM      9  C   UNL     1     -10.083   6.508  -4.281  1.00  0.00     0.336 A 
ATOM     10  O   UNL     1     -10.123   6.644  -5.531  1.00  0.00    -0.246 OA
ATOM     11  O   UNL     1     -10.002   7.585  -3.503  1.00  0.00    -0.423 OA
ENDROOT
BRANCH   3  12
ATOM     12  O   UNL     1      -9.739   9.751   0.764  1.00  0.00    -0.508 OA
ATOM     13  H   UNL     1     -10.485  10.436   0.777  1.00  0.00     0.293 HD
ENDBRANCH   3  12
TORSDOF 1
ENDMDL
MODEL 3
REMARK VINA RESULT:    -3.166      3.127      6.419
REMARK INTER + INTRA:          -3.259
REMARK INTER:                  -3.259
REMARK INTRA:                   0.000
REMARK UNBOUND:                 0.000
REMARK SMILES O=c1ccc2ccc(O)cc2o1
REMARK SMILES IDX 6 1 7 2 8 3 10 4 11 5 5 6 4 7 3 8 2 9 1 10 12 11 9 12
REMARK H PARENT 9 13
REMARK Flexibility Score: inf
ROOT
ATOM      1  C   UNL     1     -10.125   5.279  -1.854  1.00  0.00     0.016 A 
ATOM      2  C   UNL     1     -10.089   5.616  -3.211  1.00  0.00     0.047 A 
ATOM      3  C   UNL     1     -10.017   6.958  -3.604  1.00  0.00     0.119 A 
ATOM      4  C   UNL     1      -9.982   7.970  -2.634  1.00  0.00     0.094 A 
ATOM      5  C   UNL     1     -10.017   7.642  -1.275  1.00  0.00     0.142 A 
ATOM      6  C   UNL     1     -10.089   6.287  -0.882  1.00  0.00     0.018 A 
ATOM      7  C   UNL     1     -10.123   5.990   0.484  1.00  0.00     0.019 A 
ATOM      8  C   UNL     1     -10.085   7.031   1.411  1.00  0.00     0.094 A 
ATOM      9  C   UNL     1     -10.014   8.349   0.950  1.00  0.00     0.336 A 
ATOM     10  O   UNL     1      -9.979   9.302   1.771  1.00  0.00    -0.246 OA
ATOM     11  O   UNL     1      -9.983   8.605  -0.356  1.00  0.00    -0.423 OA
ENDROOT
BRANCH   3  12
ATOM     12  O   UNL     1      -9.983   7.274  -4.960  1.00  0.00    -0.508 OA
ATOM     13  H   UNL     1      -9.246   6.933  -5.565  1.00  0.00     0.293 HD
ENDBRANCH   3  12
TORSDOF 1
ENDMDL
MODEL 4
REMARK VINA RESULT:    -3.164     21.014     21.451
REMARK INTER + INTRA:          -3.257
REMARK INTER:                  -3.257
REMARK INTRA:                   0.000
REMARK UNBOUND:                 0.000
REMARK SMILES O=c1ccc2ccc(O)cc2o1
REMARK SMILES IDX 6 1 7 2 8 3 10 4 11 5 5 6 4 7 3 8 2 9 1 10 12 11 9 12
REMARK H PARENT 9 13
REMARK Flexibility Score: inf
ROOT
ATOM      1  C   UNL     1      -1.339  -6.354   9.777  1.00  0.00     0.016 A 
ATOM      2  C   UNL     1      -2.661  -6.707  10.065  1.00  0.00     0.047 A 
ATOM      3  C   UNL     1      -3.202  -7.897   9.564  1.00  0.00     0.119 A 
ATOM      4  C   UNL     1      -2.414  -8.742   8.768  1.00  0.00     0.094 A 
ATOM      5  C   UNL     1      -1.090  -8.397   8.474  1.00  0.00     0.142 A 
ATOM      6  C   UNL     1      -0.549  -7.196   8.983  1.00  0.00     0.018 A 
ATOM      7  C   UNL     1       0.777  -6.878   8.673  1.00  0.00     0.019 A 
ATOM      8  C   UNL     1       1.520  -7.749   7.877  1.00  0.00     0.094 A 
ATOM      9  C   UNL     1       0.919  -8.922   7.409  1.00  0.00     0.336 A 
ATOM     10  O   UNL     1       1.574  -9.721   6.690  1.00  0.00    -0.246 OA
ATOM     11  O   UNL     1      -0.345  -9.201   7.719  1.00  0.00    -0.423 OA
ENDROOT
BRANCH   3  12
ATOM     12  O   UNL     1      -4.521  -8.231   9.861  1.00  0.00    -0.508 OA
ATOM     13  H   UNL     1      -4.938  -7.999  10.755  1.00  0.00     0.293 HD
ENDBRANCH   3  12
TORSDOF 1
ENDMDL
MODEL 5
REMARK VINA RESULT:    -3.160     17.861     19.403
REMARK INTER + INTRA:          -3.252
REMARK INTER:                  -3.252
REMARK INTRA:                   0.000
REMARK UNBOUND:                 0.000
REMARK SMILES O=c1ccc2ccc(O)cc2o1
REMARK SMILES IDX 6 1 7 2 8 3 10 4 11 5 5 6 4 7 3 8 2 9 1 10 12 11 9 12
REMARK H PARENT 9 13
REMARK Flexibility Score: inf
ROOT
ATOM      1  C   UNL     1       1.829   8.723   8.264  1.00  0.00     0.016 A 
ATOM      2  C   UNL     1       3.122   9.112   8.626  1.00  0.00     0.047 A 
ATOM      3  C   UNL     1       3.906   8.290   9.445  1.00  0.00     0.119 A 
ATOM      4  C   UNL     1       3.392   7.069   9.906  1.00  0.00     0.094 A 
ATOM      5  C   UNL     1       2.098   6.671   9.549  1.00  0.00     0.142 A 
ATOM      6  C   UNL     1       1.312   7.504   8.722  1.00  0.00     0.018 A 
ATOM      7  C   UNL     1       0.023   7.080   8.382  1.00  0.00     0.019 A 
ATOM      8  C   UNL     1      -0.444   5.858   8.865  1.00  0.00     0.094 A 
ATOM      9  C   UNL     1       0.391   5.085   9.680  1.00  0.00     0.336 A 
ATOM     10  O   UNL     1      -0.013   3.980  10.124  1.00  0.00    -0.246 OA
ATOM     11  O   UNL     1       1.613   5.512   9.988  1.00  0.00    -0.423 OA
ENDROOT
BRANCH   3  12
ATOM     12  O   UNL     1       5.191   8.695   9.795  1.00  0.00    -0.508 OA
ATOM     13  H   UNL     1       5.389   9.648  10.073  1.00  0.00     0.293 HD
ENDBRANCH   3  12
TORSDOF 1
ENDMDL
MODEL 6
REMARK VINA RESULT:    -3.141     20.099     20.890
REMARK INTER + INTRA:          -3.233
REMARK INTER:                  -3.233
REMARK INTRA:                   0.000
REMARK UNBOUND:                 0.000
REMARK SMILES O=c1ccc2ccc(O)cc2o1
REMARK SMILES IDX 6 1 7 2 8 3 10 4 11 5 5 6 4 7 3 8 2 9 1 10 12 11 9 12
REMARK H PARENT 9 13
REMARK Flexibility Score: inf
ROOT
ATOM      1  C   UNL     1       0.288  -8.494   8.337  1.00  0.00     0.016 A 
ATOM      2  C   UNL     1       0.788  -7.373   9.006  1.00  0.00     0.047 A 
ATOM      3  C   UNL     1      -0.082  -6.372   9.457  1.00  0.00     0.119 A 
ATOM      4  C   UNL     1      -1.462  -6.493   9.237  1.00  0.00     0.094 A 
ATOM      5  C   UNL     1      -1.971  -7.611   8.568  1.00  0.00     0.142 A 
ATOM      6  C   UNL     1      -1.090  -8.619   8.116  1.00  0.00     0.018 A 
ATOM      7  C   UNL     1      -1.629  -9.725   7.450  1.00  0.00     0.019 A 
ATOM      8  C   UNL     1      -3.007  -9.801   7.255  1.00  0.00     0.094 A 
ATOM      9  C   UNL     1      -3.819  -8.765   7.731  1.00  0.00     0.336 A 
ATOM     10  O   UNL     1      -5.065  -8.816   7.565  1.00  0.00    -0.246 OA
ATOM     11  O   UNL     1      -3.281  -7.724   8.361  1.00  0.00    -0.423 OA
ENDROOT
BRANCH   3  12
ATOM     12  O   UNL     1       0.436  -5.262  10.121  1.00  0.00    -0.508 OA
ATOM     13  H   UNL     1       0.791  -5.329  11.067  1.00  0.00     0.293 HD
ENDBRANCH   3  12
TORSDOF 1
ENDMDL
MODEL 7
REMARK VINA RESULT:    -3.141     23.953     24.044
REMARK INTER + INTRA:          -3.233
REMARK INTER:                  -3.233
REMARK INTRA:                   0.000
REMARK UNBOUND:                 0.000
REMARK SMILES O=c1ccc2ccc(O)cc2o1
REMARK SMILES IDX 6 1 7 2 8 3 10 4 11 5 5 6 4 7 3 8 2 9 1 10 12 11 9 12
REMARK H PARENT 9 13
REMARK Flexibility Score: inf
ROOT
ATOM      1  C   UNL     1      10.073   1.743   6.795  1.00  0.00     0.016 A 
ATOM      2  C   UNL     1      10.101   3.109   7.092  1.00  0.00     0.047 A 
ATOM      3  C   UNL     1       9.433   3.601   8.220  1.00  0.00     0.119 A 
ATOM      4  C   UNL     1       8.732   2.721   9.057  1.00  0.00     0.094 A 
ATOM      5  C   UNL     1       8.699   1.352   8.768  1.00  0.00     0.142 A 
ATOM      6  C   UNL     1       9.374   0.860   7.629  1.00  0.00     0.018 A 
ATOM      7  C   UNL     1       9.324  -0.513   7.365  1.00  0.00     0.019 A 
ATOM      8  C   UNL     1       8.614  -1.348   8.227  1.00  0.00     0.094 A 
ATOM      9  C   UNL     1       7.968  -0.790   9.336  1.00  0.00     0.336 A 
ATOM     10  O   UNL     1       7.323  -1.528  10.124  1.00  0.00    -0.246 OA
ATOM     11  O   UNL     1       8.033   0.519   9.564  1.00  0.00    -0.423 OA
ENDROOT
BRANCH   3  12
ATOM     12  O   UNL     1       9.471   4.965   8.499  1.00  0.00    -0.508 OA
ATOM     13  H   UNL     1       9.392   5.659   7.765  1.00  0.00     0.293 HD
ENDBRANCH   3  12
TORSDOF 1
ENDMDL
MODEL 8
REMARK VINA RESULT:    -3.123      2.533      3.914
REMARK INTER + INTRA:          -3.214
REMARK INTER:                  -3.214
REMARK INTRA:                   0.000
REMARK UNBOUND:                 0.000
REMARK SMILES O=c1ccc2ccc(O)cc2o1
REMARK SMILES IDX 6 1 7 2 8 3 10 4 11 5 5 6 4 7 3 8 2 9 1 10 12 11 9 12
REMARK H PARENT 9 13
REMARK Flexibility Score: inf
ROOT
ATOM      1  C   UNL     1     -10.036   8.236  -2.557  1.00  0.00     0.016 A 
ATOM      2  C   UNL     1     -10.057   8.397  -1.169  1.00  0.00     0.047 A 
ATOM      3  C   UNL     1     -10.097   7.278  -0.327  1.00  0.00     0.119 A 
ATOM      4  C   UNL     1     -10.117   5.989  -0.878  1.00  0.00     0.094 A 
ATOM      5  C   UNL     1     -10.097   5.818  -2.267  1.00  0.00     0.142 A 
ATOM      6  C   UNL     1     -10.055   6.949  -3.112  1.00  0.00     0.018 A 
ATOM      7  C   UNL     1     -10.035   6.747  -4.496  1.00  0.00     0.019 A 
ATOM      8  C   UNL     1     -10.056   5.446  -4.997  1.00  0.00     0.094 A 
ATOM      9  C   UNL     1     -10.097   4.373  -4.100  1.00  0.00     0.336 A 
ATOM     10  O   UNL     1     -10.116   3.192  -4.533  1.00  0.00    -0.246 OA
ATOM     11  O   UNL     1     -10.115   4.593  -2.787  1.00  0.00    -0.423 OA
ENDROOT
BRANCH   3  12
ATOM     12  O   UNL     1     -10.118   7.459   1.054  1.00  0.00    -0.508 OA
ATOM     13  H   UNL     1     -10.124   6.672   1.691  1.00  0.00     0.293 HD
ENDBRANCH   3  12
TORSDOF 1
ENDMDL
