MODEL 1
REMARK VINA RESULT:    -3.159      0.000      0.000
REMARK INTER + INTRA:          -8.154
REMARK INTER:                  -5.836
REMARK INTRA:                  -2.318
REMARK UNBOUND:                -2.318
REMARK SMILES CCCCCCCCCCCCCCCCO
REMARK SMILES IDX 9 1 8 2 7 3 6 4 5 5 4 6 3 7 2 8 1 9 10 10 11 11 12 12 13 13
REMARK SMILES IDX 14 14 15 15 16 16 17 17
REMARK H PARENT 17 18
REMARK Flexibility Score: inf
ROOT
ATOM      1  C   UNL     1       9.784   1.935  31.372  1.00  0.00     0.000 C 
ENDROOT
BRANCH   1   2
ATOM      2  C   UNL     1      10.080   2.175  29.878  1.00  0.00    -0.000 C 
BRANCH   2   3
ATOM      3  C   UNL     1      10.135   3.666  29.496  1.00  0.00    -0.000 C 
BRANCH   3   4
ATOM      4  C   UNL     1      11.545   4.107  29.065  1.00  0.00    -0.000 C 
BRANCH   4   5
ATOM      5  C   UNL     1      12.004   5.405  29.755  1.00  0.00    -0.000 C 
BRANCH   5   6
ATOM      6  C   UNL     1      12.757   5.206  31.082  1.00  0.00    -0.000 C 
BRANCH   6   7
ATOM      7  C   UNL     1      13.830   4.109  31.004  1.00  0.00    -0.000 C 
BRANCH   7   8
ATOM      8  C   UNL     1      14.699   4.101  32.266  1.00  0.00    -0.003 C 
ATOM      9  C   UNL     1      13.921   4.612  33.475  1.00  0.00     0.004 C 
ENDBRANCH   7   8
ENDBRANCH   6   7
ENDBRANCH   5   6
ENDBRANCH   4   5
ENDBRANCH   3   4
ENDBRANCH   2   3
ENDBRANCH   1   2
BRANCH   1  10
ATOM     10  C   UNL     1      10.998   2.220  32.285  1.00  0.00     0.000 C 
BRANCH  10  11
ATOM     11  C   UNL     1      10.636   2.965  33.585  1.00  0.00     0.000 C 
BRANCH  11  12
ATOM     12  C   UNL     1       9.356   3.817  33.506  1.00  0.00     0.000 C 
BRANCH  12  13
ATOM     13  C   UNL     1       9.630   5.321  33.678  1.00  0.00     0.000 C 
BRANCH  13  14
ATOM     14  C   UNL     1       9.352   6.129  32.399  1.00  0.00     0.002 C 
BRANCH  14  15
ATOM     15  C   UNL     1      10.160   7.433  32.264  1.00  0.00     0.028 C 
BRANCH  15  16
ATOM     16  C   UNL     1      10.924   7.801  33.541  1.00  0.00     0.156 C 
BRANCH  16  17
ATOM     17  O   UNL     1      10.141   8.641  34.346  1.00  0.00    -0.396 OA
ATOM     18  H   UNL     1      10.123   9.527  33.898  1.00  0.00     0.210 HD
ENDBRANCH  16  17
ENDBRANCH  15  16
ENDBRANCH  14  15
ENDBRANCH  13  14
ENDBRANCH  12  13
ENDBRANCH  11  12
ENDBRANCH  10  11
ENDBRANCH   1  10
TORSDOF 15
ENDMDL
MODEL 2
REMARK VINA RESULT:    -3.099      1.173      2.955
REMARK INTER + INTRA:          -8.043
REMARK INTER:                  -5.822
REMARK INTRA:                  -2.221
REMARK UNBOUND:                -2.318
REMARK SMILES CCCCCCCCCCCCCCCCO
REMARK SMILES IDX 9 1 8 2 7 3 6 4 5 5 4 6 3 7 2 8 1 9 10 10 11 11 12 12 13 13
REMARK SMILES IDX 14 14 15 15 16 16 17 17
REMARK H PARENT 17 18
REMARK Flexibility Score: inf
ROOT
ATOM      1  C   UNL     1      10.724   2.888  29.810  1.00  0.00     0.000 C 
ENDROOT
BRANCH   1   2
ATOM      2  C   UNL     1       9.313   2.359  30.136  1.00  0.00    -0.000 C 
BRANCH   2   3
ATOM      3  C   UNL     1       9.036   2.245  31.647  1.00  0.00    -0.000 C 
BRANCH   3   4
ATOM      4  C   UNL     1      10.253   1.711  32.424  1.00  0.00    -0.000 C 
BRANCH   4   5
ATOM      5  C   UNL     1      10.600   2.567  33.656  1.00  0.00    -0.000 C 
BRANCH   5   6
ATOM      6  C   UNL     1      12.105   2.768  33.906  1.00  0.00    -0.000 C 
BRANCH   6   7
ATOM      7  C   UNL     1      12.917   2.892  32.609  1.00  0.00    -0.000 C 
BRANCH   7   8
ATOM      8  C   UNL     1      13.627   4.248  32.533  1.00  0.00    -0.003 C 
ATOM      9  C   UNL     1      13.693   4.756  31.095  1.00  0.00     0.004 C 
ENDBRANCH   7   8
ENDBRANCH   6   7
ENDBRANCH   5   6
ENDBRANCH   4   5
ENDBRANCH   3   4
ENDBRANCH   2   3
ENDBRANCH   1   2
BRANCH   1  10
ATOM     10  C   UNL     1      10.708   4.227  29.039  1.00  0.00     0.000 C 
BRANCH  10  11
ATOM     11  C   UNL     1       9.554   5.164  29.448  1.00  0.00     0.000 C 
BRANCH  11  12
ATOM     12  C   UNL     1       9.986   6.414  30.236  1.00  0.00     0.000 C 
BRANCH  12  13
ATOM     13  C   UNL     1       9.100   6.677  31.467  1.00  0.00     0.000 C 
BRANCH  13  14
ATOM     14  C   UNL     1       9.637   6.006  32.743  1.00  0.00     0.002 C 
BRANCH  14  15
ATOM     15  C   UNL     1      11.019   6.502  33.208  1.00  0.00     0.028 C 
BRANCH  15  16
ATOM     16  C   UNL     1      11.035   7.995  33.555  1.00  0.00     0.156 C 
BRANCH  16  17
ATOM     17  O   UNL     1      10.122   8.261  34.585  1.00  0.00    -0.396 OA
ATOM     18  H   UNL     1       9.643   7.411  34.767  1.00  0.00     0.210 HD
ENDBRANCH  16  17
ENDBRANCH  15  16
ENDBRANCH  14  15
ENDBRANCH  13  14
ENDBRANCH  12  13
ENDBRANCH  11  12
ENDBRANCH  10  11
ENDBRANCH   1  10
TORSDOF 15
ENDMDL
MODEL 3
REMARK VINA RESULT:    -3.080      1.331      3.849
REMARK INTER + INTRA:          -8.009
REMARK INTER:                  -5.430
REMARK INTRA:                  -2.579
REMARK UNBOUND:                -2.318
REMARK SMILES CCCCCCCCCCCCCCCCO
REMARK SMILES IDX 9 1 8 2 7 3 6 4 5 5 4 6 3 7 2 8 1 9 10 10 11 11 12 12 13 13
REMARK SMILES IDX 14 14 15 15 16 16 17 17
REMARK H PARENT 17 18
REMARK Flexibility Score: inf
ROOT
ATOM      1  C   UNL     1      13.359   1.654  30.966  1.00  0.00     0.000 C 
ENDROOT
BRANCH   1   2
ATOM      2  C   UNL     1      12.881   1.332  32.396  1.00  0.00    -0.000 C 
BRANCH   2   3
ATOM      3  C   UNL     1      11.385   0.976  32.475  1.00  0.00    -0.000 C 
BRANCH   3   4
ATOM      4  C   UNL     1      10.570   2.042  33.229  1.00  0.00    -0.000 C 
BRANCH   4   5
ATOM      5  C   UNL     1       9.440   2.646  32.376  1.00  0.00    -0.000 C 
BRANCH   5   6
ATOM      6  C   UNL     1       9.249   1.997  30.994  1.00  0.00    -0.000 C 
BRANCH   6   7
ATOM      7  C   UNL     1       9.501   2.971  29.833  1.00  0.00    -0.000 C 
BRANCH   7   8
ATOM      8  C   UNL     1       9.704   4.400  30.349  1.00  0.00    -0.003 C 
ATOM      9  C   UNL     1      10.315   5.293  29.274  1.00  0.00     0.004 C 
ENDBRANCH   7   8
ENDBRANCH   6   7
ENDBRANCH   5   6
ENDBRANCH   4   5
ENDBRANCH   3   4
ENDBRANCH   2   3
ENDBRANCH   1   2
BRANCH   1  10
ATOM     10  C   UNL     1      13.140   3.132  30.571  1.00  0.00     0.000 C 
BRANCH  10  11
ATOM     11  C   UNL     1      13.800   4.136  31.537  1.00  0.00     0.000 C 
BRANCH  11  12
ATOM     12  C   UNL     1      12.863   5.240  32.061  1.00  0.00     0.000 C 
BRANCH  12  13
ATOM     13  C   UNL     1      12.717   5.217  33.593  1.00  0.00     0.000 C 
BRANCH  13  14
ATOM     14  C   UNL     1      11.271   5.464  34.058  1.00  0.00     0.002 C 
BRANCH  14  15
ATOM     15  C   UNL     1      10.476   6.472  33.207  1.00  0.00     0.028 C 
BRANCH  15  16
ATOM     16  C   UNL     1      10.859   7.929  33.489  1.00  0.00     0.156 C 
BRANCH  16  17
ATOM     17  O   UNL     1      10.117   8.422  34.572  1.00  0.00    -0.396 OA
ATOM     18  H   UNL     1       9.164   8.222  34.378  1.00  0.00     0.210 HD
ENDBRANCH  16  17
ENDBRANCH  15  16
ENDBRANCH  14  15
ENDBRANCH  13  14
ENDBRANCH  12  13
ENDBRANCH  11  12
ENDBRANCH  10  11
ENDBRANCH   1  10
TORSDOF 15
ENDMDL
MODEL 4
REMARK VINA RESULT:    -3.041      1.431      1.909
REMARK INTER + INTRA:          -7.936
REMARK INTER:                  -5.552
REMARK INTRA:                  -2.385
REMARK UNBOUND:                -2.318
REMARK SMILES CCCCCCCCCCCCCCCCO
REMARK SMILES IDX 9 1 8 2 7 3 6 4 5 5 4 6 3 7 2 8 1 9 10 10 11 11 12 12 13 13
REMARK SMILES IDX 14 14 15 15 16 16 17 17
REMARK H PARENT 17 18
REMARK Flexibility Score: inf
ROOT
ATOM      1  C   UNL     1      11.326   1.503  30.042  1.00  0.00     0.000 C 
ENDROOT
BRANCH   1   2
ATOM      2  C   UNL     1      12.369   1.611  28.911  1.00  0.00    -0.000 C 
BRANCH   2   3
ATOM      3  C   UNL     1      12.256   2.914  28.098  1.00  0.00    -0.000 C 
BRANCH   3   4
ATOM      4  C   UNL     1      13.533   3.769  28.185  1.00  0.00    -0.000 C 
BRANCH   4   5
ATOM      5  C   UNL     1      13.445   4.870  29.257  1.00  0.00    -0.000 C 
BRANCH   5   6
ATOM      6  C   UNL     1      14.560   4.837  30.317  1.00  0.00    -0.000 C 
BRANCH   6   7
ATOM      7  C   UNL     1      14.473   3.614  31.242  1.00  0.00    -0.000 C 
BRANCH   7   8
ATOM      8  C   UNL     1      13.287   3.735  32.204  1.00  0.00    -0.003 C 
ATOM      9  C   UNL     1      13.403   4.988  33.067  1.00  0.00     0.004 C 
ENDBRANCH   7   8
ENDBRANCH   6   7
ENDBRANCH   5   6
ENDBRANCH   4   5
ENDBRANCH   3   4
ENDBRANCH   2   3
ENDBRANCH   1   2
BRANCH   1  10
ATOM     10  C   UNL     1      10.229   2.588  29.962  1.00  0.00     0.000 C 
BRANCH  10  11
ATOM     11  C   UNL     1       9.605   2.940  31.328  1.00  0.00     0.000 C 
BRANCH  11  12
ATOM     12  C   UNL     1       9.861   4.382  31.803  1.00  0.00     0.000 C 
BRANCH  12  13
ATOM     13  C   UNL     1      10.117   5.355  30.640  1.00  0.00     0.000 C 
BRANCH  13  14
ATOM     14  C   UNL     1      10.752   6.680  31.098  1.00  0.00     0.002 C 
BRANCH  14  15
ATOM     15  C   UNL     1      10.018   7.388  32.252  1.00  0.00     0.028 C 
BRANCH  15  16
ATOM     16  C   UNL     1      10.960   7.847  33.371  1.00  0.00     0.156 C 
BRANCH  16  17
ATOM     17  O   UNL     1      10.223   8.412  34.421  1.00  0.00    -0.396 OA
ATOM     18  H   UNL     1      10.129   9.378  34.215  1.00  0.00     0.210 HD
ENDBRANCH  16  17
ENDBRANCH  15  16
ENDBRANCH  14  15
ENDBRANCH  13  14
ENDBRANCH  12  13
ENDBRANCH  11  12
ENDBRANCH  10  11
ENDBRANCH   1  10
TORSDOF 15
ENDMDL
MODEL 5
REMARK VINA RESULT:    -3.036      1.386      3.768
REMARK INTER + INTRA:          -7.928
REMARK INTER:                  -5.350
REMARK INTRA:                  -2.578
REMARK UNBOUND:                -2.318
REMARK SMILES CCCCCCCCCCCCCCCCO
REMARK SMILES IDX 9 1 8 2 7 3 6 4 5 5 4 6 3 7 2 8 1 9 10 10 11 11 12 12 13 13
REMARK SMILES IDX 14 14 15 15 16 16 17 17
REMARK H PARENT 17 18
REMARK Flexibility Score: inf
ROOT
ATOM      1  C   UNL     1      11.362   4.412  35.549  1.00  0.00     0.000 C 
ENDROOT
BRANCH   1   2
ATOM      2  C   UNL     1      12.768   3.796  35.405  1.00  0.00    -0.000 C 
BRANCH   2   3
ATOM      3  C   UNL     1      13.615   4.455  34.301  1.00  0.00    -0.000 C 
BRANCH   3   4
ATOM      4  C   UNL     1      13.645   3.617  33.010  1.00  0.00    -0.000 C 
BRANCH   4   5
ATOM      5  C   UNL     1      13.002   2.229  33.183  1.00  0.00    -0.000 C 
BRANCH   5   6
ATOM      6  C   UNL     1      11.941   1.866  32.129  1.00  0.00    -0.000 C 
BRANCH   6   7
ATOM      7  C   UNL     1      11.955   2.808  30.915  1.00  0.00    -0.000 C 
BRANCH   7   8
ATOM      8  C   UNL     1      10.579   2.857  30.242  1.00  0.00    -0.003 C 
ATOM      9  C   UNL     1       9.639   1.809  30.831  1.00  0.00     0.004 C 
ENDBRANCH   7   8
ENDBRANCH   6   7
ENDBRANCH   5   6
ENDBRANCH   4   5
ENDBRANCH   3   4
ENDBRANCH   2   3
ENDBRANCH   1   2
BRANCH   1  10
ATOM     10  C   UNL     1      10.226   3.405  35.261  1.00  0.00     0.000 C 
BRANCH  10  11
ATOM     11  C   UNL     1       9.466   3.684  33.949  1.00  0.00     0.000 C 
BRANCH  11  12
ATOM     12  C   UNL     1       9.020   5.146  33.760  1.00  0.00     0.000 C 
BRANCH  12  13
ATOM     13  C   UNL     1       9.381   5.702  32.372  1.00  0.00     0.000 C 
BRANCH  13  14
ATOM     14  C   UNL     1      10.887   5.974  32.211  1.00  0.00     0.002 C 
BRANCH  14  15
ATOM     15  C   UNL     1      11.429   7.149  33.047  1.00  0.00     0.028 C 
BRANCH  15  16
ATOM     16  C   UNL     1      10.423   8.295  33.194  1.00  0.00     0.156 C 
BRANCH  16  17
ATOM     17  O   UNL     1      10.160   8.536  34.550  1.00  0.00    -0.396 OA
ATOM     18  H   UNL     1       9.204   8.312  34.698  1.00  0.00     0.210 HD
ENDBRANCH  16  17
ENDBRANCH  15  16
ENDBRANCH  14  15
ENDBRANCH  13  14
ENDBRANCH  12  13
ENDBRANCH  11  12
ENDBRANCH  10  11
ENDBRANCH   1  10
TORSDOF 15
ENDMDL
MODEL 6
REMARK VINA RESULT:    -3.033      1.212      4.288
REMARK INTER + INTRA:          -7.922
REMARK INTER:                  -5.765
REMARK INTRA:                  -2.158
REMARK UNBOUND:                -2.318
REMARK SMILES CCCCCCCCCCCCCCCCO
REMARK SMILES IDX 9 1 8 2 7 3 6 4 5 5 4 6 3 7 2 8 1 9 10 10 11 11 12 12 13 13
REMARK SMILES IDX 14 14 15 15 16 16 17 17
REMARK H PARENT 17 18
REMARK Flexibility Score: inf
ROOT
ATOM      1  C   UNL     1      13.583   4.282  32.699  1.00  0.00     0.000 C 
ENDROOT
BRANCH   1   2
ATOM      2  C   UNL     1      13.082   4.566  34.129  1.00  0.00    -0.000 C 
BRANCH   2   3
ATOM      3  C   UNL     1      11.876   3.699  34.537  1.00  0.00    -0.000 C 
BRANCH   3   4
ATOM      4  C   UNL     1      10.574   4.516  34.627  1.00  0.00    -0.000 C 
BRANCH   4   5
ATOM      5  C   UNL     1       9.339   3.729  34.152  1.00  0.00    -0.000 C 
BRANCH   5   6
ATOM      6  C   UNL     1       9.214   3.571  32.627  1.00  0.00    -0.000 C 
BRANCH   6   7
ATOM      7  C   UNL     1       8.875   2.135  32.198  1.00  0.00    -0.000 C 
BRANCH   7   8
ATOM      8  C   UNL     1      10.004   1.533  31.354  1.00  0.00    -0.003 C 
ATOM      9  C   UNL     1      11.064   0.880  32.236  1.00  0.00     0.004 C 
ENDBRANCH   7   8
ENDBRANCH   6   7
ENDBRANCH   5   6
ENDBRANCH   4   5
ENDBRANCH   3   4
ENDBRANCH   2   3
ENDBRANCH   1   2
BRANCH   1  10
ATOM     10  C   UNL     1      12.998   5.251  31.647  1.00  0.00     0.000 C 
BRANCH  10  11
ATOM     11  C   UNL     1      11.942   4.604  30.728  1.00  0.00     0.000 C 
BRANCH  11  12
ATOM     12  C   UNL     1      11.387   5.529  29.630  1.00  0.00     0.000 C 
BRANCH  12  13
ATOM     13  C   UNL     1      10.052   6.185  30.023  1.00  0.00     0.000 C 
BRANCH  13  14
ATOM     14  C   UNL     1      10.238   7.459  30.866  1.00  0.00     0.002 C 
BRANCH  14  15
ATOM     15  C   UNL     1       9.784   7.341  32.332  1.00  0.00     0.028 C 
BRANCH  15  16
ATOM     16  C   UNL     1      10.792   7.933  33.323  1.00  0.00     0.156 C 
BRANCH  16  17
ATOM     17  O   UNL     1      10.136   8.349  34.490  1.00  0.00    -0.396 OA
ATOM     18  H   UNL     1      10.599   7.906  35.249  1.00  0.00     0.210 HD
ENDBRANCH  16  17
ENDBRANCH  15  16
ENDBRANCH  14  15
ENDBRANCH  13  14
ENDBRANCH  12  13
ENDBRANCH  11  12
ENDBRANCH  10  11
ENDBRANCH   1  10
TORSDOF 15
ENDMDL
MODEL 7
REMARK VINA RESULT:    -3.005     10.613     12.162
REMARK INTER + INTRA:          -7.871
REMARK INTER:                  -5.947
REMARK INTRA:                  -1.924
REMARK UNBOUND:                -2.318
REMARK SMILES CCCCCCCCCCCCCCCCO
REMARK SMILES IDX 9 1 8 2 7 3 6 4 5 5 4 6 3 7 2 8 1 9 10 10 11 11 12 12 13 13
REMARK SMILES IDX 14 14 15 15 16 16 17 17
REMARK H PARENT 17 18
REMARK Flexibility Score: inf
ROOT
ATOM      1  C   UNL     1      22.002   8.349  39.087  1.00  0.00     0.000 C 
ENDROOT
BRANCH   1   2
ATOM      2  C   UNL     1      22.690   9.579  38.461  1.00  0.00    -0.000 C 
BRANCH   2   3
ATOM      3  C   UNL     1      22.607   9.609  36.923  1.00  0.00    -0.000 C 
BRANCH   3   4
ATOM      4  C   UNL     1      21.245  10.124  36.422  1.00  0.00    -0.000 C 
BRANCH   4   5
ATOM      5  C   UNL     1      20.455   9.062  35.637  1.00  0.00    -0.000 C 
BRANCH   5   6
ATOM      6  C   UNL     1      21.223   7.760  35.348  1.00  0.00    -0.000 C 
BRANCH   6   7
ATOM      7  C   UNL     1      20.539   6.516  35.935  1.00  0.00    -0.000 C 
BRANCH   7   8
ATOM      8  C   UNL     1      21.558   5.403  36.201  1.00  0.00    -0.003 C 
ATOM      9  C   UNL     1      21.675   5.108  37.694  1.00  0.00     0.004 C 
ENDBRANCH   7   8
ENDBRANCH   6   7
ENDBRANCH   5   6
ENDBRANCH   4   5
ENDBRANCH   3   4
ENDBRANCH   2   3
ENDBRANCH   1   2
BRANCH   1  10
ATOM     10  C   UNL     1      20.786   8.715  39.968  1.00  0.00     0.000 C 
BRANCH  10  11
ATOM     11  C   UNL     1      19.435   8.610  39.233  1.00  0.00     0.000 C 
BRANCH  11  12
ATOM     12  C   UNL     1      18.752   9.958  38.939  1.00  0.00     0.000 C 
BRANCH  12  13
ATOM     13  C   UNL     1      17.297  10.009  39.438  1.00  0.00     0.000 C 
BRANCH  13  14
ATOM     14  C   UNL     1      17.180   9.793  40.957  1.00  0.00     0.002 C 
BRANCH  14  15
ATOM     15  C   UNL     1      16.449   8.504  41.377  1.00  0.00     0.028 C 
BRANCH  15  16
ATOM     16  C   UNL     1      17.267   7.636  42.339  1.00  0.00     0.156 C 
BRANCH  16  17
ATOM     17  O   UNL     1      17.757   6.505  41.672  1.00  0.00    -0.396 OA
ATOM     18  H   UNL     1      17.349   6.510  40.767  1.00  0.00     0.210 HD
ENDBRANCH  16  17
ENDBRANCH  15  16
ENDBRANCH  14  15
ENDBRANCH  13  14
ENDBRANCH  12  13
ENDBRANCH  11  12
ENDBRANCH  10  11
ENDBRANCH   1  10
TORSDOF 15
ENDMDL
MODEL 8
REMARK VINA RESULT:    -3.004      1.270      2.918
REMARK INTER + INTRA:          -7.868
REMARK INTER:                  -5.651
REMARK INTRA:                  -2.217
REMARK UNBOUND:                -2.318
REMARK SMILES CCCCCCCCCCCCCCCCO
REMARK SMILES IDX 9 1 8 2 7 3 6 4 5 5 4 6 3 7 2 8 1 9 10 10 11 11 12 12 13 13
REMARK SMILES IDX 14 14 15 15 16 16 17 17
REMARK H PARENT 17 18
REMARK Flexibility Score: inf
ROOT
ATOM      1  C   UNL     1      10.051   2.368  29.916  1.00  0.00     0.000 C 
ENDROOT
BRANCH   1   2
ATOM      2  C   UNL     1       9.793   1.933  31.372  1.00  0.00    -0.000 C 
BRANCH   2   3
ATOM      3  C   UNL     1      10.365   2.912  32.414  1.00  0.00    -0.000 C 
BRANCH   3   4
ATOM      4  C   UNL     1      11.903   2.868  32.474  1.00  0.00    -0.000 C 
BRANCH   4   5
ATOM      5  C   UNL     1      12.554   4.226  32.154  1.00  0.00    -0.000 C 
BRANCH   5   6
ATOM      6  C   UNL     1      13.887   4.145  31.390  1.00  0.00    -0.000 C 
BRANCH   6   7
ATOM      7  C   UNL     1      13.881   3.079  30.283  1.00  0.00    -0.000 C 
BRANCH   7   8
ATOM      8  C   UNL     1      14.457   3.639  28.978  1.00  0.00    -0.003 C 
ATOM      9  C   UNL     1      14.477   5.165  28.994  1.00  0.00     0.004 C 
ENDBRANCH   7   8
ENDBRANCH   6   7
ENDBRANCH   5   6
ENDBRANCH   4   5
ENDBRANCH   3   4
ENDBRANCH   2   3
ENDBRANCH   1   2
BRANCH   1  10
ATOM     10  C   UNL     1       9.621   3.824  29.631  1.00  0.00     0.000 C 
BRANCH  10  11
ATOM     11  C   UNL     1      10.776   4.734  29.169  1.00  0.00     0.000 C 
BRANCH  11  12
ATOM     12  C   UNL     1      10.641   6.211  29.581  1.00  0.00     0.000 C 
BRANCH  12  13
ATOM     13  C   UNL     1       9.257   6.540  30.168  1.00  0.00     0.000 C 
BRANCH  13  14
ATOM     14  C   UNL     1       9.336   7.453  31.405  1.00  0.00     0.002 C 
BRANCH  14  15
ATOM     15  C   UNL     1      10.062   6.844  32.618  1.00  0.00     0.028 C 
BRANCH  15  16
ATOM     16  C   UNL     1      10.918   7.863  33.379  1.00  0.00     0.156 C 
BRANCH  16  17
ATOM     17  O   UNL     1      10.219   8.345  34.495  1.00  0.00    -0.396 OA
ATOM     18  H   UNL     1       9.542   7.655  34.725  1.00  0.00     0.210 HD
ENDBRANCH  16  17
ENDBRANCH  15  16
ENDBRANCH  14  15
ENDBRANCH  13  14
ENDBRANCH  12  13
ENDBRANCH  11  12
ENDBRANCH  10  11
ENDBRANCH   1  10
TORSDOF 15
ENDMDL
MODEL 9
REMARK VINA RESULT:    -2.993      1.584      3.323
REMARK INTER + INTRA:          -7.847
REMARK INTER:                  -5.497
REMARK INTRA:                  -2.349
REMARK UNBOUND:                -2.318
REMARK SMILES CCCCCCCCCCCCCCCCO
REMARK SMILES IDX 9 1 8 2 7 3 6 4 5 5 4 6 3 7 2 8 1 9 10 10 11 11 12 12 13 13
REMARK SMILES IDX 14 14 15 15 16 16 17 17
REMARK H PARENT 17 18
REMARK Flexibility Score: inf
ROOT
ATOM      1  C   UNL     1      11.176   2.051  31.639  1.00  0.00     0.000 C 
ENDROOT
BRANCH   1   2
ATOM      2  C   UNL     1      12.667   2.439  31.709  1.00  0.00    -0.000 C 
BRANCH   2   3
ATOM      3  C   UNL     1      12.919   3.768  32.446  1.00  0.00    -0.000 C 
BRANCH   3   4
ATOM      4  C   UNL     1      13.421   4.873  31.499  1.00  0.00    -0.000 C 
BRANCH   4   5
ATOM      5  C   UNL     1      13.941   4.323  30.158  1.00  0.00    -0.000 C 
BRANCH   5   6
ATOM      6  C   UNL     1      13.727   5.249  28.948  1.00  0.00    -0.000 C 
BRANCH   6   7
ATOM      7  C   UNL     1      13.529   4.481  27.632  1.00  0.00    -0.000 C 
BRANCH   7   8
ATOM      8  C   UNL     1      13.126   3.027  27.901  1.00  0.00    -0.003 C 
ATOM      9  C   UNL     1      12.747   2.312  26.607  1.00  0.00     0.004 C 
ENDBRANCH   7   8
ENDBRANCH   6   7
ENDBRANCH   5   6
ENDBRANCH   4   5
ENDBRANCH   3   4
ENDBRANCH   2   3
ENDBRANCH   1   2
BRANCH   1  10
ATOM     10  C   UNL     1      10.522   2.397  30.283  1.00  0.00     0.000 C 
BRANCH  10  11
ATOM     11  C   UNL     1       9.640   3.662  30.324  1.00  0.00     0.000 C 
BRANCH  11  12
ATOM     12  C   UNL     1      10.101   4.801  29.396  1.00  0.00     0.000 C 
BRANCH  12  13
ATOM     13  C   UNL     1       9.869   6.195  30.005  1.00  0.00     0.000 C 
BRANCH  13  14
ATOM     14  C   UNL     1      10.039   6.213  31.535  1.00  0.00     0.002 C 
BRANCH  14  15
ATOM     15  C   UNL     1      10.141   7.616  32.161  1.00  0.00     0.028 C 
BRANCH  15  16
ATOM     16  C   UNL     1      10.810   7.612  33.540  1.00  0.00     0.156 C 
BRANCH  16  17
ATOM     17  O   UNL     1      10.198   8.554  34.378  1.00  0.00    -0.396 OA
ATOM     18  H   UNL     1       9.449   8.951  33.860  1.00  0.00     0.210 HD
ENDBRANCH  16  17
ENDBRANCH  15  16
ENDBRANCH  14  15
ENDBRANCH  13  14
ENDBRANCH  12  13
ENDBRANCH  11  12
ENDBRANCH  10  11
ENDBRANCH   1  10
TORSDOF 15
ENDMDL
