MODEL 1
REMARK VINA RESULT:    -4.423      0.000      0.000
REMARK INTER + INTRA:          -4.553
REMARK INTER:                  -4.553
REMARK INTRA:                   0.000
REMARK UNBOUND:                 0.000
REMARK SMILES Nc1ncnc2nc[nH]c12
REMARK SMILES IDX 8 1 7 2 6 3 5 4 4 5 3 6 2 7 10 8 9 9 1 11
REMARK H PARENT 9 10 1 12 1 13
REMARK Flexibility Score: inf
ROOT
ATOM      1  C   UNL     1     -23.040 -19.408 -12.686  1.00  0.00     0.199 A 
ATOM      2  N   UNL     1     -23.744 -19.738 -11.570  1.00  0.00    -0.217 NA
ATOM      3  C   UNL     1     -24.487 -20.772 -11.995  1.00  0.00     0.182 A 
ATOM      4  N   UNL     1     -25.379 -21.481 -11.263  1.00  0.00    -0.215 NA
ATOM      5  C   UNL     1     -26.045 -22.507 -11.876  1.00  0.00     0.226 A 
ATOM      6  N   UNL     1     -25.809 -22.802 -13.195  1.00  0.00    -0.217 NA
ATOM      7  C   UNL     1     -24.909 -22.087 -13.934  1.00  0.00     0.152 A 
ATOM      8  C   UNL     1     -24.240 -21.047 -13.296  1.00  0.00     0.127 A 
ATOM      9  N   UNL     1     -23.321 -20.190 -13.759  1.00  0.00    -0.340 N 
ATOM     10  H   UNL     1     -22.909 -20.128 -14.716  1.00  0.00     0.168 HD
ENDROOT
BRANCH   7  11
ATOM     11  N   UNL     1     -24.680 -22.413 -15.305  1.00  0.00    -0.382 N 
ATOM     12  H   UNL     1     -25.188 -21.921 -16.073  1.00  0.00     0.158 HD
ATOM     13  H   UNL     1     -23.993 -23.157 -15.558  1.00  0.00     0.158 HD
ENDBRANCH   7  11
TORSDOF 1
ENDMDL
MODEL 2
REMARK VINA RESULT:    -4.423      0.928      2.990
REMARK INTER + INTRA:          -4.552
REMARK INTER:                  -4.552
REMARK INTRA:                   0.000
REMARK UNBOUND:                 0.000
REMARK SMILES Nc1ncnc2nc[nH]c12
REMARK SMILES IDX 8 1 7 2 6 3 5 4 4 5 3 6 2 7 10 8 9 9 1 11
REMARK H PARENT 9 10 1 12 1 13
REMARK Flexibility Score: inf
ROOT
ATOM      1  C   UNL     1     -25.333 -23.033 -14.947  1.00  0.00     0.199 A 
ATOM      2  N   UNL     1     -25.935 -23.281 -13.752  1.00  0.00    -0.217 NA
ATOM      3  C   UNL     1     -25.448 -22.298 -12.978  1.00  0.00     0.182 A 
ATOM      4  N   UNL     1     -25.733 -22.084 -11.671  1.00  0.00    -0.215 NA
ATOM      5  C   UNL     1     -25.134 -21.024 -11.046  1.00  0.00     0.226 A 
ATOM      6  N   UNL     1     -24.272 -20.207 -11.732  1.00  0.00    -0.217 NA
ATOM      7  C   UNL     1     -23.984 -20.423 -13.050  1.00  0.00     0.152 A 
ATOM      8  C   UNL     1     -24.600 -21.505 -13.672  1.00  0.00     0.127 A 
ATOM      9  N   UNL     1     -24.510 -21.953 -14.930  1.00  0.00    -0.340 N 
ATOM     10  H   UNL     1     -23.946 -21.572 -15.720  1.00  0.00     0.168 HD
ENDROOT
BRANCH   7  11
ATOM     11  N   UNL     1     -23.083 -19.559 -13.744  1.00  0.00    -0.382 N 
ATOM     12  H   UNL     1     -23.030 -18.540 -13.524  1.00  0.00     0.158 HD
ATOM     13  H   UNL     1     -22.458 -19.943 -14.487  1.00  0.00     0.158 HD
ENDBRANCH   7  11
TORSDOF 1
ENDMDL
MODEL 3
REMARK VINA RESULT:    -4.204      1.520      2.991
REMARK INTER + INTRA:          -4.327
REMARK INTER:                  -4.327
REMARK INTRA:                   0.000
REMARK UNBOUND:                 0.000
REMARK SMILES Nc1ncnc2nc[nH]c12
REMARK SMILES IDX 8 1 7 2 6 3 5 4 4 5 3 6 2 7 10 8 9 9 1 11
REMARK H PARENT 9 10 1 12 1 13
REMARK Flexibility Score: inf
ROOT
ATOM      1  C   UNL     1     -26.104 -21.555 -11.088  1.00  0.00     0.199 A 
ATOM      2  N   UNL     1     -25.412 -20.385 -11.039  1.00  0.00    -0.217 NA
ATOM      3  C   UNL     1     -24.306 -20.676 -11.742  1.00  0.00     0.182 A 
ATOM      4  N   UNL     1     -23.270 -19.842 -12.000  1.00  0.00    -0.215 NA
ATOM      5  C   UNL     1     -22.223 -20.323 -12.738  1.00  0.00     0.226 A 
ATOM      6  N   UNL     1     -22.232 -21.615 -13.200  1.00  0.00    -0.217 NA
ATOM      7  C   UNL     1     -23.277 -22.457 -12.940  1.00  0.00     0.152 A 
ATOM      8  C   UNL     1     -24.334 -21.952 -12.187  1.00  0.00     0.127 A 
ATOM      9  N   UNL     1     -25.470 -22.534 -11.784  1.00  0.00    -0.340 N 
ATOM     10  H   UNL     1     -25.802 -23.508 -11.956  1.00  0.00     0.168 HD
ENDROOT
BRANCH   7  11
ATOM     11  N   UNL     1     -23.264 -23.797 -13.432  1.00  0.00    -0.382 N 
ATOM     12  H   UNL     1     -23.622 -24.591 -12.856  1.00  0.00     0.158 HD
ATOM     13  H   UNL     1     -22.892 -24.001 -14.386  1.00  0.00     0.158 HD
ENDBRANCH   7  11
TORSDOF 1
ENDMDL
MODEL 4
REMARK VINA RESULT:    -4.104      1.801      2.737
REMARK INTER + INTRA:          -4.224
REMARK INTER:                  -4.224
REMARK INTRA:                   0.000
REMARK UNBOUND:                 0.000
REMARK SMILES Nc1ncnc2nc[nH]c12
REMARK SMILES IDX 8 1 7 2 6 3 5 4 4 5 3 6 2 7 10 8 9 9 1 11
REMARK H PARENT 9 10 1 12 1 13
REMARK Flexibility Score: inf
ROOT
ATOM      1  C   UNL     1     -21.992 -18.750 -12.462  1.00  0.00     0.199 A 
ATOM      2  N   UNL     1     -21.473 -19.876 -13.024  1.00  0.00    -0.217 NA
ATOM      3  C   UNL     1     -22.418 -20.791 -12.754  1.00  0.00     0.182 A 
ATOM      4  N   UNL     1     -22.395 -22.101 -13.098  1.00  0.00    -0.215 NA
ATOM      5  C   UNL     1     -23.456 -22.883 -12.732  1.00  0.00     0.226 A 
ATOM      6  N   UNL     1     -24.510 -22.346 -12.036  1.00  0.00    -0.217 NA
ATOM      7  C   UNL     1     -24.534 -21.024 -11.688  1.00  0.00     0.152 A 
ATOM      8  C   UNL     1     -23.446 -20.242 -12.068  1.00  0.00     0.127 A 
ATOM      9  N   UNL     1     -23.198 -18.942 -11.869  1.00  0.00    -0.340 N 
ATOM     10  H   UNL     1     -23.785 -18.233 -11.378  1.00  0.00     0.168 HD
ENDROOT
BRANCH   7  11
ATOM     11  N   UNL     1     -25.641 -20.488 -10.964  1.00  0.00    -0.382 N 
ATOM     12  H   UNL     1     -25.590 -19.549 -10.510  1.00  0.00     0.158 HD
ATOM     13  H   UNL     1     -26.525 -21.037 -10.879  1.00  0.00     0.158 HD
ENDBRANCH   7  11
TORSDOF 1
ENDMDL
MODEL 5
REMARK VINA RESULT:    -4.071      9.070     10.507
REMARK INTER + INTRA:          -4.190
REMARK INTER:                  -4.190
REMARK INTRA:                   0.000
REMARK UNBOUND:                 0.000
REMARK SMILES Nc1ncnc2nc[nH]c12
REMARK SMILES IDX 8 1 7 2 6 3 5 4 4 5 3 6 2 7 10 8 9 9 1 11
REMARK H PARENT 9 10 1 12 1 13
REMARK Flexibility Score: inf
ROOT
ATOM      1  C   UNL     1     -27.625 -31.125 -16.803  1.00  0.00     0.199 A 
ATOM      2  N   UNL     1     -28.110 -29.862 -16.667  1.00  0.00    -0.217 NA
ATOM      3  C   UNL     1     -28.390 -29.803 -15.354  1.00  0.00     0.182 A 
ATOM      4  N   UNL     1     -28.907 -28.744 -14.685  1.00  0.00    -0.215 NA
ATOM      5  C   UNL     1     -29.125 -28.875 -13.341  1.00  0.00     0.226 A 
ATOM      6  N   UNL     1     -28.825 -30.049 -12.698  1.00  0.00    -0.217 NA
ATOM      7  C   UNL     1     -28.304 -31.118 -13.372  1.00  0.00     0.152 A 
ATOM      8  C   UNL     1     -28.088 -30.969 -14.739  1.00  0.00     0.127 A 
ATOM      9  N   UNL     1     -27.599 -31.828 -15.641  1.00  0.00    -0.340 N 
ATOM     10  H   UNL     1     -27.271 -32.808 -15.500  1.00  0.00     0.168 HD
ENDROOT
BRANCH   7  11
ATOM     11  N   UNL     1     -28.000 -32.329 -12.681  1.00  0.00    -0.382 N 
ATOM     12  H   UNL     1     -27.848 -32.342 -11.648  1.00  0.00     0.158 HD
ATOM     13  H   UNL     1     -27.927 -33.228 -13.208  1.00  0.00     0.158 HD
ENDBRANCH   7  11
TORSDOF 1
ENDMDL
MODEL 6
REMARK VINA RESULT:    -4.029      9.191     10.514
REMARK INTER + INTRA:          -4.147
REMARK INTER:                  -4.147
REMARK INTRA:                   0.000
REMARK UNBOUND:                 0.000
REMARK SMILES Nc1ncnc2nc[nH]c12
REMARK SMILES IDX 8 1 7 2 6 3 5 4 4 5 3 6 2 7 10 8 9 9 1 11
REMARK H PARENT 9 10 1 12 1 13
REMARK Flexibility Score: inf
ROOT
ATOM      1  C   UNL     1     -28.518 -31.738 -11.508  1.00  0.00     0.199 A 
ATOM      2  N   UNL     1     -29.021 -30.477 -11.590  1.00  0.00    -0.217 NA
ATOM      3  C   UNL     1     -28.805 -30.166 -12.878  1.00  0.00     0.182 A 
ATOM      4  N   UNL     1     -29.125 -29.002 -13.493  1.00  0.00    -0.215 NA
ATOM      5  C   UNL     1     -28.824 -28.870 -14.821  1.00  0.00     0.226 A 
ATOM      6  N   UNL     1     -28.215 -29.893 -15.502  1.00  0.00    -0.217 NA
ATOM      7  C   UNL     1     -27.892 -31.068 -14.883  1.00  0.00     0.152 A 
ATOM      8  C   UNL     1     -28.205 -31.187 -13.532  1.00  0.00     0.127 A 
ATOM      9  N   UNL     1     -28.011 -32.201 -12.680  1.00  0.00    -0.340 N 
ATOM     10  H   UNL     1     -27.576 -33.131 -12.860  1.00  0.00     0.168 HD
ENDROOT
BRANCH   7  11
ATOM     11  N   UNL     1     -27.259 -32.119 -15.613  1.00  0.00    -0.382 N 
ATOM     12  H   UNL     1     -26.633 -32.808 -15.141  1.00  0.00     0.158 HD
ATOM     13  H   UNL     1     -27.418 -32.211 -16.641  1.00  0.00     0.158 HD
ENDBRANCH   7  11
TORSDOF 1
ENDMDL
MODEL 7
REMARK VINA RESULT:    -3.872      1.956      3.733
REMARK INTER + INTRA:          -3.985
REMARK INTER:                  -3.985
REMARK INTRA:                   0.000
REMARK UNBOUND:                 0.000
REMARK SMILES Nc1ncnc2nc[nH]c12
REMARK SMILES IDX 8 1 7 2 6 3 5 4 4 5 3 6 2 7 10 8 9 9 1 11
REMARK H PARENT 9 10 1 12 1 13
REMARK Flexibility Score: inf
ROOT
ATOM      1  C   UNL     1     -23.709 -22.584 -13.497  1.00  0.00     0.199 A 
ATOM      2  N   UNL     1     -22.483 -22.310 -12.974  1.00  0.00    -0.217 NA
ATOM      3  C   UNL     1     -22.464 -20.967 -12.978  1.00  0.00     0.182 A 
ATOM      4  N   UNL     1     -21.453 -20.172 -12.553  1.00  0.00    -0.215 NA
ATOM      5  C   UNL     1     -21.619 -18.817 -12.637  1.00  0.00     0.226 A 
ATOM      6  N   UNL     1     -22.780 -18.287 -13.140  1.00  0.00    -0.217 NA
ATOM      7  C   UNL     1     -23.801 -19.088 -13.570  1.00  0.00     0.152 A 
ATOM      8  C   UNL     1     -23.617 -20.465 -13.478  1.00  0.00     0.127 A 
ATOM      9  N   UNL     1     -24.426 -21.476 -13.816  1.00  0.00    -0.340 N 
ATOM     10  H   UNL     1     -25.384 -21.436 -14.227  1.00  0.00     0.168 HD
ENDROOT
BRANCH   7  11
ATOM     11  N   UNL     1     -25.000 -18.514 -14.090  1.00  0.00    -0.382 N 
ATOM     12  H   UNL     1     -24.980 -17.644 -14.667  1.00  0.00     0.158 HD
ATOM     13  H   UNL     1     -25.922 -18.964 -13.897  1.00  0.00     0.158 HD
ENDBRANCH   7  11
TORSDOF 1
ENDMDL
MODEL 8
REMARK VINA RESULT:    -3.718      1.193      3.299
REMARK INTER + INTRA:          -3.826
REMARK INTER:                  -3.826
REMARK INTRA:                   0.000
REMARK UNBOUND:                 0.000
REMARK SMILES Nc1ncnc2nc[nH]c12
REMARK SMILES IDX 8 1 7 2 6 3 5 4 4 5 3 6 2 7 10 8 9 9 1 11
REMARK H PARENT 9 10 1 12 1 13
REMARK Flexibility Score: inf
ROOT
ATOM      1  C   UNL     1     -24.882 -23.216 -15.008  1.00  0.00     0.199 A 
ATOM      2  N   UNL     1     -24.072 -22.169 -14.694  1.00  0.00    -0.217 NA
ATOM      3  C   UNL     1     -24.516 -21.820 -13.475  1.00  0.00     0.182 A 
ATOM      4  N   UNL     1     -24.043 -20.815 -12.700  1.00  0.00    -0.215 NA
ATOM      5  C   UNL     1     -24.627 -20.610 -11.481  1.00  0.00     0.226 A 
ATOM      6  N   UNL     1     -25.664 -21.407 -11.063  1.00  0.00    -0.217 NA
ATOM      7  C   UNL     1     -26.142 -22.421 -11.844  1.00  0.00     0.152 A 
ATOM      8  C   UNL     1     -25.537 -22.616 -13.082  1.00  0.00     0.127 A 
ATOM      9  N   UNL     1     -25.789 -23.513 -14.043  1.00  0.00    -0.340 N 
ATOM     10  H   UNL     1     -26.508 -24.269 -14.058  1.00  0.00     0.168 HD
ENDROOT
BRANCH   7  11
ATOM     11  N   UNL     1     -27.222 -23.236 -11.388  1.00  0.00    -0.382 N 
ATOM     12  H   UNL     1     -27.964 -22.854 -10.761  1.00  0.00     0.158 HD
ATOM     13  H   UNL     1     -27.282 -24.236 -11.681  1.00  0.00     0.158 HD
ENDBRANCH   7  11
TORSDOF 1
ENDMDL
MODEL 9
REMARK VINA RESULT:    -3.557      1.825      3.803
REMARK INTER + INTRA:          -3.661
REMARK INTER:                  -3.661
REMARK INTRA:                   0.000
REMARK UNBOUND:                 0.000
REMARK SMILES Nc1ncnc2nc[nH]c12
REMARK SMILES IDX 8 1 7 2 6 3 5 4 4 5 3 6 2 7 10 8 9 9 1 11
REMARK H PARENT 9 10 1 12 1 13
REMARK Flexibility Score: inf
ROOT
ATOM      1  C   UNL     1     -23.718 -22.846 -13.235  1.00  0.00     0.199 A 
ATOM      2  N   UNL     1     -24.640 -21.881 -13.502  1.00  0.00    -0.217 NA
ATOM      3  C   UNL     1     -23.921 -20.755 -13.370  1.00  0.00     0.182 A 
ATOM      4  N   UNL     1     -24.370 -19.487 -13.532  1.00  0.00    -0.215 NA
ATOM      5  C   UNL     1     -23.483 -18.461 -13.353  1.00  0.00     0.226 A 
ATOM      6  N   UNL     1     -22.177 -18.719 -13.020  1.00  0.00    -0.217 NA
ATOM      7  C   UNL     1     -21.724 -19.998 -12.856  1.00  0.00     0.152 A 
ATOM      8  C   UNL     1     -22.639 -21.031 -13.041  1.00  0.00     0.127 A 
ATOM      9  N   UNL     1     -22.484 -22.357 -12.949  1.00  0.00    -0.340 N 
ATOM     10  H   UNL     1     -21.625 -22.900 -12.714  1.00  0.00     0.168 HD
ENDROOT
BRANCH   7  11
ATOM     11  N   UNL     1     -20.360 -20.242 -12.509  1.00  0.00    -0.382 N 
ATOM     12  H   UNL     1     -19.963 -21.208 -12.512  1.00  0.00     0.158 HD
ATOM     13  H   UNL     1     -19.738 -19.447 -12.245  1.00  0.00     0.158 HD
ENDBRANCH   7  11
TORSDOF 1
ENDMDL
