MODEL 1
REMARK VINA RESULT:    -5.002      0.000      0.000
REMARK INTER + INTRA:          -5.294
REMARK INTER:                  -5.294
REMARK INTRA:                   0.000
REMARK UNBOUND:                 0.000
REMARK SMILES Cc1cc(O)c(C)c(C)c1O
REMARK SMILES IDX 1 1 2 2 3 3 4 4 6 5 8 6 10 7 9 8 7 9 11 10 5 12
REMARK H PARENT 11 11 5 13
REMARK Flexibility Score: inf
ROOT
ATOM      1  C   UNL     1       0.102  -4.285  23.245  1.00  0.00     0.048 C 
ATOM      2  C   UNL     1       0.631  -3.317  22.222  1.00  0.00    -0.005 A 
ATOM      3  C   UNL     1       0.711  -3.696  20.879  1.00  0.00     0.053 A 
ATOM      4  C   UNL     1       1.231  -2.829  19.920  1.00  0.00     0.119 A 
ATOM      5  C   UNL     1       1.704  -1.550  20.300  1.00  0.00    -0.003 A 
ATOM      6  C   UNL     1       1.510  -1.111  21.640  1.00  0.00    -0.002 A 
ATOM      7  C   UNL     1       1.039  -2.031  22.612  1.00  0.00     0.121 A 
ATOM      8  C   UNL     1       1.814   0.315  22.045  1.00  0.00     0.049 C 
ATOM      9  C   UNL     1       2.387  -0.669  19.278  1.00  0.00     0.049 C 
ENDROOT
BRANCH   7  10
ATOM     10  O   UNL     1       0.974  -1.700  23.970  1.00  0.00    -0.507 OA
ATOM     11  H   UNL     1       1.561  -2.118  24.679  1.00  0.00     0.293 HD
ENDBRANCH   7  10
BRANCH   4  12
ATOM     12  O   UNL     1       1.251  -3.270  18.594  1.00  0.00    -0.508 OA
ATOM     13  H   UNL     1       1.072  -2.669  17.800  1.00  0.00     0.293 HD
ENDBRANCH   4  12
TORSDOF 2
ENDMDL
MODEL 2
REMARK VINA RESULT:    -4.904     16.397     16.856
REMARK INTER + INTRA:          -5.191
REMARK INTER:                  -5.191
REMARK INTRA:                   0.000
REMARK UNBOUND:                 0.000
REMARK SMILES Cc1cc(O)c(C)c(C)c1O
REMARK SMILES IDX 1 1 2 2 3 3 4 4 6 5 8 6 10 7 9 8 7 9 11 10 5 12
REMARK H PARENT 11 11 5 13
REMARK Flexibility Score: inf
ROOT
ATOM      1  C   UNL     1      17.658  -6.823  22.722  1.00  0.00     0.048 C 
ATOM      2  C   UNL     1      17.073  -6.960  24.101  1.00  0.00    -0.005 A 
ATOM      3  C   UNL     1      17.911  -6.945  25.219  1.00  0.00     0.053 A 
ATOM      4  C   UNL     1      17.395  -7.106  26.504  1.00  0.00     0.119 A 
ATOM      5  C   UNL     1      16.005  -7.305  26.691  1.00  0.00    -0.003 A 
ATOM      6  C   UNL     1      15.134  -7.196  25.571  1.00  0.00    -0.002 A 
ATOM      7  C   UNL     1      15.685  -7.096  24.268  1.00  0.00     0.121 A 
ATOM      8  C   UNL     1      13.632  -7.201  25.750  1.00  0.00     0.049 C 
ATOM      9  C   UNL     1      15.472  -7.612  28.073  1.00  0.00     0.049 C 
ENDROOT
BRANCH   7  10
ATOM     10  O   UNL     1      14.882  -7.139  23.123  1.00  0.00    -0.507 OA
ATOM     11  H   UNL     1      14.716  -6.343  22.522  1.00  0.00     0.293 HD
ENDBRANCH   7  10
BRANCH   4  12
ATOM     12  O   UNL     1      18.293  -7.051  27.573  1.00  0.00    -0.508 OA
ATOM     13  H   UNL     1      19.184  -6.575  27.532  1.00  0.00     0.293 HD
ENDBRANCH   4  12
TORSDOF 2
ENDMDL
MODEL 3
REMARK VINA RESULT:    -4.886     17.069     17.205
REMARK INTER + INTRA:          -5.172
REMARK INTER:                  -5.172
REMARK INTRA:                   0.000
REMARK UNBOUND:                 0.000
REMARK SMILES Cc1cc(O)c(C)c(C)c1O
REMARK SMILES IDX 1 1 2 2 3 3 4 4 6 5 8 6 10 7 9 8 7 9 11 10 5 12
REMARK H PARENT 11 11 5 13
REMARK Flexibility Score: inf
ROOT
ATOM      1  C   UNL     1      16.795  -6.732  29.431  1.00  0.00     0.048 C 
ATOM      2  C   UNL     1      16.979  -6.408  27.973  1.00  0.00    -0.005 A 
ATOM      3  C   UNL     1      17.302  -7.423  27.068  1.00  0.00     0.053 A 
ATOM      4  C   UNL     1      17.513  -7.140  25.720  1.00  0.00     0.119 A 
ATOM      5  C   UNL     1      17.419  -5.807  25.250  1.00  0.00    -0.003 A 
ATOM      6  C   UNL     1      16.969  -4.791  26.139  1.00  0.00    -0.002 A 
ATOM      7  C   UNL     1      16.822  -5.089  27.518  1.00  0.00     0.121 A 
ATOM      8  C   UNL     1      16.661  -3.398  25.637  1.00  0.00     0.049 C 
ATOM      9  C   UNL     1      17.779  -5.491  23.816  1.00  0.00     0.049 C 
ENDROOT
BRANCH   7  10
ATOM     10  O   UNL     1      16.531  -4.095  28.460  1.00  0.00    -0.507 OA
ATOM     11  H   UNL     1      16.722  -3.112  28.317  1.00  0.00     0.293 HD
ENDBRANCH   7  10
BRANCH   4  12
ATOM     12  O   UNL     1      17.804  -8.213  24.873  1.00  0.00    -0.508 OA
ATOM     13  H   UNL     1      18.173  -8.105  23.937  1.00  0.00     0.293 HD
ENDBRANCH   4  12
TORSDOF 2
ENDMDL
MODEL 4
REMARK VINA RESULT:    -4.844      5.104      6.631
REMARK INTER + INTRA:          -5.127
REMARK INTER:                  -5.127
REMARK INTRA:                   0.000
REMARK UNBOUND:                 0.000
REMARK SMILES Cc1cc(O)c(C)c(C)c1O
REMARK SMILES IDX 1 1 2 2 3 3 4 4 6 5 8 6 10 7 9 8 7 9 11 10 5 12
REMARK H PARENT 11 11 5 13
REMARK Flexibility Score: inf
ROOT
ATOM      1  C   UNL     1       4.364  -8.557  27.151  1.00  0.00     0.048 C 
ATOM      2  C   UNL     1       3.793  -7.500  26.246  1.00  0.00    -0.005 A 
ATOM      3  C   UNL     1       2.422  -7.227  26.270  1.00  0.00     0.053 A 
ATOM      4  C   UNL     1       1.865  -6.278  25.415  1.00  0.00     0.119 A 
ATOM      5  C   UNL     1       2.685  -5.584  24.493  1.00  0.00    -0.003 A 
ATOM      6  C   UNL     1       4.096  -5.765  24.550  1.00  0.00    -0.002 A 
ATOM      7  C   UNL     1       4.633  -6.781  25.381  1.00  0.00     0.121 A 
ATOM      8  C   UNL     1       5.025  -4.902  23.726  1.00  0.00     0.049 C 
ATOM      9  C   UNL     1       2.054  -4.655  23.481  1.00  0.00     0.049 C 
ENDROOT
BRANCH   7  10
ATOM     10  O   UNL     1       5.995  -7.104  25.362  1.00  0.00    -0.507 OA
ATOM     11  H   UNL     1       6.349  -8.048  25.444  1.00  0.00     0.293 HD
ENDBRANCH   7  10
BRANCH   4  12
ATOM     12  O   UNL     1       0.491  -6.042  25.520  1.00  0.00    -0.508 OA
ATOM     13  H   UNL     1       0.093  -5.256  26.017  1.00  0.00     0.293 HD
ENDBRANCH   4  12
TORSDOF 2
ENDMDL
MODEL 5
REMARK VINA RESULT:    -4.835      2.354      2.872
REMARK INTER + INTRA:          -5.117
REMARK INTER:                  -5.117
REMARK INTRA:                   0.000
REMARK UNBOUND:                 0.000
REMARK SMILES Cc1cc(O)c(C)c(C)c1O
REMARK SMILES IDX 1 1 2 2 3 3 4 4 6 5 8 6 10 7 9 8 7 9 11 10 5 12
REMARK H PARENT 11 11 5 13
REMARK Flexibility Score: inf
ROOT
ATOM      1  C   UNL     1       0.252  -4.991  24.421  1.00  0.00     0.048 C 
ATOM      2  C   UNL     1       0.894  -4.483  23.159  1.00  0.00    -0.005 A 
ATOM      3  C   UNL     1       0.132  -3.775  22.225  1.00  0.00     0.053 A 
ATOM      4  C   UNL     1       0.697  -3.326  21.032  1.00  0.00     0.119 A 
ATOM      5  C   UNL     1       2.055  -3.599  20.743  1.00  0.00    -0.003 A 
ATOM      6  C   UNL     1       2.867  -4.208  21.741  1.00  0.00    -0.002 A 
ATOM      7  C   UNL     1       2.258  -4.712  22.919  1.00  0.00     0.121 A 
ATOM      8  C   UNL     1       4.363  -4.337  21.558  1.00  0.00     0.049 C 
ATOM      9  C   UNL     1       2.623  -3.226  19.392  1.00  0.00     0.049 C 
ENDROOT
BRANCH   7  10
ATOM     10  O   UNL     1       2.979  -5.453  23.862  1.00  0.00    -0.507 OA
ATOM     11  H   UNL     1       3.987  -5.430  23.944  1.00  0.00     0.293 HD
ENDBRANCH   7  10
BRANCH   4  12
ATOM     12  O   UNL     1      -0.122  -2.601  20.162  1.00  0.00    -0.508 OA
ATOM     13  H   UNL     1      -0.042  -2.638  19.155  1.00  0.00     0.293 HD
ENDBRANCH   4  12
TORSDOF 2
ENDMDL
MODEL 6
REMARK VINA RESULT:    -4.821     16.169     16.308
REMARK INTER + INTRA:          -5.103
REMARK INTER:                  -5.103
REMARK INTRA:                   0.000
REMARK UNBOUND:                 0.000
REMARK SMILES Cc1cc(O)c(C)c(C)c1O
REMARK SMILES IDX 1 1 2 2 3 3 4 4 6 5 8 6 10 7 9 8 7 9 11 10 5 12
REMARK H PARENT 11 11 5 13
REMARK Flexibility Score: inf
ROOT
ATOM      1  C   UNL     1      16.687  -7.188  27.827  1.00  0.00     0.048 C 
ATOM      2  C   UNL     1      16.532  -7.130  26.332  1.00  0.00    -0.005 A 
ATOM      3  C   UNL     1      17.640  -6.853  25.526  1.00  0.00     0.053 A 
ATOM      4  C   UNL     1      17.513  -6.758  24.141  1.00  0.00     0.119 A 
ATOM      5  C   UNL     1      16.246  -6.927  23.531  1.00  0.00    -0.003 A 
ATOM      6  C   UNL     1      15.141  -7.333  24.331  1.00  0.00    -0.002 A 
ATOM      7  C   UNL     1      15.278  -7.360  25.743  1.00  0.00     0.121 A 
ATOM      8  C   UNL     1      13.822  -7.719  23.699  1.00  0.00     0.049 C 
ATOM      9  C   UNL     1      16.093  -6.692  22.045  1.00  0.00     0.049 C 
ENDROOT
BRANCH   7  10
ATOM     10  O   UNL     1      14.187  -7.603  26.585  1.00  0.00    -0.507 OA
ATOM     11  H   UNL     1      14.228  -7.531  27.592  1.00  0.00     0.293 HD
ENDBRANCH   7  10
BRANCH   4  12
ATOM     12  O   UNL     1      18.671  -6.506  23.402  1.00  0.00    -0.508 OA
ATOM     13  H   UNL     1      19.214  -5.656  23.481  1.00  0.00     0.293 HD
ENDBRANCH   4  12
TORSDOF 2
ENDMDL
MODEL 7
REMARK VINA RESULT:    -4.808      2.382      4.940
REMARK INTER + INTRA:          -5.089
REMARK INTER:                  -5.089
REMARK INTRA:                   0.000
REMARK UNBOUND:                 0.000
REMARK SMILES Cc1cc(O)c(C)c(C)c1O
REMARK SMILES IDX 1 1 2 2 3 3 4 4 6 5 8 6 10 7 9 8 7 9 11 10 5 12
REMARK H PARENT 11 11 5 13
REMARK Flexibility Score: inf
ROOT
ATOM      1  C   UNL     1       0.814  -2.800  20.611  1.00  0.00     0.048 C 
ATOM      2  C   UNL     1       1.156  -3.529  21.882  1.00  0.00    -0.005 A 
ATOM      3  C   UNL     1       0.388  -3.324  23.032  1.00  0.00     0.053 A 
ATOM      4  C   UNL     1       0.708  -3.962  24.230  1.00  0.00     0.119 A 
ATOM      5  C   UNL     1       1.833  -4.818  24.301  1.00  0.00    -0.003 A 
ATOM      6  C   UNL     1       2.543  -5.128  23.106  1.00  0.00    -0.002 A 
ATOM      7  C   UNL     1       2.241  -4.420  21.915  1.00  0.00     0.121 A 
ATOM      8  C   UNL     1       3.622  -6.188  23.094  1.00  0.00     0.049 C 
ATOM      9  C   UNL     1       2.249  -5.399  25.633  1.00  0.00     0.049 C 
ENDROOT
BRANCH   7  10
ATOM     10  O   UNL     1       3.005  -4.574  20.753  1.00  0.00    -0.507 OA
ATOM     11  H   UNL     1       2.758  -5.196  19.995  1.00  0.00     0.293 HD
ENDBRANCH   7  10
BRANCH   4  12
ATOM     12  O   UNL     1      -0.125  -3.728  25.328  1.00  0.00    -0.508 OA
ATOM     13  H   UNL     1      -0.188  -4.347  26.125  1.00  0.00     0.293 HD
ENDBRANCH   4  12
TORSDOF 2
ENDMDL
MODEL 8
REMARK VINA RESULT:    -4.798     16.940     17.408
REMARK INTER + INTRA:          -5.078
REMARK INTER:                  -5.078
REMARK INTRA:                   0.000
REMARK UNBOUND:                 0.000
REMARK SMILES Cc1cc(O)c(C)c(C)c1O
REMARK SMILES IDX 1 1 2 2 3 3 4 4 6 5 8 6 10 7 9 8 7 9 11 10 5 12
REMARK H PARENT 11 11 5 13
REMARK Flexibility Score: inf
ROOT
ATOM      1  C   UNL     1      18.198  -6.410  23.014  1.00  0.00     0.048 C 
ATOM      2  C   UNL     1      17.718  -5.936  24.359  1.00  0.00    -0.005 A 
ATOM      3  C   UNL     1      17.481  -4.576  24.576  1.00  0.00     0.053 A 
ATOM      4  C   UNL     1      17.070  -4.110  25.824  1.00  0.00     0.119 A 
ATOM      5  C   UNL     1      16.903  -5.015  26.900  1.00  0.00    -0.003 A 
ATOM      6  C   UNL     1      17.020  -6.412  26.654  1.00  0.00    -0.002 A 
ATOM      7  C   UNL     1      17.500  -6.858  25.396  1.00  0.00     0.121 A 
ATOM      8  C   UNL     1      16.655  -7.424  27.717  1.00  0.00     0.049 C 
ATOM      9  C   UNL     1      16.587  -4.486  28.281  1.00  0.00     0.049 C 
ENDROOT
BRANCH   7  10
ATOM     10  O   UNL     1      17.779  -8.207  25.150  1.00  0.00    -0.507 OA
ATOM     11  H   UNL     1      18.186  -8.831  25.834  1.00  0.00     0.293 HD
ENDBRANCH   7  10
BRANCH   4  12
ATOM     12  O   UNL     1      16.826  -2.740  25.954  1.00  0.00    -0.508 OA
ATOM     13  H   UNL     1      17.554  -2.038  25.954  1.00  0.00     0.293 HD
ENDBRANCH   4  12
TORSDOF 2
ENDMDL
MODEL 9
REMARK VINA RESULT:    -4.786      3.413      4.583
REMARK INTER + INTRA:          -5.065
REMARK INTER:                  -5.065
REMARK INTRA:                   0.000
REMARK UNBOUND:                 0.000
REMARK SMILES Cc1cc(O)c(C)c(C)c1O
REMARK SMILES IDX 1 1 2 2 3 3 4 4 6 5 8 6 10 7 9 8 7 9 11 10 5 12
REMARK H PARENT 11 11 5 13
REMARK Flexibility Score: inf
ROOT
ATOM      1  C   UNL     1       2.895  -7.371  26.152  1.00  0.00     0.048 C 
ATOM      2  C   UNL     1       2.610  -6.442  25.003  1.00  0.00    -0.005 A 
ATOM      3  C   UNL     1       3.486  -6.389  23.915  1.00  0.00     0.053 A 
ATOM      4  C   UNL     1       3.261  -5.511  22.857  1.00  0.00     0.119 A 
ATOM      5  C   UNL     1       2.143  -4.643  22.879  1.00  0.00    -0.003 A 
ATOM      6  C   UNL     1       1.182  -4.779  23.920  1.00  0.00    -0.002 A 
ATOM      7  C   UNL     1       1.463  -5.633  25.018  1.00  0.00     0.121 A 
ATOM      8  C   UNL     1      -0.124  -4.018  23.879  1.00  0.00     0.049 C 
ATOM      9  C   UNL     1       1.980  -3.602  21.794  1.00  0.00     0.049 C 
ENDROOT
BRANCH   7  10
ATOM     10  O   UNL     1       0.627  -5.691  26.139  1.00  0.00    -0.507 OA
ATOM     11  H   UNL     1       0.176  -6.537  26.461  1.00  0.00     0.293 HD
ENDBRANCH   7  10
BRANCH   4  12
ATOM     12  O   UNL     1       4.167  -5.537  21.792  1.00  0.00    -0.508 OA
ATOM     13  H   UNL     1       5.027  -6.069  21.801  1.00  0.00     0.293 HD
ENDBRANCH   4  12
TORSDOF 2
ENDMDL
