MODEL 1
REMARK VINA RESULT:    -4.519      0.000      0.000
REMARK INTER + INTRA:         -10.089
REMARK INTER:                  -8.218
REMARK INTRA:                  -1.872
REMARK UNBOUND:                -1.872
REMARK SMILES CCCCCCCCCCCCCCCC(=O)[O-]
REMARK SMILES IDX 9 1 10 2 11 3 12 4 13 5 14 6 15 7 16 8 17 9 18 10 8 11 7 12
REMARK SMILES IDX 6 13 5 14 4 15 3 16 2 17 1 18
REMARK H PARENT
REMARK Flexibility Score: inf
ROOT
ATOM      1  C   UNL     1      53.486  24.486  50.727  1.00  0.00     0.000 C 
ENDROOT
BRANCH   1   2
ATOM      2  C   UNL     1      54.911  24.709  51.265  1.00  0.00     0.000 C 
BRANCH   2   3
ATOM      3  C   UNL     1      55.419  23.529  52.109  1.00  0.00     0.000 C 
BRANCH   3   4
ATOM      4  C   UNL     1      54.273  22.718  52.738  1.00  0.00     0.000 C 
BRANCH   4   5
ATOM      5  C   UNL     1      54.745  21.366  53.300  1.00  0.00     0.000 C 
BRANCH   5   6
ATOM      6  C   UNL     1      56.267  21.310  53.510  1.00  0.00     0.006 C 
BRANCH   6   7
ATOM      7  C   UNL     1      56.643  21.228  54.996  1.00  0.00     0.053 C 
BRANCH   7   8
ATOM      8  C   UNL     1      56.597  22.571  55.659  1.00  0.00     0.041 C 
ATOM      9  O   UNL     1      57.487  23.429  55.414  1.00  0.00    -0.550 OA
ATOM     10  O   UNL     1      55.555  22.886  56.521  1.00  0.00    -0.550 OA
ENDBRANCH   7   8
ENDBRANCH   6   7
ENDBRANCH   5   6
ENDBRANCH   4   5
ENDBRANCH   3   4
ENDBRANCH   2   3
ENDBRANCH   1   2
BRANCH   1  11
ATOM     11  C   UNL     1      53.326  24.947  49.271  1.00  0.00     0.000 C 
BRANCH  11  12
ATOM     12  C   UNL     1      53.867  23.922  48.264  1.00  0.00    -0.000 C 
BRANCH  12  13
ATOM     13  C   UNL     1      54.795  24.592  47.242  1.00  0.00    -0.000 C 
BRANCH  13  14
ATOM     14  C   UNL     1      56.217  24.018  47.331  1.00  0.00    -0.000 C 
BRANCH  14  15
ATOM     15  C   UNL     1      56.332  22.870  48.347  1.00  0.00    -0.000 C 
BRANCH  15  16
ATOM     16  C   UNL     1      56.837  21.565  47.708  1.00  0.00    -0.000 C 
BRANCH  16  17
ATOM     17  C   UNL     1      56.431  20.320  48.512  1.00  0.00    -0.003 C 
ATOM     18  C   UNL     1      55.615  20.660  49.760  1.00  0.00     0.004 C 
ENDBRANCH  16  17
ENDBRANCH  15  16
ENDBRANCH  14  15
ENDBRANCH  13  14
ENDBRANCH  12  13
ENDBRANCH  11  12
ENDBRANCH   1  11
TORSDOF 14
ENDMDL
MODEL 2
REMARK VINA RESULT:    -4.427      1.058      1.424
REMARK INTER + INTRA:          -9.921
REMARK INTER:                  -8.193
REMARK INTRA:                  -1.728
REMARK UNBOUND:                -1.872
REMARK SMILES CCCCCCCCCCCCCCCC(=O)[O-]
REMARK SMILES IDX 9 1 10 2 11 3 12 4 13 5 14 6 15 7 16 8 17 9 18 10 8 11 7 12
REMARK SMILES IDX 6 13 5 14 4 15 3 16 2 17 1 18
REMARK H PARENT
REMARK Flexibility Score: inf
ROOT
ATOM      1  C   UNL     1      53.315  24.296  50.448  1.00  0.00     0.000 C 
ENDROOT
BRANCH   1   2
ATOM      2  C   UNL     1      54.242  24.694  51.611  1.00  0.00     0.000 C 
BRANCH   2   3
ATOM      3  C   UNL     1      53.724  24.210  52.976  1.00  0.00     0.000 C 
BRANCH   3   4
ATOM      4  C   UNL     1      53.105  22.804  52.905  1.00  0.00     0.000 C 
BRANCH   4   5
ATOM      5  C   UNL     1      54.156  21.708  52.659  1.00  0.00     0.000 C 
BRANCH   5   6
ATOM      6  C   UNL     1      54.994  21.398  53.912  1.00  0.00     0.006 C 
BRANCH   6   7
ATOM      7  C   UNL     1      56.501  21.476  53.634  1.00  0.00     0.053 C 
BRANCH   7   8
ATOM      8  C   UNL     1      57.017  22.879  53.745  1.00  0.00     0.041 C 
ATOM      9  O   UNL     1      57.488  23.463  52.734  1.00  0.00    -0.550 OA
ATOM     10  O   UNL     1      56.949  23.551  54.959  1.00  0.00    -0.550 OA
ENDBRANCH   7   8
ENDBRANCH   6   7
ENDBRANCH   5   6
ENDBRANCH   4   5
ENDBRANCH   3   4
ENDBRANCH   2   3
ENDBRANCH   1   2
BRANCH   1  11
ATOM     11  C   UNL     1      53.609  25.084  49.163  1.00  0.00     0.000 C 
BRANCH  11  12
ATOM     12  C   UNL     1      53.744  24.176  47.931  1.00  0.00    -0.000 C 
BRANCH  12  13
ATOM     13  C   UNL     1      55.010  24.516  47.133  1.00  0.00    -0.000 C 
BRANCH  13  14
ATOM     14  C   UNL     1      56.271  24.060  47.882  1.00  0.00    -0.000 C 
BRANCH  14  15
ATOM     15  C   UNL     1      56.344  22.534  48.049  1.00  0.00    -0.000 C 
BRANCH  15  16
ATOM     16  C   UNL     1      56.006  22.080  49.479  1.00  0.00    -0.000 C 
BRANCH  16  17
ATOM     17  C   UNL     1      55.682  20.580  49.560  1.00  0.00    -0.003 C 
ATOM     18  C   UNL     1      56.427  19.754  48.511  1.00  0.00     0.004 C 
ENDBRANCH  16  17
ENDBRANCH  15  16
ENDBRANCH  14  15
ENDBRANCH  13  14
ENDBRANCH  12  13
ENDBRANCH  11  12
ENDBRANCH   1  11
TORSDOF 14
ENDMDL
MODEL 3
REMARK VINA RESULT:    -4.409      1.009      3.236
REMARK INTER + INTRA:          -9.889
REMARK INTER:                  -8.092
REMARK INTRA:                  -1.797
REMARK UNBOUND:                -1.872
REMARK SMILES CCCCCCCCCCCCCCCC(=O)[O-]
REMARK SMILES IDX 9 1 10 2 11 3 12 4 13 5 14 6 15 7 16 8 17 9 18 10 8 11 7 12
REMARK SMILES IDX 6 13 5 14 4 15 3 16 2 17 1 18
REMARK H PARENT
REMARK Flexibility Score: inf
ROOT
ATOM      1  C   UNL     1      56.243  20.644  49.696  1.00  0.00     0.000 C 
ENDROOT
BRANCH   1   2
ATOM      2  C   UNL     1      54.931  21.054  50.389  1.00  0.00     0.000 C 
BRANCH   2   3
ATOM      3  C   UNL     1      55.150  21.554  51.826  1.00  0.00     0.000 C 
BRANCH   3   4
ATOM      4  C   UNL     1      56.240  22.636  51.913  1.00  0.00     0.000 C 
BRANCH   4   5
ATOM      5  C   UNL     1      57.067  22.540  53.207  1.00  0.00     0.000 C 
BRANCH   5   6
ATOM      6  C   UNL     1      56.779  21.254  53.999  1.00  0.00     0.006 C 
BRANCH   6   7
ATOM      7  C   UNL     1      56.590  21.528  55.497  1.00  0.00     0.053 C 
BRANCH   7   8
ATOM      8  C   UNL     1      55.550  22.578  55.746  1.00  0.00     0.041 C 
ATOM      9  O   UNL     1      54.343  22.353  55.463  1.00  0.00    -0.550 OA
ATOM     10  O   UNL     1      55.909  23.791  56.318  1.00  0.00    -0.550 OA
ENDBRANCH   7   8
ENDBRANCH   6   7
ENDBRANCH   5   6
ENDBRANCH   4   5
ENDBRANCH   3   4
ENDBRANCH   2   3
ENDBRANCH   1   2
BRANCH   1  11
ATOM     11  C   UNL     1      56.148  20.715  48.164  1.00  0.00     0.000 C 
BRANCH  11  12
ATOM     12  C   UNL     1      56.971  21.869  47.573  1.00  0.00    -0.000 C 
BRANCH  12  13
ATOM     13  C   UNL     1      56.576  23.208  48.210  1.00  0.00    -0.000 C 
BRANCH  13  14
ATOM     14  C   UNL     1      56.268  24.260  47.134  1.00  0.00    -0.000 C 
BRANCH  14  15
ATOM     15  C   UNL     1      54.781  24.644  47.087  1.00  0.00    -0.000 C 
BRANCH  15  16
ATOM     16  C   UNL     1      53.974  24.021  48.239  1.00  0.00    -0.000 C 
BRANCH  16  17
ATOM     17  C   UNL     1      53.564  25.057  49.298  1.00  0.00    -0.003 C 
ATOM     18  C   UNL     1      53.127  24.418  50.616  1.00  0.00     0.004 C 
ENDBRANCH  16  17
ENDBRANCH  15  16
ENDBRANCH  14  15
ENDBRANCH  13  14
ENDBRANCH  12  13
ENDBRANCH  11  12
ENDBRANCH   1  11
TORSDOF 14
ENDMDL
MODEL 4
REMARK VINA RESULT:    -4.398      1.971      2.532
REMARK INTER + INTRA:          -9.869
REMARK INTER:                  -7.930
REMARK INTRA:                  -1.939
REMARK UNBOUND:                -1.872
REMARK SMILES CCCCCCCCCCCCCCCC(=O)[O-]
REMARK SMILES IDX 9 1 10 2 11 3 12 4 13 5 14 6 15 7 16 8 17 9 18 10 8 11 7 12
REMARK SMILES IDX 6 13 5 14 4 15 3 16 2 17 1 18
REMARK H PARENT
REMARK Flexibility Score: inf
ROOT
ATOM      1  C   UNL     1      53.376  24.357  50.291  1.00  0.00     0.000 C 
ENDROOT
BRANCH   1   2
ATOM      2  C   UNL     1      54.118  25.042  51.453  1.00  0.00     0.000 C 
BRANCH   2   3
ATOM      3  C   UNL     1      55.643  24.861  51.373  1.00  0.00     0.000 C 
BRANCH   3   4
ATOM      4  C   UNL     1      56.217  24.152  52.611  1.00  0.00     0.000 C 
BRANCH   4   5
ATOM      5  C   UNL     1      55.153  23.347  53.377  1.00  0.00     0.000 C 
BRANCH   5   6
ATOM      6  C   UNL     1      55.175  21.851  53.024  1.00  0.00     0.006 C 
BRANCH   6   7
ATOM      7  C   UNL     1      53.830  21.369  52.464  1.00  0.00     0.053 C 
BRANCH   7   8
ATOM      8  C   UNL     1      52.806  21.194  53.544  1.00  0.00     0.041 C 
ATOM      9  O   UNL     1      53.016  20.393  54.493  1.00  0.00    -0.550 OA
ATOM     10  O   UNL     1      51.634  21.940  53.519  1.00  0.00    -0.550 OA
ENDBRANCH   7   8
ENDBRANCH   6   7
ENDBRANCH   5   6
ENDBRANCH   4   5
ENDBRANCH   3   4
ENDBRANCH   2   3
ENDBRANCH   1   2
BRANCH   1  11
ATOM     11  C   UNL     1      53.525  25.118  48.965  1.00  0.00     0.000 C 
BRANCH  11  12
ATOM     12  C   UNL     1      53.896  24.197  47.794  1.00  0.00    -0.000 C 
BRANCH  12  13
ATOM     13  C   UNL     1      55.207  24.646  47.135  1.00  0.00    -0.000 C 
BRANCH  13  14
ATOM     14  C   UNL     1      56.420  24.036  47.854  1.00  0.00    -0.000 C 
BRANCH  14  15
ATOM     15  C   UNL     1      56.334  22.506  47.970  1.00  0.00    -0.000 C 
BRANCH  15  16
ATOM     16  C   UNL     1      55.983  22.041  49.393  1.00  0.00    -0.000 C 
BRANCH  16  17
ATOM     17  C   UNL     1      55.770  20.521  49.479  1.00  0.00    -0.003 C 
ATOM     18  C   UNL     1      56.550  19.751  48.415  1.00  0.00     0.004 C 
ENDBRANCH  16  17
ENDBRANCH  15  16
ENDBRANCH  14  15
ENDBRANCH  13  14
ENDBRANCH  12  13
ENDBRANCH  11  12
ENDBRANCH   1  11
TORSDOF 14
ENDMDL
MODEL 5
REMARK VINA RESULT:    -4.363      1.895      2.518
REMARK INTER + INTRA:          -9.806
REMARK INTER:                  -7.828
REMARK INTRA:                  -1.978
REMARK UNBOUND:                -1.872
REMARK SMILES CCCCCCCCCCCCCCCC(=O)[O-]
REMARK SMILES IDX 9 1 10 2 11 3 12 4 13 5 14 6 15 7 16 8 17 9 18 10 8 11 7 12
REMARK SMILES IDX 6 13 5 14 4 15 3 16 2 17 1 18
REMARK H PARENT
REMARK Flexibility Score: inf
ROOT
ATOM      1  C   UNL     1      54.112  24.570  51.404  1.00  0.00     0.000 C 
ENDROOT
BRANCH   1   2
ATOM      2  C   UNL     1      55.631  24.686  51.628  1.00  0.00     0.000 C 
BRANCH   2   3
ATOM      3  C   UNL     1      56.099  23.972  52.907  1.00  0.00     0.000 C 
BRANCH   3   4
ATOM      4  C   UNL     1      56.665  22.570  52.625  1.00  0.00     0.000 C 
BRANCH   4   5
ATOM      5  C   UNL     1      56.032  21.487  53.515  1.00  0.00     0.000 C 
BRANCH   5   6
ATOM      6  C   UNL     1      54.683  21.924  54.111  1.00  0.00     0.006 C 
BRANCH   6   7
ATOM      7  C   UNL     1      53.493  21.401  53.295  1.00  0.00     0.053 C 
BRANCH   7   8
ATOM      8  C   UNL     1      52.222  22.116  53.641  1.00  0.00     0.041 C 
ATOM      9  O   UNL     1      52.262  23.271  54.143  1.00  0.00    -0.550 OA
ATOM     10  O   UNL     1      50.995  21.520  53.379  1.00  0.00    -0.550 OA
ENDBRANCH   7   8
ENDBRANCH   6   7
ENDBRANCH   5   6
ENDBRANCH   4   5
ENDBRANCH   3   4
ENDBRANCH   2   3
ENDBRANCH   1   2
BRANCH   1  11
ATOM     11  C   UNL     1      53.705  24.871  49.953  1.00  0.00     0.000 C 
BRANCH  11  12
ATOM     12  C   UNL     1      53.671  23.611  49.076  1.00  0.00    -0.000 C 
BRANCH  12  13
ATOM     13  C   UNL     1      54.186  23.911  47.662  1.00  0.00    -0.000 C 
BRANCH  13  14
ATOM     14  C   UNL     1      55.717  24.028  47.647  1.00  0.00    -0.000 C 
BRANCH  14  15
ATOM     15  C   UNL     1      56.404  22.950  48.500  1.00  0.00    -0.000 C 
BRANCH  15  16
ATOM     16  C   UNL     1      56.765  21.695  47.687  1.00  0.00    -0.000 C 
BRANCH  16  17
ATOM     17  C   UNL     1      56.480  20.394  48.454  1.00  0.00    -0.003 C 
ATOM     18  C   UNL     1      55.659  20.622  49.724  1.00  0.00     0.004 C 
ENDBRANCH  16  17
ENDBRANCH  15  16
ENDBRANCH  14  15
ENDBRANCH  13  14
ENDBRANCH  12  13
ENDBRANCH  11  12
ENDBRANCH   1  11
TORSDOF 14
ENDMDL
MODEL 6
REMARK VINA RESULT:    -4.325      2.786      3.622
REMARK INTER + INTRA:          -9.736
REMARK INTER:                  -8.070
REMARK INTRA:                  -1.666
REMARK UNBOUND:                -1.872
REMARK SMILES CCCCCCCCCCCCCCCC(=O)[O-]
REMARK SMILES IDX 9 1 10 2 11 3 12 4 13 5 14 6 15 7 16 8 17 9 18 10 8 11 7 12
REMARK SMILES IDX 6 13 5 14 4 15 3 16 2 17 1 18
REMARK H PARENT
REMARK Flexibility Score: inf
ROOT
ATOM      1  C   UNL     1      53.806  23.991  51.334  1.00  0.00     0.000 C 
ENDROOT
BRANCH   1   2
ATOM      2  C   UNL     1      55.023  23.140  51.738  1.00  0.00     0.000 C 
BRANCH   2   3
ATOM      3  C   UNL     1      54.641  21.702  52.126  1.00  0.00     0.000 C 
BRANCH   3   4
ATOM      4  C   UNL     1      54.731  21.459  53.643  1.00  0.00     0.000 C 
BRANCH   4   5
ATOM      5  C   UNL     1      53.418  21.790  54.373  1.00  0.00     0.000 C 
BRANCH   5   6
ATOM      6  C   UNL     1      52.180  21.241  53.645  1.00  0.00     0.006 C 
BRANCH   6   7
ATOM      7  C   UNL     1      51.181  22.349  53.288  1.00  0.00     0.053 C 
BRANCH   7   8
ATOM      8  C   UNL     1      49.915  22.236  54.082  1.00  0.00     0.041 C 
ATOM      9  O   UNL     1      49.906  22.534  55.306  1.00  0.00    -0.550 OA
ATOM     10  O   UNL     1      48.739  21.833  53.463  1.00  0.00    -0.550 OA
ENDBRANCH   7   8
ENDBRANCH   6   7
ENDBRANCH   5   6
ENDBRANCH   4   5
ENDBRANCH   3   4
ENDBRANCH   2   3
ENDBRANCH   1   2
BRANCH   1  11
ATOM     11  C   UNL     1      53.394  23.774  49.870  1.00  0.00     0.000 C 
BRANCH  11  12
ATOM     12  C   UNL     1      53.911  24.883  48.941  1.00  0.00    -0.000 C 
BRANCH  12  13
ATOM     13  C   UNL     1      54.152  24.345  47.524  1.00  0.00    -0.000 C 
BRANCH  13  14
ATOM     14  C   UNL     1      55.622  24.519  47.113  1.00  0.00    -0.000 C 
BRANCH  14  15
ATOM     15  C   UNL     1      56.593  23.791  48.057  1.00  0.00    -0.000 C 
BRANCH  15  16
ATOM     16  C   UNL     1      56.749  22.301  47.709  1.00  0.00    -0.000 C 
BRANCH  16  17
ATOM     17  C   UNL     1      56.083  21.382  48.745  1.00  0.00    -0.003 C 
ATOM     18  C   UNL     1      56.388  19.903  48.509  1.00  0.00     0.004 C 
ENDBRANCH  16  17
ENDBRANCH  15  16
ENDBRANCH  14  15
ENDBRANCH  13  14
ENDBRANCH  12  13
ENDBRANCH  11  12
ENDBRANCH   1  11
TORSDOF 14
ENDMDL
MODEL 7
REMARK VINA RESULT:    -4.280      2.921      5.534
REMARK INTER + INTRA:          -9.655
REMARK INTER:                  -8.023
REMARK INTRA:                  -1.631
REMARK UNBOUND:                -1.872
REMARK SMILES CCCCCCCCCCCCCCCC(=O)[O-]
REMARK SMILES IDX 9 1 10 2 11 3 12 4 13 5 14 6 15 7 16 8 17 9 18 10 8 11 7 12
REMARK SMILES IDX 6 13 5 14 4 15 3 16 2 17 1 18
REMARK H PARENT
REMARK Flexibility Score: inf
ROOT
ATOM      1  C   UNL     1      53.754  24.509  47.736  1.00  0.00     0.000 C 
ENDROOT
BRANCH   1   2
ATOM      2  C   UNL     1      55.039  24.859  46.965  1.00  0.00     0.000 C 
BRANCH   2   3
ATOM      3  C   UNL     1      56.311  24.638  47.799  1.00  0.00     0.000 C 
BRANCH   3   4
ATOM      4  C   UNL     1      57.190  23.504  47.243  1.00  0.00     0.000 C 
BRANCH   4   5
ATOM      5  C   UNL     1      56.666  22.109  47.626  1.00  0.00     0.000 C 
BRANCH   5   6
ATOM      6  C   UNL     1      56.133  22.052  49.068  1.00  0.00     0.006 C 
BRANCH   6   7
ATOM      7  C   UNL     1      55.694  20.636  49.466  1.00  0.00     0.053 C 
BRANCH   7   8
ATOM      8  C   UNL     1      56.441  19.585  48.704  1.00  0.00     0.041 C 
ATOM      9  O   UNL     1      57.670  19.405  48.912  1.00  0.00    -0.550 OA
ATOM     10  O   UNL     1      55.773  18.783  47.787  1.00  0.00    -0.550 OA
ENDBRANCH   7   8
ENDBRANCH   6   7
ENDBRANCH   5   6
ENDBRANCH   4   5
ENDBRANCH   3   4
ENDBRANCH   2   3
ENDBRANCH   1   2
BRANCH   1  11
ATOM     11  C   UNL     1      53.757  25.061  49.170  1.00  0.00     0.000 C 
BRANCH  11  12
ATOM     12  C   UNL     1      53.108  24.098  50.175  1.00  0.00    -0.000 C 
BRANCH  12  13
ATOM     13  C   UNL     1      54.067  23.780  51.330  1.00  0.00    -0.000 C 
BRANCH  13  14
ATOM     14  C   UNL     1      53.291  23.487  52.624  1.00  0.00    -0.000 C 
BRANCH  14  15
ATOM     15  C   UNL     1      54.086  22.613  53.608  1.00  0.00    -0.000 C 
BRANCH  15  16
ATOM     16  C   UNL     1      54.863  21.488  52.904  1.00  0.00    -0.000 C 
BRANCH  16  17
ATOM     17  C   UNL     1      56.342  21.447  53.318  1.00  0.00    -0.003 C 
ATOM     18  C   UNL     1      57.012  22.820  53.268  1.00  0.00     0.004 C 
ENDBRANCH  16  17
ENDBRANCH  15  16
ENDBRANCH  14  15
ENDBRANCH  13  14
ENDBRANCH  12  13
ENDBRANCH  11  12
ENDBRANCH   1  11
TORSDOF 14
ENDMDL
MODEL 8
REMARK VINA RESULT:    -4.242      3.921      5.063
REMARK INTER + INTRA:          -9.585
REMARK INTER:                  -8.134
REMARK INTRA:                  -1.452
REMARK UNBOUND:                -1.872
REMARK SMILES CCCCCCCCCCCCCCCC(=O)[O-]
REMARK SMILES IDX 9 1 10 2 11 3 12 4 13 5 14 6 15 7 16 8 17 9 18 10 8 11 7 12
REMARK SMILES IDX 6 13 5 14 4 15 3 16 2 17 1 18
REMARK H PARENT
REMARK Flexibility Score: inf
ROOT
ATOM      1  C   UNL     1      54.704  22.865  52.467  1.00  0.00     0.000 C 
ENDROOT
BRANCH   1   2
ATOM      2  C   UNL     1      53.622  21.769  52.455  1.00  0.00     0.000 C 
BRANCH   2   3
ATOM      3  C   UNL     1      53.157  21.379  53.868  1.00  0.00     0.000 C 
BRANCH   3   4
ATOM      4  C   UNL     1      51.624  21.313  53.985  1.00  0.00     0.000 C 
BRANCH   4   5
ATOM      5  C   UNL     1      50.919  22.361  53.107  1.00  0.00     0.000 C 
BRANCH   5   6
ATOM      6  C   UNL     1      49.387  22.237  53.152  1.00  0.00     0.006 C 
BRANCH   6   7
ATOM      7  C   UNL     1      48.770  23.096  54.265  1.00  0.00     0.053 C 
BRANCH   7   8
ATOM      8  C   UNL     1      47.789  22.320  55.090  1.00  0.00     0.041 C 
ATOM      9  O   UNL     1      47.022  22.918  55.891  1.00  0.00    -0.550 OA
ATOM     10  O   UNL     1      47.701  20.941  54.953  1.00  0.00    -0.550 OA
ENDBRANCH   7   8
ENDBRANCH   6   7
ENDBRANCH   5   6
ENDBRANCH   4   5
ENDBRANCH   3   4
ENDBRANCH   2   3
ENDBRANCH   1   2
BRANCH   1  11
ATOM     11  C   UNL     1      54.231  24.168  51.804  1.00  0.00     0.000 C 
BRANCH  11  12
ATOM     12  C   UNL     1      53.167  23.929  50.724  1.00  0.00    -0.000 C 
BRANCH  12  13
ATOM     13  C   UNL     1      53.576  24.579  49.395  1.00  0.00    -0.000 C 
BRANCH  13  14
ATOM     14  C   UNL     1      54.042  23.520  48.385  1.00  0.00    -0.000 C 
BRANCH  14  15
ATOM     15  C   UNL     1      55.483  23.753  47.902  1.00  0.00    -0.000 C 
BRANCH  15  16
ATOM     16  C   UNL     1      56.359  22.496  48.032  1.00  0.00    -0.000 C 
BRANCH  16  17
ATOM     17  C   UNL     1      55.879  21.557  49.149  1.00  0.00    -0.003 C 
ATOM     18  C   UNL     1      56.215  20.091  48.879  1.00  0.00     0.004 C 
ENDBRANCH  16  17
ENDBRANCH  15  16
ENDBRANCH  14  15
ENDBRANCH  13  14
ENDBRANCH  12  13
ENDBRANCH  11  12
ENDBRANCH   1  11
TORSDOF 14
ENDMDL
MODEL 9
REMARK VINA RESULT:    -4.203      2.136      2.883
REMARK INTER + INTRA:          -9.514
REMARK INTER:                  -7.954
REMARK INTRA:                  -1.560
REMARK UNBOUND:                -1.872
REMARK SMILES CCCCCCCCCCCCCCCC(=O)[O-]
REMARK SMILES IDX 9 1 10 2 11 3 12 4 13 5 14 6 15 7 16 8 17 9 18 10 8 11 7 12
REMARK SMILES IDX 6 13 5 14 4 15 3 16 2 17 1 18
REMARK H PARENT
REMARK Flexibility Score: inf
ROOT
ATOM      1  C   UNL     1      54.297  22.749  51.124  1.00  0.00     0.000 C 
ENDROOT
BRANCH   1   2
ATOM      2  C   UNL     1      55.689  22.851  51.775  1.00  0.00     0.000 C 
BRANCH   2   3
ATOM      3  C   UNL     1      56.200  21.499  52.299  1.00  0.00     0.000 C 
BRANCH   3   4
ATOM      4  C   UNL     1      56.615  21.560  53.779  1.00  0.00     0.000 C 
BRANCH   4   5
ATOM      5  C   UNL     1      55.430  21.341  54.734  1.00  0.00     0.000 C 
BRANCH   5   6
ATOM      6  C   UNL     1      54.493  22.559  54.805  1.00  0.00     0.006 C 
BRANCH   6   7
ATOM      7  C   UNL     1      53.052  22.160  55.151  1.00  0.00     0.053 C 
BRANCH   7   8
ATOM      8  C   UNL     1      52.260  21.811  53.927  1.00  0.00     0.041 C 
ATOM      9  O   UNL     1      51.452  22.644  53.437  1.00  0.00    -0.550 OA
ATOM     10  O   UNL     1      52.438  20.579  53.310  1.00  0.00    -0.550 OA
ENDBRANCH   7   8
ENDBRANCH   6   7
ENDBRANCH   5   6
ENDBRANCH   4   5
ENDBRANCH   3   4
ENDBRANCH   2   3
ENDBRANCH   1   2
BRANCH   1  11
ATOM     11  C   UNL     1      53.583  24.108  51.043  1.00  0.00     0.000 C 
BRANCH  11  12
ATOM     12  C   UNL     1      53.731  24.771  49.666  1.00  0.00    -0.000 C 
BRANCH  12  13
ATOM     13  C   UNL     1      53.756  23.719  48.549  1.00  0.00    -0.000 C 
BRANCH  13  14
ATOM     14  C   UNL     1      54.932  23.963  47.590  1.00  0.00    -0.000 C 
BRANCH  14  15
ATOM     15  C   UNL     1      56.285  23.558  48.195  1.00  0.00    -0.000 C 
BRANCH  15  16
ATOM     16  C   UNL     1      56.726  22.148  47.764  1.00  0.00    -0.000 C 
BRANCH  16  17
ATOM     17  C   UNL     1      56.142  21.049  48.665  1.00  0.00    -0.003 C 
ATOM     18  C   UNL     1      56.835  19.699  48.481  1.00  0.00     0.004 C 
ENDBRANCH  16  17
ENDBRANCH  15  16
ENDBRANCH  14  15
ENDBRANCH  13  14
ENDBRANCH  12  13
ENDBRANCH  11  12
ENDBRANCH   1  11
TORSDOF 14
ENDMDL
