MODEL 1
REMARK VINA RESULT:    -3.275      0.000      0.000
REMARK INTER + INTRA:          -4.427
REMARK INTER:                  -4.233
REMARK INTRA:                  -0.194
REMARK UNBOUND:                -0.194
REMARK SMILES CCCCCCC(=O)[O-]
REMARK SMILES IDX 5 1 6 2 7 3 8 4 9 5 4 6 3 7 2 8 1 9
REMARK H PARENT
REMARK Flexibility Score: inf
ROOT
ATOM      1  C   UNL     1     -16.976  21.720  43.396  1.00  0.00     0.006 C 
ENDROOT
BRANCH   1   2
ATOM      2  C   UNL     1     -18.038  22.418  42.541  1.00  0.00     0.053 C 
BRANCH   2   3
ATOM      3  C   UNL     1     -17.711  23.870  42.382  1.00  0.00     0.041 C 
ATOM      4  O   UNL     1     -18.607  24.686  42.043  1.00  0.00    -0.550 OA
ATOM      5  O   UNL     1     -16.406  24.313  42.559  1.00  0.00    -0.550 OA
ENDBRANCH   2   3
ENDBRANCH   1   2
BRANCH   1   6
ATOM      6  C   UNL     1     -17.609  20.647  44.290  1.00  0.00     0.000 C 
BRANCH   6   7
ATOM      7  C   UNL     1     -18.783  21.221  45.092  1.00  0.00    -0.000 C 
BRANCH   7   8
ATOM      8  C   UNL     1     -19.410  20.150  45.993  1.00  0.00    -0.003 C 
ATOM      9  C   UNL     1     -18.647  18.833  45.895  1.00  0.00     0.004 C 
ENDBRANCH   7   8
ENDBRANCH   6   7
ENDBRANCH   1   6
TORSDOF 5
ENDMDL
MODEL 2
REMARK VINA RESULT:    -3.243      1.293      1.864
REMARK INTER + INTRA:          -4.384
REMARK INTER:                  -4.162
REMARK INTRA:                  -0.222
REMARK UNBOUND:                -0.194
REMARK SMILES CCCCCCC(=O)[O-]
REMARK SMILES IDX 5 1 6 2 7 3 8 4 9 5 4 6 3 7 2 8 1 9
REMARK H PARENT
REMARK Flexibility Score: inf
ROOT
ATOM      1  C   UNL     1     -18.067  22.460  42.466  1.00  0.00     0.006 C 
ENDROOT
BRANCH   1   2
ATOM      2  C   UNL     1     -17.742  23.939  42.238  1.00  0.00     0.053 C 
BRANCH   2   3
ATOM      3  C   UNL     1     -18.938  24.790  42.531  1.00  0.00     0.041 C 
ATOM      4  O   UNL     1     -19.238  25.744  41.766  1.00  0.00    -0.550 OA
ATOM      5  O   UNL     1     -19.692  24.561  43.675  1.00  0.00    -0.550 OA
ENDBRANCH   2   3
ENDBRANCH   1   2
BRANCH   1   6
ATOM      6  C   UNL     1     -17.006  21.794  43.349  1.00  0.00     0.000 C 
BRANCH   6   7
ATOM      7  C   UNL     1     -17.634  20.731  44.259  1.00  0.00    -0.000 C 
BRANCH   7   8
ATOM      8  C   UNL     1     -18.761  21.329  45.108  1.00  0.00    -0.003 C 
ATOM      9  C   UNL     1     -19.460  20.254  45.934  1.00  0.00     0.004 C 
ENDBRANCH   7   8
ENDBRANCH   6   7
ENDBRANCH   1   6
TORSDOF 5
ENDMDL
MODEL 3
REMARK VINA RESULT:    -3.158      0.561      1.464
REMARK INTER + INTRA:          -4.275
REMARK INTER:                  -4.121
REMARK INTRA:                  -0.154
REMARK UNBOUND:                -0.194
REMARK SMILES CCCCCCC(=O)[O-]
REMARK SMILES IDX 5 1 6 2 7 3 8 4 9 5 4 6 3 7 2 8 1 9
REMARK H PARENT
REMARK Flexibility Score: inf
ROOT
ATOM      1  C   UNL     1     -16.975  21.698  43.305  1.00  0.00     0.006 C 
ENDROOT
BRANCH   1   2
ATOM      2  C   UNL     1     -18.067  22.394  42.486  1.00  0.00     0.053 C 
BRANCH   2   3
ATOM      3  C   UNL     1     -17.780  23.858  42.369  1.00  0.00     0.041 C 
ATOM      4  O   UNL     1     -16.617  24.294  42.574  1.00  0.00    -0.550 OA
ATOM      5  O   UNL     1     -18.807  24.748  42.082  1.00  0.00    -0.550 OA
ENDBRANCH   2   3
ENDBRANCH   1   2
BRANCH   1   6
ATOM      6  C   UNL     1     -17.583  20.688  44.284  1.00  0.00     0.000 C 
BRANCH   6   7
ATOM      7  C   UNL     1     -18.749  21.310  45.064  1.00  0.00    -0.000 C 
BRANCH   7   8
ATOM      8  C   UNL     1     -19.457  20.258  45.926  1.00  0.00    -0.003 C 
ATOM      9  C   UNL     1     -20.586  20.882  46.741  1.00  0.00     0.004 C 
ENDBRANCH   7   8
ENDBRANCH   6   7
ENDBRANCH   1   6
TORSDOF 5
ENDMDL
MODEL 4
REMARK VINA RESULT:    -2.938      1.455      2.129
REMARK INTER + INTRA:          -3.990
REMARK INTER:                  -3.822
REMARK INTRA:                  -0.168
REMARK UNBOUND:                -0.194
REMARK SMILES CCCCCCC(=O)[O-]
REMARK SMILES IDX 5 1 6 2 7 3 8 4 9 5 4 6 3 7 2 8 1 9
REMARK H PARENT
REMARK Flexibility Score: inf
ROOT
ATOM      1  C   UNL     1     -17.725  20.876  44.228  1.00  0.00     0.006 C 
ENDROOT
BRANCH   1   2
ATOM      2  C   UNL     1     -17.350  21.825  43.086  1.00  0.00     0.053 C 
BRANCH   2   3
ATOM      3  C   UNL     1     -15.935  22.291  43.235  1.00  0.00     0.041 C 
ATOM      4  O   UNL     1     -15.636  23.490  42.995  1.00  0.00    -0.550 OA
ATOM      5  O   UNL     1     -14.940  21.390  43.591  1.00  0.00    -0.550 OA
ENDBRANCH   2   3
ENDBRANCH   1   2
BRANCH   1   6
ATOM      6  C   UNL     1     -18.849  21.466  45.086  1.00  0.00     0.000 C 
BRANCH   6   7
ATOM      7  C   UNL     1     -19.494  20.388  45.967  1.00  0.00    -0.000 C 
BRANCH   7   8
ATOM      8  C   UNL     1     -18.715  19.070  45.882  1.00  0.00    -0.003 C 
ATOM      9  C   UNL     1     -19.400  17.972  46.690  1.00  0.00     0.004 C 
ENDBRANCH   7   8
ENDBRANCH   6   7
ENDBRANCH   1   6
TORSDOF 5
ENDMDL
MODEL 5
REMARK VINA RESULT:    -2.931      2.323      4.201
REMARK INTER + INTRA:          -3.981
REMARK INTER:                  -3.714
REMARK INTRA:                  -0.267
REMARK UNBOUND:                -0.194
REMARK SMILES CCCCCCC(=O)[O-]
REMARK SMILES IDX 5 1 6 2 7 3 8 4 9 5 4 6 3 7 2 8 1 9
REMARK H PARENT
REMARK Flexibility Score: inf
ROOT
ATOM      1  C   UNL     1     -17.862  22.101  43.058  1.00  0.00     0.006 C 
ENDROOT
BRANCH   1   2
ATOM      2  C   UNL     1     -16.712  21.300  43.674  1.00  0.00     0.053 C 
BRANCH   2   3
ATOM      3  C   UNL     1     -15.406  21.990  43.436  1.00  0.00     0.041 C 
ATOM      4  O   UNL     1     -15.385  23.170  42.998  1.00  0.00    -0.550 OA
ATOM      5  O   UNL     1     -14.212  21.314  43.651  1.00  0.00    -0.550 OA
ENDBRANCH   2   3
ENDBRANCH   1   2
BRANCH   1   6
ATOM      6  C   UNL     1     -18.733  22.738  44.147  1.00  0.00     0.000 C 
BRANCH   6   7
ATOM      7  C   UNL     1     -19.032  24.208  43.824  1.00  0.00    -0.000 C 
BRANCH   7   8
ATOM      8  C   UNL     1     -18.797  24.503  42.338  1.00  0.00    -0.003 C 
ATOM      9  C   UNL     1     -19.177  25.941  41.995  1.00  0.00     0.004 C 
ENDBRANCH   7   8
ENDBRANCH   6   7
ENDBRANCH   1   6
TORSDOF 5
ENDMDL
MODEL 6
REMARK VINA RESULT:    -2.919      2.693      3.321
REMARK INTER + INTRA:          -3.966
REMARK INTER:                  -3.798
REMARK INTRA:                  -0.167
REMARK UNBOUND:                -0.194
REMARK SMILES CCCCCCC(=O)[O-]
REMARK SMILES IDX 5 1 6 2 7 3 8 4 9 5 4 6 3 7 2 8 1 9
REMARK H PARENT
REMARK Flexibility Score: inf
ROOT
ATOM      1  C   UNL     1     -16.066  21.019  44.329  1.00  0.00     0.006 C 
ENDROOT
BRANCH   1   2
ATOM      2  C   UNL     1     -15.436  21.993  43.331  1.00  0.00     0.053 C 
BRANCH   2   3
ATOM      3  C   UNL     1     -13.943  21.926  43.404  1.00  0.00     0.041 C 
ATOM      4  O   UNL     1     -13.240  22.758  42.772  1.00  0.00    -0.550 OA
ATOM      5  O   UNL     1     -13.327  20.914  44.129  1.00  0.00    -0.550 OA
ENDBRANCH   2   3
ENDBRANCH   1   2
BRANCH   1   6
ATOM      6  C   UNL     1     -17.563  20.838  44.051  1.00  0.00     0.000 C 
BRANCH   6   7
ATOM      7  C   UNL     1     -18.210  19.918  45.094  1.00  0.00    -0.000 C 
BRANCH   7   8
ATOM      8  C   UNL     1     -19.385  20.616  45.789  1.00  0.00    -0.003 C 
ATOM      9  C   UNL     1     -19.505  22.070  45.343  1.00  0.00     0.004 C 
ENDBRANCH   7   8
ENDBRANCH   6   7
ENDBRANCH   1   6
TORSDOF 5
ENDMDL
MODEL 7
REMARK VINA RESULT:    -2.904      1.881      2.736
REMARK INTER + INTRA:          -3.946
REMARK INTER:                  -3.676
REMARK INTRA:                  -0.270
REMARK UNBOUND:                -0.194
REMARK SMILES CCCCCCC(=O)[O-]
REMARK SMILES IDX 5 1 6 2 7 3 8 4 9 5 4 6 3 7 2 8 1 9
REMARK H PARENT
REMARK Flexibility Score: inf
ROOT
ATOM      1  C   UNL     1     -17.383  23.999  42.486  1.00  0.00     0.006 C 
ENDROOT
BRANCH   1   2
ATOM      2  C   UNL     1     -16.165  24.073  43.411  1.00  0.00     0.053 C 
BRANCH   2   3
ATOM      3  C   UNL     1     -14.942  23.571  42.708  1.00  0.00     0.041 C 
ATOM      4  O   UNL     1     -14.510  22.412  42.941  1.00  0.00    -0.550 OA
ATOM      5  O   UNL     1     -14.253  24.401  41.833  1.00  0.00    -0.550 OA
ENDBRANCH   2   3
ENDBRANCH   1   2
BRANCH   1   6
ATOM      6  C   UNL     1     -17.999  22.596  42.499  1.00  0.00     0.000 C 
BRANCH   6   7
ATOM      7  C   UNL     1     -18.209  22.100  43.936  1.00  0.00    -0.000 C 
BRANCH   7   8
ATOM      8  C   UNL     1     -17.604  20.705  44.130  1.00  0.00    -0.003 C 
ATOM      9  C   UNL     1     -18.352  19.925  45.207  1.00  0.00     0.004 C 
ENDBRANCH   7   8
ENDBRANCH   6   7
ENDBRANCH   1   6
TORSDOF 5
ENDMDL
MODEL 8
REMARK VINA RESULT:    -2.901      2.466      3.752
REMARK INTER + INTRA:          -3.943
REMARK INTER:                  -3.661
REMARK INTRA:                  -0.281
REMARK UNBOUND:                -0.194
REMARK SMILES CCCCCCC(=O)[O-]
REMARK SMILES IDX 5 1 6 2 7 3 8 4 9 5 4 6 3 7 2 8 1 9
REMARK H PARENT
REMARK Flexibility Score: inf
ROOT
ATOM      1  C   UNL     1     -18.034  22.410  42.509  1.00  0.00     0.006 C 
ENDROOT
BRANCH   1   2
ATOM      2  C   UNL     1     -17.685  23.882  42.268  1.00  0.00     0.053 C 
BRANCH   2   3
ATOM      3  C   UNL     1     -18.857  24.757  42.582  1.00  0.00     0.041 C 
ATOM      4  O   UNL     1     -19.564  24.527  43.599  1.00  0.00    -0.550 OA
ATOM      5  O   UNL     1     -19.200  25.796  41.727  1.00  0.00    -0.550 OA
ENDBRANCH   2   3
ENDBRANCH   1   2
BRANCH   1   6
ATOM      6  C   UNL     1     -16.952  21.719  43.346  1.00  0.00     0.000 C 
BRANCH   6   7
ATOM      7  C   UNL     1     -15.802  22.683  43.664  1.00  0.00    -0.000 C 
BRANCH   7   8
ATOM      8  C   UNL     1     -14.450  22.075  43.272  1.00  0.00    -0.003 C 
ATOM      9  C   UNL     1     -13.706  22.973  42.290  1.00  0.00     0.004 C 
ENDBRANCH   7   8
ENDBRANCH   6   7
ENDBRANCH   1   6
TORSDOF 5
ENDMDL
MODEL 9
REMARK VINA RESULT:    -2.898      2.392      3.805
REMARK INTER + INTRA:          -3.938
REMARK INTER:                  -3.628
REMARK INTRA:                  -0.311
REMARK UNBOUND:                -0.194
REMARK SMILES CCCCCCC(=O)[O-]
REMARK SMILES IDX 5 1 6 2 7 3 8 4 9 5 4 6 3 7 2 8 1 9
REMARK H PARENT
REMARK Flexibility Score: inf
ROOT
ATOM      1  C   UNL     1     -16.182  21.986  44.205  1.00  0.00     0.006 C 
ENDROOT
BRANCH   1   2
ATOM      2  C   UNL     1     -14.903  21.756  43.394  1.00  0.00     0.053 C 
BRANCH   2   3
ATOM      3  C   UNL     1     -14.372  23.056  42.875  1.00  0.00     0.041 C 
ATOM      4  O   UNL     1     -14.877  24.144  43.258  1.00  0.00    -0.550 OA
ATOM      5  O   UNL     1     -13.352  23.063  41.932  1.00  0.00    -0.550 OA
ENDBRANCH   2   3
ENDBRANCH   1   2
BRANCH   1   6
ATOM      6  C   UNL     1     -17.398  21.379  43.495  1.00  0.00     0.000 C 
BRANCH   6   7
ATOM      7  C   UNL     1     -18.024  22.383  42.519  1.00  0.00    -0.000 C 
BRANCH   7   8
ATOM      8  C   UNL     1     -18.454  23.662  43.245  1.00  0.00    -0.003 C 
ATOM      9  C   UNL     1     -18.832  24.758  42.254  1.00  0.00     0.004 C 
ENDBRANCH   7   8
ENDBRANCH   6   7
ENDBRANCH   1   6
TORSDOF 5
ENDMDL
