MODEL 1
REMARK VINA RESULT:    -4.368      0.000      0.000
REMARK INTER + INTRA:          -4.720
REMARK INTER:                  -4.623
REMARK INTRA:                  -0.097
REMARK UNBOUND:                -0.097
REMARK SMILES C=C(C)[C@@H]1CC=C(C)C(=O)C1
REMARK SMILES IDX 8 1 7 2 6 3 5 4 4 5 11 6 9 7 10 8 2 9 1 10 3 11
REMARK H PARENT
REMARK Flexibility Score: inf
ROOT
ATOM      1  C   UNL     1      15.364  22.810  25.637  1.00  0.00     0.048 C 
ATOM      2  C   UNL     1      16.576  23.328  26.363  1.00  0.00    -0.012 C 
ATOM      3  C   UNL     1      16.453  24.354  27.222  1.00  0.00    -0.019 C 
ATOM      4  C   UNL     1      17.629  24.900  27.988  1.00  0.00     0.036 C 
ATOM      5  C   UNL     1      18.928  24.780  27.168  1.00  0.00     0.025 C 
ATOM      6  C   UNL     1      19.147  23.322  26.724  1.00  0.00     0.089 C 
ATOM      7  C   UNL     1      17.920  22.789  26.036  1.00  0.00     0.158 C 
ATOM      8  O   UNL     1      18.042  21.851  25.203  1.00  0.00    -0.295 OA
ENDROOT
BRANCH   5   9
ATOM      9  C   UNL     1      20.128  25.320  27.935  1.00  0.00    -0.077 C 
ATOM     10  C   UNL     1      21.251  24.596  28.078  1.00  0.00     0.008 C 
ATOM     11  C   UNL     1      20.074  26.693  28.553  1.00  0.00     0.039 C 
ENDBRANCH   5   9
TORSDOF 1
ENDMDL
MODEL 2
REMARK VINA RESULT:    -4.333      1.648      2.656
REMARK INTER + INTRA:          -4.683
REMARK INTER:                  -4.586
REMARK INTRA:                  -0.097
REMARK UNBOUND:                -0.097
REMARK SMILES C=C(C)[C@@H]1CC=C(C)C(=O)C1
REMARK SMILES IDX 8 1 7 2 6 3 5 4 4 5 11 6 9 7 10 8 2 9 1 10 3 11
REMARK H PARENT
REMARK Flexibility Score: inf
ROOT
ATOM      1  C   UNL     1      18.015  22.125  25.803  1.00  0.00     0.048 C 
ATOM      2  C   UNL     1      18.683  23.324  26.419  1.00  0.00    -0.012 C 
ATOM      3  C   UNL     1      20.017  23.459  26.342  1.00  0.00    -0.019 C 
ATOM      4  C   UNL     1      20.734  24.647  26.926  1.00  0.00     0.036 C 
ATOM      5  C   UNL     1      20.015  25.165  28.187  1.00  0.00     0.025 C 
ATOM      6  C   UNL     1      18.539  25.471  27.871  1.00  0.00     0.089 C 
ATOM      7  C   UNL     1      17.882  24.287  27.215  1.00  0.00     0.158 C 
ATOM      8  O   UNL     1      16.634  24.142  27.319  1.00  0.00    -0.295 OA
ENDROOT
BRANCH   5   9
ATOM      9  C   UNL     1      20.724  26.374  28.782  1.00  0.00    -0.077 C 
ATOM     10  C   UNL     1      20.178  27.083  29.784  1.00  0.00     0.008 C 
ATOM     11  C   UNL     1      22.069  26.798  28.250  1.00  0.00     0.039 C 
ENDBRANCH   5   9
TORSDOF 1
ENDMDL
MODEL 3
REMARK VINA RESULT:    -4.286      2.856      4.802
REMARK INTER + INTRA:          -4.634
REMARK INTER:                  -4.541
REMARK INTRA:                  -0.093
REMARK UNBOUND:                -0.097
REMARK SMILES C=C(C)[C@@H]1CC=C(C)C(=O)C1
REMARK SMILES IDX 8 1 7 2 6 3 5 4 4 5 11 6 9 7 10 8 2 9 1 10 3 11
REMARK H PARENT
REMARK Flexibility Score: inf
ROOT
ATOM      1  C   UNL     1      19.897  28.045  30.254  1.00  0.00     0.048 C 
ATOM      2  C   UNL     1      19.886  27.047  29.129  1.00  0.00    -0.012 C 
ATOM      3  C   UNL     1      18.720  26.534  28.701  1.00  0.00    -0.019 C 
ATOM      4  C   UNL     1      18.651  25.545  27.568  1.00  0.00     0.036 C 
ATOM      5  C   UNL     1      19.903  24.649  27.535  1.00  0.00     0.025 C 
ATOM      6  C   UNL     1      21.177  25.513  27.479  1.00  0.00     0.089 C 
ATOM      7  C   UNL     1      21.168  26.540  28.578  1.00  0.00     0.158 C 
ATOM      8  O   UNL     1      22.265  26.994  29.003  1.00  0.00    -0.295 OA
ENDROOT
BRANCH   5   9
ATOM      9  C   UNL     1      19.850  23.650  26.386  1.00  0.00    -0.077 C 
ATOM     10  C   UNL     1      18.865  22.742  26.294  1.00  0.00     0.008 C 
ATOM     11  C   UNL     1      20.917  23.667  25.322  1.00  0.00     0.039 C 
ENDBRANCH   5   9
TORSDOF 1
ENDMDL
MODEL 4
REMARK VINA RESULT:    -4.279      2.619      4.711
REMARK INTER + INTRA:          -4.626
REMARK INTER:                  -4.531
REMARK INTRA:                  -0.094
REMARK UNBOUND:                -0.097
REMARK SMILES C=C(C)[C@@H]1CC=C(C)C(=O)C1
REMARK SMILES IDX 8 1 7 2 6 3 5 4 4 5 11 6 9 7 10 8 2 9 1 10 3 11
REMARK H PARENT
REMARK Flexibility Score: inf
ROOT
ATOM      1  C   UNL     1      19.676  28.101  30.334  1.00  0.00     0.048 C 
ATOM      2  C   UNL     1      19.675  26.910  29.416  1.00  0.00    -0.012 C 
ATOM      3  C   UNL     1      20.749  26.104  29.365  1.00  0.00    -0.019 C 
ATOM      4  C   UNL     1      20.794  24.888  28.478  1.00  0.00     0.036 C 
ATOM      5  C   UNL     1      19.982  25.113  27.188  1.00  0.00     0.025 C 
ATOM      6  C   UNL     1      18.541  25.532  27.530  1.00  0.00     0.089 C 
ATOM      7  C   UNL     1      18.541  26.697  28.482  1.00  0.00     0.158 C 
ATOM      8  O   UNL     1      17.547  27.473  28.503  1.00  0.00    -0.295 OA
ENDROOT
BRANCH   5   9
ATOM      9  C   UNL     1      20.011  23.886  26.285  1.00  0.00    -0.077 C 
ATOM     10  C   UNL     1      19.079  22.923  26.383  1.00  0.00     0.008 C 
ATOM     11  C   UNL     1      21.099  23.732  25.254  1.00  0.00     0.039 C 
ENDBRANCH   5   9
TORSDOF 1
ENDMDL
MODEL 5
REMARK VINA RESULT:    -4.255      1.921      2.613
REMARK INTER + INTRA:          -4.600
REMARK INTER:                  -4.507
REMARK INTRA:                  -0.094
REMARK UNBOUND:                -0.097
REMARK SMILES C=C(C)[C@@H]1CC=C(C)C(=O)C1
REMARK SMILES IDX 8 1 7 2 6 3 5 4 4 5 11 6 9 7 10 8 2 9 1 10 3 11
REMARK H PARENT
REMARK Flexibility Score: inf
ROOT
ATOM      1  C   UNL     1      14.735  23.065  27.170  1.00  0.00     0.048 C 
ATOM      2  C   UNL     1      16.180  23.419  26.945  1.00  0.00    -0.012 C 
ATOM      3  C   UNL     1      16.992  22.548  26.322  1.00  0.00    -0.019 C 
ATOM      4  C   UNL     1      18.441  22.858  26.056  1.00  0.00     0.036 C 
ATOM      5  C   UNL     1      19.032  23.748  27.167  1.00  0.00     0.025 C 
ATOM      6  C   UNL     1      18.184  25.022  27.337  1.00  0.00     0.089 C 
ATOM      7  C   UNL     1      16.733  24.671  27.519  1.00  0.00     0.158 C 
ATOM      8  O   UNL     1      15.980  25.473  28.136  1.00  0.00    -0.295 OA
ENDROOT
BRANCH   5   9
ATOM      9  C   UNL     1      20.495  24.078  26.904  1.00  0.00    -0.077 C 
ATOM     10  C   UNL     1      21.311  24.477  27.894  1.00  0.00     0.008 C 
ATOM     11  C   UNL     1      21.058  23.959  25.511  1.00  0.00     0.039 C 
ENDBRANCH   5   9
TORSDOF 1
ENDMDL
MODEL 6
REMARK VINA RESULT:    -4.239      1.735      4.595
REMARK INTER + INTRA:          -4.584
REMARK INTER:                  -4.489
REMARK INTRA:                  -0.095
REMARK UNBOUND:                -0.097
REMARK SMILES C=C(C)[C@@H]1CC=C(C)C(=O)C1
REMARK SMILES IDX 8 1 7 2 6 3 5 4 4 5 11 6 9 7 10 8 2 9 1 10 3 11
REMARK H PARENT
REMARK Flexibility Score: inf
ROOT
ATOM      1  C   UNL     1      21.449  27.054  28.893  1.00  0.00     0.048 C 
ATOM      2  C   UNL     1      20.222  26.435  28.281  1.00  0.00    -0.012 C 
ATOM      3  C   UNL     1      19.073  27.131  28.240  1.00  0.00    -0.019 C 
ATOM      4  C   UNL     1      17.820  26.566  27.623  1.00  0.00     0.036 C 
ATOM      5  C   UNL     1      17.748  25.039  27.812  1.00  0.00     0.025 C 
ATOM      6  C   UNL     1      19.021  24.372  27.261  1.00  0.00     0.089 C 
ATOM      7  C   UNL     1      20.250  25.018  27.839  1.00  0.00     0.158 C 
ATOM      8  O   UNL     1      21.318  24.352  27.911  1.00  0.00    -0.295 OA
ENDROOT
BRANCH   5   9
ATOM      9  C   UNL     1      16.490  24.454  27.185  1.00  0.00    -0.077 C 
ATOM     10  C   UNL     1      15.304  25.077  27.282  1.00  0.00     0.008 C 
ATOM     11  C   UNL     1      16.557  23.149  26.434  1.00  0.00     0.039 C 
ENDBRANCH   5   9
TORSDOF 1
ENDMDL
MODEL 7
REMARK VINA RESULT:    -4.217      1.933      2.861
REMARK INTER + INTRA:          -4.561
REMARK INTER:                  -4.464
REMARK INTRA:                  -0.097
REMARK UNBOUND:                -0.097
REMARK SMILES C=C(C)[C@@H]1CC=C(C)C(=O)C1
REMARK SMILES IDX 8 1 7 2 6 3 5 4 4 5 11 6 9 7 10 8 2 9 1 10 3 11
REMARK H PARENT
REMARK Flexibility Score: inf
ROOT
ATOM      1  C   UNL     1      18.358  22.294  25.992  1.00  0.00     0.048 C 
ATOM      2  C   UNL     1      18.272  23.596  26.740  1.00  0.00    -0.012 C 
ATOM      3  C   UNL     1      17.070  24.100  27.069  1.00  0.00    -0.019 C 
ATOM      4  C   UNL     1      16.927  25.390  27.832  1.00  0.00     0.036 C 
ATOM      5  C   UNL     1      18.064  26.370  27.484  1.00  0.00     0.025 C 
ATOM      6  C   UNL     1      19.433  25.703  27.715  1.00  0.00     0.089 C 
ATOM      7  C   UNL     1      19.504  24.380  27.003  1.00  0.00     0.158 C 
ATOM      8  O   UNL     1      20.630  23.926  26.663  1.00  0.00    -0.295 OA
ENDROOT
BRANCH   5   9
ATOM      9  C   UNL     1      17.937  27.676  28.257  1.00  0.00    -0.077 C 
ATOM     10  C   UNL     1      16.832  27.966  28.964  1.00  0.00     0.008 C 
ATOM     11  C   UNL     1      19.065  28.676  28.241  1.00  0.00     0.039 C 
ENDBRANCH   5   9
TORSDOF 1
ENDMDL
MODEL 8
REMARK VINA RESULT:    -4.175      2.353      5.003
REMARK INTER + INTRA:          -4.517
REMARK INTER:                  -4.419
REMARK INTRA:                  -0.098
REMARK UNBOUND:                -0.097
REMARK SMILES C=C(C)[C@@H]1CC=C(C)C(=O)C1
REMARK SMILES IDX 8 1 7 2 6 3 5 4 4 5 11 6 9 7 10 8 2 9 1 10 3 11
REMARK H PARENT
REMARK Flexibility Score: inf
ROOT
ATOM      1  C   UNL     1      21.994  26.858  28.598  1.00  0.00     0.048 C 
ATOM      2  C   UNL     1      20.837  25.947  28.294  1.00  0.00    -0.012 C 
ATOM      3  C   UNL     1      20.987  24.948  27.407  1.00  0.00    -0.019 C 
ATOM      4  C   UNL     1      19.867  23.996  27.080  1.00  0.00     0.036 C 
ATOM      5  C   UNL     1      18.498  24.698  27.171  1.00  0.00     0.025 C 
ATOM      6  C   UNL     1      18.324  25.349  28.555  1.00  0.00     0.089 C 
ATOM      7  C   UNL     1      19.501  26.227  28.879  1.00  0.00     0.158 C 
ATOM      8  O   UNL     1      19.350  27.186  29.683  1.00  0.00    -0.295 OA
ENDROOT
BRANCH   5   9
ATOM      9  C   UNL     1      17.355  23.743  26.851  1.00  0.00    -0.077 C 
ATOM     10  C   UNL     1      16.098  23.997  27.252  1.00  0.00     0.008 C 
ATOM     11  C   UNL     1      17.620  22.482  26.069  1.00  0.00     0.039 C 
ENDBRANCH   5   9
TORSDOF 1
ENDMDL
MODEL 9
REMARK VINA RESULT:    -4.042      2.905      4.499
REMARK INTER + INTRA:          -4.376
REMARK INTER:                  -4.280
REMARK INTRA:                  -0.096
REMARK UNBOUND:                -0.097
REMARK SMILES C=C(C)[C@@H]1CC=C(C)C(=O)C1
REMARK SMILES IDX 8 1 7 2 6 3 5 4 4 5 11 6 9 7 10 8 2 9 1 10 3 11
REMARK H PARENT
REMARK Flexibility Score: inf
ROOT
ATOM      1  C   UNL     1      19.853  24.000  27.077  1.00  0.00     0.048 C 
ATOM      2  C   UNL     1      19.570  25.338  27.703  1.00  0.00    -0.012 C 
ATOM      3  C   UNL     1      18.384  25.935  27.497  1.00  0.00    -0.019 C 
ATOM      4  C   UNL     1      18.041  27.265  28.114  1.00  0.00     0.036 C 
ATOM      5  C   UNL     1      19.294  28.150  28.255  1.00  0.00     0.025 C 
ATOM      6  C   UNL     1      20.388  27.406  29.042  1.00  0.00     0.089 C 
ATOM      7  C   UNL     1      20.642  26.050  28.442  1.00  0.00     0.158 C 
ATOM      8  O   UNL     1      21.768  25.507  28.606  1.00  0.00    -0.295 OA
ENDROOT
BRANCH   5   9
ATOM      9  C   UNL     1      18.964  29.496  28.887  1.00  0.00    -0.077 C 
ATOM     10  C   UNL     1      19.894  30.456  29.015  1.00  0.00     0.008 C 
ATOM     11  C   UNL     1      17.569  29.774  29.384  1.00  0.00     0.039 C 
ENDBRANCH   5   9
TORSDOF 1
ENDMDL
