MODEL 1
REMARK VINA RESULT:    -3.679      0.000      0.000
REMARK INTER + INTRA:          -6.182
REMARK INTER:                  -5.399
REMARK INTRA:                  -0.783
REMARK UNBOUND:                -0.783
REMARK SMILES C=C1C=C[C@@H](C(C)C)CCC(C)=CCC1
REMARK SMILES IDX 3 1 4 2 5 3 9 4 10 5 11 6 12 7 13 8 6 10 7 11 8 12 2 13 1 14
REMARK SMILES IDX 15 15 14 16
REMARK H PARENT
REMARK Flexibility Score: 70.00
ROOT
ATOM      1  C   UNL     1      30.768  11.796  28.324  1.00  0.00    -0.001 C 
ATOM      2  C   UNL     1      30.905  11.421  29.630  1.00  0.00    -0.023 C 
ENDROOT
BRANCH   2   3
ATOM      3  C   UNL     1      31.968  10.488  30.246  1.00  0.00     0.014 C 
BRANCH   3   4
ATOM      4  C   UNL     1      31.251   9.224  30.716  1.00  0.00     0.012 C 
BRANCH   4   5
ATOM      5  C   UNL     1      29.904   8.718  30.256  1.00  0.00     0.031 C 
BRANCH   5   6
ATOM      6  C   UNL     1      30.094   7.652  29.158  1.00  0.00    -0.077 C 
ATOM      7  C   UNL     1      30.166   6.218  29.622  1.00  0.00     0.039 C 
ATOM      8  C   UNL     1      30.236   7.877  27.804  1.00  0.00    -0.028 CG0
ATOM      9  G   UNL     1      30.069   9.176  26.997  1.00  0.00     0.000 G0
ENDBRANCH   5   6
ENDBRANCH   4   5
ENDBRANCH   3   4
BRANCH   3  10
ATOM     10  C   UNL     1      32.747  11.226  31.377  1.00  0.00    -0.010 C 
ATOM     11  C   UNL     1      32.090  12.563  31.756  1.00  0.00     0.008 C 
ATOM     12  C   UNL     1      32.862  10.348  32.636  1.00  0.00     0.008 C 
ENDBRANCH   3  10
ENDBRANCH   2   3
BRANCH   1  13
ATOM     13  C   UNL     1      31.565  11.318  27.147  1.00  0.00    -0.055 C 
ATOM     14  C   UNL     1      32.538  12.106  26.684  1.00  0.00     0.012 C 
BRANCH  13  15
ATOM     15  C   UNL     1      31.393   9.906  26.564  1.00  0.00     0.039 C 
BRANCH  15  16
ATOM     16  C   UNL     1      30.066   9.175  26.982  1.00  0.00     0.032 CG0
ATOM     17  G   UNL     1      30.223   7.873  27.788  1.00  0.00     0.000 G0
ENDBRANCH  15  16
ENDBRANCH  13  15
ENDBRANCH   1  13
TORSDOF 1
ENDMDL
MODEL 2
REMARK VINA RESULT:    -3.648      3.289      5.649
REMARK INTER + INTRA:          -6.137
REMARK INTER:                  -5.428
REMARK INTRA:                  -0.709
REMARK UNBOUND:                -0.783
REMARK SMILES C=C1C=C[C@@H](C(C)C)CCC(C)=CCC1
REMARK SMILES IDX 3 1 4 2 5 3 9 4 10 5 11 6 12 7 13 8 6 10 7 11 8 12 2 13 1 14
REMARK SMILES IDX 15 15 14 16
REMARK H PARENT
REMARK Flexibility Score: 70.00
ROOT
ATOM      1  C   UNL     1      31.679  11.391  34.701  1.00  0.00    -0.001 C 
ATOM      2  C   UNL     1      32.119  11.387  33.409  1.00  0.00    -0.023 C 
ENDROOT
BRANCH   2   3
ATOM      3  C   UNL     1      31.930  10.289  32.341  1.00  0.00     0.014 C 
BRANCH   3   4
ATOM      4  C   UNL     1      32.766   9.085  32.768  1.00  0.00     0.012 C 
BRANCH   4   5
ATOM      5  C   UNL     1      32.277   7.674  32.999  1.00  0.00     0.031 C 
BRANCH   5   6
ATOM      6  C   UNL     1      30.820   7.540  32.511  1.00  0.00    -0.077 C 
ATOM      7  C   UNL     1      30.630   7.045  31.099  1.00  0.00     0.039 C 
ATOM      8  C   UNL     1      29.679   7.856  33.220  1.00  0.00    -0.028 CG0
ATOM      9  G   UNL     1      29.513   8.239  34.701  1.00  0.00     0.000 G0
ENDBRANCH   5   6
ENDBRANCH   4   5
ENDBRANCH   3   4
BRANCH   3  10
ATOM     10  C   UNL     1      32.295  10.839  30.929  1.00  0.00    -0.010 C 
ATOM     11  C   UNL     1      31.208  10.530  29.886  1.00  0.00     0.008 C 
ATOM     12  C   UNL     1      32.533  12.359  30.971  1.00  0.00     0.008 C 
ENDBRANCH   3  10
ENDBRANCH   2   3
BRANCH   1  13
ATOM     13  C   UNL     1      30.977  10.284  35.431  1.00  0.00    -0.055 C 
ATOM     14  C   UNL     1      31.536   9.814  36.548  1.00  0.00     0.012 C 
BRANCH  13  15
ATOM     15  C   UNL     1      29.582   9.789  35.016  1.00  0.00     0.039 C 
BRANCH  15  16
ATOM     16  C   UNL     1      29.493   8.252  34.701  1.00  0.00     0.032 CG0
ATOM     17  G   UNL     1      29.685   7.838  33.231  1.00  0.00     0.000 G0
ENDBRANCH  15  16
ENDBRANCH  13  15
ENDBRANCH   1  13
TORSDOF 1
ENDMDL
MODEL 3
REMARK VINA RESULT:    -3.569      1.342      3.901
REMARK INTER + INTRA:          -6.022
REMARK INTER:                  -5.439
REMARK INTRA:                  -0.583
REMARK UNBOUND:                -0.783
REMARK SMILES C=C1C=C[C@@H](C(C)C)CCC(C)=CCC1
REMARK SMILES IDX 3 1 4 2 5 3 9 4 10 5 11 6 12 7 13 8 6 10 7 11 8 12 2 13 1 14
REMARK SMILES IDX 15 15 14 16
REMARK H PARENT
REMARK Flexibility Score: 70.00
ROOT
ATOM      1  C   UNL     1      32.363  10.881  30.762  1.00  0.00    -0.001 C 
ATOM      2  C   UNL     1      32.428  11.450  29.522  1.00  0.00    -0.023 C 
ENDROOT
BRANCH   2   3
ATOM      3  C   UNL     1      31.536  11.165  28.296  1.00  0.00     0.014 C 
BRANCH   3   4
ATOM      4  C   UNL     1      32.136   9.968  27.561  1.00  0.00     0.012 C 
BRANCH   4   5
ATOM      5  C   UNL     1      31.646   8.539  27.599  1.00  0.00     0.031 C 
BRANCH   5   6
ATOM      6  C   UNL     1      30.106   8.512  27.531  1.00  0.00    -0.077 C 
ATOM      7  C   UNL     1      29.496   8.505  26.152  1.00  0.00     0.039 C 
ATOM      8  C   UNL     1      29.232   8.526  28.599  1.00  0.00    -0.028 CG0
ATOM      9  G   UNL     1      29.513   8.390  30.106  1.00  0.00     0.000 G0
ENDBRANCH   5   6
ENDBRANCH   4   5
ENDBRANCH   3   4
BRANCH   3  10
ATOM     10  C   UNL     1      31.405  12.443  27.413  1.00  0.00    -0.010 C 
ATOM     11  C   UNL     1      31.935  12.221  25.987  1.00  0.00     0.008 C 
ATOM     12  C   UNL     1      29.942  12.916  27.337  1.00  0.00     0.008 C 
ENDBRANCH   3  10
ENDBRANCH   2   3
BRANCH   1  13
ATOM     13  C   UNL     1      31.463   9.769  31.211  1.00  0.00    -0.055 C 
ATOM     14  C   UNL     1      31.952   8.871  32.070  1.00  0.00     0.012 C 
BRANCH  13  15
ATOM     15  C   UNL     1      29.974   9.720  30.832  1.00  0.00     0.039 C 
BRANCH  15  16
ATOM     16  C   UNL     1      29.517   8.401  30.110  1.00  0.00     0.032 CG0
ATOM     17  G   UNL     1      29.212   8.511  28.606  1.00  0.00     0.000 G0
ENDBRANCH  15  16
ENDBRANCH  13  15
ENDBRANCH   1  13
TORSDOF 1
ENDMDL
MODEL 4
REMARK VINA RESULT:    -3.529      2.349      4.065
REMARK INTER + INTRA:          -5.963
REMARK INTER:                  -5.305
REMARK INTRA:                  -0.658
REMARK UNBOUND:                -0.783
REMARK SMILES C=C1C=C[C@@H](C(C)C)CCC(C)=CCC1
REMARK SMILES IDX 3 1 4 2 5 3 9 4 10 5 11 6 12 7 13 8 6 10 7 11 8 12 2 13 1 14
REMARK SMILES IDX 15 15 14 16
REMARK H PARENT
REMARK Flexibility Score: 70.00
ROOT
ATOM      1  C   UNL     1      29.244   9.588  30.458  1.00  0.00    -0.001 C 
ATOM      2  C   UNL     1      30.554   9.362  30.768  1.00  0.00    -0.023 C 
ENDROOT
BRANCH   2   3
ATOM      3  C   UNL     1      31.642  10.399  31.117  1.00  0.00     0.014 C 
BRANCH   3   4
ATOM      4  C   UNL     1      32.265  10.871  29.805  1.00  0.00     0.012 C 
BRANCH   4   5
ATOM      5  C   UNL     1      32.247  12.273  29.242  1.00  0.00     0.031 C 
BRANCH   5   6
ATOM      6  C   UNL     1      31.579  12.269  27.852  1.00  0.00    -0.077 C 
ATOM      7  C   UNL     1      32.471  11.938  26.682  1.00  0.00     0.039 C 
ATOM      8  C   UNL     1      30.263  12.567  27.568  1.00  0.00    -0.028 CG0
ATOM      9  G   UNL     1      29.076  12.799  28.520  1.00  0.00     0.000 G0
ENDBRANCH   5   6
ENDBRANCH   4   5
ENDBRANCH   3   4
BRANCH   3  10
ATOM     10  C   UNL     1      32.670   9.789  32.118  1.00  0.00    -0.010 C 
ATOM     11  C   UNL     1      33.052  10.777  33.233  1.00  0.00     0.008 C 
ATOM     12  C   UNL     1      32.124   8.499  32.755  1.00  0.00     0.008 C 
ENDBRANCH   3  10
ENDBRANCH   2   3
BRANCH   1  13
ATOM     13  C   UNL     1      28.557  10.911  30.294  1.00  0.00    -0.055 C 
ATOM     14  C   UNL     1      28.332  11.644  31.387  1.00  0.00     0.012 C 
BRANCH  13  15
ATOM     15  C   UNL     1      28.244  11.501  28.910  1.00  0.00     0.039 C 
BRANCH  15  16
ATOM     16  C   UNL     1      29.077  12.780  28.532  1.00  0.00     0.032 CG0
ATOM     17  G   UNL     1      30.255  12.571  27.563  1.00  0.00     0.000 G0
ENDBRANCH  15  16
ENDBRANCH  13  15
ENDBRANCH   1  13
TORSDOF 1
ENDMDL
MODEL 5
REMARK VINA RESULT:    -3.501      1.701      4.116
REMARK INTER + INTRA:          -5.922
REMARK INTER:                  -5.084
REMARK INTRA:                  -0.837
REMARK UNBOUND:                -0.783
REMARK SMILES C=C1C=C[C@@H](C(C)C)CCC(C)=CCC1
REMARK SMILES IDX 3 1 4 2 5 3 9 4 10 5 11 6 12 7 13 8 6 10 7 11 8 12 2 13 1 14
REMARK SMILES IDX 15 15 14 16
REMARK H PARENT
REMARK Flexibility Score: 70.00
ROOT
ATOM      1  C   UNL     1      29.314   8.917  28.131  1.00  0.00    -0.001 C 
ATOM      2  C   UNL     1      30.047  10.063  28.243  1.00  0.00    -0.023 C 
ENDROOT
BRANCH   2   3
ATOM      3  C   UNL     1      31.582  10.213  28.268  1.00  0.00     0.014 C 
BRANCH   3   4
ATOM      4  C   UNL     1      31.973  10.700  29.661  1.00  0.00     0.012 C 
BRANCH   4   5
ATOM      5  C   UNL     1      31.178  10.540  30.936  1.00  0.00     0.031 C 
BRANCH   5   6
ATOM      6  C   UNL     1      31.623   9.261  31.673  1.00  0.00    -0.077 C 
ATOM      7  C   UNL     1      32.760   9.413  32.651  1.00  0.00     0.039 C 
ATOM      8  C   UNL     1      31.109   7.991  31.505  1.00  0.00    -0.028 CG0
ATOM      9  G   UNL     1      29.876   7.522  30.713  1.00  0.00     0.000 G0
ENDBRANCH   5   6
ENDBRANCH   4   5
ENDBRANCH   3   4
BRANCH   3  10
ATOM     10  C   UNL     1      32.053  11.155  27.118  1.00  0.00    -0.010 C 
ATOM     11  C   UNL     1      31.276  10.912  25.814  1.00  0.00     0.008 C 
ATOM     12  C   UNL     1      31.911  12.634  27.520  1.00  0.00     0.008 C 
ENDBRANCH   3  10
ENDBRANCH   2   3
BRANCH   1  13
ATOM     13  C   UNL     1      29.822   7.506  28.094  1.00  0.00    -0.055 C 
ATOM     14  C   UNL     1      30.110   6.971  26.905  1.00  0.00     0.012 C 
BRANCH  13  15
ATOM     15  C   UNL     1      30.154   6.725  29.376  1.00  0.00     0.039 C 
BRANCH  15  16
ATOM     16  C   UNL     1      29.863   7.496  30.715  1.00  0.00     0.032 CG0
ATOM     17  G   UNL     1      31.088   7.992  31.503  1.00  0.00     0.000 G0
ENDBRANCH  15  16
ENDBRANCH  13  15
ENDBRANCH   1  13
TORSDOF 1
ENDMDL
MODEL 6
REMARK VINA RESULT:    -3.500      1.933      5.145
REMARK INTER + INTRA:          -5.920
REMARK INTER:                  -5.127
REMARK INTRA:                  -0.793
REMARK UNBOUND:                -0.783
REMARK SMILES C=C1C=C[C@@H](C(C)C)CCC(C)=CCC1
REMARK SMILES IDX 3 1 4 2 5 3 9 4 10 5 11 6 12 7 13 8 6 10 7 11 8 12 2 13 1 14
REMARK SMILES IDX 15 15 14 16
REMARK H PARENT
REMARK Flexibility Score: 70.00
ROOT
ATOM      1  C   UNL     1      30.136   9.043  31.592  1.00  0.00    -0.001 C 
ATOM      2  C   UNL     1      29.795   8.389  30.443  1.00  0.00    -0.023 C 
ENDROOT
BRANCH   2   3
ATOM      3  C   UNL     1      30.722   7.640  29.462  1.00  0.00     0.014 C 
BRANCH   3   4
ATOM      4  C   UNL     1      31.197   8.649  28.419  1.00  0.00     0.012 C 
BRANCH   4   5
ATOM      5  C   UNL     1      30.567   9.982  28.091  1.00  0.00     0.031 C 
BRANCH   5   6
ATOM      6  C   UNL     1      31.632  11.095  28.165  1.00  0.00    -0.077 C 
ATOM      7  C   UNL     1      32.186  11.580  26.849  1.00  0.00     0.039 C 
ATOM      8  C   UNL     1      32.149  11.668  29.309  1.00  0.00    -0.028 CG0
ATOM      9  G   UNL     1      31.710  11.512  30.776  1.00  0.00     0.000 G0
ENDBRANCH   5   6
ENDBRANCH   4   5
ENDBRANCH   3   4
BRANCH   3  10
ATOM     10  C   UNL     1      29.985   6.407  28.855  1.00  0.00    -0.010 C 
ATOM     11  C   UNL     1      28.481   6.417  29.170  1.00  0.00     0.008 C 
ATOM     12  C   UNL     1      30.179   6.342  27.330  1.00  0.00     0.008 C 
ENDBRANCH   3  10
ENDBRANCH   2   3
BRANCH   1  13
ATOM     13  C   UNL     1      31.513   9.273  32.139  1.00  0.00    -0.055 C 
ATOM     14  C   UNL     1      31.981   8.413  33.046  1.00  0.00     0.012 C 
BRANCH  13  15
ATOM     15  C   UNL     1      32.440  10.366  31.583  1.00  0.00     0.039 C 
BRANCH  15  16
ATOM     16  C   UNL     1      31.713  11.502  30.775  1.00  0.00     0.032 CG0
ATOM     17  G   UNL     1      32.141  11.682  29.308  1.00  0.00     0.000 G0
ENDBRANCH  15  16
ENDBRANCH  13  15
ENDBRANCH   1  13
TORSDOF 1
ENDMDL
MODEL 7
REMARK VINA RESULT:    -3.435      1.389      2.279
REMARK INTER + INTRA:          -5.825
REMARK INTER:                  -5.023
REMARK INTRA:                  -0.803
REMARK UNBOUND:                -0.783
REMARK SMILES C=C1C=C[C@@H](C(C)C)CCC(C)=CCC1
REMARK SMILES IDX 3 1 4 2 5 3 9 4 10 5 11 6 12 7 13 8 6 10 7 11 8 12 2 13 1 14
REMARK SMILES IDX 15 15 14 16
REMARK H PARENT
REMARK Flexibility Score: 70.00
ROOT
ATOM      1  C   UNL     1      30.746  11.814  30.810  1.00  0.00    -0.001 C 
ATOM      2  C   UNL     1      30.650  10.624  31.472  1.00  0.00    -0.023 C 
ENDROOT
BRANCH   2   3
ATOM      3  C   UNL     1      31.625   9.428  31.429  1.00  0.00     0.014 C 
BRANCH   3   4
ATOM      4  C   UNL     1      30.871   8.242  30.832  1.00  0.00     0.012 C 
BRANCH   4   5
ATOM      5  C   UNL     1      29.912   8.269  29.665  1.00  0.00     0.031 C 
BRANCH   5   6
ATOM      6  C   UNL     1      30.700   8.391  28.344  1.00  0.00    -0.077 C 
ATOM      7  C   UNL     1      31.246   7.109  27.769  1.00  0.00     0.039 C 
ATOM      8  C   UNL     1      30.981   9.554  27.655  1.00  0.00    -0.028 CG0
ATOM      9  G   UNL     1      30.463  10.985  27.882  1.00  0.00     0.000 G0
ENDBRANCH   5   6
ENDBRANCH   4   5
ENDBRANCH   3   4
BRANCH   3  10
ATOM     10  C   UNL     1      32.207   9.153  32.849  1.00  0.00    -0.010 C 
ATOM     11  C   UNL     1      32.703  10.438  33.532  1.00  0.00     0.008 C 
ATOM     12  C   UNL     1      31.163   8.474  33.753  1.00  0.00     0.008 C 
ENDBRANCH   3  10
ENDBRANCH   2   3
BRANCH   1  13
ATOM     13  C   UNL     1      31.782  12.220  29.804  1.00  0.00    -0.055 C 
ATOM     14  C   UNL     1      32.984  12.590  30.252  1.00  0.00     0.012 C 
BRANCH  13  15
ATOM     15  C   UNL     1      31.548  12.081  28.291  1.00  0.00     0.039 C 
BRANCH  15  16
ATOM     16  C   UNL     1      30.478  11.005  27.883  1.00  0.00     0.032 CG0
ATOM     17  G   UNL     1      30.995   9.573  27.657  1.00  0.00     0.000 G0
ENDBRANCH  15  16
ENDBRANCH  13  15
ENDBRANCH   1  13
TORSDOF 1
ENDMDL
MODEL 8
REMARK VINA RESULT:    -3.396      3.090      4.843
REMARK INTER + INTRA:          -5.768
REMARK INTER:                  -5.138
REMARK INTRA:                  -0.630
REMARK UNBOUND:                -0.783
REMARK SMILES C=C1C=C[C@@H](C(C)C)CCC(C)=CCC1
REMARK SMILES IDX 3 1 4 2 5 3 9 4 10 5 11 6 12 7 13 8 6 10 7 11 8 12 2 13 1 14
REMARK SMILES IDX 15 15 14 16
REMARK H PARENT
REMARK Flexibility Score: 70.00
ROOT
ATOM      1  C   UNL     1      30.463  11.092  34.063  1.00  0.00    -0.001 C 
ATOM      2  C   UNL     1      30.131   9.921  34.683  1.00  0.00    -0.023 C 
ENDROOT
BRANCH   2   3
ATOM      3  C   UNL     1      30.895   8.580  34.657  1.00  0.00     0.014 C 
BRANCH   3   4
ATOM      4  C   UNL     1      30.508   7.856  33.369  1.00  0.00     0.012 C 
BRANCH   4   5
ATOM      5  C   UNL     1      31.410   7.533  32.201  1.00  0.00     0.031 C 
BRANCH   5   6
ATOM      6  C   UNL     1      30.799   8.091  30.899  1.00  0.00    -0.077 C 
ATOM      7  C   UNL     1      29.731   7.249  30.247  1.00  0.00     0.039 C 
ATOM      8  C   UNL     1      31.151   9.260  30.257  1.00  0.00    -0.028 CG0
ATOM      9  G   UNL     1      32.079  10.398  30.717  1.00  0.00     0.000 G0
ENDBRANCH   5   6
ENDBRANCH   4   5
ENDBRANCH   3   4
BRANCH   3  10
ATOM     10  C   UNL     1      30.598   7.763  35.951  1.00  0.00    -0.010 C 
ATOM     11  C   UNL     1      31.752   6.815  36.317  1.00  0.00     0.008 C 
ATOM     12  C   UNL     1      30.316   8.696  37.143  1.00  0.00     0.008 C 
ENDBRANCH   3  10
ENDBRANCH   2   3
BRANCH   1  13
ATOM     13  C   UNL     1      31.609  11.339  33.128  1.00  0.00    -0.055 C 
ATOM     14  C   UNL     1      32.848  11.276  33.621  1.00  0.00     0.012 C 
BRANCH  13  15
ATOM     15  C   UNL     1      31.404  11.513  31.615  1.00  0.00     0.039 C 
BRANCH  15  16
ATOM     16  C   UNL     1      32.062  10.397  30.725  1.00  0.00     0.032 CG0
ATOM     17  G   UNL     1      31.139   9.258  30.256  1.00  0.00     0.000 G0
ENDBRANCH  15  16
ENDBRANCH  13  15
ENDBRANCH   1  13
TORSDOF 1
ENDMDL
MODEL 9
REMARK VINA RESULT:    -3.294      1.870      3.337
REMARK INTER + INTRA:          -5.618
REMARK INTER:                  -4.931
REMARK INTRA:                  -0.687
REMARK UNBOUND:                -0.783
REMARK SMILES C=C1C=C[C@@H](C(C)C)CCC(C)=CCC1
REMARK SMILES IDX 3 1 4 2 5 3 9 4 10 5 11 6 12 7 13 8 6 10 7 11 8 12 2 13 1 14
REMARK SMILES IDX 15 15 14 16
REMARK H PARENT
REMARK Flexibility Score: 70.00
ROOT
ATOM      1  C   UNL     1      32.376  10.587  27.373  1.00  0.00    -0.001 C 
ATOM      2  C   UNL     1      32.079  11.371  28.450  1.00  0.00    -0.023 C 
ENDROOT
BRANCH   2   3
ATOM      3  C   UNL     1      30.973  11.161  29.505  1.00  0.00     0.014 C 
BRANCH   3   4
ATOM      4  C   UNL     1      29.894  12.213  29.254  1.00  0.00     0.012 C 
BRANCH   4   5
ATOM      5  C   UNL     1      29.476  12.785  27.920  1.00  0.00     0.031 C 
BRANCH   5   6
ATOM      6  C   UNL     1      28.458  11.844  27.243  1.00  0.00    -0.077 C 
ATOM      7  C   UNL     1      27.046  11.897  27.769  1.00  0.00     0.039 C 
ATOM      8  C   UNL     1      28.715  10.941  26.232  1.00  0.00    -0.028 CG0
ATOM      9  G   UNL     1      29.985  10.740  25.387  1.00  0.00     0.000 G0
ENDBRANCH   5   6
ENDBRANCH   4   5
ENDBRANCH   3   4
BRANCH   3  10
ATOM     10  C   UNL     1      31.578  11.212  30.941  1.00  0.00    -0.010 C 
ATOM     11  C   UNL     1      31.924   9.812  31.474  1.00  0.00     0.008 C 
ATOM     12  C   UNL     1      32.840  12.091  30.980  1.00  0.00     0.008 C 
ENDBRANCH   3  10
ENDBRANCH   2   3
BRANCH   1  13
ATOM     13  C   UNL     1      31.639   9.371  26.896  1.00  0.00    -0.055 C 
ATOM     14  C   UNL     1      31.648   8.285  27.673  1.00  0.00     0.012 C 
BRANCH  13  15
ATOM     15  C   UNL     1      30.767   9.389  25.630  1.00  0.00     0.039 C 
BRANCH  15  16
ATOM     16  C   UNL     1      29.983  10.730  25.387  1.00  0.00     0.032 CG0
ATOM     17  G   UNL     1      28.720  10.953  26.238  1.00  0.00     0.000 G0
ENDBRANCH  15  16
ENDBRANCH  13  15
ENDBRANCH   1  13
TORSDOF 1
ENDMDL
