MODEL 1
REMARK VINA RESULT:    -4.348      0.000      0.000
REMARK INTER + INTRA:          -7.498
REMARK INTER:                  -6.635
REMARK INTRA:                  -0.862
REMARK UNBOUND:                -0.862
REMARK SMILES CCCCCCCCCCC(=O)[O-]
REMARK SMILES IDX 7 1 8 2 9 3 10 4 11 5 12 6 13 7 6 8 5 9 4 10 3 11 2 12 1 13
REMARK H PARENT
REMARK Flexibility Score: inf
ROOT
ATOM      1  C   UNL     1      28.031  -0.164  31.871  1.00  0.00     0.000 C 
ENDROOT
BRANCH   1   2
ATOM      2  C   UNL     1      29.504   0.138  31.560  1.00  0.00     0.000 C 
BRANCH   2   3
ATOM      3  C   UNL     1      29.919  -0.481  30.217  1.00  0.00     0.006 C 
BRANCH   3   4
ATOM      4  C   UNL     1      29.059  -1.696  29.844  1.00  0.00     0.053 C 
BRANCH   4   5
ATOM      5  C   UNL     1      29.865  -2.959  29.811  1.00  0.00     0.041 C 
ATOM      6  O   UNL     1      31.123  -2.908  29.841  1.00  0.00    -0.550 OA
ATOM      7  O   UNL     1      29.228  -4.189  29.712  1.00  0.00    -0.550 OA
ENDBRANCH   4   5
ENDBRANCH   3   4
ENDBRANCH   2   3
ENDBRANCH   1   2
BRANCH   1   8
ATOM      8  C   UNL     1      27.087   0.961  31.419  1.00  0.00     0.000 C 
BRANCH   8   9
ATOM      9  C   UNL     1      26.340   0.622  30.120  1.00  0.00    -0.000 C 
BRANCH   9  10
ATOM     10  C   UNL     1      26.826   1.502  28.959  1.00  0.00    -0.000 C 
BRANCH  10  11
ATOM     11  C   UNL     1      27.700   2.678  29.442  1.00  0.00    -0.000 C 
BRANCH  11  12
ATOM     12  C   UNL     1      27.285   4.037  28.851  1.00  0.00    -0.003 C 
ATOM     13  C   UNL     1      27.713   5.221  29.716  1.00  0.00     0.004 C 
ENDBRANCH  11  12
ENDBRANCH  10  11
ENDBRANCH   9  10
ENDBRANCH   8   9
ENDBRANCH   1   8
TORSDOF 9
ENDMDL
MODEL 2
REMARK VINA RESULT:    -4.285      4.438      6.327
REMARK INTER + INTRA:          -7.401
REMARK INTER:                  -6.491
REMARK INTRA:                  -0.910
REMARK UNBOUND:                -0.862
REMARK SMILES CCCCCCCCCCC(=O)[O-]
REMARK SMILES IDX 7 1 8 2 9 3 10 4 11 5 12 6 13 7 6 8 5 9 4 10 3 11 2 12 1 13
REMARK H PARENT
REMARK Flexibility Score: inf
ROOT
ATOM      1  C   UNL     1      29.000   1.863  31.566  1.00  0.00     0.000 C 
ENDROOT
BRANCH   1   2
ATOM      2  C   UNL     1      28.130   2.961  30.937  1.00  0.00     0.000 C 
BRANCH   2   3
ATOM      3  C   UNL     1      28.100   4.214  31.825  1.00  0.00     0.006 C 
BRANCH   3   4
ATOM      4  C   UNL     1      28.499   5.482  31.059  1.00  0.00     0.053 C 
BRANCH   4   5
ATOM      5  C   UNL     1      27.300   6.256  30.601  1.00  0.00     0.041 C 
ATOM      6  O   UNL     1      26.598   5.830  29.647  1.00  0.00    -0.550 OA
ATOM      7  O   UNL     1      26.980   7.465  31.206  1.00  0.00    -0.550 OA
ENDBRANCH   4   5
ENDBRANCH   3   4
ENDBRANCH   2   3
ENDBRANCH   1   2
BRANCH   1   8
ATOM      8  C   UNL     1      29.725   1.007  30.516  1.00  0.00     0.000 C 
BRANCH   8   9
ATOM      9  C   UNL     1      29.156   1.196  29.102  1.00  0.00    -0.000 C 
BRANCH   9  10
ATOM     10  C   UNL     1      28.277   0.003  28.698  1.00  0.00    -0.000 C 
BRANCH  10  11
ATOM     11  C   UNL     1      26.776   0.357  28.691  1.00  0.00    -0.000 C 
BRANCH  11  12
ATOM     12  C   UNL     1      26.033  -0.083  29.964  1.00  0.00    -0.003 C 
ATOM     13  C   UNL     1      26.722  -1.237  30.690  1.00  0.00     0.004 C 
ENDBRANCH  11  12
ENDBRANCH  10  11
ENDBRANCH   9  10
ENDBRANCH   8   9
ENDBRANCH   1   8
TORSDOF 9
ENDMDL
MODEL 3
REMARK VINA RESULT:    -4.251      1.942      2.862
REMARK INTER + INTRA:          -7.349
REMARK INTER:                  -6.489
REMARK INTRA:                  -0.861
REMARK UNBOUND:                -0.862
REMARK SMILES CCCCCCCCCCC(=O)[O-]
REMARK SMILES IDX 7 1 8 2 9 3 10 4 11 5 12 6 13 7 6 8 5 9 4 10 3 11 2 12 1 13
REMARK H PARENT
REMARK Flexibility Score: inf
ROOT
ATOM      1  C   UNL     1      26.863  -0.124  29.228  1.00  0.00     0.000 C 
ENDROOT
BRANCH   1   2
ATOM      2  C   UNL     1      26.422  -1.053  30.369  1.00  0.00     0.000 C 
BRANCH   2   3
ATOM      3  C   UNL     1      27.565  -1.989  30.788  1.00  0.00     0.006 C 
BRANCH   3   4
ATOM      4  C   UNL     1      27.088  -3.433  30.996  1.00  0.00     0.053 C 
BRANCH   4   5
ATOM      5  C   UNL     1      28.027  -4.423  30.375  1.00  0.00     0.041 C 
ATOM      6  O   UNL     1      29.206  -4.084  30.089  1.00  0.00    -0.550 OA
ATOM      7  O   UNL     1      27.590  -5.708  30.081  1.00  0.00    -0.550 OA
ENDBRANCH   4   5
ENDBRANCH   3   4
ENDBRANCH   2   3
ENDBRANCH   1   2
BRANCH   1   8
ATOM      8  C   UNL     1      28.350  -0.287  28.873  1.00  0.00     0.000 C 
BRANCH   8   9
ATOM      9  C   UNL     1      29.162   0.993  29.123  1.00  0.00    -0.000 C 
BRANCH   9  10
ATOM     10  C   UNL     1      29.887   0.930  30.476  1.00  0.00    -0.000 C 
BRANCH  10  11
ATOM     11  C   UNL     1      29.054   1.554  31.615  1.00  0.00    -0.000 C 
BRANCH  11  12
ATOM     12  C   UNL     1      28.195   2.749  31.167  1.00  0.00    -0.003 C 
ATOM     13  C   UNL     1      28.505   4.031  31.936  1.00  0.00     0.004 C 
ENDBRANCH  11  12
ENDBRANCH  10  11
ENDBRANCH   9  10
ENDBRANCH   8   9
ENDBRANCH   1   8
TORSDOF 9
ENDMDL
MODEL 4
REMARK VINA RESULT:    -4.238      4.946      7.122
REMARK INTER + INTRA:          -7.330
REMARK INTER:                  -6.669
REMARK INTRA:                  -0.661
REMARK UNBOUND:                -0.862
REMARK SMILES CCCCCCCCCCC(=O)[O-]
REMARK SMILES IDX 7 1 8 2 9 3 10 4 11 5 12 6 13 7 6 8 5 9 4 10 3 11 2 12 1 13
REMARK H PARENT
REMARK Flexibility Score: inf
ROOT
ATOM      1  C   UNL     1      27.625   3.026  29.763  1.00  0.00     0.000 C 
ENDROOT
BRANCH   1   2
ATOM      2  C   UNL     1      27.583   4.282  28.879  1.00  0.00     0.000 C 
BRANCH   2   3
ATOM      3  C   UNL     1      27.008   5.477  29.653  1.00  0.00     0.006 C 
BRANCH   3   4
ATOM      4  C   UNL     1      28.102   6.323  30.317  1.00  0.00     0.053 C 
BRANCH   4   5
ATOM      5  C   UNL     1      27.814   7.790  30.209  1.00  0.00     0.041 C 
ATOM      6  O   UNL     1      28.321   8.467  29.276  1.00  0.00    -0.550 OA
ATOM      7  O   UNL     1      27.015   8.415  31.157  1.00  0.00    -0.550 OA
ENDBRANCH   4   5
ENDBRANCH   3   4
ENDBRANCH   2   3
ENDBRANCH   1   2
BRANCH   1   8
ATOM      8  C   UNL     1      27.030   1.791  29.067  1.00  0.00     0.000 C 
BRANCH   8   9
ATOM      9  C   UNL     1      26.565   0.717  30.061  1.00  0.00    -0.000 C 
BRANCH   9  10
ATOM     10  C   UNL     1      27.135   0.981  31.463  1.00  0.00    -0.000 C 
BRANCH  10  11
ATOM     11  C   UNL     1      28.240  -0.027  31.844  1.00  0.00    -0.000 C 
BRANCH  11  12
ATOM     12  C   UNL     1      29.662   0.549  31.738  1.00  0.00    -0.003 C 
ATOM     13  C   UNL     1      30.301   0.316  30.371  1.00  0.00     0.004 C 
ENDBRANCH  11  12
ENDBRANCH  10  11
ENDBRANCH   9  10
ENDBRANCH   8   9
ENDBRANCH   1   8
TORSDOF 9
ENDMDL
MODEL 5
REMARK VINA RESULT:    -4.235      3.710      6.189
REMARK INTER + INTRA:          -7.325
REMARK INTER:                  -6.534
REMARK INTRA:                  -0.791
REMARK UNBOUND:                -0.862
REMARK SMILES CCCCCCCCCCC(=O)[O-]
REMARK SMILES IDX 7 1 8 2 9 3 10 4 11 5 12 6 13 7 6 8 5 9 4 10 3 11 2 12 1 13
REMARK H PARENT
REMARK Flexibility Score: inf
ROOT
ATOM      1  C   UNL     1      26.462   0.639  29.932  1.00  0.00     0.000 C 
ENDROOT
BRANCH   1   2
ATOM      2  C   UNL     1      26.859   1.705  28.901  1.00  0.00     0.000 C 
BRANCH   2   3
ATOM      3  C   UNL     1      27.731   2.794  29.545  1.00  0.00     0.006 C 
BRANCH   3   4
ATOM      4  C   UNL     1      27.505   4.172  28.910  1.00  0.00     0.053 C 
BRANCH   4   5
ATOM      5  C   UNL     1      27.476   5.261  29.939  1.00  0.00     0.041 C 
ATOM      6  O   UNL     1      26.766   6.285  29.757  1.00  0.00    -0.550 OA
ATOM      7  O   UNL     1      28.258   5.160  31.083  1.00  0.00    -0.550 OA
ENDBRANCH   4   5
ENDBRANCH   3   4
ENDBRANCH   2   3
ENDBRANCH   1   2
BRANCH   1   8
ATOM      8  C   UNL     1      27.021   0.932  31.333  1.00  0.00     0.000 C 
BRANCH   8   9
ATOM      9  C   UNL     1      27.968  -0.168  31.836  1.00  0.00    -0.000 C 
BRANCH   9  10
ATOM     10  C   UNL     1      29.430   0.175  31.514  1.00  0.00    -0.000 C 
BRANCH  10  11
ATOM     11  C   UNL     1      30.009  -0.721  30.399  1.00  0.00    -0.000 C 
BRANCH  11  12
ATOM     12  C   UNL     1      29.089  -1.889  30.007  1.00  0.00    -0.003 C 
ATOM     13  C   UNL     1      29.854  -3.170  29.680  1.00  0.00     0.004 C 
ENDBRANCH  11  12
ENDBRANCH  10  11
ENDBRANCH   9  10
ENDBRANCH   8   9
ENDBRANCH   1   8
TORSDOF 9
ENDMDL
MODEL 6
REMARK VINA RESULT:    -4.226      2.331      3.733
REMARK INTER + INTRA:          -7.312
REMARK INTER:                  -6.651
REMARK INTRA:                  -0.661
REMARK UNBOUND:                -0.862
REMARK SMILES CCCCCCCCCCC(=O)[O-]
REMARK SMILES IDX 7 1 8 2 9 3 10 4 11 5 12 6 13 7 6 8 5 9 4 10 3 11 2 12 1 13
REMARK H PARENT
REMARK Flexibility Score: inf
ROOT
ATOM      1  C   UNL     1      29.211  -1.794  29.942  1.00  0.00     0.000 C 
ENDROOT
BRANCH   1   2
ATOM      2  C   UNL     1      30.142  -3.012  29.840  1.00  0.00     0.000 C 
BRANCH   2   3
ATOM      3  C   UNL     1      29.358  -4.269  29.435  1.00  0.00     0.006 C 
BRANCH   3   4
ATOM      4  C   UNL     1      28.866  -5.066  30.651  1.00  0.00     0.053 C 
BRANCH   4   5
ATOM      5  C   UNL     1      28.795  -6.535  30.362  1.00  0.00     0.041 C 
ATOM      6  O   UNL     1      28.934  -6.955  29.183  1.00  0.00    -0.550 OA
ATOM      7  O   UNL     1      28.541  -7.435  31.389  1.00  0.00    -0.550 OA
ENDBRANCH   4   5
ENDBRANCH   3   4
ENDBRANCH   2   3
ENDBRANCH   1   2
BRANCH   1   8
ATOM      8  C   UNL     1      29.955  -0.513  30.353  1.00  0.00     0.000 C 
BRANCH   8   9
ATOM      9  C   UNL     1      29.411   0.095  31.654  1.00  0.00    -0.000 C 
BRANCH   9  10
ATOM     10  C   UNL     1      27.922  -0.236  31.837  1.00  0.00    -0.000 C 
BRANCH  10  11
ATOM     11  C   UNL     1      27.003   0.854  31.248  1.00  0.00    -0.000 C 
BRANCH  11  12
ATOM     12  C   UNL     1      26.081   0.343  30.128  1.00  0.00    -0.003 C 
ATOM     13  C   UNL     1      26.620   0.633  28.729  1.00  0.00     0.004 C 
ENDBRANCH  11  12
ENDBRANCH  10  11
ENDBRANCH   9  10
ENDBRANCH   8   9
ENDBRANCH   1   8
TORSDOF 9
ENDMDL
MODEL 7
REMARK VINA RESULT:    -4.216      1.418      2.894
REMARK INTER + INTRA:          -7.296
REMARK INTER:                  -6.600
REMARK INTRA:                  -0.696
REMARK UNBOUND:                -0.862
REMARK SMILES CCCCCCCCCCC(=O)[O-]
REMARK SMILES IDX 7 1 8 2 9 3 10 4 11 5 12 6 13 7 6 8 5 9 4 10 3 11 2 12 1 13
REMARK H PARENT
REMARK Flexibility Score: inf
ROOT
ATOM      1  C   UNL     1      26.354   0.613  29.861  1.00  0.00     0.000 C 
ENDROOT
BRANCH   1   2
ATOM      2  C   UNL     1      26.877   1.006  31.251  1.00  0.00     0.000 C 
BRANCH   2   3
ATOM      3  C   UNL     1      27.671  -0.146  31.885  1.00  0.00     0.006 C 
BRANCH   3   4
ATOM      4  C   UNL     1      29.177   0.143  31.934  1.00  0.00     0.053 C 
BRANCH   4   5
ATOM      5  C   UNL     1      29.862  -0.255  30.661  1.00  0.00     0.041 C 
ATOM      6  O   UNL     1      29.515  -1.305  30.058  1.00  0.00    -0.550 OA
ATOM      7  O   UNL     1      30.904   0.514  30.161  1.00  0.00    -0.550 OA
ENDBRANCH   4   5
ENDBRANCH   3   4
ENDBRANCH   2   3
ENDBRANCH   1   2
BRANCH   1   8
ATOM      8  C   UNL     1      26.875   1.536  28.749  1.00  0.00     0.000 C 
BRANCH   8   9
ATOM      9  C   UNL     1      27.852   2.600  29.272  1.00  0.00    -0.000 C 
BRANCH   9  10
ATOM     10  C   UNL     1      27.356   4.015  28.938  1.00  0.00    -0.000 C 
BRANCH  10  11
ATOM     11  C   UNL     1      27.781   5.050  30.001  1.00  0.00    -0.000 C 
BRANCH  11  12
ATOM     12  C   UNL     1      26.943   6.340  29.974  1.00  0.00    -0.003 C 
ATOM     13  C   UNL     1      27.750   7.585  30.337  1.00  0.00     0.004 C 
ENDBRANCH  11  12
ENDBRANCH  10  11
ENDBRANCH   9  10
ENDBRANCH   8   9
ENDBRANCH   1   8
TORSDOF 9
ENDMDL
MODEL 8
REMARK VINA RESULT:    -4.186      2.828      3.859
REMARK INTER + INTRA:          -7.250
REMARK INTER:                  -6.614
REMARK INTRA:                  -0.636
REMARK UNBOUND:                -0.862
REMARK SMILES CCCCCCCCCCC(=O)[O-]
REMARK SMILES IDX 7 1 8 2 9 3 10 4 11 5 12 6 13 7 6 8 5 9 4 10 3 11 2 12 1 13
REMARK H PARENT
REMARK Flexibility Score: inf
ROOT
ATOM      1  C   UNL     1      27.464  -2.062  30.640  1.00  0.00     0.000 C 
ENDROOT
BRANCH   1   2
ATOM      2  C   UNL     1      26.881  -3.443  30.975  1.00  0.00     0.000 C 
BRANCH   2   3
ATOM      3  C   UNL     1      27.978  -4.518  30.967  1.00  0.00     0.006 C 
BRANCH   3   4
ATOM      4  C   UNL     1      27.738  -5.587  29.892  1.00  0.00     0.053 C 
BRANCH   4   5
ATOM      5  C   UNL     1      28.436  -6.872  30.221  1.00  0.00     0.041 C 
ATOM      6  O   UNL     1      28.970  -7.554  29.307  1.00  0.00    -0.550 OA
ATOM      7  O   UNL     1      28.466  -7.333  31.531  1.00  0.00    -0.550 OA
ENDBRANCH   4   5
ENDBRANCH   3   4
ENDBRANCH   2   3
ENDBRANCH   1   2
BRANCH   1   8
ATOM      8  C   UNL     1      26.381  -1.034  30.277  1.00  0.00     0.000 C 
BRANCH   8   9
ATOM      9  C   UNL     1      26.929   0.135  29.444  1.00  0.00    -0.000 C 
BRANCH   9  10
ATOM     10  C   UNL     1      28.343  -0.172  28.928  1.00  0.00    -0.000 C 
BRANCH  10  11
ATOM     11  C   UNL     1      29.375   0.877  29.389  1.00  0.00    -0.000 C 
BRANCH  11  12
ATOM     12  C   UNL     1      30.298   0.380  30.515  1.00  0.00    -0.003 C 
ATOM     13  C   UNL     1      29.761   0.688  31.910  1.00  0.00     0.004 C 
ENDBRANCH  11  12
ENDBRANCH  10  11
ENDBRANCH   9  10
ENDBRANCH   8   9
ENDBRANCH   1   8
TORSDOF 9
ENDMDL
MODEL 9
REMARK VINA RESULT:    -4.101      3.338      6.594
REMARK INTER + INTRA:          -7.121
REMARK INTER:                  -6.622
REMARK INTRA:                  -0.499
REMARK UNBOUND:                -0.862
REMARK SMILES CCCCCCCCCCC(=O)[O-]
REMARK SMILES IDX 7 1 8 2 9 3 10 4 11 5 12 6 13 7 6 8 5 9 4 10 3 11 2 12 1 13
REMARK H PARENT
REMARK Flexibility Score: inf
ROOT
ATOM      1  C   UNL     1      26.457  -1.069  30.381  1.00  0.00     0.000 C 
ENDROOT
BRANCH   1   2
ATOM      2  C   UNL     1      26.893  -0.051  29.317  1.00  0.00     0.000 C 
BRANCH   2   3
ATOM      3  C   UNL     1      28.397  -0.169  29.028  1.00  0.00     0.006 C 
BRANCH   3   4
ATOM      4  C   UNL     1      29.160   1.115  29.379  1.00  0.00     0.053 C 
BRANCH   4   5
ATOM      5  C   UNL     1      29.119   1.403  30.849  1.00  0.00     0.041 C 
ATOM      6  O   UNL     1      28.499   2.412  31.279  1.00  0.00    -0.550 OA
ATOM      7  O   UNL     1      29.793   0.578  31.740  1.00  0.00    -0.550 OA
ENDBRANCH   4   5
ENDBRANCH   3   4
ENDBRANCH   2   3
ENDBRANCH   1   2
BRANCH   1   8
ATOM      8  C   UNL     1      27.590  -2.024  30.787  1.00  0.00     0.000 C 
BRANCH   8   9
ATOM      9  C   UNL     1      27.156  -3.498  30.774  1.00  0.00    -0.000 C 
BRANCH   9  10
ATOM     10  C   UNL     1      28.331  -4.415  30.404  1.00  0.00    -0.000 C 
BRANCH  10  11
ATOM     11  C   UNL     1      27.882  -5.869  30.152  1.00  0.00    -0.000 C 
BRANCH  11  12
ATOM     12  C   UNL     1      28.978  -6.910  30.437  1.00  0.00    -0.003 C 
ATOM     13  C   UNL     1      28.490  -8.349  30.288  1.00  0.00     0.004 C 
ENDBRANCH  11  12
ENDBRANCH  10  11
ENDBRANCH   9  10
ENDBRANCH   8   9
ENDBRANCH   1   8
TORSDOF 9
ENDMDL
