MODEL 1
REMARK VINA RESULT:    -3.957      0.000      0.000
REMARK INTER + INTRA:          -4.464
REMARK INTER:                  -4.420
REMARK INTRA:                  -0.044
REMARK UNBOUND:                -0.044
REMARK SMILES O=C([O-])c1ccc(O)c(O)c1
REMARK SMILES IDX 4 1 11 2 5 3 9 4 6 5 7 6 2 7 1 8 3 9 10 10 8 12
REMARK H PARENT 10 11 8 13
REMARK Flexibility Score: inf
ROOT
ATOM      1  C   UNL     1       0.320  27.676  31.299  1.00  0.00     0.001 A 
ATOM      2  C   UNL     1       0.350  28.665  30.301  1.00  0.00     0.060 A 
ATOM      3  C   UNL     1       0.140  26.333  30.924  1.00  0.00     0.014 A 
ATOM      4  C   UNL     1       0.202  28.322  28.951  1.00  0.00     0.158 A 
ATOM      5  C   UNL     1      -0.006  25.988  29.579  1.00  0.00     0.051 A 
ATOM      6  C   UNL     1       0.023  26.977  28.587  1.00  0.00     0.157 A 
ENDROOT
BRANCH   1   7
ATOM      7  C   UNL     1       0.477  28.048  32.723  1.00  0.00     0.072 C 
ATOM      8  O   UNL     1       0.628  27.159  33.604  1.00  0.00    -0.545 OA
ATOM      9  O   UNL     1       0.460  29.383  33.109  1.00  0.00    -0.545 OA
ENDBRANCH   1   7
BRANCH   4  10
ATOM     10  O   UNL     1       0.236  29.331  27.989  1.00  0.00    -0.504 OA
ATOM     11  H   UNL     1      -0.478  29.418  27.275  1.00  0.00     0.293 HD
ENDBRANCH   4  10
BRANCH   6  12
ATOM     12  O   UNL     1      -0.125  26.630  27.245  1.00  0.00    -0.504 OA
ATOM     13  H   UNL     1      -0.603  27.238  26.589  1.00  0.00     0.293 HD
ENDBRANCH   6  12
TORSDOF 3
ENDMDL
MODEL 2
REMARK VINA RESULT:    -3.518      0.853      2.279
REMARK INTER + INTRA:          -3.974
REMARK INTER:                  -3.930
REMARK INTRA:                  -0.044
REMARK UNBOUND:                -0.044
REMARK SMILES O=C([O-])c1ccc(O)c(O)c1
REMARK SMILES IDX 4 1 11 2 5 3 9 4 6 5 7 6 2 7 1 8 3 9 10 10 8 12
REMARK H PARENT 10 11 8 13
REMARK Flexibility Score: inf
ROOT
ATOM      1  C   UNL     1       0.411  27.748  31.344  1.00  0.00     0.001 A 
ATOM      2  C   UNL     1       0.230  26.406  30.966  1.00  0.00     0.060 A 
ATOM      3  C   UNL     1       0.412  28.742  30.349  1.00  0.00     0.014 A 
ATOM      4  C   UNL     1       0.054  26.060  29.620  1.00  0.00     0.158 A 
ATOM      5  C   UNL     1       0.236  28.400  29.007  1.00  0.00     0.051 A 
ATOM      6  C   UNL     1       0.057  27.061  28.635  1.00  0.00     0.157 A 
ENDROOT
BRANCH   1   7
ATOM      7  C   UNL     1       0.596  28.104  32.768  1.00  0.00     0.072 C 
ATOM      8  O   UNL     1       0.718  29.309  33.116  1.00  0.00    -0.545 OA
ATOM      9  O   UNL     1       0.640  27.114  33.742  1.00  0.00    -0.545 OA
ENDBRANCH   1   7
BRANCH   4  10
ATOM     10  O   UNL     1      -0.121  24.718  29.284  1.00  0.00    -0.504 OA
ATOM     11  H   UNL     1       0.489  24.243  28.630  1.00  0.00     0.293 HD
ENDBRANCH   4  10
BRANCH   6  12
ATOM     12  O   UNL     1      -0.118  26.722  27.294  1.00  0.00    -0.504 OA
ATOM     13  H   UNL     1      -0.980  26.929  26.802  1.00  0.00     0.293 HD
ENDBRANCH   6  12
TORSDOF 3
ENDMDL
MODEL 3
REMARK VINA RESULT:    -3.084      1.807      4.593
REMARK INTER + INTRA:          -3.489
REMARK INTER:                  -3.445
REMARK INTRA:                  -0.044
REMARK UNBOUND:                -0.044
REMARK SMILES O=C([O-])c1ccc(O)c(O)c1
REMARK SMILES IDX 4 1 11 2 5 3 9 4 6 5 7 6 2 7 1 8 3 9 10 10 8 12
REMARK H PARENT 10 11 8 13
REMARK Flexibility Score: inf
ROOT
ATOM      1  C   UNL     1       0.494  27.947  31.626  1.00  0.00     0.001 A 
ATOM      2  C   UNL     1       0.324  29.310  31.928  1.00  0.00     0.060 A 
ATOM      3  C   UNL     1       0.476  27.010  32.673  1.00  0.00     0.014 A 
ATOM      4  C   UNL     1       0.141  29.731  33.251  1.00  0.00     0.158 A 
ATOM      5  C   UNL     1       0.293  27.426  33.994  1.00  0.00     0.051 A 
ATOM      6  C   UNL     1       0.125  28.786  34.289  1.00  0.00     0.157 A 
ENDROOT
BRANCH   1   7
ATOM      7  C   UNL     1       0.687  27.512  30.225  1.00  0.00     0.072 C 
ATOM      8  O   UNL     1       0.928  26.303  29.957  1.00  0.00    -0.545 OA
ATOM      9  O   UNL     1       0.606  28.428  29.184  1.00  0.00    -0.545 OA
ENDBRANCH   1   7
BRANCH   4  10
ATOM     10  O   UNL     1      -0.023  31.091  33.511  1.00  0.00    -0.504 OA
ATOM     11  H   UNL     1      -0.033  31.461  34.455  1.00  0.00     0.293 HD
ENDBRANCH   4  10
BRANCH   6  12
ATOM     12  O   UNL     1      -0.056  29.199  35.608  1.00  0.00    -0.504 OA
ATOM     13  H   UNL     1       0.448  29.991  35.990  1.00  0.00     0.293 HD
ENDBRANCH   6  12
TORSDOF 3
ENDMDL
MODEL 4
REMARK VINA RESULT:    -2.219      1.594      4.904
REMARK INTER + INTRA:          -2.523
REMARK INTER:                  -2.478
REMARK INTRA:                  -0.044
REMARK UNBOUND:                -0.044
REMARK SMILES O=C([O-])c1ccc(O)c(O)c1
REMARK SMILES IDX 4 1 11 2 5 3 9 4 6 5 7 6 2 7 1 8 3 9 10 10 8 12
REMARK H PARENT 10 11 8 13
REMARK Flexibility Score: inf
ROOT
ATOM      1  C   UNL     1       0.113  27.602  31.299  1.00  0.00     0.001 A 
ATOM      2  C   UNL     1       0.192  26.740  32.407  1.00  0.00     0.060 A 
ATOM      3  C   UNL     1      -0.045  28.981  31.518  1.00  0.00     0.014 A 
ATOM      4  C   UNL     1       0.113  27.244  33.711  1.00  0.00     0.158 A 
ATOM      5  C   UNL     1      -0.123  29.487  32.817  1.00  0.00     0.051 A 
ATOM      6  C   UNL     1      -0.046  28.624  33.918  1.00  0.00     0.157 A 
ENDROOT
BRANCH   1   7
ATOM      7  C   UNL     1       0.197  27.060  29.924  1.00  0.00     0.072 C 
ATOM      8  O   UNL     1       0.238  25.815  29.728  1.00  0.00    -0.545 OA
ATOM      9  O   UNL     1       0.233  27.916  28.830  1.00  0.00    -0.545 OA
ENDBRANCH   1   7
BRANCH   4  10
ATOM     10  O   UNL     1       0.194  26.358  34.785  1.00  0.00    -0.504 OA
ATOM     11  H   UNL     1       1.082  26.074  35.182  1.00  0.00     0.293 HD
ENDBRANCH   4  10
BRANCH   6  12
ATOM     12  O   UNL     1      -0.125  29.132  35.214  1.00  0.00    -0.504 OA
ATOM     13  H   UNL     1      -0.864  29.769  35.490  1.00  0.00     0.293 HD
ENDBRANCH   6  12
TORSDOF 3
ENDMDL
MODEL 5
REMARK VINA RESULT:    -1.147      1.681      2.723
REMARK INTER + INTRA:          -1.326
REMARK INTER:                  -1.290
REMARK INTRA:                  -0.036
REMARK UNBOUND:                -0.044
REMARK SMILES O=C([O-])c1ccc(O)c(O)c1
REMARK SMILES IDX 4 1 11 2 5 3 9 4 6 5 7 6 2 7 1 8 3 9 10 10 8 12
REMARK H PARENT 10 11 8 13
REMARK Flexibility Score: inf
ROOT
ATOM      1  C   UNL     1       0.676  27.924  32.887  1.00  0.00     0.001 A 
ATOM      2  C   UNL     1       0.948  27.100  31.781  1.00  0.00     0.060 A 
ATOM      3  C   UNL     1       0.137  29.204  32.668  1.00  0.00     0.014 A 
ATOM      4  C   UNL     1       0.687  27.543  30.479  1.00  0.00     0.158 A 
ATOM      5  C   UNL     1      -0.125  29.648  31.370  1.00  0.00     0.051 A 
ATOM      6  C   UNL     1       0.148  28.823  30.271  1.00  0.00     0.157 A 
ENDROOT
BRANCH   1   7
ATOM      7  C   UNL     1       0.955  27.448  34.260  1.00  0.00     0.072 C 
ATOM      8  O   UNL     1       2.097  27.602  34.772  1.00  0.00    -0.545 OA
ATOM      9  O   UNL     1      -0.037  26.822  35.005  1.00  0.00    -0.545 OA
ENDBRANCH   1   7
BRANCH   4  10
ATOM     10  O   UNL     1       0.970  26.697  29.407  1.00  0.00    -0.504 OA
ATOM     11  H   UNL     1       1.249  25.732  29.542  1.00  0.00     0.293 HD
ENDBRANCH   4  10
BRANCH   6  12
ATOM     12  O   UNL     1      -0.113  29.270  28.976  1.00  0.00    -0.504 OA
ATOM     13  H   UNL     1       0.015  30.241  28.714  1.00  0.00     0.293 HD
ENDBRANCH   6  12
TORSDOF 3
ENDMDL
