MODEL 1
REMARK VINA RESULT:    -4.935      0.000      0.000
REMARK INTER + INTRA:          -7.507
REMARK INTER:                  -6.089
REMARK INTRA:                  -1.417
REMARK UNBOUND:                -1.417
REMARK SMILES CC(C)=CCC[C@@H](C)[C@H]1C=CC(C)=CC1
REMARK SMILES IDX 6 1 7 2 8 3 9 4 13 5 12 6 14 7 11 8 15 9 10 10 5 11 4 12
REMARK SMILES IDX 2 13 1 14 3 15
REMARK H PARENT
REMARK Flexibility Score: inf
ROOT
ATOM      1  C   UNL     1     144.906 140.543 133.276  1.00  0.00     0.008 C 
ENDROOT
BRANCH   1   2
ATOM      2  C   UNL     1     144.613 141.937 132.655  1.00  0.00    -0.007 C 
ATOM      3  C   UNL     1     143.649 141.814 131.460  1.00  0.00     0.008 C 
BRANCH   2   4
ATOM      4  C   UNL     1     144.068 142.964 133.693  1.00  0.00     0.018 C 
ATOM      5  C   UNL     1     141.492 144.993 136.551  1.00  0.00     0.044 C 
ATOM      6  C   UNL     1     142.275 144.155 135.585  1.00  0.00    -0.055 C 
ATOM      7  C   UNL     1     143.195 143.286 136.035  1.00  0.00    -0.023 C 
ATOM      8  C   UNL     1     141.990 144.241 134.135  1.00  0.00    -0.001 C 
ATOM      9  C   UNL     1     143.881 142.331 135.094  1.00  0.00     0.035 C 
ATOM     10  C   UNL     1     142.793 143.650 133.244  1.00  0.00    -0.023 C 
ENDBRANCH   2   4
ENDBRANCH   1   2
BRANCH   1  11
ATOM     11  C   UNL     1     143.951 139.457 132.761  1.00  0.00     0.027 C 
BRANCH  11  12
ATOM     12  C   UNL     1     143.302 138.728 133.912  1.00  0.00    -0.028 C 
ATOM     13  C   UNL     1     142.073 139.011 134.399  1.00  0.00    -0.080 C 
ATOM     14  C   UNL     1     141.536 138.169 135.527  1.00  0.00     0.039 C 
ATOM     15  C   UNL     1     141.240 140.150 133.858  1.00  0.00     0.039 C 
ENDBRANCH  11  12
ENDBRANCH   1  11
TORSDOF 4
ENDMDL
MODEL 2
REMARK VINA RESULT:    -4.924      2.788      4.501
REMARK INTER + INTRA:          -7.493
REMARK INTER:                  -6.129
REMARK INTRA:                  -1.364
REMARK UNBOUND:                -1.417
REMARK SMILES CC(C)=CCC[C@@H](C)[C@H]1C=CC(C)=CC1
REMARK SMILES IDX 6 1 7 2 8 3 9 4 13 5 12 6 14 7 11 8 15 9 10 10 5 11 4 12
REMARK SMILES IDX 2 13 1 14 3 15
REMARK H PARENT
REMARK Flexibility Score: inf
ROOT
ATOM      1  C   UNL     1     140.434 137.390 133.275  1.00  0.00     0.008 C 
ENDROOT
BRANCH   1   2
ATOM      2  C   UNL     1     141.855 137.586 132.679  1.00  0.00    -0.007 C 
ATOM      3  C   UNL     1     141.813 138.515 131.451  1.00  0.00     0.008 C 
BRANCH   2   4
ATOM      4  C   UNL     1     142.887 138.109 133.724  1.00  0.00     0.018 C 
ATOM      5  C   UNL     1     144.988 140.662 136.550  1.00  0.00     0.044 C 
ATOM      6  C   UNL     1     144.131 139.894 135.588  1.00  0.00    -0.055 C 
ATOM      7  C   UNL     1     143.202 139.038 136.045  1.00  0.00    -0.023 C 
ATOM      8  C   UNL     1     144.265 140.128 134.133  1.00  0.00    -0.001 C 
ATOM      9  C   UNL     1     142.233 138.374 135.103  1.00  0.00     0.035 C 
ATOM     10  C   UNL     1     143.651 139.330 133.253  1.00  0.00    -0.023 C 
ENDBRANCH   2   4
ENDBRANCH   1   2
BRANCH   1  11
ATOM     11  C   UNL     1     139.399 138.339 132.653  1.00  0.00     0.027 C 
BRANCH  11  12
ATOM     12  C   UNL     1     138.607 139.043 133.727  1.00  0.00    -0.028 C 
ATOM     13  C   UNL     1     138.906 140.266 134.218  1.00  0.00    -0.080 C 
ATOM     14  C   UNL     1     137.998 140.862 135.262  1.00  0.00     0.039 C 
ATOM     15  C   UNL     1     140.125 141.035 133.764  1.00  0.00     0.039 C 
ENDBRANCH  11  12
ENDBRANCH   1  11
TORSDOF 4
ENDMDL
MODEL 3
REMARK VINA RESULT:    -4.920      2.769      4.395
REMARK INTER + INTRA:          -7.487
REMARK INTER:                  -6.151
REMARK INTRA:                  -1.337
REMARK UNBOUND:                -1.417
REMARK SMILES CC(C)=CCC[C@@H](C)[C@H]1C=CC(C)=CC1
REMARK SMILES IDX 6 1 7 2 8 3 9 4 13 5 12 6 14 7 11 8 15 9 10 10 5 11 4 12
REMARK SMILES IDX 2 13 1 14 3 15
REMARK H PARENT
REMARK Flexibility Score: inf
ROOT
ATOM      1  C   UNL     1     141.747 144.801 133.296  1.00  0.00     0.008 C 
ENDROOT
BRANCH   1   2
ATOM      2  C   UNL     1     140.319 144.616 132.712  1.00  0.00    -0.007 C 
ATOM      3  C   UNL     1     140.347 143.704 131.471  1.00  0.00     0.008 C 
BRANCH   2   4
ATOM      4  C   UNL     1     139.296 144.082 133.760  1.00  0.00     0.018 C 
ATOM      5  C   UNL     1     137.234 141.503 136.591  1.00  0.00     0.044 C 
ATOM      6  C   UNL     1     138.079 142.281 135.627  1.00  0.00    -0.055 C 
ATOM      7  C   UNL     1     138.999 143.148 136.082  1.00  0.00    -0.023 C 
ATOM      8  C   UNL     1     137.944 142.047 134.173  1.00  0.00    -0.001 C 
ATOM      9  C   UNL     1     139.957 143.824 135.137  1.00  0.00     0.035 C 
ATOM     10  C   UNL     1     138.546 142.852 133.291  1.00  0.00    -0.023 C 
ENDBRANCH   2   4
ENDBRANCH   1   2
BRANCH   1  11
ATOM     11  C   UNL     1     142.785 143.904 132.605  1.00  0.00     0.027 C 
BRANCH  11  12
ATOM     12  C   UNL     1     143.623 143.175 133.626  1.00  0.00    -0.028 C 
ATOM     13  C   UNL     1     143.350 141.937 134.094  1.00  0.00    -0.080 C 
ATOM     14  C   UNL     1     144.301 141.316 135.083  1.00  0.00     0.039 C 
ATOM     15  C   UNL     1     142.116 141.175 133.670  1.00  0.00     0.039 C 
ENDBRANCH  11  12
ENDBRANCH   1  11
TORSDOF 4
ENDMDL
MODEL 4
REMARK VINA RESULT:    -4.912      2.936      6.284
REMARK INTER + INTRA:          -7.477
REMARK INTER:                  -6.054
REMARK INTRA:                  -1.423
REMARK UNBOUND:                -1.417
REMARK SMILES CC(C)=CCC[C@@H](C)[C@H]1C=CC(C)=CC1
REMARK SMILES IDX 6 1 7 2 8 3 9 4 13 5 12 6 14 7 11 8 15 9 10 10 5 11 4 12
REMARK SMILES IDX 2 13 1 14 3 15
REMARK H PARENT
REMARK Flexibility Score: inf
ROOT
ATOM      1  C   UNL     1     137.250 141.512 133.270  1.00  0.00     0.008 C 
ENDROOT
BRANCH   1   2
ATOM      2  C   UNL     1     137.619 140.125 132.674  1.00  0.00    -0.007 C 
ATOM      3  C   UNL     1     138.617 140.275 131.511  1.00  0.00     0.008 C 
BRANCH   2   4
ATOM      4  C   UNL     1     138.168 139.130 133.741  1.00  0.00     0.018 C 
ATOM      5  C   UNL     1     140.744 137.205 136.670  1.00  0.00     0.044 C 
ATOM      6  C   UNL     1     139.959 138.009 135.677  1.00  0.00    -0.055 C 
ATOM      7  C   UNL     1     139.022 138.875 136.098  1.00  0.00    -0.023 C 
ATOM      8  C   UNL     1     140.260 137.895 134.233  1.00  0.00    -0.001 C 
ATOM      9  C   UNL     1     138.331 139.798 135.129  1.00  0.00     0.035 C 
ATOM     10  C   UNL     1     139.458 138.454 133.320  1.00  0.00    -0.023 C 
ENDBRANCH   2   4
ENDBRANCH   1   2
BRANCH   1  11
ATOM     11  C   UNL     1     138.194 142.626 132.795  1.00  0.00     0.027 C 
BRANCH  11  12
ATOM     12  C   UNL     1     138.807 143.343 133.972  1.00  0.00    -0.028 C 
ATOM     13  C   UNL     1     140.051 143.109 134.446  1.00  0.00    -0.080 C 
ATOM     14  C   UNL     1     140.546 143.933 135.605  1.00  0.00     0.039 C 
ATOM     15  C   UNL     1     140.943 142.039 133.859  1.00  0.00     0.039 C 
ENDBRANCH  11  12
ENDBRANCH   1  11
TORSDOF 4
ENDMDL
MODEL 5
REMARK VINA RESULT:    -4.823      1.339      4.828
REMARK INTER + INTRA:          -7.368
REMARK INTER:                  -6.133
REMARK INTRA:                  -1.235
REMARK UNBOUND:                -1.417
REMARK SMILES CC(C)=CCC[C@@H](C)[C@H]1C=CC(C)=CC1
REMARK SMILES IDX 6 1 7 2 8 3 9 4 13 5 12 6 14 7 11 8 15 9 10 10 5 11 4 12
REMARK SMILES IDX 2 13 1 14 3 15
REMARK H PARENT
REMARK Flexibility Score: inf
ROOT
ATOM      1  C   UNL     1     144.625 140.079 132.875  1.00  0.00     0.008 C 
ENDROOT
BRANCH   1   2
ATOM      2  C   UNL     1     143.501 139.134 132.367  1.00  0.00    -0.007 C 
ATOM      3  C   UNL     1     144.021 138.217 131.244  1.00  0.00     0.008 C 
BRANCH   2   4
ATOM      4  C   UNL     1     142.852 138.290 133.506  1.00  0.00     0.018 C 
ATOM      5  C   UNL     1     140.480 137.130 136.962  1.00  0.00     0.044 C 
ATOM      6  C   UNL     1     141.200 137.675 135.764  1.00  0.00    -0.055 C 
ATOM      7  C   UNL     1     140.690 137.505 134.534  1.00  0.00    -0.023 C 
ATOM      8  C   UNL     1     142.444 138.456 135.945  1.00  0.00    -0.001 C 
ATOM      9  C   UNL     1     141.317 138.172 133.338  1.00  0.00     0.035 C 
ATOM     10  C   UNL     1     143.200 138.791 134.893  1.00  0.00    -0.023 C 
ENDBRANCH   2   4
ENDBRANCH   1   2
BRANCH   1  11
ATOM     11  C   UNL     1     144.297 141.561 132.641  1.00  0.00     0.027 C 
BRANCH  11  12
ATOM     12  C   UNL     1     144.239 142.309 133.950  1.00  0.00    -0.028 C 
ATOM     13  C   UNL     1     143.105 142.541 134.646  1.00  0.00    -0.080 C 
ATOM     14  C   UNL     1     143.206 143.267 135.962  1.00  0.00     0.039 C 
ATOM     15  C   UNL     1     141.749 142.112 134.135  1.00  0.00     0.039 C 
ENDBRANCH  11  12
ENDBRANCH   1  11
TORSDOF 4
ENDMDL
MODEL 6
REMARK VINA RESULT:    -4.822      2.914      4.362
REMARK INTER + INTRA:          -7.367
REMARK INTER:                  -6.173
REMARK INTRA:                  -1.194
REMARK UNBOUND:                -1.417
REMARK SMILES CC(C)=CCC[C@@H](C)[C@H]1C=CC(C)=CC1
REMARK SMILES IDX 6 1 7 2 8 3 9 4 13 5 12 6 14 7 11 8 15 9 10 10 5 11 4 12
REMARK SMILES IDX 2 13 1 14 3 15
REMARK H PARENT
REMARK Flexibility Score: inf
ROOT
ATOM      1  C   UNL     1     137.588 142.099 132.851  1.00  0.00     0.008 C 
ENDROOT
BRANCH   1   2
ATOM      2  C   UNL     1     138.706 143.057 132.353  1.00  0.00    -0.007 C 
ATOM      3  C   UNL     1     138.187 143.967 131.224  1.00  0.00     0.008 C 
BRANCH   2   4
ATOM      4  C   UNL     1     139.333 143.909 133.497  1.00  0.00     0.018 C 
ATOM      5  C   UNL     1     141.693 145.110 136.948  1.00  0.00     0.044 C 
ATOM      6  C   UNL     1     140.983 144.556 135.749  1.00  0.00    -0.055 C 
ATOM      7  C   UNL     1     141.474 144.762 134.516  1.00  0.00    -0.023 C 
ATOM      8  C   UNL     1     139.771 143.725 135.930  1.00  0.00    -0.001 C 
ATOM      9  C   UNL     1     140.861 144.088 133.317  1.00  0.00     0.035 C 
ATOM     10  C   UNL     1     139.018 143.376 134.881  1.00  0.00    -0.023 C 
ENDBRANCH   2   4
ENDBRANCH   1   2
BRANCH   1  11
ATOM     11  C   UNL     1     137.923 140.622 132.597  1.00  0.00     0.027 C 
BRANCH  11  12
ATOM     12  C   UNL     1     137.957 139.852 133.894  1.00  0.00    -0.028 C 
ATOM     13  C   UNL     1     139.081 139.592 134.598  1.00  0.00    -0.080 C 
ATOM     14  C   UNL     1     138.956 138.846 135.900  1.00  0.00     0.039 C 
ATOM     15  C   UNL     1     140.448 140.011 134.108  1.00  0.00     0.039 C 
ENDBRANCH  11  12
ENDBRANCH   1  11
TORSDOF 4
ENDMDL
MODEL 7
REMARK VINA RESULT:    -4.820      2.089      4.074
REMARK INTER + INTRA:          -7.364
REMARK INTER:                  -6.181
REMARK INTRA:                  -1.183
REMARK UNBOUND:                -1.417
REMARK SMILES CC(C)=CCC[C@@H](C)[C@H]1C=CC(C)=CC1
REMARK SMILES IDX 6 1 7 2 8 3 9 4 13 5 12 6 14 7 11 8 15 9 10 10 5 11 4 12
REMARK SMILES IDX 2 13 1 14 3 15
REMARK H PARENT
REMARK Flexibility Score: inf
ROOT
ATOM      1  C   UNL     1     142.107 144.641 132.938  1.00  0.00     0.008 C 
ENDROOT
BRANCH   1   2
ATOM      2  C   UNL     1     143.038 143.500 132.442  1.00  0.00    -0.007 C 
ATOM      3  C   UNL     1     143.942 143.988 131.294  1.00  0.00     0.008 C 
BRANCH   2   4
ATOM      4  C   UNL     1     143.894 142.873 133.584  1.00  0.00     0.018 C 
ATOM      5  C   UNL     1     145.123 140.476 136.999  1.00  0.00     0.044 C 
ATOM      6  C   UNL     1     144.562 141.196 135.809  1.00  0.00    -0.055 C 
ATOM      7  C   UNL     1     144.796 140.736 134.569  1.00  0.00    -0.023 C 
ATOM      8  C   UNL     1     143.696 142.380 136.005  1.00  0.00    -0.001 C 
ATOM      9  C   UNL     1     144.118 141.354 133.375  1.00  0.00     0.035 C 
ATOM     10  C   UNL     1     143.338 143.144 134.967  1.00  0.00    -0.023 C 
ENDBRANCH   2   4
ENDBRANCH   1   2
BRANCH   1  11
ATOM     11  C   UNL     1     140.626 144.359 132.648  1.00  0.00     0.027 C 
BRANCH  11  12
ATOM     12  C   UNL     1     139.838 144.273 133.932  1.00  0.00    -0.028 C 
ATOM     13  C   UNL     1     139.580 143.123 134.593  1.00  0.00    -0.080 C 
ATOM     14  C   UNL     1     138.814 143.195 135.888  1.00  0.00     0.039 C 
ATOM     15  C   UNL     1     140.020 141.778 134.063  1.00  0.00     0.039 C 
ENDBRANCH  11  12
ENDBRANCH   1  11
TORSDOF 4
ENDMDL
MODEL 8
REMARK VINA RESULT:    -4.802      3.117      5.073
REMARK INTER + INTRA:          -7.342
REMARK INTER:                  -6.122
REMARK INTRA:                  -1.220
REMARK UNBOUND:                -1.417
REMARK SMILES CC(C)=CCC[C@@H](C)[C@H]1C=CC(C)=CC1
REMARK SMILES IDX 6 1 7 2 8 3 9 4 13 5 12 6 14 7 11 8 15 9 10 10 5 11 4 12
REMARK SMILES IDX 2 13 1 14 3 15
REMARK H PARENT
REMARK Flexibility Score: inf
ROOT
ATOM      1  C   UNL     1     140.255 137.519 132.876  1.00  0.00     0.008 C 
ENDROOT
BRANCH   1   2
ATOM      2  C   UNL     1     139.280 138.601 132.336  1.00  0.00    -0.007 C 
ATOM      3  C   UNL     1     138.391 138.031 131.215  1.00  0.00     0.008 C 
BRANCH   2   4
ATOM      4  C   UNL     1     138.404 139.244 133.454  1.00  0.00     0.018 C 
ATOM      5  C   UNL     1     137.127 141.654 136.843  1.00  0.00     0.044 C 
ATOM      6  C   UNL     1     137.708 140.927 135.666  1.00  0.00    -0.055 C 
ATOM      7  C   UNL     1     137.523 141.398 134.422  1.00  0.00    -0.023 C 
ATOM      8  C   UNL     1     138.539 139.722 135.883  1.00  0.00    -0.001 C 
ATOM      9  C   UNL     1     138.223 140.768 133.246  1.00  0.00     0.035 C 
ATOM     10  C   UNL     1     138.910 138.954 134.853  1.00  0.00    -0.023 C 
ENDBRANCH   2   4
ENDBRANCH   1   2
BRANCH   1  11
ATOM     11  C   UNL     1     141.728 137.882 132.632  1.00  0.00     0.027 C 
BRANCH  11  12
ATOM     12  C   UNL     1     142.476 137.979 133.938  1.00  0.00    -0.028 C 
ATOM     13  C   UNL     1     142.665 139.128 134.626  1.00  0.00    -0.080 C 
ATOM     14  C   UNL     1     143.399 139.065 135.940  1.00  0.00     0.039 C 
ATOM     15  C   UNL     1     142.180 140.461 134.107  1.00  0.00     0.039 C 
ENDBRANCH  11  12
ENDBRANCH   1  11
TORSDOF 4
ENDMDL
MODEL 9
REMARK VINA RESULT:    -4.751      1.661      3.577
REMARK INTER + INTRA:          -7.280
REMARK INTER:                  -5.878
REMARK INTRA:                  -1.402
REMARK UNBOUND:                -1.417
REMARK SMILES CC(C)=CCC[C@@H](C)[C@H]1C=CC(C)=CC1
REMARK SMILES IDX 6 1 7 2 8 3 9 4 13 5 12 6 14 7 11 8 15 9 10 10 5 11 4 12
REMARK SMILES IDX 2 13 1 14 3 15
REMARK H PARENT
REMARK Flexibility Score: inf
ROOT
ATOM      1  C   UNL     1     143.643 138.797 135.691  1.00  0.00     0.008 C 
ENDROOT
BRANCH   1   2
ATOM      2  C   UNL     1     143.972 140.202 136.266  1.00  0.00    -0.007 C 
ATOM      3  C   UNL     1     145.036 140.106 137.376  1.00  0.00     0.008 C 
BRANCH   2   4
ATOM      4  C   UNL     1     144.414 141.221 135.172  1.00  0.00     0.018 C 
ATOM      5  C   UNL     1     144.546 143.573 131.516  1.00  0.00     0.044 C 
ATOM      6  C   UNL     1     144.335 142.725 132.735  1.00  0.00    -0.055 C 
ATOM      7  C   UNL     1     143.743 143.241 133.824  1.00  0.00    -0.023 C 
ATOM      8  C   UNL     1     144.724 141.297 132.715  1.00  0.00    -0.001 C 
ATOM      9  C   UNL     1     143.387 142.367 134.998  1.00  0.00     0.035 C 
ATOM     10  C   UNL     1     144.719 140.571 133.838  1.00  0.00    -0.023 C 
ENDBRANCH   2   4
ENDBRANCH   1   2
BRANCH   1  11
ATOM     11  C   UNL     1     142.148 138.624 135.382  1.00  0.00     0.027 C 
BRANCH  11  12
ATOM     12  C   UNL     1     141.949 138.126 133.972  1.00  0.00    -0.028 C 
ATOM     13  C   UNL     1     141.497 138.887 132.951  1.00  0.00    -0.080 C 
ATOM     14  C   UNL     1     141.387 138.263 131.584  1.00  0.00     0.039 C 
ATOM     15  C   UNL     1     141.085 140.328 133.147  1.00  0.00     0.039 C 
ENDBRANCH  11  12
ENDBRANCH   1  11
TORSDOF 4
ENDMDL
