MODEL 1
REMARK VINA RESULT:    -3.828      0.000      0.000
REMARK INTER + INTRA:          -5.244
REMARK INTER:                  -4.947
REMARK INTRA:                  -0.297
REMARK UNBOUND:                -0.297
REMARK SMILES CCCCCCC(=O)[O-]
REMARK SMILES IDX 5 1 6 2 7 3 8 4 9 5 4 6 3 7 2 8 1 9
REMARK H PARENT
REMARK Flexibility Score: inf
ROOT
ATOM      1  C   UNL     1       5.512 -11.099   7.265  1.00  0.00     0.006 C 
ENDROOT
BRANCH   1   2
ATOM      2  C   UNL     1       4.069 -10.751   6.875  1.00  0.00     0.053 C 
BRANCH   2   3
ATOM      3  C   UNL     1       4.055  -9.812   5.710  1.00  0.00     0.041 C 
ATOM      4  O   UNL     1       4.543  -8.657   5.821  1.00  0.00    -0.550 OA
ATOM      5  O   UNL     1       3.547 -10.231   4.487  1.00  0.00    -0.550 OA
ENDBRANCH   2   3
ENDBRANCH   1   2
BRANCH   1   6
ATOM      6  C   UNL     1       5.977 -12.451   6.698  1.00  0.00     0.000 C 
BRANCH   6   7
ATOM      7  C   UNL     1       4.845 -13.438   6.358  1.00  0.00    -0.000 C 
BRANCH   7   8
ATOM      8  C   UNL     1       4.829 -13.843   4.877  1.00  0.00    -0.003 C 
ATOM      9  C   UNL     1       3.463 -14.393   4.473  1.00  0.00     0.004 C 
ENDBRANCH   7   8
ENDBRANCH   6   7
ENDBRANCH   1   6
TORSDOF 5
ENDMDL
MODEL 2
REMARK VINA RESULT:    -3.715      1.150      1.825
REMARK INTER + INTRA:          -5.098
REMARK INTER:                  -4.822
REMARK INTRA:                  -0.276
REMARK UNBOUND:                -0.297
REMARK SMILES CCCCCCC(=O)[O-]
REMARK SMILES IDX 5 1 6 2 7 3 8 4 9 5 4 6 3 7 2 8 1 9
REMARK H PARENT
REMARK Flexibility Score: inf
ROOT
ATOM      1  C   UNL     1       3.858 -10.842   6.891  1.00  0.00     0.006 C 
ENDROOT
BRANCH   1   2
ATOM      2  C   UNL     1       3.696  -9.949   5.654  1.00  0.00     0.053 C 
BRANCH   2   3
ATOM      3  C   UNL     1       3.708  -8.506   6.046  1.00  0.00     0.041 C 
ATOM      4  O   UNL     1       4.476  -7.696   5.462  1.00  0.00    -0.550 OA
ATOM      5  O   UNL     1       2.834  -8.044   7.022  1.00  0.00    -0.550 OA
ENDBRANCH   2   3
ENDBRANCH   1   2
BRANCH   1   6
ATOM      6  C   UNL     1       5.330 -11.092   7.262  1.00  0.00     0.000 C 
BRANCH   6   7
ATOM      7  C   UNL     1       5.963 -12.335   6.609  1.00  0.00    -0.000 C 
BRANCH   7   8
ATOM      8  C   UNL     1       4.973 -13.498   6.454  1.00  0.00    -0.003 C 
ATOM      9  C   UNL     1       4.796 -13.877   4.986  1.00  0.00     0.004 C 
ENDBRANCH   7   8
ENDBRANCH   6   7
ENDBRANCH   1   6
TORSDOF 5
ENDMDL
MODEL 3
REMARK VINA RESULT:    -3.611      1.066      1.753
REMARK INTER + INTRA:          -4.963
REMARK INTER:                  -4.641
REMARK INTRA:                  -0.322
REMARK UNBOUND:                -0.297
REMARK SMILES CCCCCCC(=O)[O-]
REMARK SMILES IDX 5 1 6 2 7 3 8 4 9 5 4 6 3 7 2 8 1 9
REMARK H PARENT
REMARK Flexibility Score: inf
ROOT
ATOM      1  C   UNL     1       4.159 -10.651   6.908  1.00  0.00     0.006 C 
ENDROOT
BRANCH   1   2
ATOM      2  C   UNL     1       4.058  -9.382   6.053  1.00  0.00     0.053 C 
BRANCH   2   3
ATOM      3  C   UNL     1       3.342  -9.670   4.772  1.00  0.00     0.041 C 
ATOM      4  O   UNL     1       3.582 -10.730   4.136  1.00  0.00    -0.550 OA
ATOM      5  O   UNL     1       2.371  -8.793   4.305  1.00  0.00    -0.550 OA
ENDBRANCH   2   3
ENDBRANCH   1   2
BRANCH   1   6
ATOM      6  C   UNL     1       5.612 -11.056   7.212  1.00  0.00     0.000 C 
BRANCH   6   7
ATOM      7  C   UNL     1       5.984 -12.494   6.807  1.00  0.00    -0.000 C 
BRANCH   7   8
ATOM      8  C   UNL     1       4.758 -13.362   6.489  1.00  0.00    -0.003 C 
ATOM      9  C   UNL     1       4.810 -13.882   5.054  1.00  0.00     0.004 C 
ENDBRANCH   7   8
ENDBRANCH   6   7
ENDBRANCH   1   6
TORSDOF 5
ENDMDL
MODEL 4
REMARK VINA RESULT:    -3.608      1.848      3.970
REMARK INTER + INTRA:          -4.959
REMARK INTER:                  -4.707
REMARK INTRA:                  -0.252
REMARK UNBOUND:                -0.297
REMARK SMILES CCCCCCC(=O)[O-]
REMARK SMILES IDX 5 1 6 2 7 3 8 4 9 5 4 6 3 7 2 8 1 9
REMARK H PARENT
REMARK Flexibility Score: inf
ROOT
ATOM      1  C   UNL     1       4.856 -13.423   6.478  1.00  0.00     0.006 C 
ENDROOT
BRANCH   1   2
ATOM      2  C   UNL     1       4.868 -13.848   5.004  1.00  0.00     0.053 C 
BRANCH   2   3
ATOM      3  C   UNL     1       3.477 -13.870   4.454  1.00  0.00     0.041 C 
ATOM      4  O   UNL     1       2.917 -14.966   4.189  1.00  0.00    -0.550 OA
ATOM      5  O   UNL     1       2.779 -12.681   4.282  1.00  0.00    -0.550 OA
ENDBRANCH   2   3
ENDBRANCH   1   2
BRANCH   1   6
ATOM      6  C   UNL     1       6.045 -12.522   6.853  1.00  0.00     0.000 C 
BRANCH   6   7
ATOM      7  C   UNL     1       5.667 -11.091   7.277  1.00  0.00    -0.000 C 
BRANCH   7   8
ATOM      8  C   UNL     1       4.205 -10.741   6.964  1.00  0.00    -0.003 C 
ATOM      9  C   UNL     1       4.082  -9.309   6.448  1.00  0.00     0.004 C 
ENDBRANCH   7   8
ENDBRANCH   6   7
ENDBRANCH   1   6
TORSDOF 5
ENDMDL
MODEL 5
REMARK VINA RESULT:    -3.601      1.332      2.420
REMARK INTER + INTRA:          -4.950
REMARK INTER:                  -4.743
REMARK INTRA:                  -0.207
REMARK UNBOUND:                -0.297
REMARK SMILES CCCCCCC(=O)[O-]
REMARK SMILES IDX 5 1 6 2 7 3 8 4 9 5 4 6 3 7 2 8 1 9
REMARK H PARENT
REMARK Flexibility Score: inf
ROOT
ATOM      1  C   UNL     1       4.901 -13.404   6.511  1.00  0.00     0.006 C 
ENDROOT
BRANCH   1   2
ATOM      2  C   UNL     1       5.725 -12.134   6.755  1.00  0.00     0.053 C 
BRANCH   2   3
ATOM      3  C   UNL     1       4.828 -10.939   6.849  1.00  0.00     0.041 C 
ATOM      4  O   UNL     1       3.584 -11.089   6.968  1.00  0.00    -0.550 OA
ATOM      5  O   UNL     1       5.372  -9.661   6.858  1.00  0.00    -0.550 OA
ENDBRANCH   2   3
ENDBRANCH   1   2
BRANCH   1   6
ATOM      6  C   UNL     1       4.831 -13.798   5.026  1.00  0.00     0.000 C 
BRANCH   6   7
ATOM      7  C   UNL     1       3.503 -13.460   4.325  1.00  0.00    -0.000 C 
BRANCH   7   8
ATOM      8  C   UNL     1       2.964 -14.619   3.473  1.00  0.00    -0.003 C 
ATOM      9  C   UNL     1       2.062 -15.534   4.298  1.00  0.00     0.004 C 
ENDBRANCH   7   8
ENDBRANCH   6   7
ENDBRANCH   1   6
TORSDOF 5
ENDMDL
MODEL 6
REMARK VINA RESULT:    -3.519      2.857      3.707
REMARK INTER + INTRA:          -4.845
REMARK INTER:                  -4.756
REMARK INTRA:                  -0.088
REMARK UNBOUND:                -0.297
REMARK SMILES CCCCCCC(=O)[O-]
REMARK SMILES IDX 5 1 6 2 7 3 8 4 9 5 4 6 3 7 2 8 1 9
REMARK H PARENT
REMARK Flexibility Score: inf
ROOT
ATOM      1  C   UNL     1       4.604 -12.793   4.922  1.00  0.00     0.006 C 
ENDROOT
BRANCH   1   2
ATOM      2  C   UNL     1       5.246 -13.239   6.242  1.00  0.00     0.053 C 
BRANCH   2   3
ATOM      3  C   UNL     1       5.589 -12.050   7.084  1.00  0.00     0.041 C 
ATOM      4  O   UNL     1       6.739 -11.939   7.584  1.00  0.00    -0.550 OA
ATOM      5  O   UNL     1       4.654 -11.041   7.275  1.00  0.00    -0.550 OA
ENDBRANCH   2   3
ENDBRANCH   1   2
BRANCH   1   6
ATOM      6  C   UNL     1       4.871 -13.770   3.765  1.00  0.00     0.000 C 
BRANCH   6   7
ATOM      7  C   UNL     1       4.902 -13.128   2.366  1.00  0.00    -0.000 C 
BRANCH   7   8
ATOM      8  C   UNL     1       6.204 -13.416   1.604  1.00  0.00    -0.003 C 
ATOM      9  C   UNL     1       6.325 -12.527   0.368  1.00  0.00     0.004 C 
ENDBRANCH   7   8
ENDBRANCH   6   7
ENDBRANCH   1   6
TORSDOF 5
ENDMDL
MODEL 7
REMARK VINA RESULT:    -3.486      2.094      3.098
REMARK INTER + INTRA:          -4.802
REMARK INTER:                  -4.571
REMARK INTRA:                  -0.231
REMARK UNBOUND:                -0.297
REMARK SMILES CCCCCCC(=O)[O-]
REMARK SMILES IDX 5 1 6 2 7 3 8 4 9 5 4 6 3 7 2 8 1 9
REMARK H PARENT
REMARK Flexibility Score: inf
ROOT
ATOM      1  C   UNL     1       3.947  -9.596   5.811  1.00  0.00     0.006 C 
ENDROOT
BRANCH   1   2
ATOM      2  C   UNL     1       4.528  -8.237   6.224  1.00  0.00     0.053 C 
BRANCH   2   3
ATOM      3  C   UNL     1       3.458  -7.366   6.803  1.00  0.00     0.041 C 
ATOM      4  O   UNL     1       3.762  -6.295   7.392  1.00  0.00    -0.550 OA
ATOM      5  O   UNL     1       2.121  -7.710   6.647  1.00  0.00    -0.550 OA
ENDBRANCH   2   3
ENDBRANCH   1   2
BRANCH   1   6
ATOM      6  C   UNL     1       4.132 -10.680   6.887  1.00  0.00     0.000 C 
BRANCH   6   7
ATOM      7  C   UNL     1       4.496 -12.075   6.349  1.00  0.00    -0.000 C 
BRANCH   7   8
ATOM      8  C   UNL     1       5.836 -12.594   6.889  1.00  0.00    -0.003 C 
ATOM      9  C   UNL     1       6.600 -11.490   7.616  1.00  0.00     0.004 C 
ENDBRANCH   7   8
ENDBRANCH   6   7
ENDBRANCH   1   6
TORSDOF 5
ENDMDL
MODEL 8
REMARK VINA RESULT:    -3.476      2.735      4.352
REMARK INTER + INTRA:          -4.789
REMARK INTER:                  -4.659
REMARK INTRA:                  -0.130
REMARK UNBOUND:                -0.297
REMARK SMILES CCCCCCC(=O)[O-]
REMARK SMILES IDX 5 1 6 2 7 3 8 4 9 5 4 6 3 7 2 8 1 9
REMARK H PARENT
REMARK Flexibility Score: inf
ROOT
ATOM      1  C   UNL     1       4.902 -13.728   3.948  1.00  0.00     0.006 C 
ENDROOT
BRANCH   1   2
ATOM      2  C   UNL     1       4.132 -12.904   2.908  1.00  0.00     0.053 C 
BRANCH   2   3
ATOM      3  C   UNL     1       4.934 -12.767   1.652  1.00  0.00     0.041 C 
ATOM      4  O   UNL     1       5.817 -13.619   1.367  1.00  0.00    -0.550 OA
ATOM      5  O   UNL     1       4.670 -11.727   0.770  1.00  0.00    -0.550 OA
ENDBRANCH   2   3
ENDBRANCH   1   2
BRANCH   1   6
ATOM      6  C   UNL     1       4.287 -13.643   5.356  1.00  0.00     0.000 C 
BRANCH   6   7
ATOM      7  C   UNL     1       5.296 -13.392   6.491  1.00  0.00    -0.000 C 
BRANCH   7   8
ATOM      8  C   UNL     1       5.455 -11.903   6.831  1.00  0.00    -0.003 C 
ATOM      9  C   UNL     1       6.734 -11.655   7.628  1.00  0.00     0.004 C 
ENDBRANCH   7   8
ENDBRANCH   6   7
ENDBRANCH   1   6
TORSDOF 5
ENDMDL
MODEL 9
REMARK VINA RESULT:    -3.449      1.696      3.549
REMARK INTER + INTRA:          -4.754
REMARK INTER:                  -4.461
REMARK INTRA:                  -0.293
REMARK UNBOUND:                -0.297
REMARK SMILES CCCCCCC(=O)[O-]
REMARK SMILES IDX 5 1 6 2 7 3 8 4 9 5 4 6 3 7 2 8 1 9
REMARK H PARENT
REMARK Flexibility Score: inf
ROOT
ATOM      1  C   UNL     1       4.678 -13.977   5.082  1.00  0.00     0.006 C 
ENDROOT
BRANCH   1   2
ATOM      2  C   UNL     1       3.397 -13.441   4.431  1.00  0.00     0.053 C 
BRANCH   2   3
ATOM      3  C   UNL     1       3.717 -12.731   3.153  1.00  0.00     0.041 C 
ATOM      4  O   UNL     1       3.693 -11.473   3.103  1.00  0.00    -0.550 OA
ATOM      5  O   UNL     1       4.091 -13.458   2.030  1.00  0.00    -0.550 OA
ENDBRANCH   2   3
ENDBRANCH   1   2
BRANCH   1   6
ATOM      6  C   UNL     1       4.920 -13.406   6.490  1.00  0.00     0.000 C 
BRANCH   6   7
ATOM      7  C   UNL     1       5.959 -12.273   6.563  1.00  0.00    -0.000 C 
BRANCH   7   8
ATOM      8  C   UNL     1       5.423 -11.014   7.259  1.00  0.00    -0.003 C 
ATOM      9  C   UNL     1       3.955 -10.777   6.912  1.00  0.00     0.004 C 
ENDBRANCH   7   8
ENDBRANCH   6   7
ENDBRANCH   1   6
TORSDOF 5
ENDMDL
