MODEL 1
REMARK VINA RESULT:    -5.962      0.000      0.000
REMARK INTER + INTRA:         -11.871
REMARK INTER:                 -10.319
REMARK INTRA:                  -1.552
REMARK UNBOUND:                -1.552
REMARK SMILES OC[C@@H]1O[C@H](O[C@@H]2[C@@H](O)[C@H](O)[C@H](O)O[C@@H]2CO)[C@@H](O)[C@H](O)[C@@H]1O[C@@H]1O[C@H](CO)[C@H](O)[C@H](O)[C@@H]1O
REMARK SMILES IDX 22 1 3 2 4 3 5 4 18 5 20 6 23 7 24 8 26 9 29 10 25 11 31 12
REMARK SMILES IDX 33 13 27 14 28 15 30 17 32 19 34 21 2 23 1 24 21 26 19 28
REMARK SMILES IDX 6 30 7 31 15 32 8 33 14 34 10 35 12 36 16 37 17 38 9 40
REMARK SMILES IDX 11 42 13 44
REMARK H PARENT 28 16 30 18 32 20 34 22 1 25 21 27 19 29 17 39 9 41 11 43
REMARK H PARENT 13 45
REMARK Flexibility Score: inf
ROOT
ATOM      1  C   UNL     1      33.443 -37.065  -1.232  1.00  0.00     0.184 C 
ATOM      2  C   UNL     1      34.400 -37.594  -0.127  1.00  0.00     0.178 C 
ATOM      3  O   UNL     1      34.420 -39.020  -0.067  1.00  0.00    -0.341 OA
ATOM      4  C   UNL     1      34.690 -39.683  -1.299  1.00  0.00     0.282 C 
ATOM      5  C   UNL     1      33.766 -39.211  -2.454  1.00  0.00     0.202 C 
ATOM      6  C   UNL     1      33.799 -37.680  -2.595  1.00  0.00     0.180 C 
ENDROOT
BRANCH   1   7
ATOM      7  O   UNL     1      33.403 -35.641  -1.278  1.00  0.00    -0.341 OA
BRANCH   7   8
ATOM      8  C   UNL     1      32.607 -35.157  -2.357  1.00  0.00     0.282 C 
ATOM      9  C   UNL     1      33.570 -33.154  -3.306  1.00  0.00     0.178 C 
ATOM     10  C   UNL     1      32.211 -32.429  -3.358  1.00  0.00     0.177 C 
ATOM     11  O   UNL     1      33.456 -34.564  -3.336  1.00  0.00    -0.341 OA
ATOM     12  C   UNL     1      31.286 -32.821  -2.197  1.00  0.00     0.179 C 
ATOM     13  C   UNL     1      31.347 -34.340  -1.873  1.00  0.00     0.202 C 
BRANCH   9  14
ATOM     14  C   UNL     1      34.593 -32.635  -2.263  1.00  0.00     0.191 C 
BRANCH  14  15
ATOM     15  O   UNL     1      35.051 -31.346  -2.559  1.00  0.00    -0.394 OA
ATOM     16  H   UNL     1      34.703 -31.126  -3.466  1.00  0.00     0.210 HD
ENDBRANCH  14  15
ENDBRANCH   9  14
BRANCH  10  17
ATOM     17  O   UNL     1      32.424 -31.038  -3.362  1.00  0.00    -0.387 OA
ATOM     18  H   UNL     1      31.575 -30.590  -3.604  1.00  0.00     0.211 HD
ENDBRANCH  10  17
BRANCH  12  19
ATOM     19  O   UNL     1      31.548 -32.016  -1.071  1.00  0.00    -0.387 OA
ATOM     20  H   UNL     1      30.689 -31.634  -0.738  1.00  0.00     0.211 HD
ENDBRANCH  12  19
BRANCH  13  21
ATOM     21  O   UNL     1      31.082 -34.580  -0.506  1.00  0.00    -0.385 OA
ATOM     22  H   UNL     1      31.775 -34.091   0.013  1.00  0.00     0.211 HD
ENDBRANCH  13  21
ENDBRANCH   7   8
ENDBRANCH   1   7
BRANCH   2  23
ATOM     23  C   UNL     1      35.834 -37.001  -0.085  1.00  0.00     0.191 C 
BRANCH  23  24
ATOM     24  O   UNL     1      35.859 -35.714  -0.630  1.00  0.00    -0.394 OA
ATOM     25  H   UNL     1      35.099 -35.661  -1.275  1.00  0.00     0.210 HD
ENDBRANCH  23  24
ENDBRANCH   2  23
BRANCH   6  26
ATOM     26  O   UNL     1      35.079 -37.248  -3.013  1.00  0.00    -0.387 OA
ATOM     27  H   UNL     1      35.244 -36.386  -2.549  1.00  0.00     0.211 HD
ENDBRANCH   6  26
BRANCH   5  28
ATOM     28  O   UNL     1      32.456 -39.643  -2.187  1.00  0.00    -0.385 OA
ATOM     29  H   UNL     1      31.855 -39.173  -2.814  1.00  0.00     0.211 HD
ENDBRANCH   5  28
BRANCH   4  30
ATOM     30  O   UNL     1      36.060 -39.537  -1.645  1.00  0.00    -0.341 OA
BRANCH  30  31
ATOM     31  C   UNL     1      36.687 -40.775  -1.958  1.00  0.00     0.184 C 
ATOM     32  C   UNL     1      37.939 -40.518  -2.825  1.00  0.00     0.178 C 
ATOM     33  C   UNL     1      37.108 -41.513  -0.679  1.00  0.00     0.180 C 
ATOM     34  O   UNL     1      38.613 -41.722  -3.174  1.00  0.00    -0.342 OA
ATOM     35  C   UNL     1      37.736 -42.841  -1.112  1.00  0.00     0.201 C 
ATOM     36  C   UNL     1      38.901 -42.611  -2.097  1.00  0.00     0.279 C 
BRANCH  32  37
ATOM     37  C   UNL     1      38.917 -39.463  -2.243  1.00  0.00     0.191 C 
BRANCH  37  38
ATOM     38  O   UNL     1      38.739 -38.211  -2.859  1.00  0.00    -0.394 OA
ATOM     39  H   UNL     1      39.647 -37.879  -3.107  1.00  0.00     0.210 HD
ENDBRANCH  37  38
ENDBRANCH  32  37
BRANCH  33  40
ATOM     40  O   UNL     1      35.982 -41.770   0.123  1.00  0.00    -0.387 OA
ATOM     41  H   UNL     1      35.561 -42.598  -0.225  1.00  0.00     0.211 HD
ENDBRANCH  33  40
BRANCH  35  42
ATOM     42  O   UNL     1      38.202 -43.561  -0.006  1.00  0.00    -0.385 OA
ATOM     43  H   UNL     1      39.051 -43.156   0.277  1.00  0.00     0.211 HD
ENDBRANCH  35  42
BRANCH  36  44
ATOM     44  O   UNL     1      40.069 -42.198  -1.419  1.00  0.00    -0.366 OA
ATOM     45  H   UNL     1      40.176 -41.227  -1.597  1.00  0.00     0.213 HD
ENDBRANCH  36  44
ENDBRANCH  30  31
ENDBRANCH   4  30
TORSDOF 18
ENDMDL
MODEL 2
REMARK VINA RESULT:    -5.960      1.237      2.227
REMARK INTER + INTRA:         -11.867
REMARK INTER:                  -9.795
REMARK INTRA:                  -2.071
REMARK UNBOUND:                -1.552
REMARK SMILES OC[C@@H]1O[C@H](O[C@@H]2[C@@H](O)[C@H](O)[C@H](O)O[C@@H]2CO)[C@@H](O)[C@H](O)[C@@H]1O[C@@H]1O[C@H](CO)[C@H](O)[C@H](O)[C@@H]1O
REMARK SMILES IDX 22 1 3 2 4 3 5 4 18 5 20 6 23 7 24 8 26 9 29 10 25 11 31 12
REMARK SMILES IDX 33 13 27 14 28 15 30 17 32 19 34 21 2 23 1 24 21 26 19 28
REMARK SMILES IDX 6 30 7 31 15 32 8 33 14 34 10 35 12 36 16 37 17 38 9 40
REMARK SMILES IDX 11 42 13 44
REMARK H PARENT 28 16 30 18 32 20 34 22 1 25 21 27 19 29 17 39 9 41 11 43
REMARK H PARENT 13 45
REMARK Flexibility Score: inf
ROOT
ATOM      1  C   UNL     1      34.870 -36.156  -2.041  1.00  0.00     0.184 C 
ATOM      2  C   UNL     1      34.690 -37.621  -2.530  1.00  0.00     0.178 C 
ATOM      3  O   UNL     1      35.889 -38.155  -3.093  1.00  0.00    -0.341 OA
ATOM      4  C   UNL     1      37.049 -38.057  -2.272  1.00  0.00     0.282 C 
ATOM      5  C   UNL     1      37.300 -36.617  -1.748  1.00  0.00     0.202 C 
ATOM      6  C   UNL     1      36.046 -36.057  -1.057  1.00  0.00     0.180 C 
ENDROOT
BRANCH   1   7
ATOM      7  O   UNL     1      33.667 -35.614  -1.501  1.00  0.00    -0.341 OA
BRANCH   7   8
ATOM      8  C   UNL     1      32.787 -35.137  -2.515  1.00  0.00     0.282 C 
ATOM      9  C   UNL     1      33.479 -32.958  -3.299  1.00  0.00     0.178 C 
ATOM     10  C   UNL     1      32.043 -32.399  -3.258  1.00  0.00     0.177 C 
ATOM     11  O   UNL     1      33.530 -34.364  -3.454  1.00  0.00    -0.341 OA
ATOM     12  C   UNL     1      31.207 -32.998  -2.118  1.00  0.00     0.179 C 
ATOM     13  C   UNL     1      31.456 -34.522  -1.934  1.00  0.00     0.202 C 
BRANCH   9  14
ATOM     14  C   UNL     1      34.466 -32.413  -2.235  1.00  0.00     0.191 C 
BRANCH  14  15
ATOM     15  O   UNL     1      35.058 -31.206  -2.624  1.00  0.00    -0.394 OA
ATOM     16  H   UNL     1      36.041 -31.366  -2.630  1.00  0.00     0.210 HD
ENDBRANCH  14  15
ENDBRANCH   9  14
BRANCH  10  17
ATOM     17  O   UNL     1      32.091 -30.997  -3.141  1.00  0.00    -0.387 OA
ATOM     18  H   UNL     1      32.624 -30.766  -2.339  1.00  0.00     0.211 HD
ENDBRANCH  10  17
BRANCH  12  19
ATOM     19  O   UNL     1      31.407 -32.269  -0.930  1.00  0.00    -0.387 OA
ATOM     20  H   UNL     1      32.377 -32.053  -0.841  1.00  0.00     0.211 HD
ENDBRANCH  12  19
BRANCH  13  21
ATOM     21  O   UNL     1      31.263 -34.910  -0.589  1.00  0.00    -0.385 OA
ATOM     22  H   UNL     1      30.531 -35.581  -0.585  1.00  0.00     0.211 HD
ENDBRANCH  13  21
ENDBRANCH   7   8
ENDBRANCH   1   7
BRANCH   2  23
ATOM     23  C   UNL     1      34.027 -38.622  -1.546  1.00  0.00     0.191 C 
BRANCH  23  24
ATOM     24  O   UNL     1      33.962 -39.902  -2.103  1.00  0.00    -0.394 OA
ATOM     25  H   UNL     1      32.994 -40.127  -2.193  1.00  0.00     0.210 HD
ENDBRANCH  23  24
ENDBRANCH   2  23
BRANCH   6  26
ATOM     26  O   UNL     1      35.765 -36.781   0.125  1.00  0.00    -0.387 OA
ATOM     27  H   UNL     1      34.792 -36.975   0.104  1.00  0.00     0.211 HD
ENDBRANCH   6  26
BRANCH   5  28
ATOM     28  O   UNL     1      37.658 -35.800  -2.834  1.00  0.00    -0.385 OA
ATOM     29  H   UNL     1      38.222 -36.341  -3.439  1.00  0.00     0.211 HD
ENDBRANCH   5  28
BRANCH   4  30
ATOM     30  O   UNL     1      36.971 -38.987  -1.200  1.00  0.00    -0.341 OA
BRANCH  30  31
ATOM     31  C   UNL     1      37.430 -40.284  -1.558  1.00  0.00     0.184 C 
ATOM     32  C   UNL     1      38.972 -40.287  -1.633  1.00  0.00     0.178 C 
ATOM     33  C   UNL     1      36.977 -41.328  -0.528  1.00  0.00     0.180 C 
ATOM     34  O   UNL     1      39.496 -41.561  -1.989  1.00  0.00    -0.342 OA
ATOM     35  C   UNL     1      37.484 -42.690  -1.014  1.00  0.00     0.201 C 
ATOM     36  C   UNL     1      39.011 -42.669  -1.234  1.00  0.00     0.279 C 
BRANCH  32  37
ATOM     37  C   UNL     1      39.676 -39.711  -0.375  1.00  0.00     0.191 C 
BRANCH  37  38
ATOM     38  O   UNL     1      40.005 -38.356  -0.552  1.00  0.00    -0.394 OA
ATOM     39  H   UNL     1      40.034 -38.191  -1.536  1.00  0.00     0.210 HD
ENDBRANCH  37  38
ENDBRANCH  32  37
BRANCH  33  40
ATOM     40  O   UNL     1      35.574 -41.355  -0.450  1.00  0.00    -0.387 OA
ATOM     41  H   UNL     1      35.335 -41.308   0.512  1.00  0.00     0.211 HD
ENDBRANCH  33  40
BRANCH  35  42
ATOM     42  O   UNL     1      37.163 -43.701  -0.102  1.00  0.00    -0.385 OA
ATOM     43  H   UNL     1      37.254 -43.327   0.802  1.00  0.00     0.211 HD
ENDBRANCH  35  42
BRANCH  36  44
ATOM     44  O   UNL     1      39.705 -42.769  -0.009  1.00  0.00    -0.366 OA
ATOM     45  H   UNL     1      39.504 -43.668   0.362  1.00  0.00     0.213 HD
ENDBRANCH  36  44
ENDBRANCH  30  31
ENDBRANCH   4  30
TORSDOF 18
ENDMDL
MODEL 3
REMARK VINA RESULT:    -5.491      3.489      8.912
REMARK INTER + INTRA:         -11.056
REMARK INTER:                  -9.282
REMARK INTRA:                  -1.773
REMARK UNBOUND:                -1.552
REMARK SMILES OC[C@@H]1O[C@H](O[C@@H]2[C@@H](O)[C@H](O)[C@H](O)O[C@@H]2CO)[C@@H](O)[C@H](O)[C@@H]1O[C@@H]1O[C@H](CO)[C@H](O)[C@H](O)[C@@H]1O
REMARK SMILES IDX 22 1 3 2 4 3 5 4 18 5 20 6 23 7 24 8 26 9 29 10 25 11 31 12
REMARK SMILES IDX 33 13 27 14 28 15 30 17 32 19 34 21 2 23 1 24 21 26 19 28
REMARK SMILES IDX 6 30 7 31 15 32 8 33 14 34 10 35 12 36 16 37 17 38 9 40
REMARK SMILES IDX 11 42 13 44
REMARK H PARENT 28 16 30 18 32 20 34 22 1 25 21 27 19 29 17 39 9 41 11 43
REMARK H PARENT 13 45
REMARK Flexibility Score: inf
ROOT
ATOM      1  C   UNL     1      37.232 -38.035  -2.079  1.00  0.00     0.184 C 
ATOM      2  C   UNL     1      36.720 -37.568  -3.470  1.00  0.00     0.178 C 
ATOM      3  O   UNL     1      36.260 -36.216  -3.451  1.00  0.00    -0.341 OA
ATOM      4  C   UNL     1      37.180 -35.262  -2.927  1.00  0.00     0.282 C 
ATOM      5  C   UNL     1      37.732 -35.657  -1.531  1.00  0.00     0.202 C 
ATOM      6  C   UNL     1      38.315 -37.080  -1.553  1.00  0.00     0.180 C 
ENDROOT
BRANCH   1   7
ATOM      7  O   UNL     1      37.670 -39.392  -2.091  1.00  0.00    -0.341 OA
BRANCH   7   8
ATOM      8  C   UNL     1      37.491 -40.028  -0.828  1.00  0.00     0.282 C 
ATOM      9  C   UNL     1      39.254 -41.629  -0.413  1.00  0.00     0.178 C 
ATOM     10  C   UNL     1      38.269 -42.704   0.084  1.00  0.00     0.177 C 
ATOM     11  O   UNL     1      38.768 -40.308  -0.260  1.00  0.00    -0.341 OA
ATOM     12  C   UNL     1      36.916 -42.648  -0.638  1.00  0.00     0.179 C 
ATOM     13  C   UNL     1      36.426 -41.191  -0.871  1.00  0.00     0.202 C 
BRANCH   9  14
ATOM     14  C   UNL     1      39.929 -41.887  -1.784  1.00  0.00     0.191 C 
BRANCH  14  15
ATOM     15  O   UNL     1      39.055 -41.683  -2.858  1.00  0.00    -0.394 OA
ATOM     16  H   UNL     1      38.163 -42.009  -2.558  1.00  0.00     0.210 HD
ENDBRANCH  14  15
ENDBRANCH   9  14
BRANCH  10  17
ATOM     17  O   UNL     1      38.851 -43.977  -0.073  1.00  0.00    -0.387 OA
ATOM     18  H   UNL     1      39.686 -44.009   0.458  1.00  0.00     0.211 HD
ENDBRANCH  10  17
BRANCH  12  19
ATOM     19  O   UNL     1      36.965 -43.399  -1.828  1.00  0.00    -0.387 OA
ATOM     20  H   UNL     1      37.742 -43.093  -2.374  1.00  0.00     0.211 HD
ENDBRANCH  12  19
BRANCH  13  21
ATOM     21  O   UNL     1      35.626 -41.102  -2.032  1.00  0.00    -0.385 OA
ATOM     22  H   UNL     1      35.609 -42.008  -2.441  1.00  0.00     0.211 HD
ENDBRANCH  13  21
ENDBRANCH   7   8
ENDBRANCH   1   7
BRANCH   2  23
ATOM     23  C   UNL     1      37.636 -37.841  -4.693  1.00  0.00     0.191 C 
BRANCH  23  24
ATOM     24  O   UNL     1      38.290 -39.069  -4.564  1.00  0.00    -0.394 OA
ATOM     25  H   UNL     1      38.115 -39.391  -3.635  1.00  0.00     0.210 HD
ENDBRANCH  23  24
ENDBRANCH   2  23
BRANCH   6  26
ATOM     26  O   UNL     1      39.464 -37.133  -2.377  1.00  0.00    -0.387 OA
ATOM     27  H   UNL     1      39.687 -36.192  -2.600  1.00  0.00     0.211 HD
ENDBRANCH   6  26
BRANCH   5  28
ATOM     28  O   UNL     1      36.687 -35.579  -0.595  1.00  0.00    -0.385 OA
ATOM     29  H   UNL     1      36.876 -36.237   0.116  1.00  0.00     0.211 HD
ENDBRANCH   5  28
BRANCH   4  30
ATOM     30  O   UNL     1      38.235 -35.038  -3.853  1.00  0.00    -0.341 OA
BRANCH  30  31
ATOM     31  C   UNL     1      37.946 -34.000  -4.780  1.00  0.00     0.184 C 
ATOM     32  C   UNL     1      37.920 -32.641  -4.047  1.00  0.00     0.178 C 
ATOM     33  C   UNL     1      39.005 -33.949  -5.891  1.00  0.00     0.180 C 
ATOM     34  O   UNL     1      37.634 -31.557  -4.923  1.00  0.00    -0.342 OA
ATOM     35  C   UNL     1      38.593 -32.832  -6.855  1.00  0.00     0.201 C 
ATOM     36  C   UNL     1      38.420 -31.491  -6.112  1.00  0.00     0.279 C 
BRANCH  32  37
ATOM     37  C   UNL     1      39.174 -32.358  -3.177  1.00  0.00     0.191 C 
BRANCH  37  38
ATOM     38  O   UNL     1      38.926 -31.335  -2.245  1.00  0.00    -0.394 OA
ATOM     39  H   UNL     1      38.573 -31.773  -1.421  1.00  0.00     0.210 HD
ENDBRANCH  37  38
ENDBRANCH  32  37
BRANCH  33  40
ATOM     40  O   UNL     1      39.039 -35.172  -6.583  1.00  0.00    -0.387 OA
ATOM     41  H   UNL     1      39.988 -35.349  -6.812  1.00  0.00     0.211 HD
ENDBRANCH  33  40
BRANCH  35  42
ATOM     42  O   UNL     1      39.535 -32.675  -7.877  1.00  0.00    -0.385 OA
ATOM     43  H   UNL     1      39.429 -31.770  -8.243  1.00  0.00     0.211 HD
ENDBRANCH  35  42
BRANCH  36  44
ATOM     44  O   UNL     1      39.670 -30.892  -5.841  1.00  0.00    -0.366 OA
ATOM     45  H   UNL     1      40.363 -31.576  -6.035  1.00  0.00     0.213 HD
ENDBRANCH  36  44
ENDBRANCH  30  31
ENDBRANCH   4  30
TORSDOF 18
ENDMDL
MODEL 4
REMARK VINA RESULT:    -5.307      1.518      8.678
REMARK INTER + INTRA:         -10.736
REMARK INTER:                  -8.263
REMARK INTRA:                  -2.473
REMARK UNBOUND:                -1.552
REMARK SMILES OC[C@@H]1O[C@H](O[C@@H]2[C@@H](O)[C@H](O)[C@H](O)O[C@@H]2CO)[C@@H](O)[C@H](O)[C@@H]1O[C@@H]1O[C@H](CO)[C@H](O)[C@H](O)[C@@H]1O
REMARK SMILES IDX 22 1 3 2 4 3 5 4 18 5 20 6 23 7 24 8 26 9 29 10 25 11 31 12
REMARK SMILES IDX 33 13 27 14 28 15 30 17 32 19 34 21 2 23 1 24 21 26 19 28
REMARK SMILES IDX 6 30 7 31 15 32 8 33 14 34 10 35 12 36 16 37 17 38 9 40
REMARK SMILES IDX 11 42 13 44
REMARK H PARENT 28 16 30 18 32 20 34 22 1 25 21 27 19 29 17 39 9 41 11 43
REMARK H PARENT 13 45
REMARK Flexibility Score: inf
ROOT
ATOM      1  C   UNL     1      36.255 -38.555  -1.407  1.00  0.00     0.184 C 
ATOM      2  C   UNL     1      34.734 -38.364  -1.150  1.00  0.00     0.178 C 
ATOM      3  O   UNL     1      34.460 -37.208  -0.357  1.00  0.00    -0.341 OA
ATOM      4  C   UNL     1      35.029 -35.990  -0.829  1.00  0.00     0.282 C 
ATOM      5  C   UNL     1      36.553 -36.101  -1.104  1.00  0.00     0.202 C 
ATOM      6  C   UNL     1      36.860 -37.288  -2.031  1.00  0.00     0.180 C 
ENDROOT
BRANCH   1   7
ATOM      7  O   UNL     1      36.531 -39.722  -2.179  1.00  0.00    -0.341 OA
BRANCH   7   8
ATOM      8  C   UNL     1      36.475 -40.912  -1.397  1.00  0.00     0.282 C 
ATOM      9  C   UNL     1      38.522 -41.218  -0.148  1.00  0.00     0.178 C 
ATOM     10  C   UNL     1      38.614 -42.712  -0.513  1.00  0.00     0.177 C 
ATOM     11  O   UNL     1      37.200 -40.712  -0.186  1.00  0.00    -0.341 OA
ATOM     12  C   UNL     1      38.068 -43.015  -1.915  1.00  0.00     0.179 C 
ATOM     13  C   UNL     1      36.775 -42.213  -2.236  1.00  0.00     0.202 C 
BRANCH   9  14
ATOM     14  C   UNL     1      39.567 -40.279  -0.802  1.00  0.00     0.191 C 
BRANCH  14  15
ATOM     15  O   UNL     1      39.380 -40.149  -2.183  1.00  0.00    -0.394 OA
ATOM     16  H   UNL     1      40.248 -39.833  -2.554  1.00  0.00     0.210 HD
ENDBRANCH  14  15
ENDBRANCH   9  14
BRANCH  10  17
ATOM     17  O   UNL     1      39.954 -43.135  -0.411  1.00  0.00    -0.387 OA
ATOM     18  H   UNL     1      39.996 -43.897   0.220  1.00  0.00     0.211 HD
ENDBRANCH  10  17
BRANCH  12  19
ATOM     19  O   UNL     1      39.074 -42.829  -2.882  1.00  0.00    -0.387 OA
ATOM     20  H   UNL     1      39.964 -42.838  -2.431  1.00  0.00     0.211 HD
ENDBRANCH  12  19
BRANCH  13  21
ATOM     21  O   UNL     1      36.665 -41.959  -3.621  1.00  0.00    -0.385 OA
ATOM     22  H   UNL     1      36.117 -42.693  -4.007  1.00  0.00     0.211 HD
ENDBRANCH  13  21
ENDBRANCH   7   8
ENDBRANCH   1   7
BRANCH   2  23
ATOM     23  C   UNL     1      33.789 -38.448  -2.380  1.00  0.00     0.191 C 
BRANCH  23  24
ATOM     24  O   UNL     1      32.560 -37.842  -2.108  1.00  0.00    -0.394 OA
ATOM     25  H   UNL     1      32.646 -37.407  -1.213  1.00  0.00     0.210 HD
ENDBRANCH  23  24
ENDBRANCH   2  23
BRANCH   6  26
ATOM     26  O   UNL     1      36.321 -37.065  -3.319  1.00  0.00    -0.387 OA
ATOM     27  H   UNL     1      35.429 -37.500  -3.324  1.00  0.00     0.211 HD
ENDBRANCH   6  26
BRANCH   5  28
ATOM     28  O   UNL     1      37.220 -36.262   0.123  1.00  0.00    -0.385 OA
ATOM     29  H   UNL     1      37.088 -35.433   0.643  1.00  0.00     0.211 HD
ENDBRANCH   5  28
BRANCH   4  30
ATOM     30  O   UNL     1      34.331 -35.538  -1.982  1.00  0.00    -0.341 OA
BRANCH  30  31
ATOM     31  C   UNL     1      33.770 -34.242  -1.816  1.00  0.00     0.184 C 
ATOM     32  C   UNL     1      34.699 -33.188  -2.458  1.00  0.00     0.178 C 
ATOM     33  C   UNL     1      32.386 -34.157  -2.475  1.00  0.00     0.180 C 
ATOM     34  O   UNL     1      34.192 -31.865  -2.325  1.00  0.00    -0.342 OA
ATOM     35  C   UNL     1      31.850 -32.746  -2.214  1.00  0.00     0.201 C 
ATOM     36  C   UNL     1      32.835 -31.673  -2.721  1.00  0.00     0.279 C 
BRANCH  32  37
ATOM     37  C   UNL     1      35.105 -33.499  -3.924  1.00  0.00     0.191 C 
BRANCH  37  38
ATOM     38  O   UNL     1      36.292 -34.251  -3.973  1.00  0.00    -0.394 OA
ATOM     39  H   UNL     1      36.186 -34.911  -4.715  1.00  0.00     0.210 HD
ENDBRANCH  37  38
ENDBRANCH  32  37
BRANCH  33  40
ATOM     40  O   UNL     1      31.517 -35.099  -1.897  1.00  0.00    -0.387 OA
ATOM     41  H   UNL     1      30.832 -35.319  -2.581  1.00  0.00     0.211 HD
ENDBRANCH  33  40
BRANCH  35  42
ATOM     42  O   UNL     1      30.607 -32.559  -2.829  1.00  0.00    -0.385 OA
ATOM     43  H   UNL     1      29.945 -33.085  -2.329  1.00  0.00     0.211 HD
ENDBRANCH  35  42
BRANCH  36  44
ATOM     44  O   UNL     1      32.751 -31.523  -4.122  1.00  0.00    -0.366 OA
ATOM     45  H   UNL     1      33.164 -30.647  -4.342  1.00  0.00     0.213 HD
ENDBRANCH  36  44
ENDBRANCH  30  31
ENDBRANCH   4  30
TORSDOF 18
ENDMDL
MODEL 5
REMARK VINA RESULT:    -5.028      1.389      8.709
REMARK INTER + INTRA:         -10.255
REMARK INTER:                  -8.553
REMARK INTRA:                  -1.702
REMARK UNBOUND:                -1.552
REMARK SMILES OC[C@@H]1O[C@H](O[C@@H]2[C@@H](O)[C@H](O)[C@H](O)O[C@@H]2CO)[C@@H](O)[C@H](O)[C@@H]1O[C@@H]1O[C@H](CO)[C@H](O)[C@H](O)[C@@H]1O
REMARK SMILES IDX 22 1 3 2 4 3 5 4 18 5 20 6 23 7 24 8 26 9 29 10 25 11 31 12
REMARK SMILES IDX 33 13 27 14 28 15 30 17 32 19 34 21 2 23 1 24 21 26 19 28
REMARK SMILES IDX 6 30 7 31 15 32 8 33 14 34 10 35 12 36 16 37 17 38 9 40
REMARK SMILES IDX 11 42 13 44
REMARK H PARENT 28 16 30 18 32 20 34 22 1 25 21 27 19 29 17 39 9 41 11 43
REMARK H PARENT 13 45
REMARK Flexibility Score: inf
ROOT
ATOM      1  C   UNL     1      35.282 -39.298  -2.171  1.00  0.00     0.184 C 
ATOM      2  C   UNL     1      35.309 -38.138  -3.206  1.00  0.00     0.178 C 
ATOM      3  O   UNL     1      34.000 -37.660  -3.516  1.00  0.00    -0.341 OA
ATOM      4  C   UNL     1      33.200 -37.291  -2.396  1.00  0.00     0.282 C 
ATOM      5  C   UNL     1      33.119 -38.405  -1.318  1.00  0.00     0.202 C 
ATOM      6  C   UNL     1      34.524 -38.872  -0.904  1.00  0.00     0.180 C 
ENDROOT
BRANCH   1   7
ATOM      7  O   UNL     1      36.586 -39.794  -1.878  1.00  0.00    -0.341 OA
BRANCH   7   8
ATOM      8  C   UNL     1      36.548 -41.047  -1.200  1.00  0.00     0.282 C 
ATOM      9  C   UNL     1      38.545 -41.370   0.123  1.00  0.00     0.178 C 
ATOM     10  C   UNL     1      38.724 -42.823  -0.358  1.00  0.00     0.177 C 
ATOM     11  O   UNL     1      37.205 -40.918   0.058  1.00  0.00    -0.341 OA
ATOM     12  C   UNL     1      38.259 -43.030  -1.807  1.00  0.00     0.179 C 
ATOM     13  C   UNL     1      36.948 -42.259  -2.127  1.00  0.00     0.202 C 
BRANCH   9  14
ATOM     14  C   UNL     1      39.576 -40.336  -0.398  1.00  0.00     0.191 C 
BRANCH  14  15
ATOM     15  O   UNL     1      38.967 -39.175  -0.888  1.00  0.00    -0.394 OA
ATOM     16  H   UNL     1      39.074 -38.483  -0.180  1.00  0.00     0.210 HD
ENDBRANCH  14  15
ENDBRANCH   9  14
BRANCH  10  17
ATOM     17  O   UNL     1      40.075 -43.196  -0.223  1.00  0.00    -0.387 OA
ATOM     18  H   UNL     1      40.202 -43.598   0.673  1.00  0.00     0.211 HD
ENDBRANCH  10  17
BRANCH  12  19
ATOM     19  O   UNL     1      39.301 -42.721  -2.702  1.00  0.00    -0.387 OA
ATOM     20  H   UNL     1      38.966 -42.069  -3.378  1.00  0.00     0.211 HD
ENDBRANCH  12  19
BRANCH  13  21
ATOM     21  O   UNL     1      36.892 -41.895  -3.490  1.00  0.00    -0.385 OA
ATOM     22  H   UNL     1      35.977 -41.544  -3.658  1.00  0.00     0.211 HD
ENDBRANCH  13  21
ENDBRANCH   7   8
ENDBRANCH   1   7
BRANCH   2  23
ATOM     23  C   UNL     1      36.295 -36.970  -2.939  1.00  0.00     0.191 C 
BRANCH  23  24
ATOM     24  O   UNL     1      37.557 -37.452  -2.582  1.00  0.00    -0.394 OA
ATOM     25  H   UNL     1      37.744 -38.234  -3.174  1.00  0.00     0.210 HD
ENDBRANCH  23  24
ENDBRANCH   2  23
BRANCH   6  26
ATOM     26  O   UNL     1      35.217 -37.835  -0.238  1.00  0.00    -0.387 OA
ATOM     27  H   UNL     1      36.069 -38.232   0.080  1.00  0.00     0.211 HD
ENDBRANCH   6  26
BRANCH   5  28
ATOM     28  O   UNL     1      32.385 -39.484  -1.840  1.00  0.00    -0.385 OA
ATOM     29  H   UNL     1      33.023 -40.217  -2.018  1.00  0.00     0.211 HD
ENDBRANCH   5  28
BRANCH   4  30
ATOM     30  O   UNL     1      33.669 -36.070  -1.839  1.00  0.00    -0.341 OA
BRANCH  30  31
ATOM     31  C   UNL     1      33.165 -34.924  -2.515  1.00  0.00     0.184 C 
ATOM     32  C   UNL     1      31.714 -34.651  -2.063  1.00  0.00     0.178 C 
ATOM     33  C   UNL     1      34.025 -33.689  -2.212  1.00  0.00     0.180 C 
ATOM     34  O   UNL     1      31.150 -33.514  -2.706  1.00  0.00    -0.342 OA
ATOM     35  C   UNL     1      33.431 -32.522  -3.007  1.00  0.00     0.201 C 
ATOM     36  C   UNL     1      31.938 -32.324  -2.674  1.00  0.00     0.279 C 
BRANCH  32  37
ATOM     37  C   UNL     1      31.523 -34.590  -0.524  1.00  0.00     0.191 C 
BRANCH  37  38
ATOM     38  O   UNL     1      31.434 -35.880   0.028  1.00  0.00    -0.394 OA
ATOM     39  H   UNL     1      31.860 -36.505  -0.623  1.00  0.00     0.210 HD
ENDBRANCH  37  38
ENDBRANCH  32  37
BRANCH  33  40
ATOM     40  O   UNL     1      35.350 -33.909  -2.628  1.00  0.00    -0.387 OA
ATOM     41  H   UNL     1      35.891 -33.150  -2.285  1.00  0.00     0.211 HD
ENDBRANCH  33  40
BRANCH  35  42
ATOM     42  O   UNL     1      34.123 -31.333  -2.748  1.00  0.00    -0.385 OA
ATOM     43  H   UNL     1      34.826 -31.245  -3.428  1.00  0.00     0.211 HD
ENDBRANCH  35  42
BRANCH  36  44
ATOM     44  O   UNL     1      31.773 -31.660  -1.440  1.00  0.00    -0.366 OA
ATOM     45  H   UNL     1      31.643 -32.363  -0.751  1.00  0.00     0.213 HD
ENDBRANCH  36  44
ENDBRANCH  30  31
ENDBRANCH   4  30
TORSDOF 18
ENDMDL
MODEL 6
REMARK VINA RESULT:    -4.870      1.837      8.590
REMARK INTER + INTRA:          -9.980
REMARK INTER:                  -9.245
REMARK INTRA:                  -0.735
REMARK UNBOUND:                -1.552
REMARK SMILES OC[C@@H]1O[C@H](O[C@@H]2[C@@H](O)[C@H](O)[C@H](O)O[C@@H]2CO)[C@@H](O)[C@H](O)[C@@H]1O[C@@H]1O[C@H](CO)[C@H](O)[C@H](O)[C@@H]1O
REMARK SMILES IDX 22 1 3 2 4 3 5 4 18 5 20 6 23 7 24 8 26 9 29 10 25 11 31 12
REMARK SMILES IDX 33 13 27 14 28 15 30 17 32 19 34 21 2 23 1 24 21 26 19 28
REMARK SMILES IDX 6 30 7 31 15 32 8 33 14 34 10 35 12 36 16 37 17 38 9 40
REMARK SMILES IDX 11 42 13 44
REMARK H PARENT 28 16 30 18 32 20 34 22 1 25 21 27 19 29 17 39 9 41 11 43
REMARK H PARENT 13 45
REMARK Flexibility Score: inf
ROOT
ATOM      1  C   UNL     1      35.972 -38.581  -1.453  1.00  0.00     0.184 C 
ATOM      2  C   UNL     1      35.310 -38.426  -2.851  1.00  0.00     0.178 C 
ATOM      3  O   UNL     1      34.090 -37.687  -2.793  1.00  0.00    -0.341 OA
ATOM      4  C   UNL     1      34.171 -36.417  -2.151  1.00  0.00     0.282 C 
ATOM      5  C   UNL     1      34.818 -36.492  -0.742  1.00  0.00     0.202 C 
ATOM      6  C   UNL     1      36.178 -37.207  -0.798  1.00  0.00     0.180 C 
ENDROOT
BRANCH   1   7
ATOM      7  O   UNL     1      37.178 -39.340  -1.506  1.00  0.00    -0.341 OA
BRANCH   7   8
ATOM      8  C   UNL     1      37.409 -40.070  -0.304  1.00  0.00     0.282 C 
ATOM      9  C   UNL     1      39.387 -41.446  -0.501  1.00  0.00     0.178 C 
ATOM     10  C   UNL     1      38.694 -42.671   0.125  1.00  0.00     0.177 C 
ATOM     11  O   UNL     1      38.813 -40.213  -0.106  1.00  0.00    -0.341 OA
ATOM     12  C   UNL     1      37.201 -42.750  -0.223  1.00  0.00     0.179 C 
ATOM     13  C   UNL     1      36.507 -41.359  -0.186  1.00  0.00     0.202 C 
BRANCH   9  14
ATOM     14  C   UNL     1      39.703 -41.527  -2.017  1.00  0.00     0.191 C 
BRANCH  14  15
ATOM     15  O   UNL     1      39.339 -42.758  -2.574  1.00  0.00    -0.394 OA
ATOM     16  H   UNL     1      38.589 -43.105  -2.018  1.00  0.00     0.210 HD
ENDBRANCH  14  15
ENDBRANCH   9  14
BRANCH  10  17
ATOM     17  O   UNL     1      39.353 -43.844  -0.293  1.00  0.00    -0.387 OA
ATOM     18  H   UNL     1      38.671 -44.529  -0.507  1.00  0.00     0.211 HD
ENDBRANCH  10  17
BRANCH  12  19
ATOM     19  O   UNL     1      37.020 -43.413  -1.451  1.00  0.00    -0.387 OA
ATOM     20  H   UNL     1      37.518 -44.276  -1.431  1.00  0.00     0.211 HD
ENDBRANCH  12  19
BRANCH  13  21
ATOM     21  O   UNL     1      35.426 -41.306  -1.093  1.00  0.00    -0.385 OA
ATOM     22  H   UNL     1      35.725 -40.760  -1.868  1.00  0.00     0.211 HD
ENDBRANCH  13  21
ENDBRANCH   7   8
ENDBRANCH   1   7
BRANCH   2  23
ATOM     23  C   UNL     1      36.215 -37.941  -4.016  1.00  0.00     0.191 C 
BRANCH  23  24
ATOM     24  O   UNL     1      36.715 -39.024  -4.744  1.00  0.00    -0.394 OA
ATOM     25  H   UNL     1      36.372 -38.926  -5.676  1.00  0.00     0.210 HD
ENDBRANCH  23  24
ENDBRANCH   2  23
BRANCH   6  26
ATOM     26  O   UNL     1      37.111 -36.442  -1.536  1.00  0.00    -0.387 OA
ATOM     27  H   UNL     1      37.547 -35.834  -0.883  1.00  0.00     0.211 HD
ENDBRANCH   6  26
BRANCH   5  28
ATOM     28  O   UNL     1      33.945 -37.182   0.117  1.00  0.00    -0.385 OA
ATOM     29  H   UNL     1      33.215 -37.551  -0.436  1.00  0.00     0.211 HD
ENDBRANCH   5  28
BRANCH   4  30
ATOM     30  O   UNL     1      34.858 -35.491  -2.982  1.00  0.00    -0.341 OA
BRANCH  30  31
ATOM     31  C   UNL     1      34.924 -34.186  -2.420  1.00  0.00     0.184 C 
ATOM     32  C   UNL     1      36.382 -33.678  -2.457  1.00  0.00     0.178 C 
ATOM     33  C   UNL     1      34.034 -33.208  -3.201  1.00  0.00     0.180 C 
ATOM     34  O   UNL     1      36.516 -32.374  -1.905  1.00  0.00    -0.342 OA
ATOM     35  C   UNL     1      34.142 -31.848  -2.505  1.00  0.00     0.201 C 
ATOM     36  C   UNL     1      35.611 -31.390  -2.402  1.00  0.00     0.279 C 
BRANCH  32  37
ATOM     37  C   UNL     1      37.063 -33.784  -3.848  1.00  0.00     0.191 C 
BRANCH  37  38
ATOM     38  O   UNL     1      37.719 -35.018  -3.999  1.00  0.00    -0.394 OA
ATOM     39  H   UNL     1      37.755 -35.209  -4.979  1.00  0.00     0.210 HD
ENDBRANCH  37  38
ENDBRANCH  32  37
BRANCH  33  40
ATOM     40  O   UNL     1      32.697 -33.642  -3.171  1.00  0.00    -0.387 OA
ATOM     41  H   UNL     1      32.381 -33.671  -4.112  1.00  0.00     0.211 HD
ENDBRANCH  33  40
BRANCH  35  42
ATOM     42  O   UNL     1      33.401 -30.875  -3.185  1.00  0.00    -0.385 OA
ATOM     43  H   UNL     1      33.720 -30.854  -4.114  1.00  0.00     0.211 HD
ENDBRANCH  35  42
BRANCH  36  44
ATOM     44  O   UNL     1      36.073 -30.875  -3.633  1.00  0.00    -0.366 OA
ATOM     45  H   UNL     1      36.163 -29.893  -3.517  1.00  0.00     0.213 HD
ENDBRANCH  36  44
ENDBRANCH  30  31
ENDBRANCH   4  30
TORSDOF 18
ENDMDL
MODEL 7
REMARK VINA RESULT:    -4.614      3.447      5.118
REMARK INTER + INTRA:          -9.537
REMARK INTER:                  -9.435
REMARK INTRA:                  -0.102
REMARK UNBOUND:                -1.552
REMARK SMILES OC[C@@H]1O[C@H](O[C@@H]2[C@@H](O)[C@H](O)[C@H](O)O[C@@H]2CO)[C@@H](O)[C@H](O)[C@@H]1O[C@@H]1O[C@H](CO)[C@H](O)[C@H](O)[C@@H]1O
REMARK SMILES IDX 22 1 3 2 4 3 5 4 18 5 20 6 23 7 24 8 26 9 29 10 25 11 31 12
REMARK SMILES IDX 33 13 27 14 28 15 30 17 32 19 34 21 2 23 1 24 21 26 19 28
REMARK SMILES IDX 6 30 7 31 15 32 8 33 14 34 10 35 12 36 16 37 17 38 9 40
REMARK SMILES IDX 11 42 13 44
REMARK H PARENT 28 16 30 18 32 20 34 22 1 25 21 27 19 29 17 39 9 41 11 43
REMARK H PARENT 13 45
REMARK Flexibility Score: inf
ROOT
ATOM      1  C   UNL     1      37.683 -35.523  -3.327  1.00  0.00     0.184 C 
ATOM      2  C   UNL     1      37.080 -35.598  -1.897  1.00  0.00     0.178 C 
ATOM      3  O   UNL     1      36.324 -36.792  -1.690  1.00  0.00    -0.341 OA
ATOM      4  C   UNL     1      37.003 -38.008  -1.994  1.00  0.00     0.282 C 
ATOM      5  C   UNL     1      37.631 -38.012  -3.414  1.00  0.00     0.202 C 
ATOM      6  C   UNL     1      38.522 -36.776  -3.625  1.00  0.00     0.180 C 
ENDROOT
BRANCH   1   7
ATOM      7  O   UNL     1      38.417 -34.320  -3.543  1.00  0.00    -0.341 OA
BRANCH   7   8
ATOM      8  C   UNL     1      37.604 -33.281  -4.082  1.00  0.00     0.282 C 
ATOM      9  C   UNL     1      38.064 -32.963  -6.435  1.00  0.00     0.178 C 
ATOM     10  C   UNL     1      38.105 -31.429  -6.300  1.00  0.00     0.177 C 
ATOM     11  O   UNL     1      37.283 -33.593  -5.436  1.00  0.00    -0.341 OA
ATOM     12  C   UNL     1      38.665 -30.967  -4.947  1.00  0.00     0.179 C 
ATOM     13  C   UNL     1      38.159 -31.839  -3.764  1.00  0.00     0.202 C 
BRANCH   9  14
ATOM     14  C   UNL     1      39.415 -33.672  -6.706  1.00  0.00     0.191 C 
BRANCH  14  15
ATOM     15  O   UNL     1      39.277 -35.059  -6.830  1.00  0.00    -0.394 OA
ATOM     16  H   UNL     1      39.475 -35.276  -7.782  1.00  0.00     0.210 HD
ENDBRANCH  14  15
ENDBRANCH   9  14
BRANCH  10  17
ATOM     17  O   UNL     1      38.869 -30.889  -7.353  1.00  0.00    -0.387 OA
ATOM     18  H   UNL     1      38.576 -29.957  -7.508  1.00  0.00     0.211 HD
ENDBRANCH  10  17
BRANCH  12  19
ATOM     19  O   UNL     1      40.070 -30.890  -5.001  1.00  0.00    -0.387 OA
ATOM     20  H   UNL     1      40.335 -29.965  -5.264  1.00  0.00     0.211 HD
ENDBRANCH  12  19
BRANCH  13  21
ATOM     21  O   UNL     1      39.108 -31.881  -2.720  1.00  0.00    -0.385 OA
ATOM     22  H   UNL     1      39.945 -31.479  -3.074  1.00  0.00     0.211 HD
ENDBRANCH  13  21
ENDBRANCH   7   8
ENDBRANCH   1   7
BRANCH   2  23
ATOM     23  C   UNL     1      38.034 -35.313  -0.706  1.00  0.00     0.191 C 
BRANCH  23  24
ATOM     24  O   UNL     1      38.657 -34.072  -0.851  1.00  0.00    -0.394 OA
ATOM     25  H   UNL     1      39.423 -34.205  -1.478  1.00  0.00     0.210 HD
ENDBRANCH  23  24
ENDBRANCH   2  23
BRANCH   6  26
ATOM     26  O   UNL     1      39.652 -36.828  -2.777  1.00  0.00    -0.387 OA
ATOM     27  H   UNL     1      40.313 -36.194  -3.160  1.00  0.00     0.211 HD
ENDBRANCH   6  26
BRANCH   5  28
ATOM     28  O   UNL     1      36.595 -38.028  -4.363  1.00  0.00    -0.385 OA
ATOM     29  H   UNL     1      36.046 -38.830  -4.189  1.00  0.00     0.211 HD
ENDBRANCH   5  28
BRANCH   4  30
ATOM     30  O   UNL     1      37.981 -38.285  -1.000  1.00  0.00    -0.341 OA
BRANCH  30  31
ATOM     31  C   UNL     1      38.148 -39.677  -0.761  1.00  0.00     0.184 C 
ATOM     32  C   UNL     1      36.794 -40.300  -0.355  1.00  0.00     0.178 C 
ATOM     33  C   UNL     1      38.669 -40.388  -2.017  1.00  0.00     0.180 C 
ATOM     34  O   UNL     1      36.895 -41.696  -0.100  1.00  0.00    -0.342 OA
ATOM     35  C   UNL     1      38.851 -41.865  -1.655  1.00  0.00     0.201 C 
ATOM     36  C   UNL     1      37.541 -42.470  -1.109  1.00  0.00     0.279 C 
BRANCH  32  37
ATOM     37  C   UNL     1      35.624 -39.978  -1.323  1.00  0.00     0.191 C 
BRANCH  37  38
ATOM     38  O   UNL     1      34.458 -40.674  -0.959  1.00  0.00    -0.394 OA
ATOM     39  H   UNL     1      34.548 -41.600  -1.321  1.00  0.00     0.210 HD
ENDBRANCH  37  38
ENDBRANCH  32  37
BRANCH  33  40
ATOM     40  O   UNL     1      39.909 -39.847  -2.400  1.00  0.00    -0.387 OA
ATOM     41  H   UNL     1      40.609 -40.484  -2.100  1.00  0.00     0.211 HD
ENDBRANCH  33  40
BRANCH  35  42
ATOM     42  O   UNL     1      39.275 -42.607  -2.764  1.00  0.00    -0.385 OA
ATOM     43  H   UNL     1      39.107 -43.555  -2.569  1.00  0.00     0.211 HD
ENDBRANCH  35  42
BRANCH  36  44
ATOM     44  O   UNL     1      36.640 -42.765  -2.154  1.00  0.00    -0.366 OA
ATOM     45  H   UNL     1      36.684 -42.007  -2.794  1.00  0.00     0.213 HD
ENDBRANCH  36  44
ENDBRANCH  30  31
ENDBRANCH   4  30
TORSDOF 18
ENDMDL
MODEL 8
REMARK VINA RESULT:    -4.578     13.936     16.363
REMARK INTER + INTRA:          -9.475
REMARK INTER:                 -10.836
REMARK INTRA:                   1.361
REMARK UNBOUND:                -1.552
REMARK SMILES OC[C@@H]1O[C@H](O[C@@H]2[C@@H](O)[C@H](O)[C@H](O)O[C@@H]2CO)[C@@H](O)[C@H](O)[C@@H]1O[C@@H]1O[C@H](CO)[C@H](O)[C@H](O)[C@@H]1O
REMARK SMILES IDX 22 1 3 2 4 3 5 4 18 5 20 6 23 7 24 8 26 9 29 10 25 11 31 12
REMARK SMILES IDX 33 13 27 14 28 15 30 17 32 19 34 21 2 23 1 24 21 26 19 28
REMARK SMILES IDX 6 30 7 31 15 32 8 33 14 34 10 35 12 36 16 37 17 38 9 40
REMARK SMILES IDX 11 42 13 44
REMARK H PARENT 28 16 30 18 32 20 34 22 1 25 21 27 19 29 17 39 9 41 11 43
REMARK H PARENT 13 45
REMARK Flexibility Score: inf
ROOT
ATOM      1  C   UNL     1      29.512 -37.872 -17.660  1.00  0.00     0.184 C 
ATOM      2  C   UNL     1      29.679 -36.326 -17.664  1.00  0.00     0.178 C 
ATOM      3  O   UNL     1      28.679 -35.672 -16.881  1.00  0.00    -0.341 OA
ATOM      4  C   UNL     1      28.543 -36.142 -15.543  1.00  0.00     0.282 C 
ATOM      5  C   UNL     1      28.365 -37.682 -15.458  1.00  0.00     0.202 C 
ATOM      6  C   UNL     1      29.485 -38.408 -16.221  1.00  0.00     0.180 C 
ENDROOT
BRANCH   1   7
ATOM      7  O   UNL     1      30.495 -38.524 -18.461  1.00  0.00    -0.341 OA
BRANCH   7   8
ATOM      8  C   UNL     1      29.944 -39.587 -19.233  1.00  0.00     0.282 C 
ATOM      9  C   UNL     1      29.510 -41.521 -17.848  1.00  0.00     0.178 C 
ATOM     10  C   UNL     1      30.123 -42.493 -18.876  1.00  0.00     0.177 C 
ATOM     11  O   UNL     1      29.026 -40.324 -18.428  1.00  0.00    -0.341 OA
ATOM     12  C   UNL     1      31.295 -41.874 -19.651  1.00  0.00     0.179 C 
ATOM     13  C   UNL     1      31.035 -40.391 -20.040  1.00  0.00     0.202 C 
BRANCH   9  14
ATOM     14  C   UNL     1      30.312 -41.299 -16.540  1.00  0.00     0.191 C 
BRANCH  14  15
ATOM     15  O   UNL     1      31.552 -40.694 -16.769  1.00  0.00    -0.394 OA
ATOM     16  H   UNL     1      31.442 -39.732 -16.534  1.00  0.00     0.210 HD
ENDBRANCH  14  15
ENDBRANCH   9  14
BRANCH  10  17
ATOM     17  O   UNL     1      30.541 -43.665 -18.217  1.00  0.00    -0.387 OA
ATOM     18  H   UNL     1      31.463 -43.878 -18.509  1.00  0.00     0.211 HD
ENDBRANCH  10  17
BRANCH  12  19
ATOM     19  O   UNL     1      32.497 -42.044 -18.938  1.00  0.00    -0.387 OA
ATOM     20  H   UNL     1      33.059 -41.228 -19.050  1.00  0.00     0.211 HD
ENDBRANCH  12  19
BRANCH  13  21
ATOM     21  O   UNL     1      32.244 -39.666 -20.117  1.00  0.00    -0.385 OA
ATOM     22  H   UNL     1      32.980 -40.333 -20.155  1.00  0.00     0.211 HD
ENDBRANCH  13  21
ENDBRANCH   7   8
ENDBRANCH   1   7
BRANCH   2  23
ATOM     23  C   UNL     1      31.095 -35.763 -17.366  1.00  0.00     0.191 C 
BRANCH  23  24
ATOM     24  O   UNL     1      31.573 -35.015 -18.444  1.00  0.00    -0.394 OA
ATOM     25  H   UNL     1      32.324 -34.457 -18.097  1.00  0.00     0.210 HD
ENDBRANCH  23  24
ENDBRANCH   2  23
BRANCH   6  26
ATOM     26  O   UNL     1      30.734 -38.196 -15.590  1.00  0.00    -0.387 OA
ATOM     27  H   UNL     1      30.574 -38.309 -14.617  1.00  0.00     0.211 HD
ENDBRANCH   6  26
BRANCH   5  28
ATOM     28  O   UNL     1      27.114 -38.021 -16.000  1.00  0.00    -0.385 OA
ATOM     29  H   UNL     1      27.053 -39.007 -16.013  1.00  0.00     0.211 HD
ENDBRANCH   5  28
BRANCH   4  30
ATOM     30  O   UNL     1      29.644 -35.708 -14.756  1.00  0.00    -0.341 OA
BRANCH  30  31
ATOM     31  C   UNL     1      29.995 -36.635 -13.737  1.00  0.00     0.184 C 
ATOM     32  C   UNL     1      31.527 -36.837 -13.724  1.00  0.00     0.178 C 
ATOM     33  C   UNL     1      29.547 -36.129 -12.359  1.00  0.00     0.180 C 
ATOM     34  O   UNL     1      31.944 -37.758 -12.724  1.00  0.00    -0.342 OA
ATOM     35  C   UNL     1      29.933 -37.203 -11.337  1.00  0.00     0.201 C 
ATOM     36  C   UNL     1      31.440 -37.524 -11.410  1.00  0.00     0.279 C 
BRANCH  32  37
ATOM     37  C   UNL     1      32.347 -35.520 -13.667  1.00  0.00     0.191 C 
BRANCH  37  38
ATOM     38  O   UNL     1      33.707 -35.779 -13.427  1.00  0.00    -0.394 OA
ATOM     39  H   UNL     1      34.084 -34.966 -12.986  1.00  0.00     0.210 HD
ENDBRANCH  37  38
ENDBRANCH  32  37
BRANCH  33  40
ATOM     40  O   UNL     1      28.152 -35.950 -12.340  1.00  0.00    -0.387 OA
ATOM     41  H   UNL     1      27.984 -34.976 -12.431  1.00  0.00     0.211 HD
ENDBRANCH  33  40
BRANCH  35  42
ATOM     42  O   UNL     1      29.609 -36.801 -10.037  1.00  0.00    -0.385 OA
ATOM     43  H   UNL     1      30.323 -37.117  -9.441  1.00  0.00     0.211 HD
ENDBRANCH  35  42
BRANCH  36  44
ATOM     44  O   UNL     1      32.206 -36.531 -10.761  1.00  0.00    -0.366 OA
ATOM     45  H   UNL     1      33.144 -36.856 -10.746  1.00  0.00     0.213 HD
ENDBRANCH  36  44
ENDBRANCH  30  31
ENDBRANCH   4  30
TORSDOF 18
ENDMDL
MODEL 9
REMARK VINA RESULT:    -4.240      3.192      8.698
REMARK INTER + INTRA:          -8.890
REMARK INTER:                  -8.442
REMARK INTRA:                  -0.448
REMARK UNBOUND:                -1.552
REMARK SMILES OC[C@@H]1O[C@H](O[C@@H]2[C@@H](O)[C@H](O)[C@H](O)O[C@@H]2CO)[C@@H](O)[C@H](O)[C@@H]1O[C@@H]1O[C@H](CO)[C@H](O)[C@H](O)[C@@H]1O
REMARK SMILES IDX 22 1 3 2 4 3 5 4 18 5 20 6 23 7 24 8 26 9 29 10 25 11 31 12
REMARK SMILES IDX 33 13 27 14 28 15 30 17 32 19 34 21 2 23 1 24 21 26 19 28
REMARK SMILES IDX 6 30 7 31 15 32 8 33 14 34 10 35 12 36 16 37 17 38 9 40
REMARK SMILES IDX 11 42 13 44
REMARK H PARENT 28 16 30 18 32 20 34 22 1 25 21 27 19 29 17 39 9 41 11 43
REMARK H PARENT 13 45
REMARK Flexibility Score: inf
ROOT
ATOM      1  C   UNL     1      37.678 -38.310  -2.427  1.00  0.00     0.184 C 
ATOM      2  C   UNL     1      38.460 -37.590  -3.560  1.00  0.00     0.178 C 
ATOM      3  O   UNL     1      37.598 -36.849  -4.426  1.00  0.00    -0.341 OA
ATOM      4  C   UNL     1      36.724 -35.928  -3.780  1.00  0.00     0.282 C 
ATOM      5  C   UNL     1      35.901 -36.577  -2.635  1.00  0.00     0.202 C 
ATOM      6  C   UNL     1      36.820 -37.306  -1.641  1.00  0.00     0.180 C 
ENDROOT
BRANCH   1   7
ATOM      7  O   UNL     1      38.533 -39.070  -1.576  1.00  0.00    -0.341 OA
BRANCH   7   8
ATOM      8  C   UNL     1      39.023 -40.246  -2.215  1.00  0.00     0.282 C 
ATOM      9  C   UNL     1      37.215 -41.489  -3.230  1.00  0.00     0.178 C 
ATOM     10  C   UNL     1      37.729 -42.836  -2.686  1.00  0.00     0.177 C 
ATOM     11  O   UNL     1      38.232 -40.515  -3.370  1.00  0.00    -0.341 OA
ATOM     12  C   UNL     1      38.402 -42.702  -1.312  1.00  0.00     0.179 C 
ATOM     13  C   UNL     1      39.288 -41.429  -1.205  1.00  0.00     0.202 C 
BRANCH   9  14
ATOM     14  C   UNL     1      35.910 -40.939  -2.600  1.00  0.00     0.191 C 
BRANCH  14  15
ATOM     15  O   UNL     1      35.960 -40.917  -1.201  1.00  0.00    -0.394 OA
ATOM     16  H   UNL     1      36.669 -40.262  -0.957  1.00  0.00     0.210 HD
ENDBRANCH  14  15
ENDBRANCH   9  14
BRANCH  10  17
ATOM     17  O   UNL     1      36.660 -43.750  -2.616  1.00  0.00    -0.387 OA
ATOM     18  H   UNL     1      36.457 -43.925  -1.663  1.00  0.00     0.211 HD
ENDBRANCH  10  17
BRANCH  12  19
ATOM     19  O   UNL     1      37.440 -42.780  -0.287  1.00  0.00    -0.387 OA
ATOM     20  H   UNL     1      36.703 -42.137  -0.483  1.00  0.00     0.211 HD
ENDBRANCH  12  19
BRANCH  13  21
ATOM     21  O   UNL     1      39.341 -40.957   0.125  1.00  0.00    -0.385 OA
ATOM     22  H   UNL     1      39.074 -40.000   0.103  1.00  0.00     0.211 HD
ENDBRANCH  13  21
ENDBRANCH   7   8
ENDBRANCH   1   7
BRANCH   2  23
ATOM     23  C   UNL     1      39.706 -36.760  -3.149  1.00  0.00     0.191 C 
BRANCH  23  24
ATOM     24  O   UNL     1      40.112 -37.080  -1.851  1.00  0.00    -0.394 OA
ATOM     25  H   UNL     1      40.476 -38.009  -1.885  1.00  0.00     0.210 HD
ENDBRANCH  23  24
ENDBRANCH   2  23
BRANCH   6  26
ATOM     26  O   UNL     1      37.643 -36.382  -0.956  1.00  0.00    -0.387 OA
ATOM     27  H   UNL     1      38.537 -36.438  -1.385  1.00  0.00     0.211 HD
ENDBRANCH   6  26
BRANCH   5  28
ATOM     28  O   UNL     1      34.985 -37.482  -3.197  1.00  0.00    -0.385 OA
ATOM     29  H   UNL     1      34.704 -38.103  -2.482  1.00  0.00     0.211 HD
ENDBRANCH   5  28
BRANCH   4  30
ATOM     30  O   UNL     1      37.456 -34.803  -3.312  1.00  0.00    -0.341 OA
BRANCH  30  31
ATOM     31  C   UNL     1      37.447 -33.717  -4.230  1.00  0.00     0.184 C 
ATOM     32  C   UNL     1      37.519 -32.382  -3.455  1.00  0.00     0.178 C 
ATOM     33  C   UNL     1      38.642 -33.802  -5.190  1.00  0.00     0.180 C 
ATOM     34  O   UNL     1      37.512 -31.252  -4.320  1.00  0.00    -0.342 OA
ATOM     35  C   UNL     1      38.529 -32.620  -6.157  1.00  0.00     0.201 C 
ATOM     36  C   UNL     1      38.452 -31.282  -5.393  1.00  0.00     0.279 C 
BRANCH  32  37
ATOM     37  C   UNL     1      38.672 -32.303  -2.420  1.00  0.00     0.191 C 
BRANCH  37  38
ATOM     38  O   UNL     1      38.882 -30.980  -1.993  1.00  0.00    -0.394 OA
ATOM     39  H   UNL     1      39.869 -30.849  -1.930  1.00  0.00     0.210 HD
ENDBRANCH  37  38
ENDBRANCH  32  37
BRANCH  33  40
ATOM     40  O   UNL     1      38.593 -35.005  -5.917  1.00  0.00    -0.387 OA
ATOM     41  H   UNL     1      37.646 -35.302  -5.921  1.00  0.00     0.211 HD
ENDBRANCH  33  40
BRANCH  35  42
ATOM     42  O   UNL     1      39.613 -32.586  -7.040  1.00  0.00    -0.385 OA
ATOM     43  H   UNL     1      40.347 -33.095  -6.630  1.00  0.00     0.211 HD
ENDBRANCH  35  42
BRANCH  36  44
ATOM     44  O   UNL     1      39.727 -30.879  -4.939  1.00  0.00    -0.366 OA
ATOM     45  H   UNL     1      39.639 -29.938  -4.636  1.00  0.00     0.213 HD
ENDBRANCH  36  44
ENDBRANCH  30  31
ENDBRANCH   4  30
TORSDOF 18
ENDMDL
