MODEL 1
REMARK VINA RESULT:    -2.620      0.000      0.000
REMARK INTER + INTRA:          -2.945
REMARK INTER:                  -2.927
REMARK INTRA:                  -0.018
REMARK UNBOUND:                -0.018
REMARK SMILES CCCC(=O)[O-]
REMARK SMILES IDX 3 1 4 2 5 3 6 4 2 5 1 6
REMARK H PARENT
REMARK Flexibility Score: inf
ROOT
ATOM      1  C   UNL     1      69.999  15.624  77.365  1.00  0.00     0.052 C 
ENDROOT
BRANCH   1   2
ATOM      2  C   UNL     1      71.076  15.000  78.194  1.00  0.00     0.041 C 
ATOM      3  O   UNL     1      72.017  14.372  77.642  1.00  0.00    -0.550 OA
ATOM      4  O   UNL     1      71.012  15.068  79.580  1.00  0.00    -0.550 OA
ENDBRANCH   1   2
BRANCH   1   5
ATOM      5  C   UNL     1      69.707  14.767  76.130  1.00  0.00     0.003 C 
ATOM      6  C   UNL     1      68.244  14.337  76.090  1.00  0.00     0.004 C 
ENDBRANCH   1   5
TORSDOF 2
ENDMDL
MODEL 2
REMARK VINA RESULT:    -2.595      1.065      1.379
REMARK INTER + INTRA:          -2.917
REMARK INTER:                  -2.878
REMARK INTRA:                  -0.038
REMARK UNBOUND:                -0.018
REMARK SMILES CCCC(=O)[O-]
REMARK SMILES IDX 3 1 4 2 5 3 6 4 2 5 1 6
REMARK H PARENT
REMARK Flexibility Score: inf
ROOT
ATOM      1  C   UNL     1      69.920  16.125  76.880  1.00  0.00     0.052 C 
ENDROOT
BRANCH   1   2
ATOM      2  C   UNL     1      70.694  15.936  78.146  1.00  0.00     0.041 C 
ATOM      3  O   UNL     1      71.105  16.935  78.792  1.00  0.00    -0.550 OA
ATOM      4  O   UNL     1      71.004  14.655  78.586  1.00  0.00    -0.550 OA
ENDBRANCH   1   2
BRANCH   1   5
ATOM      5  C   UNL     1      69.739  14.787  76.158  1.00  0.00     0.003 C 
ATOM      6  C   UNL     1      68.278  14.347  76.169  1.00  0.00     0.004 C 
ENDBRANCH   1   5
TORSDOF 2
ENDMDL
MODEL 3
REMARK VINA RESULT:    -2.528      1.352      1.692
REMARK INTER + INTRA:          -2.842
REMARK INTER:                  -2.783
REMARK INTRA:                  -0.059
REMARK UNBOUND:                -0.018
REMARK SMILES CCCC(=O)[O-]
REMARK SMILES IDX 3 1 4 2 5 3 6 4 2 5 1 6
REMARK H PARENT
REMARK Flexibility Score: inf
ROOT
ATOM      1  C   UNL     1      69.946  14.935  76.220  1.00  0.00     0.052 C 
ENDROOT
BRANCH   1   2
ATOM      2  C   UNL     1      70.293  15.524  77.551  1.00  0.00     0.041 C 
ATOM      3  O   UNL     1      70.491  14.776  78.543  1.00  0.00    -0.550 OA
ATOM      4  O   UNL     1      70.347  16.904  77.706  1.00  0.00    -0.550 OA
ENDBRANCH   1   2
BRANCH   1   5
ATOM      5  C   UNL     1      68.528  14.358  76.243  1.00  0.00     0.003 C 
ATOM      6  C   UNL     1      67.480  15.468  76.232  1.00  0.00     0.004 C 
ENDBRANCH   1   5
TORSDOF 2
ENDMDL
MODEL 4
REMARK VINA RESULT:    -2.449      2.732      3.503
REMARK INTER + INTRA:          -2.754
REMARK INTER:                  -2.733
REMARK INTRA:                  -0.021
REMARK UNBOUND:                -0.018
REMARK SMILES CCCC(=O)[O-]
REMARK SMILES IDX 3 1 4 2 5 3 6 4 2 5 1 6
REMARK H PARENT
REMARK Flexibility Score: inf
ROOT
ATOM      1  C   UNL     1      69.847  15.014  76.222  1.00  0.00     0.052 C 
ENDROOT
BRANCH   1   2
ATOM      2  C   UNL     1      68.352  14.986  76.247  1.00  0.00     0.041 C 
ATOM      3  O   UNL     1      67.737  13.893  76.147  1.00  0.00    -0.550 OA
ATOM      4  O   UNL     1      67.637  16.174  76.329  1.00  0.00    -0.550 OA
ENDBRANCH   1   2
BRANCH   1   5
ATOM      5  C   UNL     1      70.390  15.756  77.447  1.00  0.00     0.003 C 
ATOM      6  C   UNL     1      71.051  14.792  78.428  1.00  0.00     0.004 C 
ENDBRANCH   1   5
TORSDOF 2
ENDMDL
MODEL 5
REMARK VINA RESULT:    -2.368      3.052      3.748
REMARK INTER + INTRA:          -2.663
REMARK INTER:                  -2.627
REMARK INTRA:                  -0.035
REMARK UNBOUND:                -0.018
REMARK SMILES CCCC(=O)[O-]
REMARK SMILES IDX 3 1 4 2 5 3 6 4 2 5 1 6
REMARK H PARENT
REMARK Flexibility Score: inf
ROOT
ATOM      1  C   UNL     1      68.709  14.394  76.254  1.00  0.00     0.052 C 
ENDROOT
BRANCH   1   2
ATOM      2  C   UNL     1      67.568  15.340  76.455  1.00  0.00     0.041 C 
ATOM      3  O   UNL     1      67.770  16.581  76.476  1.00  0.00    -0.550 OA
ATOM      4  O   UNL     1      66.286  14.847  76.670  1.00  0.00    -0.550 OA
ENDBRANCH   1   2
BRANCH   1   5
ATOM      5  C   UNL     1      70.037  15.154  76.230  1.00  0.00     0.003 C 
ATOM      6  C   UNL     1      70.765  15.035  77.566  1.00  0.00     0.004 C 
ENDBRANCH   1   5
TORSDOF 2
ENDMDL
MODEL 6
REMARK VINA RESULT:    -2.300      2.554      3.225
REMARK INTER + INTRA:          -2.587
REMARK INTER:                  -2.568
REMARK INTRA:                  -0.019
REMARK UNBOUND:                -0.018
REMARK SMILES CCCC(=O)[O-]
REMARK SMILES IDX 3 1 4 2 5 3 6 4 2 5 1 6
REMARK H PARENT
REMARK Flexibility Score: inf
ROOT
ATOM      1  C   UNL     1      68.682  16.237  77.010  1.00  0.00     0.052 C 
ENDROOT
BRANCH   1   2
ATOM      2  C   UNL     1      69.070  14.917  76.424  1.00  0.00     0.041 C 
ATOM      3  O   UNL     1      70.266  14.693  76.103  1.00  0.00    -0.550 OA
ATOM      4  O   UNL     1      68.100  13.951  76.187  1.00  0.00    -0.550 OA
ENDBRANCH   1   2
BRANCH   1   5
ATOM      5  C   UNL     1      69.823  17.247  76.857  1.00  0.00     0.003 C 
ATOM      6  C   UNL     1      69.295  18.616  76.436  1.00  0.00     0.004 C 
ENDBRANCH   1   5
TORSDOF 2
ENDMDL
MODEL 7
REMARK VINA RESULT:    -2.290     21.637     22.652
REMARK INTER + INTRA:          -2.576
REMARK INTER:                  -2.515
REMARK INTRA:                  -0.060
REMARK UNBOUND:                -0.018
REMARK SMILES CCCC(=O)[O-]
REMARK SMILES IDX 3 1 4 2 5 3 6 4 2 5 1 6
REMARK H PARENT
REMARK Flexibility Score: inf
ROOT
ATOM      1  C   UNL     1      70.850  30.224  94.719  1.00  0.00     0.052 C 
ENDROOT
BRANCH   1   2
ATOM      2  C   UNL     1      70.428  29.198  93.716  1.00  0.00     0.041 C 
ATOM      3  O   UNL     1      70.665  27.979  93.918  1.00  0.00    -0.550 OA
ATOM      4  O   UNL     1      69.818  29.594  92.532  1.00  0.00    -0.550 OA
ENDBRANCH   1   2
BRANCH   1   5
ATOM      5  C   UNL     1      70.211  29.936  96.081  1.00  0.00     0.003 C 
ATOM      6  C   UNL     1      68.764  30.419  96.125  1.00  0.00     0.004 C 
ENDBRANCH   1   5
TORSDOF 2
ENDMDL
MODEL 8
REMARK VINA RESULT:    -2.282      2.208      3.276
REMARK INTER + INTRA:          -2.568
REMARK INTER:                  -2.524
REMARK INTRA:                  -0.043
REMARK UNBOUND:                -0.018
REMARK SMILES CCCC(=O)[O-]
REMARK SMILES IDX 3 1 4 2 5 3 6 4 2 5 1 6
REMARK H PARENT
REMARK Flexibility Score: inf
ROOT
ATOM      1  C   UNL     1      71.182  14.784  77.579  1.00  0.00     0.052 C 
ENDROOT
BRANCH   1   2
ATOM      2  C   UNL     1      70.083  15.277  76.692  1.00  0.00     0.041 C 
ATOM      3  O   UNL     1      69.910  16.512  76.525  1.00  0.00    -0.550 OA
ATOM      4  O   UNL     1      69.218  14.372  76.089  1.00  0.00    -0.550 OA
ENDBRANCH   1   2
BRANCH   1   5
ATOM      5  C   UNL     1      71.485  15.807  78.677  1.00  0.00     0.003 C 
ATOM      6  C   UNL     1      70.662  15.530  79.932  1.00  0.00     0.004 C 
ENDBRANCH   1   5
TORSDOF 2
ENDMDL
MODEL 9
REMARK VINA RESULT:    -2.193     21.925     22.698
REMARK INTER + INTRA:          -2.468
REMARK INTER:                  -2.396
REMARK INTRA:                  -0.072
REMARK UNBOUND:                -0.018
REMARK SMILES CCCC(=O)[O-]
REMARK SMILES IDX 3 1 4 2 5 3 6 4 2 5 1 6
REMARK H PARENT
REMARK Flexibility Score: inf
ROOT
ATOM      1  C   UNL     1      69.125  29.820  94.991  1.00  0.00     0.052 C 
ENDROOT
BRANCH   1   2
ATOM      2  C   UNL     1      70.375  30.029  94.197  1.00  0.00     0.041 C 
ATOM      3  O   UNL     1      71.404  30.500  94.748  1.00  0.00    -0.550 OA
ATOM      4  O   UNL     1      70.388  29.750  92.836  1.00  0.00    -0.550 OA
ENDBRANCH   1   2
BRANCH   1   5
ATOM      5  C   UNL     1      69.371  28.820  96.125  1.00  0.00     0.003 C 
ATOM      6  C   UNL     1      69.722  27.440  95.578  1.00  0.00     0.004 C 
ENDBRANCH   1   5
TORSDOF 2
ENDMDL
