MODEL 1
REMARK VINA RESULT:    -6.466      0.000      0.000
REMARK INTER + INTRA:         -13.487
REMARK INTER:                 -10.624
REMARK INTRA:                  -2.863
REMARK UNBOUND:                -2.863
REMARK SMILES C[C@@H]1O[C@@H](OC[C@H]2O[C@H](Oc3c(-c4ccc(O)c(O)c4)oc4cc(O)cc(O)c4c3=O)[C@@H](O)[C@@H](O)[C@H]2O)[C@@H](O)[C@@H](O)[C@H]1O
REMARK SMILES IDX 7 1 36 2 34 3 32 4 9 5 8 6 6 7 5 8 4 9 1 10 2 11 42 12 3 13
REMARK SMILES IDX 40 14 38 15 43 16 41 18 39 20 37 22 35 24 10 26 11 27 12 28
REMARK SMILES IDX 30 29 21 30 29 31 31 32 22 33 27 34 23 35 26 36 24 37 13 38
REMARK SMILES IDX 20 39 14 40 18 41 15 42 16 43 19 44 17 46 28 48 25 50 33 52
REMARK H PARENT 43 17 41 19 39 21 37 23 35 25 19 45 17 47 28 49 25 51 33 53
REMARK Flexibility Score: inf
ROOT
ATOM      1  C   UNL     1      12.543  36.613 123.491  1.00  0.00     0.180 C 
ATOM      2  C   UNL     1      12.701  35.079 123.441  1.00  0.00     0.177 C 
ATOM      3  C   UNL     1      12.875  34.552 124.875  1.00  0.00     0.180 C 
ATOM      4  C   UNL     1      11.740  35.070 125.785  1.00  0.00     0.214 C 
ATOM      5  C   UNL     1      11.577  36.595 125.634  1.00  0.00     0.339 C 
ATOM      6  O   UNL     1      11.414  36.974 124.274  1.00  0.00    -0.332 OA
ENDROOT
BRANCH   1   7
ATOM      7  C   UNL     1      12.405  37.220 122.089  1.00  0.00     0.198 C 
BRANCH   7   8
ATOM      8  O   UNL     1      13.480  36.793 121.273  1.00  0.00    -0.347 OA
BRANCH   8   9
ATOM      9  C   UNL     1      13.026  36.488 119.966  1.00  0.00     0.281 C 
ATOM     10  C   UNL     1      13.129  32.810 120.067  1.00  0.00     0.041 C 
ATOM     11  C   UNL     1      13.694  34.231 120.085  1.00  0.00     0.150 C 
ATOM     12  C   UNL     1      14.807  34.398 119.022  1.00  0.00     0.174 C 
ATOM     13  O   UNL     1      12.623  35.131 119.834  1.00  0.00    -0.344 OA
ATOM     14  C   UNL     1      15.299  35.862 118.966  1.00  0.00     0.179 C 
ATOM     15  C   UNL     1      14.105  36.844 118.923  1.00  0.00     0.202 C 
BRANCH  12  16
ATOM     16  O   UNL     1      15.893  33.547 119.313  1.00  0.00    -0.388 OA
ATOM     17  H   UNL     1      15.657  32.643 118.970  1.00  0.00     0.211 HD
ENDBRANCH  12  16
BRANCH  14  18
ATOM     18  O   UNL     1      16.194  36.167 120.012  1.00  0.00    -0.387 OA
ATOM     19  H   UNL     1      17.037  36.510 119.618  1.00  0.00     0.211 HD
ENDBRANCH  14  18
BRANCH  15  20
ATOM     20  O   UNL     1      14.540  38.165 119.121  1.00  0.00    -0.385 OA
ATOM     21  H   UNL     1      15.418  38.111 119.580  1.00  0.00     0.211 HD
ENDBRANCH  15  20
ENDBRANCH   8   9
ENDBRANCH   7   8
ENDBRANCH   1   7
BRANCH   2  22
ATOM     22  O   UNL     1      11.575  34.499 122.830  1.00  0.00    -0.387 OA
ATOM     23  H   UNL     1      10.832  35.154 122.916  1.00  0.00     0.211 HD
ENDBRANCH   2  22
BRANCH   3  24
ATOM     24  O   UNL     1      12.914  33.147 124.869  1.00  0.00    -0.387 OA
ATOM     25  H   UNL     1      13.484  32.882 124.098  1.00  0.00     0.211 HD
ENDBRANCH   3  24
BRANCH   5  26
ATOM     26  O   UNL     1      12.682  37.278 126.233  1.00  0.00    -0.454 OA
BRANCH  26  27
ATOM     27  C   UNL     1      12.861  38.672 126.344  1.00  0.00     0.214 A 
ATOM     28  C   UNL     1      14.010  39.248 125.761  1.00  0.00     0.180 A 
ATOM     29  C   UNL     1      11.970  39.527 127.038  1.00  0.00     0.239 A 
ATOM     30  O   UNL     1      14.264  40.543 125.916  1.00  0.00    -0.452 OA
ATOM     31  C   UNL     1      12.273  40.899 127.170  1.00  0.00     0.111 A 
ATOM     32  O   UNL     1      10.906  39.071 127.537  1.00  0.00    -0.285 OA
ATOM     33  C   UNL     1      13.470  41.369 126.584  1.00  0.00     0.146 A 
ATOM     34  C   UNL     1      11.444  41.814 127.867  1.00  0.00     0.134 A 
ATOM     35  C   UNL     1      13.831  42.714 126.696  1.00  0.00     0.094 A 
ATOM     36  C   UNL     1      11.826  43.161 127.972  1.00  0.00     0.093 A 
ATOM     37  C   UNL     1      13.013  43.611 127.391  1.00  0.00     0.123 A 
BRANCH  28  38
ATOM     38  C   UNL     1      14.976  38.448 124.972  1.00  0.00     0.025 A 
ATOM     39  C   UNL     1      15.315  38.858 123.671  1.00  0.00     0.062 A 
ATOM     40  C   UNL     1      15.495  37.237 125.465  1.00  0.00     0.016 A 
ATOM     41  C   UNL     1      16.180  38.085 122.885  1.00  0.00     0.158 A 
ATOM     42  C   UNL     1      16.358  36.467 124.683  1.00  0.00     0.051 A 
ATOM     43  C   UNL     1      16.702  36.883 123.393  1.00  0.00     0.157 A 
BRANCH  41  44
ATOM     44  O   UNL     1      16.515  38.504 121.598  1.00  0.00    -0.504 OA
ATOM     45  H   UNL     1      16.454  39.479 121.322  1.00  0.00     0.293 HD
ENDBRANCH  41  44
BRANCH  43  46
ATOM     46  O   UNL     1      17.556  36.085 122.631  1.00  0.00    -0.504 OA
ATOM     47  H   UNL     1      18.390  35.669 123.022  1.00  0.00     0.293 HD
ENDBRANCH  43  46
ENDBRANCH  28  38
BRANCH  34  48
ATOM     48  O   UNL     1      10.249  41.399 128.458  1.00  0.00    -0.507 OA
ATOM     49  H   UNL     1       9.369  41.869 128.277  1.00  0.00     0.293 HD
ENDBRANCH  34  48
BRANCH  37  50
ATOM     50  O   UNL     1      13.372  44.952 127.509  1.00  0.00    -0.508 OA
ATOM     51  H   UNL     1      13.245  45.602 126.741  1.00  0.00     0.293 HD
ENDBRANCH  37  50
ENDBRANCH  26  27
ENDBRANCH   5  26
BRANCH   4  52
ATOM     52  O   UNL     1      10.524  34.444 125.461  1.00  0.00    -0.384 OA
ATOM     53  H   UNL     1      10.616  34.092 124.536  1.00  0.00     0.211 HD
ENDBRANCH   4  52
TORSDOF 16
ENDMDL
MODEL 2
REMARK VINA RESULT:    -6.396      1.707      4.720
REMARK INTER + INTRA:         -13.371
REMARK INTER:                 -10.716
REMARK INTRA:                  -2.655
REMARK UNBOUND:                -2.863
REMARK SMILES C[C@@H]1O[C@@H](OC[C@H]2O[C@H](Oc3c(-c4ccc(O)c(O)c4)oc4cc(O)cc(O)c4c3=O)[C@@H](O)[C@@H](O)[C@H]2O)[C@@H](O)[C@@H](O)[C@H]1O
REMARK SMILES IDX 7 1 36 2 34 3 32 4 9 5 8 6 6 7 5 8 4 9 1 10 2 11 42 12 3 13
REMARK SMILES IDX 40 14 38 15 43 16 41 18 39 20 37 22 35 24 10 26 11 27 12 28
REMARK SMILES IDX 30 29 21 30 29 31 31 32 22 33 27 34 23 35 26 36 24 37 13 38
REMARK SMILES IDX 20 39 14 40 18 41 15 42 16 43 19 44 17 46 28 48 25 50 33 52
REMARK H PARENT 43 17 41 19 39 21 37 23 35 25 19 45 17 47 28 49 25 51 33 53
REMARK Flexibility Score: inf
ROOT
ATOM      1  C   UNL     1      15.663  36.249 121.507  1.00  0.00     0.180 C 
ATOM      2  C   UNL     1      17.082  36.826 121.333  1.00  0.00     0.177 C 
ATOM      3  C   UNL     1      17.287  37.955 122.357  1.00  0.00     0.180 C 
ATOM      4  C   UNL     1      16.942  37.466 123.780  1.00  0.00     0.214 C 
ATOM      5  C   UNL     1      15.566  36.772 123.796  1.00  0.00     0.339 C 
ATOM      6  O   UNL     1      15.487  35.740 122.822  1.00  0.00    -0.332 OA
ENDROOT
BRANCH   1   7
ATOM      7  C   UNL     1      15.367  35.139 120.489  1.00  0.00     0.198 C 
BRANCH   7   8
ATOM      8  O   UNL     1      13.982  34.848 120.487  1.00  0.00    -0.347 OA
BRANCH   8   9
ATOM      9  C   UNL     1      13.452  34.945 119.175  1.00  0.00     0.281 C 
ATOM     10  C   UNL     1      11.165  37.799 119.590  1.00  0.00     0.041 C 
ATOM     11  C   UNL     1      11.698  36.382 119.815  1.00  0.00     0.150 C 
ATOM     12  C   UNL     1      10.598  35.328 119.546  1.00  0.00     0.174 C 
ATOM     13  O   UNL     1      12.803  36.188 118.943  1.00  0.00    -0.344 OA
ATOM     14  C   UNL     1      11.168  33.896 119.667  1.00  0.00     0.179 C 
ATOM     15  C   UNL     1      12.500  33.765 118.890  1.00  0.00     0.202 C 
BRANCH  12  16
ATOM     16  O   UNL     1       9.533  35.489 120.457  1.00  0.00    -0.388 OA
ATOM     17  H   UNL     1       9.871  35.221 121.353  1.00  0.00     0.211 HD
ENDBRANCH  12  16
BRANCH  14  18
ATOM     18  O   UNL     1      11.297  33.481 121.007  1.00  0.00    -0.387 OA
ATOM     19  H   UNL     1      10.404  33.215 121.345  1.00  0.00     0.211 HD
ENDBRANCH  14  18
BRANCH  15  20
ATOM     20  O   UNL     1      13.138  32.553 119.199  1.00  0.00    -0.385 OA
ATOM     21  H   UNL     1      13.832  32.410 118.503  1.00  0.00     0.211 HD
ENDBRANCH  15  20
ENDBRANCH   8   9
ENDBRANCH   7   8
ENDBRANCH   1   7
BRANCH   2  22
ATOM     22  O   UNL     1      18.040  35.811 121.513  1.00  0.00    -0.387 OA
ATOM     23  H   UNL     1      18.356  35.876 122.453  1.00  0.00     0.211 HD
ENDBRANCH   2  22
BRANCH   3  24
ATOM     24  O   UNL     1      18.609  38.427 122.294  1.00  0.00    -0.387 OA
ATOM     25  H   UNL     1      18.722  39.061 123.051  1.00  0.00     0.211 HD
ENDBRANCH   3  24
BRANCH   5  26
ATOM     26  O   UNL     1      14.519  37.731 123.622  1.00  0.00    -0.454 OA
BRANCH  26  27
ATOM     27  C   UNL     1      13.866  38.469 124.630  1.00  0.00     0.214 A 
ATOM     28  C   UNL     1      12.787  37.863 125.310  1.00  0.00     0.180 A 
ATOM     29  C   UNL     1      14.206  39.799 124.979  1.00  0.00     0.239 A 
ATOM     30  O   UNL     1      12.087  38.551 126.206  1.00  0.00    -0.452 OA
ATOM     31  C   UNL     1      13.442  40.490 125.943  1.00  0.00     0.111 A 
ATOM     32  O   UNL     1      15.191  40.369 124.435  1.00  0.00    -0.285 OA
ATOM     33  C   UNL     1      12.356  39.807 126.536  1.00  0.00     0.146 A 
ATOM     34  C   UNL     1      13.706  41.828 126.330  1.00  0.00     0.134 A 
ATOM     35  C   UNL     1      11.554  40.446 127.485  1.00  0.00     0.094 A 
ATOM     36  C   UNL     1      12.885  42.453 127.283  1.00  0.00     0.093 A 
ATOM     37  C   UNL     1      11.814  41.768 127.858  1.00  0.00     0.123 A 
BRANCH  28  38
ATOM     38  C   UNL     1      12.385  36.460 125.054  1.00  0.00     0.025 A 
ATOM     39  C   UNL     1      11.285  36.195 124.223  1.00  0.00     0.062 A 
ATOM     40  C   UNL     1      13.031  35.388 125.698  1.00  0.00     0.016 A 
ATOM     41  C   UNL     1      10.851  34.878 124.015  1.00  0.00     0.158 A 
ATOM     42  C   UNL     1      12.601  34.076 125.491  1.00  0.00     0.051 A 
ATOM     43  C   UNL     1      11.512  33.815 124.655  1.00  0.00     0.157 A 
BRANCH  41  44
ATOM     44  O   UNL     1       9.761  34.625 123.183  1.00  0.00    -0.504 OA
ATOM     45  H   UNL     1       8.807  34.778 123.493  1.00  0.00     0.293 HD
ENDBRANCH  41  44
BRANCH  43  46
ATOM     46  O   UNL     1      11.096  32.495 124.478  1.00  0.00    -0.504 OA
ATOM     47  H   UNL     1      11.274  31.989 123.621  1.00  0.00     0.293 HD
ENDBRANCH  43  46
ENDBRANCH  28  38
BRANCH  34  48
ATOM     48  O   UNL     1      14.770  42.542 125.777  1.00  0.00    -0.507 OA
ATOM     49  H   UNL     1      15.733  42.358 126.036  1.00  0.00     0.293 HD
ENDBRANCH  34  48
BRANCH  37  50
ATOM     50  O   UNL     1      11.013  42.409 128.801  1.00  0.00    -0.508 OA
ATOM     51  H   UNL     1      10.014  42.248 128.842  1.00  0.00     0.293 HD
ENDBRANCH  37  50
ENDBRANCH  26  27
ENDBRANCH   5  26
BRANCH   4  52
ATOM     52  O   UNL     1      17.916  36.565 124.243  1.00  0.00    -0.384 OA
ATOM     53  H   UNL     1      17.540  36.120 125.048  1.00  0.00     0.211 HD
ENDBRANCH   4  52
TORSDOF 16
ENDMDL
MODEL 3
REMARK VINA RESULT:    -6.154      2.345      4.010
REMARK INTER + INTRA:         -12.974
REMARK INTER:                 -10.384
REMARK INTRA:                  -2.590
REMARK UNBOUND:                -2.863
REMARK SMILES C[C@@H]1O[C@@H](OC[C@H]2O[C@H](Oc3c(-c4ccc(O)c(O)c4)oc4cc(O)cc(O)c4c3=O)[C@@H](O)[C@@H](O)[C@H]2O)[C@@H](O)[C@@H](O)[C@H]1O
REMARK SMILES IDX 7 1 36 2 34 3 32 4 9 5 8 6 6 7 5 8 4 9 1 10 2 11 42 12 3 13
REMARK SMILES IDX 40 14 38 15 43 16 41 18 39 20 37 22 35 24 10 26 11 27 12 28
REMARK SMILES IDX 30 29 21 30 29 31 31 32 22 33 27 34 23 35 26 36 24 37 13 38
REMARK SMILES IDX 20 39 14 40 18 41 15 42 16 43 19 44 17 46 28 48 25 50 33 52
REMARK H PARENT 43 17 41 19 39 21 37 23 35 25 19 45 17 47 28 49 25 51 33 53
REMARK Flexibility Score: inf
ROOT
ATOM      1  C   UNL     1      11.699  36.198 123.394  1.00  0.00     0.180 C 
ATOM      2  C   UNL     1      11.786  34.664 123.268  1.00  0.00     0.177 C 
ATOM      3  C   UNL     1      12.572  34.113 124.470  1.00  0.00     0.180 C 
ATOM      4  C   UNL     1      11.976  34.634 125.794  1.00  0.00     0.214 C 
ATOM      5  C   UNL     1      11.794  36.164 125.742  1.00  0.00     0.339 C 
ATOM      6  O   UNL     1      11.048  36.566 124.602  1.00  0.00    -0.332 OA
ENDROOT
BRANCH   1   7
ATOM      7  C   UNL     1      10.961  36.829 122.206  1.00  0.00     0.198 C 
BRANCH   7   8
ATOM      8  O   UNL     1      10.937  38.237 122.349  1.00  0.00    -0.347 OA
BRANCH   8   9
ATOM      9  C   UNL     1       9.602  38.716 122.365  1.00  0.00     0.281 C 
ATOM     10  C   UNL     1       9.576  40.713 119.273  1.00  0.00     0.041 C 
ATOM     11  C   UNL     1       9.991  40.334 120.696  1.00  0.00     0.150 C 
ATOM     12  C   UNL     1       9.807  41.526 121.664  1.00  0.00     0.174 C 
ATOM     13  O   UNL     1       9.195  39.229 121.104  1.00  0.00    -0.344 OA
ATOM     14  C   UNL     1      10.122  41.108 123.119  1.00  0.00     0.179 C 
ATOM     15  C   UNL     1       9.423  39.775 123.473  1.00  0.00     0.202 C 
BRANCH  12  16
ATOM     16  O   UNL     1      10.646  42.596 121.289  1.00  0.00    -0.388 OA
ATOM     17  H   UNL     1      10.384  43.381 121.840  1.00  0.00     0.211 HD
ENDBRANCH  12  16
BRANCH  14  18
ATOM     18  O   UNL     1      11.507  41.060 123.375  1.00  0.00    -0.387 OA
ATOM     19  H   UNL     1      11.774  41.899 123.831  1.00  0.00     0.211 HD
ENDBRANCH  14  18
BRANCH  15  20
ATOM     20  O   UNL     1       9.901  39.271 124.694  1.00  0.00    -0.385 OA
ATOM     21  H   UNL     1       9.347  38.477 124.913  1.00  0.00     0.211 HD
ENDBRANCH  15  20
ENDBRANCH   8   9
ENDBRANCH   7   8
ENDBRANCH   1   7
BRANCH   2  22
ATOM     22  O   UNL     1      10.493  34.111 123.223  1.00  0.00    -0.387 OA
ATOM     23  H   UNL     1      10.469  33.378 123.894  1.00  0.00     0.211 HD
ENDBRANCH   2  22
BRANCH   3  24
ATOM     24  O   UNL     1      12.574  32.707 124.438  1.00  0.00    -0.387 OA
ATOM     25  H   UNL     1      12.298  32.402 125.342  1.00  0.00     0.211 HD
ENDBRANCH   3  24
BRANCH   5  26
ATOM     26  O   UNL     1      13.065  36.820 125.787  1.00  0.00    -0.454 OA
BRANCH  26  27
ATOM     27  C   UNL     1      13.304  38.210 125.819  1.00  0.00     0.214 A 
ATOM     28  C   UNL     1      14.390  38.718 125.073  1.00  0.00     0.180 A 
ATOM     29  C   UNL     1      12.538  39.123 126.583  1.00  0.00     0.239 A 
ATOM     30  O   UNL     1      14.705  40.008 125.143  1.00  0.00    -0.452 OA
ATOM     31  C   UNL     1      12.903  40.486 126.621  1.00  0.00     0.111 A 
ATOM     32  O   UNL     1      11.530  38.726 127.230  1.00  0.00    -0.285 OA
ATOM     33  C   UNL     1      14.031  40.887 125.871  1.00  0.00     0.146 A 
ATOM     34  C   UNL     1      12.200  41.456 127.379  1.00  0.00     0.134 A 
ATOM     35  C   UNL     1      14.449  42.221 125.883  1.00  0.00     0.094 A 
ATOM     36  C   UNL     1      12.638  42.791 127.381  1.00  0.00     0.093 A 
ATOM     37  C   UNL     1      13.757  43.173 126.638  1.00  0.00     0.123 A 
BRANCH  28  38
ATOM     38  C   UNL     1      15.220  37.854 124.202  1.00  0.00     0.025 A 
ATOM     39  C   UNL     1      16.141  36.966 124.782  1.00  0.00     0.062 A 
ATOM     40  C   UNL     1      15.166  37.966 122.800  1.00  0.00     0.016 A 
ATOM     41  C   UNL     1      16.978  36.182 123.976  1.00  0.00     0.158 A 
ATOM     42  C   UNL     1      15.999  37.185 121.996  1.00  0.00     0.051 A 
ATOM     43  C   UNL     1      16.907  36.294 122.577  1.00  0.00     0.157 A 
BRANCH  41  44
ATOM     44  O   UNL     1      17.884  35.299 124.562  1.00  0.00    -0.504 OA
ATOM     45  H   UNL     1      18.573  35.614 125.238  1.00  0.00     0.293 HD
ENDBRANCH  41  44
BRANCH  43  46
ATOM     46  O   UNL     1      17.735  35.537 121.748  1.00  0.00    -0.504 OA
ATOM     47  H   UNL     1      17.788  34.530 121.823  1.00  0.00     0.293 HD
ENDBRANCH  43  46
ENDBRANCH  28  38
BRANCH  34  48
ATOM     48  O   UNL     1      11.076  41.110 128.131  1.00  0.00    -0.507 OA
ATOM     49  H   UNL     1      10.198  40.850 127.696  1.00  0.00     0.293 HD
ENDBRANCH  34  48
BRANCH  37  50
ATOM     50  O   UNL     1      14.173  44.502 126.656  1.00  0.00    -0.508 OA
ATOM     51  H   UNL     1      13.507  45.265 126.611  1.00  0.00     0.293 HD
ENDBRANCH  37  50
ENDBRANCH  26  27
ENDBRANCH   5  26
BRANCH   4  52
ATOM     52  O   UNL     1      10.730  34.033 126.046  1.00  0.00    -0.384 OA
ATOM     53  H   UNL     1      10.837  33.478 126.864  1.00  0.00     0.211 HD
ENDBRANCH   4  52
TORSDOF 16
ENDMDL
MODEL 4
REMARK VINA RESULT:    -6.004      1.956      4.865
REMARK INTER + INTRA:         -12.728
REMARK INTER:                 -10.160
REMARK INTRA:                  -2.568
REMARK UNBOUND:                -2.863
REMARK SMILES C[C@@H]1O[C@@H](OC[C@H]2O[C@H](Oc3c(-c4ccc(O)c(O)c4)oc4cc(O)cc(O)c4c3=O)[C@@H](O)[C@@H](O)[C@H]2O)[C@@H](O)[C@@H](O)[C@H]1O
REMARK SMILES IDX 7 1 36 2 34 3 32 4 9 5 8 6 6 7 5 8 4 9 1 10 2 11 42 12 3 13
REMARK SMILES IDX 40 14 38 15 43 16 41 18 39 20 37 22 35 24 10 26 11 27 12 28
REMARK SMILES IDX 30 29 21 30 29 31 31 32 22 33 27 34 23 35 26 36 24 37 13 38
REMARK SMILES IDX 20 39 14 40 18 41 15 42 16 43 19 44 17 46 28 48 25 50 33 52
REMARK H PARENT 43 17 41 19 39 21 37 23 35 25 19 45 17 47 28 49 25 51 33 53
REMARK Flexibility Score: inf
ROOT
ATOM      1  C   UNL     1      12.529  36.211 122.722  1.00  0.00     0.180 C 
ATOM      2  C   UNL     1      12.881  35.063 121.755  1.00  0.00     0.177 C 
ATOM      3  C   UNL     1      14.294  34.551 122.087  1.00  0.00     0.180 C 
ATOM      4  C   UNL     1      14.408  34.209 123.587  1.00  0.00     0.214 C 
ATOM      5  C   UNL     1      13.884  35.372 124.451  1.00  0.00     0.339 C 
ATOM      6  O   UNL     1      12.571  35.761 124.070  1.00  0.00    -0.332 OA
ENDROOT
BRANCH   1   7
ATOM      7  C   UNL     1      11.145  36.804 122.428  1.00  0.00     0.198 C 
BRANCH   7   8
ATOM      8  O   UNL     1      10.804  37.744 123.429  1.00  0.00    -0.347 OA
BRANCH   8   9
ATOM      9  C   UNL     1       9.401  37.776 123.629  1.00  0.00     0.281 C 
ATOM     10  C   UNL     1       9.098  40.770 125.749  1.00  0.00     0.041 C 
ATOM     11  C   UNL     1       9.522  39.346 125.382  1.00  0.00     0.150 C 
ATOM     12  C   UNL     1       9.059  38.335 126.457  1.00  0.00     0.174 C 
ATOM     13  O   UNL     1       8.951  39.033 124.119  1.00  0.00    -0.344 OA
ATOM     14  C   UNL     1       9.391  36.887 126.031  1.00  0.00     0.179 C 
ATOM     15  C   UNL     1       8.963  36.632 124.566  1.00  0.00     0.202 C 
BRANCH  12  16
ATOM     16  O   UNL     1       9.678  38.616 127.693  1.00  0.00    -0.388 OA
ATOM     17  H   UNL     1      10.578  38.988 127.491  1.00  0.00     0.211 HD
ENDBRANCH  12  16
BRANCH  14  18
ATOM     18  O   UNL     1      10.745  36.561 126.248  1.00  0.00    -0.387 OA
ATOM     19  H   UNL     1      11.088  36.084 125.450  1.00  0.00     0.211 HD
ENDBRANCH  14  18
BRANCH  15  20
ATOM     20  O   UNL     1       9.482  35.412 124.101  1.00  0.00    -0.385 OA
ATOM     21  H   UNL     1       9.396  35.423 123.112  1.00  0.00     0.211 HD
ENDBRANCH  15  20
ENDBRANCH   8   9
ENDBRANCH   7   8
ENDBRANCH   1   7
BRANCH   2  22
ATOM     22  O   UNL     1      11.936  34.028 121.872  1.00  0.00    -0.387 OA
ATOM     23  H   UNL     1      11.283  34.312 122.565  1.00  0.00     0.211 HD
ENDBRANCH   2  22
BRANCH   3  24
ATOM     24  O   UNL     1      14.598  33.433 121.290  1.00  0.00    -0.387 OA
ATOM     25  H   UNL     1      13.927  32.735 121.513  1.00  0.00     0.211 HD
ENDBRANCH   3  24
BRANCH   5  26
ATOM     26  O   UNL     1      14.788  36.481 124.397  1.00  0.00    -0.454 OA
BRANCH  26  27
ATOM     27  C   UNL     1      14.507  37.823 124.727  1.00  0.00     0.214 A 
ATOM     28  C   UNL     1      14.950  38.834 123.846  1.00  0.00     0.180 A 
ATOM     29  C   UNL     1      13.836  38.220 125.909  1.00  0.00     0.239 A 
ATOM     30  O   UNL     1      14.785  40.115 124.158  1.00  0.00    -0.452 OA
ATOM     31  C   UNL     1      13.674  39.592 126.197  1.00  0.00     0.111 A 
ATOM     32  O   UNL     1      13.381  37.355 126.706  1.00  0.00    -0.285 OA
ATOM     33  C   UNL     1      14.189  40.526 125.269  1.00  0.00     0.146 A 
ATOM     34  C   UNL     1      13.034  40.069 127.368  1.00  0.00     0.134 A 
ATOM     35  C   UNL     1      14.072  41.898 125.510  1.00  0.00     0.094 A 
ATOM     36  C   UNL     1      12.930  41.452 127.593  1.00  0.00     0.093 A 
ATOM     37  C   UNL     1      13.446  42.363 126.670  1.00  0.00     0.123 A 
BRANCH  28  38
ATOM     38  C   UNL     1      15.615  38.520 122.560  1.00  0.00     0.025 A 
ATOM     39  C   UNL     1      17.018  38.497 122.493  1.00  0.00     0.062 A 
ATOM     40  C   UNL     1      14.870  38.331 121.381  1.00  0.00     0.016 A 
ATOM     41  C   UNL     1      17.669  38.261 121.274  1.00  0.00     0.158 A 
ATOM     42  C   UNL     1      15.517  38.095 120.166  1.00  0.00     0.051 A 
ATOM     43  C   UNL     1      16.914  38.061 120.105  1.00  0.00     0.157 A 
BRANCH  41  44
ATOM     44  O   UNL     1      19.062  38.234 121.220  1.00  0.00    -0.504 OA
ATOM     45  H   UNL     1      19.562  38.316 120.342  1.00  0.00     0.293 HD
ENDBRANCH  41  44
BRANCH  43  46
ATOM     46  O   UNL     1      17.532  37.837 118.875  1.00  0.00    -0.504 OA
ATOM     47  H   UNL     1      17.394  38.456 118.087  1.00  0.00     0.293 HD
ENDBRANCH  43  46
ENDBRANCH  28  38
BRANCH  34  48
ATOM     48  O   UNL     1      12.504  39.187 128.311  1.00  0.00    -0.507 OA
ATOM     49  H   UNL     1      12.507  39.395 129.303  1.00  0.00     0.293 HD
ENDBRANCH  34  48
BRANCH  37  50
ATOM     50  O   UNL     1      13.332  43.729 126.915  1.00  0.00    -0.508 OA
ATOM     51  H   UNL     1      12.746  44.322 126.338  1.00  0.00     0.293 HD
ENDBRANCH  37  50
ENDBRANCH  26  27
ENDBRANCH   5  26
BRANCH   4  52
ATOM     52  O   UNL     1      13.673  33.048 123.887  1.00  0.00    -0.384 OA
ATOM     53  H   UNL     1      14.195  32.277 123.540  1.00  0.00     0.211 HD
ENDBRANCH   4  52
TORSDOF 16
ENDMDL
MODEL 5
REMARK VINA RESULT:    -5.997      2.020      4.296
REMARK INTER + INTRA:         -12.716
REMARK INTER:                 -10.592
REMARK INTRA:                  -2.124
REMARK UNBOUND:                -2.863
REMARK SMILES C[C@@H]1O[C@@H](OC[C@H]2O[C@H](Oc3c(-c4ccc(O)c(O)c4)oc4cc(O)cc(O)c4c3=O)[C@@H](O)[C@@H](O)[C@H]2O)[C@@H](O)[C@@H](O)[C@H]1O
REMARK SMILES IDX 7 1 36 2 34 3 32 4 9 5 8 6 6 7 5 8 4 9 1 10 2 11 42 12 3 13
REMARK SMILES IDX 40 14 38 15 43 16 41 18 39 20 37 22 35 24 10 26 11 27 12 28
REMARK SMILES IDX 30 29 21 30 29 31 31 32 22 33 27 34 23 35 26 36 24 37 13 38
REMARK SMILES IDX 20 39 14 40 18 41 15 42 16 43 19 44 17 46 28 48 25 50 33 52
REMARK H PARENT 43 17 41 19 39 21 37 23 35 25 19 45 17 47 28 49 25 51 33 53
REMARK Flexibility Score: inf
ROOT
ATOM      1  C   UNL     1      13.272  36.995 122.475  1.00  0.00     0.180 C 
ATOM      2  C   UNL     1      11.863  37.224 121.890  1.00  0.00     0.177 C 
ATOM      3  C   UNL     1      11.105  38.210 122.794  1.00  0.00     0.180 C 
ATOM      4  C   UNL     1      11.940  39.488 123.023  1.00  0.00     0.214 C 
ATOM      5  C   UNL     1      13.374  39.128 123.458  1.00  0.00     0.339 C 
ATOM      6  O   UNL     1      13.987  38.221 122.551  1.00  0.00    -0.332 OA
ENDROOT
BRANCH   1   7
ATOM      7  C   UNL     1      14.079  35.987 121.647  1.00  0.00     0.198 C 
BRANCH   7   8
ATOM      8  O   UNL     1      15.374  36.499 121.398  1.00  0.00    -0.347 OA
BRANCH   8   9
ATOM      9  C   UNL     1      15.630  36.561 120.005  1.00  0.00     0.281 C 
ATOM     10  C   UNL     1      19.104  35.349 119.911  1.00  0.00     0.041 C 
ATOM     11  C   UNL     1      17.959  36.303 120.256  1.00  0.00     0.150 C 
ATOM     12  C   UNL     1      18.273  37.740 119.779  1.00  0.00     0.174 C 
ATOM     13  O   UNL     1      16.780  35.814 119.631  1.00  0.00    -0.344 OA
ATOM     14  C   UNL     1      17.070  38.679 120.029  1.00  0.00     0.179 C 
ATOM     15  C   UNL     1      15.754  38.028 119.544  1.00  0.00     0.202 C 
BRANCH  12  16
ATOM     16  O   UNL     1      19.408  38.241 120.450  1.00  0.00    -0.388 OA
ATOM     17  H   UNL     1      19.920  37.457 120.785  1.00  0.00     0.211 HD
ENDBRANCH  12  16
BRANCH  14  18
ATOM     18  O   UNL     1      16.987  39.097 121.373  1.00  0.00    -0.387 OA
ATOM     19  H   UNL     1      17.192  38.325 121.959  1.00  0.00     0.211 HD
ENDBRANCH  14  18
BRANCH  15  20
ATOM     20  O   UNL     1      14.642  38.761 119.990  1.00  0.00    -0.385 OA
ATOM     21  H   UNL     1      14.008  38.108 120.386  1.00  0.00     0.211 HD
ENDBRANCH  15  20
ENDBRANCH   8   9
ENDBRANCH   7   8
ENDBRANCH   1   7
BRANCH   2  22
ATOM     22  O   UNL     1      11.962  37.724 120.579  1.00  0.00    -0.387 OA
ATOM     23  H   UNL     1      11.051  38.019 120.313  1.00  0.00     0.211 HD
ENDBRANCH   2  22
BRANCH   3  24
ATOM     24  O   UNL     1       9.857  38.520 122.226  1.00  0.00    -0.387 OA
ATOM     25  H   UNL     1       9.685  37.834 121.527  1.00  0.00     0.211 HD
ENDBRANCH   3  24
BRANCH   5  26
ATOM     26  O   UNL     1      13.377  38.608 124.791  1.00  0.00    -0.454 OA
BRANCH  26  27
ATOM     27  C   UNL     1      12.571  39.029 125.869  1.00  0.00     0.214 A 
ATOM     28  C   UNL     1      11.662  38.103 126.424  1.00  0.00     0.180 A 
ATOM     29  C   UNL     1      12.596  40.339 126.407  1.00  0.00     0.239 A 
ATOM     30  O   UNL     1      10.822  38.480 127.383  1.00  0.00    -0.452 OA
ATOM     31  C   UNL     1      11.693  40.694 127.431  1.00  0.00     0.111 A 
ATOM     32  O   UNL     1      13.422  41.189 125.978  1.00  0.00    -0.285 OA
ATOM     33  C   UNL     1      10.794  39.705 127.891  1.00  0.00     0.146 A 
ATOM     34  C   UNL     1      11.642  41.989 128.006  1.00  0.00     0.134 A 
ATOM     35  C   UNL     1       9.866  40.004 128.892  1.00  0.00     0.094 A 
ATOM     36  C   UNL     1      10.699  42.271 129.008  1.00  0.00     0.093 A 
ATOM     37  C   UNL     1       9.815  41.285 129.450  1.00  0.00     0.123 A 
BRANCH  28  38
ATOM     38  C   UNL     1      11.595  36.695 125.967  1.00  0.00     0.025 A 
ATOM     39  C   UNL     1      12.784  35.990 125.718  1.00  0.00     0.062 A 
ATOM     40  C   UNL     1      10.361  36.076 125.693  1.00  0.00     0.016 A 
ATOM     41  C   UNL     1      12.744  34.677 125.228  1.00  0.00     0.158 A 
ATOM     42  C   UNL     1      10.320  34.768 125.206  1.00  0.00     0.051 A 
ATOM     43  C   UNL     1      11.505  34.065 124.969  1.00  0.00     0.157 A 
BRANCH  41  44
ATOM     44  O   UNL     1      13.930  33.984 124.991  1.00  0.00    -0.504 OA
ATOM     45  H   UNL     1      14.836  34.397 125.186  1.00  0.00     0.293 HD
ENDBRANCH  41  44
BRANCH  43  46
ATOM     46  O   UNL     1      11.432  32.765 124.470  1.00  0.00    -0.504 OA
ATOM     47  H   UNL     1      10.664  32.458 123.887  1.00  0.00     0.293 HD
ENDBRANCH  43  46
ENDBRANCH  28  38
BRANCH  34  48
ATOM     48  O   UNL     1      12.512  42.998 127.590  1.00  0.00    -0.507 OA
ATOM     49  H   UNL     1      13.245  42.829 126.910  1.00  0.00     0.293 HD
ENDBRANCH  34  48
BRANCH  37  50
ATOM     50  O   UNL     1       8.888  41.587 130.445  1.00  0.00    -0.508 OA
ATOM     51  H   UNL     1       7.906  41.361 130.339  1.00  0.00     0.293 HD
ENDBRANCH  37  50
ENDBRANCH  26  27
ENDBRANCH   5  26
BRANCH   4  52
ATOM     52  O   UNL     1      11.997  40.258 121.848  1.00  0.00    -0.384 OA
ATOM     53  H   UNL     1      12.809  39.970 121.353  1.00  0.00     0.211 HD
ENDBRANCH   4  52
TORSDOF 16
ENDMDL
MODEL 6
REMARK VINA RESULT:    -5.881      1.960      7.442
REMARK INTER + INTRA:         -12.525
REMARK INTER:                  -9.748
REMARK INTRA:                  -2.776
REMARK UNBOUND:                -2.863
REMARK SMILES C[C@@H]1O[C@@H](OC[C@H]2O[C@H](Oc3c(-c4ccc(O)c(O)c4)oc4cc(O)cc(O)c4c3=O)[C@@H](O)[C@@H](O)[C@H]2O)[C@@H](O)[C@@H](O)[C@H]1O
REMARK SMILES IDX 7 1 36 2 34 3 32 4 9 5 8 6 6 7 5 8 4 9 1 10 2 11 42 12 3 13
REMARK SMILES IDX 40 14 38 15 43 16 41 18 39 20 37 22 35 24 10 26 11 27 12 28
REMARK SMILES IDX 30 29 21 30 29 31 31 32 22 33 27 34 23 35 26 36 24 37 13 38
REMARK SMILES IDX 20 39 14 40 18 41 15 42 16 43 19 44 17 46 28 48 25 50 33 52
REMARK H PARENT 43 17 41 19 39 21 37 23 35 25 19 45 17 47 28 49 25 51 33 53
REMARK Flexibility Score: inf
ROOT
ATOM      1  C   UNL     1      10.960  37.788 124.885  1.00  0.00     0.180 C 
ATOM      2  C   UNL     1       9.728  36.862 124.846  1.00  0.00     0.177 C 
ATOM      3  C   UNL     1       9.936  35.807 123.746  1.00  0.00     0.180 C 
ATOM      4  C   UNL     1      11.292  35.093 123.929  1.00  0.00     0.214 C 
ATOM      5  C   UNL     1      12.426  36.121 124.111  1.00  0.00     0.339 C 
ATOM      6  O   UNL     1      12.139  37.041 125.155  1.00  0.00    -0.332 OA
ENDROOT
BRANCH   1   7
ATOM      7  C   UNL     1      10.811  38.897 125.934  1.00  0.00     0.198 C 
BRANCH   7   8
ATOM      8  O   UNL     1      11.827  39.866 125.755  1.00  0.00    -0.347 OA
BRANCH   8   9
ATOM      9  C   UNL     1      12.447  40.175 126.992  1.00  0.00     0.281 C 
ATOM     10  C   UNL     1      11.586  43.741 127.295  1.00  0.00     0.041 C 
ATOM     11  C   UNL     1      12.255  42.505 126.692  1.00  0.00     0.150 C 
ATOM     12  C   UNL     1      13.781  42.716 126.548  1.00  0.00     0.174 C 
ATOM     13  O   UNL     1      11.980  41.400 127.542  1.00  0.00    -0.344 OA
ATOM     14  C   UNL     1      14.469  41.427 126.041  1.00  0.00     0.179 C 
ATOM     15  C   UNL     1      13.981  40.193 126.836  1.00  0.00     0.202 C 
BRANCH  12  16
ATOM     16  O   UNL     1      14.047  43.773 125.654  1.00  0.00    -0.388 OA
ATOM     17  H   UNL     1      13.468  44.537 125.923  1.00  0.00     0.211 HD
ENDBRANCH  12  16
BRANCH  14  18
ATOM     18  O   UNL     1      14.319  41.250 124.651  1.00  0.00    -0.387 OA
ATOM     19  H   UNL     1      13.639  41.890 124.321  1.00  0.00     0.211 HD
ENDBRANCH  14  18
BRANCH  15  20
ATOM     20  O   UNL     1      14.410  39.005 126.223  1.00  0.00    -0.385 OA
ATOM     21  H   UNL     1      14.536  39.209 125.259  1.00  0.00     0.211 HD
ENDBRANCH  15  20
ENDBRANCH   8   9
ENDBRANCH   7   8
ENDBRANCH   1   7
BRANCH   2  22
ATOM     22  O   UNL     1       9.547  36.248 126.098  1.00  0.00    -0.387 OA
ATOM     23  H   UNL     1       8.979  36.858 126.639  1.00  0.00     0.211 HD
ENDBRANCH   2  22
BRANCH   3  24
ATOM     24  O   UNL     1       8.875  34.884 123.761  1.00  0.00    -0.387 OA
ATOM     25  H   UNL     1       8.870  34.444 122.870  1.00  0.00     0.211 HD
ENDBRANCH   3  24
BRANCH   5  26
ATOM     26  O   UNL     1      12.687  36.801 122.879  1.00  0.00    -0.454 OA
BRANCH  26  27
ATOM     27  C   UNL     1      13.939  36.982 122.257  1.00  0.00     0.214 A 
ATOM     28  C   UNL     1      14.296  36.109 121.206  1.00  0.00     0.180 A 
ATOM     29  C   UNL     1      14.877  37.969 122.647  1.00  0.00     0.239 A 
ATOM     30  O   UNL     1      15.501  36.187 120.649  1.00  0.00    -0.452 OA
ATOM     31  C   UNL     1      16.141  38.022 122.022  1.00  0.00     0.111 A 
ATOM     32  O   UNL     1      14.588  38.802 123.548  1.00  0.00    -0.285 OA
ATOM     33  C   UNL     1      16.416  37.077 121.008  1.00  0.00     0.146 A 
ATOM     34  C   UNL     1      17.140  38.966 122.371  1.00  0.00     0.134 A 
ATOM     35  C   UNL     1      17.657  37.071 120.366  1.00  0.00     0.094 A 
ATOM     36  C   UNL     1      18.382  38.941 121.716  1.00  0.00     0.093 A 
ATOM     37  C   UNL     1      18.641  37.999 120.718  1.00  0.00     0.123 A 
BRANCH  28  38
ATOM     38  C   UNL     1      13.366  35.078 120.690  1.00  0.00     0.025 A 
ATOM     39  C   UNL     1      13.805  33.749 120.567  1.00  0.00     0.062 A 
ATOM     40  C   UNL     1      12.077  35.418 120.238  1.00  0.00     0.016 A 
ATOM     41  C   UNL     1      12.962  32.768 120.026  1.00  0.00     0.158 A 
ATOM     42  C   UNL     1      11.236  34.442 119.700  1.00  0.00     0.051 A 
ATOM     43  C   UNL     1      11.672  33.119 119.588  1.00  0.00     0.157 A 
BRANCH  41  44
ATOM     44  O   UNL     1      13.405  31.451 119.913  1.00  0.00    -0.504 OA
ATOM     45  H   UNL     1      13.427  30.827 120.713  1.00  0.00     0.293 HD
ENDBRANCH  41  44
BRANCH  43  46
ATOM     46  O   UNL     1      10.814  32.168 119.034  1.00  0.00    -0.504 OA
ATOM     47  H   UNL     1       9.809  32.264 119.082  1.00  0.00     0.293 HD
ENDBRANCH  43  46
ENDBRANCH  28  38
BRANCH  34  48
ATOM     48  O   UNL     1      16.914  39.923 123.362  1.00  0.00    -0.507 OA
ATOM     49  H   UNL     1      17.646  40.547 123.682  1.00  0.00     0.293 HD
ENDBRANCH  34  48
BRANCH  37  50
ATOM     50  O   UNL     1      19.881  37.994 120.083  1.00  0.00    -0.508 OA
ATOM     51  H   UNL     1      19.967  37.778 119.096  1.00  0.00     0.293 HD
ENDBRANCH  37  50
ENDBRANCH  26  27
ENDBRANCH   5  26
BRANCH   4  52
ATOM     52  O   UNL     1      11.257  34.246 125.050  1.00  0.00    -0.384 OA
ATOM     53  H   UNL     1      10.429  33.701 124.976  1.00  0.00     0.211 HD
ENDBRANCH   4  52
TORSDOF 16
ENDMDL
MODEL 7
REMARK VINA RESULT:    -5.784      2.532      4.502
REMARK INTER + INTRA:         -12.367
REMARK INTER:                  -9.335
REMARK INTRA:                  -3.032
REMARK UNBOUND:                -2.863
REMARK SMILES C[C@@H]1O[C@@H](OC[C@H]2O[C@H](Oc3c(-c4ccc(O)c(O)c4)oc4cc(O)cc(O)c4c3=O)[C@@H](O)[C@@H](O)[C@H]2O)[C@@H](O)[C@@H](O)[C@H]1O
REMARK SMILES IDX 7 1 36 2 34 3 32 4 9 5 8 6 6 7 5 8 4 9 1 10 2 11 42 12 3 13
REMARK SMILES IDX 40 14 38 15 43 16 41 18 39 20 37 22 35 24 10 26 11 27 12 28
REMARK SMILES IDX 30 29 21 30 29 31 31 32 22 33 27 34 23 35 26 36 24 37 13 38
REMARK SMILES IDX 20 39 14 40 18 41 15 42 16 43 19 44 17 46 28 48 25 50 33 52
REMARK H PARENT 43 17 41 19 39 21 37 23 35 25 19 45 17 47 28 49 25 51 33 53
REMARK Flexibility Score: inf
ROOT
ATOM      1  C   UNL     1      11.706  36.342 121.481  1.00  0.00     0.180 C 
ATOM      2  C   UNL     1      11.200  36.810 120.102  1.00  0.00     0.177 C 
ATOM      3  C   UNL     1      10.295  38.039 120.297  1.00  0.00     0.180 C 
ATOM      4  C   UNL     1      11.015  39.115 121.137  1.00  0.00     0.214 C 
ATOM      5  C   UNL     1      11.611  38.496 122.416  1.00  0.00     0.339 C 
ATOM      6  O   UNL     1      12.437  37.377 122.124  1.00  0.00    -0.332 OA
ENDROOT
BRANCH   1   7
ATOM      7  C   UNL     1      12.587  35.090 121.373  1.00  0.00     0.198 C 
BRANCH   7   8
ATOM      8  O   UNL     1      13.888  35.455 120.954  1.00  0.00    -0.347 OA
BRANCH   8   9
ATOM      9  C   UNL     1      14.838  34.487 121.368  1.00  0.00     0.281 C 
ATOM     10  C   UNL     1      16.957  36.533 123.574  1.00  0.00     0.041 C 
ATOM     11  C   UNL     1      16.324  36.086 122.255  1.00  0.00     0.150 C 
ATOM     12  C   UNL     1      17.406  35.827 121.181  1.00  0.00     0.174 C 
ATOM     13  O   UNL     1      15.576  34.904 122.508  1.00  0.00    -0.344 OA
ATOM     14  C   UNL     1      16.773  35.270 119.885  1.00  0.00     0.179 C 
ATOM     15  C   UNL     1      15.783  34.125 120.203  1.00  0.00     0.202 C 
BRANCH  12  16
ATOM     16  O   UNL     1      18.102  37.019 120.890  1.00  0.00    -0.388 OA
ATOM     17  H   UNL     1      18.850  36.779 120.279  1.00  0.00     0.211 HD
ENDBRANCH  12  16
BRANCH  14  18
ATOM     18  O   UNL     1      16.178  36.279 119.102  1.00  0.00    -0.387 OA
ATOM     19  H   UNL     1      16.763  36.464 118.324  1.00  0.00     0.211 HD
ENDBRANCH  14  18
BRANCH  15  20
ATOM     20  O   UNL     1      15.029  33.789 119.067  1.00  0.00    -0.385 OA
ATOM     21  H   UNL     1      15.186  34.505 118.397  1.00  0.00     0.211 HD
ENDBRANCH  15  20
ENDBRANCH   8   9
ENDBRANCH   7   8
ENDBRANCH   1   7
BRANCH   2  22
ATOM     22  O   UNL     1      12.290  37.122 119.269  1.00  0.00    -0.387 OA
ATOM     23  H   UNL     1      13.070  36.611 119.613  1.00  0.00     0.211 HD
ENDBRANCH   2  22
BRANCH   3  24
ATOM     24  O   UNL     1       9.906  38.552 119.048  1.00  0.00    -0.387 OA
ATOM     25  H   UNL     1       8.942  38.782 119.123  1.00  0.00     0.211 HD
ENDBRANCH   3  24
BRANCH   5  26
ATOM     26  O   UNL     1      10.571  38.146 123.334  1.00  0.00    -0.454 OA
BRANCH  26  27
ATOM     27  C   UNL     1      10.438  38.572 124.672  1.00  0.00     0.214 A 
ATOM     28  C   UNL     1      10.760  37.658 125.699  1.00  0.00     0.180 A 
ATOM     29  C   UNL     1       9.968  39.854 125.048  1.00  0.00     0.239 A 
ATOM     30  O   UNL     1      10.567  37.986 126.973  1.00  0.00    -0.452 OA
ATOM     31  C   UNL     1       9.787  40.163 126.413  1.00  0.00     0.111 A 
ATOM     32  O   UNL     1       9.711  40.722 124.170  1.00  0.00    -0.285 OA
ATOM     33  C   UNL     1      10.100  39.164 127.362  1.00  0.00     0.146 A 
ATOM     34  C   UNL     1       9.301  41.415 126.867  1.00  0.00     0.134 A 
ATOM     35  C   UNL     1       9.926  39.408 128.727  1.00  0.00     0.094 A 
ATOM     36  C   UNL     1       9.129  41.638 128.243  1.00  0.00     0.093 A 
ATOM     37  C   UNL     1       9.439  40.641 129.170  1.00  0.00     0.123 A 
BRANCH  28  38
ATOM     38  C   UNL     1      11.308  36.312 125.411  1.00  0.00     0.025 A 
ATOM     39  C   UNL     1      12.698  36.113 125.422  1.00  0.00     0.062 A 
ATOM     40  C   UNL     1      10.467  35.246 125.040  1.00  0.00     0.016 A 
ATOM     41  C   UNL     1      13.241  34.863 125.094  1.00  0.00     0.158 A 
ATOM     42  C   UNL     1      11.006  34.000 124.715  1.00  0.00     0.051 A 
ATOM     43  C   UNL     1      12.390  33.803 124.737  1.00  0.00     0.157 A 
BRANCH  41  44
ATOM     44  O   UNL     1      14.623  34.675 125.114  1.00  0.00    -0.504 OA
ATOM     45  H   UNL     1      15.104  34.353 125.947  1.00  0.00     0.293 HD
ENDBRANCH  41  44
BRANCH  43  46
ATOM     46  O   UNL     1      12.900  32.551 124.394  1.00  0.00    -0.504 OA
ATOM     47  H   UNL     1      12.802  31.749 125.002  1.00  0.00     0.293 HD
ENDBRANCH  43  46
ENDBRANCH  28  38
BRANCH  34  48
ATOM     48  O   UNL     1       8.983  42.435 125.969  1.00  0.00    -0.507 OA
ATOM     49  H   UNL     1       9.694  42.913 125.426  1.00  0.00     0.293 HD
ENDBRANCH  34  48
BRANCH  37  50
ATOM     50  O   UNL     1       9.260  40.886 130.529  1.00  0.00    -0.508 OA
ATOM     51  H   UNL     1       9.259  41.829 130.901  1.00  0.00     0.293 HD
ENDBRANCH  37  50
ENDBRANCH  26  27
ENDBRANCH   5  26
BRANCH   4  52
ATOM     52  O   UNL     1      12.047  39.713 120.393  1.00  0.00    -0.384 OA
ATOM     53  H   UNL     1      11.734  39.762 119.451  1.00  0.00     0.211 HD
ENDBRANCH   4  52
TORSDOF 16
ENDMDL
MODEL 8
REMARK VINA RESULT:    -5.782     12.230     15.090
REMARK INTER + INTRA:         -12.364
REMARK INTER:                 -10.442
REMARK INTRA:                  -1.922
REMARK UNBOUND:                -2.863
REMARK SMILES C[C@@H]1O[C@@H](OC[C@H]2O[C@H](Oc3c(-c4ccc(O)c(O)c4)oc4cc(O)cc(O)c4c3=O)[C@@H](O)[C@@H](O)[C@H]2O)[C@@H](O)[C@@H](O)[C@H]1O
REMARK SMILES IDX 7 1 36 2 34 3 32 4 9 5 8 6 6 7 5 8 4 9 1 10 2 11 42 12 3 13
REMARK SMILES IDX 40 14 38 15 43 16 41 18 39 20 37 22 35 24 10 26 11 27 12 28
REMARK SMILES IDX 30 29 21 30 29 31 31 32 22 33 27 34 23 35 26 36 24 37 13 38
REMARK SMILES IDX 20 39 14 40 18 41 15 42 16 43 19 44 17 46 28 48 25 50 33 52
REMARK H PARENT 43 17 41 19 39 21 37 23 35 25 19 45 17 47 28 49 25 51 33 53
REMARK Flexibility Score: inf
ROOT
ATOM      1  C   UNL     1      27.296  41.600 128.574  1.00  0.00     0.180 C 
ATOM      2  C   UNL     1      26.873  42.575 127.456  1.00  0.00     0.177 C 
ATOM      3  C   UNL     1      25.937  43.638 128.053  1.00  0.00     0.180 C 
ATOM      4  C   UNL     1      26.581  44.294 129.293  1.00  0.00     0.214 C 
ATOM      5  C   UNL     1      27.102  43.220 130.266  1.00  0.00     0.339 C 
ATOM      6  O   UNL     1      27.964  42.295 129.617  1.00  0.00    -0.332 OA
ENDROOT
BRANCH   1   7
ATOM      7  C   UNL     1      28.203  40.481 128.046  1.00  0.00     0.198 C 
BRANCH   7   8
ATOM      8  O   UNL     1      27.423  39.350 127.710  1.00  0.00    -0.347 OA
BRANCH   8   9
ATOM      9  C   UNL     1      27.987  38.171 128.261  1.00  0.00     0.281 C 
ATOM     10  C   UNL     1      27.314  35.780 125.545  1.00  0.00     0.041 C 
ATOM     11  C   UNL     1      26.973  36.751 126.676  1.00  0.00     0.150 C 
ATOM     12  C   UNL     1      26.042  36.085 127.717  1.00  0.00     0.174 C 
ATOM     13  O   UNL     1      28.191  37.160 127.283  1.00  0.00    -0.344 OA
ATOM     14  C   UNL     1      25.789  37.030 128.914  1.00  0.00     0.179 C 
ATOM     15  C   UNL     1      27.114  37.646 129.419  1.00  0.00     0.202 C 
BRANCH  12  16
ATOM     16  O   UNL     1      24.811  35.738 127.122  1.00  0.00    -0.388 OA
ATOM     17  H   UNL     1      24.448  36.563 126.699  1.00  0.00     0.211 HD
ENDBRANCH  12  16
BRANCH  14  18
ATOM     18  O   UNL     1      24.826  38.018 128.623  1.00  0.00    -0.387 OA
ATOM     19  H   UNL     1      25.223  38.670 127.991  1.00  0.00     0.211 HD
ENDBRANCH  14  18
BRANCH  15  20
ATOM     20  O   UNL     1      26.864  38.683 130.333  1.00  0.00    -0.385 OA
ATOM     21  H   UNL     1      27.570  38.628 131.029  1.00  0.00     0.211 HD
ENDBRANCH  15  20
ENDBRANCH   8   9
ENDBRANCH   7   8
ENDBRANCH   1   7
BRANCH   2  22
ATOM     22  O   UNL     1      28.011  43.176 126.887  1.00  0.00    -0.387 OA
ATOM     23  H   UNL     1      27.925  44.155 127.036  1.00  0.00     0.211 HD
ENDBRANCH   2  22
BRANCH   3  24
ATOM     24  O   UNL     1      25.622  44.602 127.080  1.00  0.00    -0.387 OA
ATOM     25  H   UNL     1      25.577  44.123 126.210  1.00  0.00     0.211 HD
ENDBRANCH   3  24
BRANCH   5  26
ATOM     26  O   UNL     1      26.009  42.549 130.902  1.00  0.00    -0.454 OA
BRANCH  26  27
ATOM     27  C   UNL     1      25.442  42.850 132.158  1.00  0.00     0.214 A 
ATOM     28  C   UNL     1      24.081  43.221 132.205  1.00  0.00     0.180 A 
ATOM     29  C   UNL     1      26.168  42.835 133.374  1.00  0.00     0.239 A 
ATOM     30  O   UNL     1      23.527  43.597 133.353  1.00  0.00    -0.452 OA
ATOM     31  C   UNL     1      25.538  43.233 134.572  1.00  0.00     0.111 A 
ATOM     32  O   UNL     1      27.374  42.467 133.393  1.00  0.00    -0.285 OA
ATOM     33  C   UNL     1      24.182  43.625 134.506  1.00  0.00     0.146 A 
ATOM     34  C   UNL     1      26.202  43.266 135.825  1.00  0.00     0.134 A 
ATOM     35  C   UNL     1      23.510  44.044 135.657  1.00  0.00     0.094 A 
ATOM     36  C   UNL     1      25.510  43.694 136.970  1.00  0.00     0.093 A 
ATOM     37  C   UNL     1      24.172  44.082 136.889  1.00  0.00     0.123 A 
BRANCH  28  38
ATOM     38  C   UNL     1      23.223  43.218 130.997  1.00  0.00     0.025 A 
ATOM     39  C   UNL     1      22.640  42.015 130.564  1.00  0.00     0.062 A 
ATOM     40  C   UNL     1      23.049  44.380 130.222  1.00  0.00     0.016 A 
ATOM     41  C   UNL     1      21.874  41.977 129.391  1.00  0.00     0.158 A 
ATOM     42  C   UNL     1      22.285  44.344 129.054  1.00  0.00     0.051 A 
ATOM     43  C   UNL     1      21.698  43.148 128.632  1.00  0.00     0.157 A 
BRANCH  41  44
ATOM     44  O   UNL     1      21.294  40.780 128.973  1.00  0.00    -0.504 OA
ATOM     45  H   UNL     1      21.166  40.564 127.990  1.00  0.00     0.293 HD
ENDBRANCH  41  44
BRANCH  43  46
ATOM     46  O   UNL     1      20.951  43.140 127.454  1.00  0.00    -0.504 OA
ATOM     47  H   UNL     1      20.479  43.967 127.115  1.00  0.00     0.293 HD
ENDBRANCH  43  46
ENDBRANCH  28  38
BRANCH  34  48
ATOM     48  O   UNL     1      27.539  42.882 135.943  1.00  0.00    -0.507 OA
ATOM     49  H   UNL     1      27.827  41.913 135.880  1.00  0.00     0.293 HD
ENDBRANCH  34  48
BRANCH  37  50
ATOM     50  O   UNL     1      23.507  44.503 138.038  1.00  0.00    -0.508 OA
ATOM     51  H   UNL     1      22.495  44.503 138.092  1.00  0.00     0.293 HD
ENDBRANCH  37  50
ENDBRANCH  26  27
ENDBRANCH   5  26
BRANCH   4  52
ATOM     52  O   UNL     1      27.650  45.125 128.912  1.00  0.00    -0.384 OA
ATOM     53  H   UNL     1      28.206  45.271 129.723  1.00  0.00     0.211 HD
ENDBRANCH   4  52
TORSDOF 16
ENDMDL
MODEL 9
REMARK VINA RESULT:    -5.708      1.571      4.310
REMARK INTER + INTRA:         -12.241
REMARK INTER:                  -9.971
REMARK INTRA:                  -2.270
REMARK UNBOUND:                -2.863
REMARK SMILES C[C@@H]1O[C@@H](OC[C@H]2O[C@H](Oc3c(-c4ccc(O)c(O)c4)oc4cc(O)cc(O)c4c3=O)[C@@H](O)[C@@H](O)[C@H]2O)[C@@H](O)[C@@H](O)[C@H]1O
REMARK SMILES IDX 7 1 36 2 34 3 32 4 9 5 8 6 6 7 5 8 4 9 1 10 2 11 42 12 3 13
REMARK SMILES IDX 40 14 38 15 43 16 41 18 39 20 37 22 35 24 10 26 11 27 12 28
REMARK SMILES IDX 30 29 21 30 29 31 31 32 22 33 27 34 23 35 26 36 24 37 13 38
REMARK SMILES IDX 20 39 14 40 18 41 15 42 16 43 19 44 17 46 28 48 25 50 33 52
REMARK H PARENT 43 17 41 19 39 21 37 23 35 25 19 45 17 47 28 49 25 51 33 53
REMARK Flexibility Score: inf
ROOT
ATOM      1  C   UNL     1      15.167  37.971 121.227  1.00  0.00     0.180 C 
ATOM      2  C   UNL     1      16.537  38.665 121.371  1.00  0.00     0.177 C 
ATOM      3  C   UNL     1      16.580  39.400 122.721  1.00  0.00     0.180 C 
ATOM      4  C   UNL     1      16.199  38.445 123.872  1.00  0.00     0.214 C 
ATOM      5  C   UNL     1      14.893  37.695 123.545  1.00  0.00     0.339 C 
ATOM      6  O   UNL     1      14.962  37.044 122.284  1.00  0.00    -0.332 OA
ENDROOT
BRANCH   1   7
ATOM      7  C   UNL     1      15.031  37.246 119.882  1.00  0.00     0.198 C 
BRANCH   7   8
ATOM      8  O   UNL     1      14.061  36.221 119.986  1.00  0.00    -0.347 OA
BRANCH   8   9
ATOM      9  C   UNL     1      14.431  35.099 119.202  1.00  0.00     0.281 C 
ATOM     10  C   UNL     1      11.433  32.999 119.587  1.00  0.00     0.041 C 
ATOM     11  C   UNL     1      12.695  33.740 120.033  1.00  0.00     0.150 C 
ATOM     12  C   UNL     1      13.659  32.790 120.784  1.00  0.00     0.174 C 
ATOM     13  O   UNL     1      13.320  34.275 118.875  1.00  0.00    -0.344 OA
ATOM     14  C   UNL     1      14.979  33.513 121.137  1.00  0.00     0.179 C 
ATOM     15  C   UNL     1      15.530  34.283 119.913  1.00  0.00     0.202 C 
BRANCH  12  16
ATOM     16  O   UNL     1      13.054  32.313 121.965  1.00  0.00    -0.388 OA
ATOM     17  H   UNL     1      12.298  32.924 122.175  1.00  0.00     0.211 HD
ENDBRANCH  12  16
BRANCH  14  18
ATOM     18  O   UNL     1      14.850  34.345 122.267  1.00  0.00    -0.387 OA
ATOM     19  H   UNL     1      14.001  34.123 122.728  1.00  0.00     0.211 HD
ENDBRANCH  14  18
BRANCH  15  20
ATOM     20  O   UNL     1      16.583  35.132 120.293  1.00  0.00    -0.385 OA
ATOM     21  H   UNL     1      16.284  35.610 121.110  1.00  0.00     0.211 HD
ENDBRANCH  15  20
ENDBRANCH   8   9
ENDBRANCH   7   8
ENDBRANCH   1   7
BRANCH   2  22
ATOM     22  O   UNL     1      17.569  37.713 121.289  1.00  0.00    -0.387 OA
ATOM     23  H   UNL     1      18.420  38.194 121.471  1.00  0.00     0.211 HD
ENDBRANCH   2  22
BRANCH   3  24
ATOM     24  O   UNL     1      17.856  39.953 122.926  1.00  0.00    -0.387 OA
ATOM     25  H   UNL     1      17.754  40.939 122.854  1.00  0.00     0.211 HD
ENDBRANCH   3  24
BRANCH   5  26
ATOM     26  O   UNL     1      13.776  38.587 123.607  1.00  0.00    -0.454 OA
BRANCH  26  27
ATOM     27  C   UNL     1      13.168  39.109 124.767  1.00  0.00     0.214 A 
ATOM     28  C   UNL     1      12.365  38.248 125.546  1.00  0.00     0.180 A 
ATOM     29  C   UNL     1      13.287  40.459 125.179  1.00  0.00     0.239 A 
ATOM     30  O   UNL     1      11.702  38.718 126.598  1.00  0.00    -0.452 OA
ATOM     31  C   UNL     1      12.573  40.913 126.309  1.00  0.00     0.111 A 
ATOM     32  O   UNL     1      14.029  41.257 124.545  1.00  0.00    -0.285 OA
ATOM     33  C   UNL     1      11.765  39.981 126.997  1.00  0.00     0.146 A 
ATOM     34  C   UNL     1      12.624  42.252 126.772  1.00  0.00     0.134 A 
ATOM     35  C   UNL     1      11.023  40.378 128.113  1.00  0.00     0.094 A 
ATOM     36  C   UNL     1      11.868  42.632 127.892  1.00  0.00     0.093 A 
ATOM     37  C   UNL     1      11.070  41.701 128.561  1.00  0.00     0.123 A 
BRANCH  28  38
ATOM     38  C   UNL     1      12.217  36.808 125.228  1.00  0.00     0.025 A 
ATOM     39  C   UNL     1      11.195  36.392 124.359  1.00  0.00     0.062 A 
ATOM     40  C   UNL     1      13.028  35.838 125.847  1.00  0.00     0.016 A 
ATOM     41  C   UNL     1      11.000  35.030 124.092  1.00  0.00     0.158 A 
ATOM     42  C   UNL     1      12.835  34.481 125.580  1.00  0.00     0.051 A 
ATOM     43  C   UNL     1      11.823  34.071 124.707  1.00  0.00     0.157 A 
BRANCH  41  44
ATOM     44  O   UNL     1       9.986  34.627 123.223  1.00  0.00    -0.504 OA
ATOM     45  H   UNL     1       9.063  34.377 123.562  1.00  0.00     0.293 HD
ENDBRANCH  41  44
BRANCH  43  46
ATOM     46  O   UNL     1      11.646  32.708 124.470  1.00  0.00    -0.504 OA
ATOM     47  H   UNL     1      10.821  32.214 124.784  1.00  0.00     0.293 HD
ENDBRANCH  43  46
ENDBRANCH  28  38
BRANCH  34  48
ATOM     48  O   UNL     1      13.412  43.209 126.129  1.00  0.00    -0.507 OA
ATOM     49  H   UNL     1      13.915  43.924 126.643  1.00  0.00     0.293 HD
ENDBRANCH  34  48
BRANCH  37  50
ATOM     50  O   UNL     1      10.328  42.101 129.670  1.00  0.00    -0.508 OA
ATOM     51  H   UNL     1       9.859  41.426 130.262  1.00  0.00     0.293 HD
ENDBRANCH  37  50
ENDBRANCH  26  27
ENDBRANCH   5  26
BRANCH   4  52
ATOM     52  O   UNL     1      17.223  37.507 124.094  1.00  0.00    -0.384 OA
ATOM     53  H   UNL     1      17.917  37.667 123.402  1.00  0.00     0.211 HD
ENDBRANCH   4  52
TORSDOF 16
ENDMDL
