MODEL 1
REMARK VINA RESULT:    -6.833      0.000      0.000
REMARK INTER + INTRA:          -8.760
REMARK INTER:                  -8.430
REMARK INTRA:                  -0.330
REMARK UNBOUND:                -0.330
REMARK SMILES Oc1cc(O)c2cc(O)c(-c3cc(O)c(O)c(O)c3)[o+]c2c1
REMARK SMILES IDX 10 1 20 2 21 3 22 4 2 5 3 6 4 7 6 8 7 9 8 10 11 11 12 12
REMARK SMILES IDX 13 13 19 14 15 15 17 16 14 17 16 19 18 21 9 23 1 25 5 27
REMARK H PARENT 14 18 16 20 18 22 9 24 1 26 5 28
REMARK Flexibility Score: inf
ROOT
ATOM      1  C   UNL     1      42.770  -9.946  11.713  1.00  0.00     0.402 A 
ATOM      2  O   UNL     1      43.448 -10.005  12.856  1.00  0.00    -0.202 OA
ATOM      3  C   UNL     1      43.171  -9.241  13.909  1.00  0.00     0.368 A 
ATOM      4  C   UNL     1      43.939  -9.378  15.069  1.00  0.00     0.162 A 
ATOM      5  C   UNL     1      43.668  -8.593  16.189  1.00  0.00     0.128 A 
ATOM      6  C   UNL     1      42.623  -7.663  16.153  1.00  0.00     0.093 A 
ATOM      7  C   UNL     1      41.839  -7.507  15.003  1.00  0.00     0.136 A 
ATOM      8  C   UNL     1      42.112  -8.303  13.860  1.00  0.00     0.125 A 
ATOM      9  C   UNL     1      41.389  -8.206  12.661  1.00  0.00     0.078 A 
ATOM     10  C   UNL     1      41.720  -9.021  11.575  1.00  0.00     0.223 A 
ENDROOT
BRANCH   1  11
ATOM     11  C   UNL     1      43.169 -10.857  10.615  1.00  0.00     0.091 A 
ATOM     12  C   UNL     1      42.837 -12.223  10.641  1.00  0.00     0.068 A 
ATOM     13  C   UNL     1      43.243 -13.072   9.603  1.00  0.00     0.162 A 
ATOM     14  C   UNL     1      43.942 -10.361   9.555  1.00  0.00     0.068 A 
ATOM     15  C   UNL     1      43.996 -12.566   8.535  1.00  0.00     0.200 A 
ATOM     16  C   UNL     1      44.350 -11.206   8.513  1.00  0.00     0.162 A 
BRANCH  13  17
ATOM     17  O   UNL     1      42.906 -14.424   9.628  1.00  0.00    -0.504 OA
ATOM     18  H   UNL     1      42.303 -14.834   8.924  1.00  0.00     0.293 HD
ENDBRANCH  13  17
BRANCH  15  19
ATOM     19  O   UNL     1      44.388 -13.426   7.509  1.00  0.00    -0.502 OA
ATOM     20  H   UNL     1      45.199 -14.025   7.588  1.00  0.00     0.293 HD
ENDBRANCH  15  19
BRANCH  16  21
ATOM     21  O   UNL     1      45.106 -10.699   7.457  1.00  0.00    -0.504 OA
ATOM     22  H   UNL     1      45.853 -10.033   7.611  1.00  0.00     0.293 HD
ENDBRANCH  16  21
ENDBRANCH   1  11
BRANCH  10  23
ATOM     23  O   UNL     1      41.032  -8.890  10.366  1.00  0.00    -0.500 OA
ATOM     24  H   UNL     1      40.499  -8.058  10.145  1.00  0.00     0.294 HD
ENDBRANCH  10  23
BRANCH   5  25
ATOM     25  O   UNL     1      44.445  -8.743  17.336  1.00  0.00    -0.507 OA
ATOM     26  H   UNL     1      45.060  -8.005  17.660  1.00  0.00     0.293 HD
ENDBRANCH   5  25
BRANCH   7  27
ATOM     27  O   UNL     1      40.813  -6.560  15.048  1.00  0.00    -0.507 OA
ATOM     28  H   UNL     1      40.924  -5.614  15.384  1.00  0.00     0.293 HD
ENDBRANCH   7  27
TORSDOF 7
ENDMDL
MODEL 2
REMARK VINA RESULT:    -6.814      0.116      1.789
REMARK INTER + INTRA:          -8.738
REMARK INTER:                  -8.445
REMARK INTRA:                  -0.293
REMARK UNBOUND:                -0.330
REMARK SMILES Oc1cc(O)c2cc(O)c(-c3cc(O)c(O)c(O)c3)[o+]c2c1
REMARK SMILES IDX 10 1 20 2 21 3 22 4 2 5 3 6 4 7 6 8 7 9 8 10 11 11 12 12
REMARK SMILES IDX 13 13 19 14 15 15 17 16 14 17 16 19 18 21 9 23 1 25 5 27
REMARK H PARENT 14 18 16 20 18 22 9 24 1 26 5 28
REMARK Flexibility Score: inf
ROOT
ATOM      1  C   UNL     1      42.761  -9.899  11.704  1.00  0.00     0.402 A 
ATOM      2  O   UNL     1      43.447  -9.955  12.842  1.00  0.00    -0.202 OA
ATOM      3  C   UNL     1      43.164  -9.205  13.903  1.00  0.00     0.368 A 
ATOM      4  C   UNL     1      43.942  -9.337  15.057  1.00  0.00     0.162 A 
ATOM      5  C   UNL     1      43.665  -8.566  16.184  1.00  0.00     0.128 A 
ATOM      6  C   UNL     1      42.604  -7.654  16.163  1.00  0.00     0.093 A 
ATOM      7  C   UNL     1      41.809  -7.502  15.019  1.00  0.00     0.136 A 
ATOM      8  C   UNL     1      42.089  -8.284  13.868  1.00  0.00     0.125 A 
ATOM      9  C   UNL     1      41.356  -8.190  12.674  1.00  0.00     0.078 A 
ATOM     10  C   UNL     1      41.694  -8.991  11.580  1.00  0.00     0.223 A 
ENDROOT
BRANCH   1  11
ATOM     11  C   UNL     1      43.168 -10.794  10.596  1.00  0.00     0.091 A 
ATOM     12  C   UNL     1      43.809 -10.294   9.449  1.00  0.00     0.068 A 
ATOM     13  C   UNL     1      44.166 -11.154   8.403  1.00  0.00     0.162 A 
ATOM     14  C   UNL     1      42.859 -12.161  10.665  1.00  0.00     0.068 A 
ATOM     15  C   UNL     1      43.875 -12.522   8.487  1.00  0.00     0.200 A 
ATOM     16  C   UNL     1      43.215 -13.027   9.620  1.00  0.00     0.162 A 
BRANCH  13  17
ATOM     17  O   UNL     1      44.808 -10.656   7.270  1.00  0.00    -0.504 OA
ATOM     18  H   UNL     1      45.407 -11.240   6.698  1.00  0.00     0.293 HD
ENDBRANCH  13  17
BRANCH  15  19
ATOM     19  O   UNL     1      44.241 -13.364   7.437  1.00  0.00    -0.502 OA
ATOM     20  H   UNL     1      44.363 -13.024   6.491  1.00  0.00     0.293 HD
ENDBRANCH  15  19
BRANCH  16  21
ATOM     21  O   UNL     1      42.915 -14.386   9.706  1.00  0.00    -0.504 OA
ATOM     22  H   UNL     1      43.441 -15.078   9.187  1.00  0.00     0.293 HD
ENDBRANCH  16  21
ENDBRANCH   1  11
BRANCH  10  23
ATOM     23  O   UNL     1      40.997  -8.863  10.377  1.00  0.00    -0.500 OA
ATOM     24  H   UNL     1      39.986  -8.801  10.352  1.00  0.00     0.294 HD
ENDBRANCH  10  23
BRANCH   5  25
ATOM     25  O   UNL     1      44.452  -8.711  17.325  1.00  0.00    -0.507 OA
ATOM     26  H   UNL     1      45.464  -8.709  17.274  1.00  0.00     0.293 HD
ENDBRANCH   5  25
BRANCH   7  27
ATOM     27  O   UNL     1      40.767  -6.574  15.078  1.00  0.00    -0.507 OA
ATOM     28  H   UNL     1      39.917  -6.704  15.607  1.00  0.00     0.293 HD
ENDBRANCH   7  27
TORSDOF 7
ENDMDL
MODEL 3
REMARK VINA RESULT:    -6.805     16.592     19.190
REMARK INTER + INTRA:          -8.727
REMARK INTER:                  -8.343
REMARK INTRA:                  -0.384
REMARK UNBOUND:                -0.330
REMARK SMILES Oc1cc(O)c2cc(O)c(-c3cc(O)c(O)c(O)c3)[o+]c2c1
REMARK SMILES IDX 10 1 20 2 21 3 22 4 2 5 3 6 4 7 6 8 7 9 8 10 11 11 12 12
REMARK SMILES IDX 13 13 19 14 15 15 17 16 14 17 16 19 18 21 9 23 1 25 5 27
REMARK H PARENT 14 18 16 20 18 22 9 24 1 26 5 28
REMARK Flexibility Score: inf
ROOT
ATOM      1  C   UNL     1      57.724 -21.536  10.793  1.00  0.00     0.402 A 
ATOM      2  O   UNL     1      57.068 -21.856  11.904  1.00  0.00    -0.202 OA
ATOM      3  C   UNL     1      57.439 -22.845  12.712  1.00  0.00     0.368 A 
ATOM      4  C   UNL     1      56.686 -23.104  13.860  1.00  0.00     0.162 A 
ATOM      5  C   UNL     1      57.054 -24.133  14.727  1.00  0.00     0.128 A 
ATOM      6  C   UNL     1      58.184 -24.909  14.447  1.00  0.00     0.093 A 
ATOM      7  C   UNL     1      58.957 -24.669  13.304  1.00  0.00     0.136 A 
ATOM      8  C   UNL     1      58.584 -23.625  12.418  1.00  0.00     0.125 A 
ATOM      9  C   UNL     1      59.289 -23.321  11.242  1.00  0.00     0.078 A 
ATOM     10  C   UNL     1      58.857 -22.280  10.416  1.00  0.00     0.223 A 
ENDROOT
BRANCH   1  11
ATOM     11  C   UNL     1      57.216 -20.406   9.980  1.00  0.00     0.091 A 
ATOM     12  C   UNL     1      57.733 -19.108  10.128  1.00  0.00     0.068 A 
ATOM     13  C   UNL     1      57.223 -18.048   9.366  1.00  0.00     0.162 A 
ATOM     14  C   UNL     1      56.158 -20.622   9.085  1.00  0.00     0.068 A 
ATOM     15  C   UNL     1      56.182 -18.275   8.457  1.00  0.00     0.200 A 
ATOM     16  C   UNL     1      55.644 -19.566   8.318  1.00  0.00     0.162 A 
BRANCH  13  17
ATOM     17  O   UNL     1      57.743 -16.763   9.510  1.00  0.00    -0.504 OA
ATOM     18  H   UNL     1      58.103 -16.244   8.718  1.00  0.00     0.293 HD
ENDBRANCH  13  17
BRANCH  15  19
ATOM     19  O   UNL     1      55.689 -17.210   7.703  1.00  0.00    -0.502 OA
ATOM     20  H   UNL     1      55.234 -16.413   8.130  1.00  0.00     0.293 HD
ENDBRANCH  15  19
BRANCH  16  21
ATOM     21  O   UNL     1      54.602 -19.796   7.421  1.00  0.00    -0.504 OA
ATOM     22  H   UNL     1      53.667 -19.445   7.592  1.00  0.00     0.293 HD
ENDBRANCH  16  21
ENDBRANCH   1  11
BRANCH  10  23
ATOM     23  O   UNL     1      59.529 -22.009   9.222  1.00  0.00    -0.500 OA
ATOM     24  H   UNL     1      59.555 -21.077   8.825  1.00  0.00     0.294 HD
ENDBRANCH  10  23
BRANCH   5  25
ATOM     25  O   UNL     1      56.290 -24.377  15.866  1.00  0.00    -0.507 OA
ATOM     26  H   UNL     1      55.278 -24.421  15.826  1.00  0.00     0.293 HD
ENDBRANCH   5  25
BRANCH   7  27
ATOM     27  O   UNL     1      60.072 -25.485  13.097  1.00  0.00    -0.507 OA
ATOM     28  H   UNL     1      60.135 -26.193  12.380  1.00  0.00     0.293 HD
ENDBRANCH   7  27
TORSDOF 7
ENDMDL
MODEL 4
REMARK VINA RESULT:    -6.759     16.488     19.035
REMARK INTER + INTRA:          -8.669
REMARK INTER:                  -8.337
REMARK INTRA:                  -0.333
REMARK UNBOUND:                -0.330
REMARK SMILES Oc1cc(O)c2cc(O)c(-c3cc(O)c(O)c(O)c3)[o+]c2c1
REMARK SMILES IDX 10 1 20 2 21 3 22 4 2 5 3 6 4 7 6 8 7 9 8 10 11 11 12 12
REMARK SMILES IDX 13 13 19 14 15 15 17 16 14 17 16 19 18 21 9 23 1 25 5 27
REMARK H PARENT 14 18 16 20 18 22 9 24 1 26 5 28
REMARK Flexibility Score: inf
ROOT
ATOM      1  C   UNL     1      57.598 -21.441  10.840  1.00  0.00     0.402 A 
ATOM      2  O   UNL     1      56.960 -21.803  11.950  1.00  0.00    -0.202 OA
ATOM      3  C   UNL     1      57.364 -22.800  12.732  1.00  0.00     0.368 A 
ATOM      4  C   UNL     1      56.628 -23.104  13.881  1.00  0.00     0.162 A 
ATOM      5  C   UNL     1      57.030 -24.143  14.720  1.00  0.00     0.128 A 
ATOM      6  C   UNL     1      58.176 -24.885  14.411  1.00  0.00     0.093 A 
ATOM      7  C   UNL     1      58.931 -24.600  13.267  1.00  0.00     0.136 A 
ATOM      8  C   UNL     1      58.524 -23.545  12.409  1.00  0.00     0.125 A 
ATOM      9  C   UNL     1      59.209 -23.198  11.233  1.00  0.00     0.078 A 
ATOM     10  C   UNL     1      58.744 -22.149  10.435  1.00  0.00     0.223 A 
ENDROOT
BRANCH   1  11
ATOM     11  C   UNL     1      57.055 -20.307  10.059  1.00  0.00     0.091 A 
ATOM     12  C   UNL     1      55.939 -20.465   9.218  1.00  0.00     0.068 A 
ATOM     13  C   UNL     1      55.454 -19.384   8.470  1.00  0.00     0.162 A 
ATOM     14  C   UNL     1      57.698 -19.061  10.113  1.00  0.00     0.068 A 
ATOM     15  C   UNL     1      56.088 -18.137   8.546  1.00  0.00     0.200 A 
ATOM     16  C   UNL     1      57.217 -17.975   9.367  1.00  0.00     0.162 A 
BRANCH  13  17
ATOM     17  O   UNL     1      54.343 -19.542   7.643  1.00  0.00    -0.504 OA
ATOM     18  H   UNL     1      53.611 -20.208   7.860  1.00  0.00     0.293 HD
ENDBRANCH  13  17
BRANCH  15  19
ATOM     19  O   UNL     1      55.589 -17.070   7.797  1.00  0.00    -0.502 OA
ATOM     20  H   UNL     1      55.365 -16.177   8.215  1.00  0.00     0.293 HD
ENDBRANCH  15  19
BRANCH  16  21
ATOM     21  O   UNL     1      57.857 -16.739   9.439  1.00  0.00    -0.504 OA
ATOM     22  H   UNL     1      57.366 -15.904   9.738  1.00  0.00     0.293 HD
ENDBRANCH  16  21
ENDBRANCH   1  11
BRANCH  10  23
ATOM     23  O   UNL     1      59.398 -21.835   9.242  1.00  0.00    -0.500 OA
ATOM     24  H   UNL     1      59.960 -22.518   8.747  1.00  0.00     0.294 HD
ENDBRANCH  10  23
BRANCH   5  25
ATOM     25  O   UNL     1      56.284 -24.431  15.860  1.00  0.00    -0.507 OA
ATOM     26  H   UNL     1      55.957 -25.370  16.057  1.00  0.00     0.293 HD
ENDBRANCH   5  25
BRANCH   7  27
ATOM     27  O   UNL     1      60.062 -25.384  13.030  1.00  0.00    -0.507 OA
ATOM     28  H   UNL     1      60.305 -26.209  13.560  1.00  0.00     0.293 HD
ENDBRANCH   7  27
TORSDOF 7
ENDMDL
MODEL 5
REMARK VINA RESULT:    -6.735      2.517      3.902
REMARK INTER + INTRA:          -8.640
REMARK INTER:                  -8.262
REMARK INTRA:                  -0.378
REMARK UNBOUND:                -0.330
REMARK SMILES Oc1cc(O)c2cc(O)c(-c3cc(O)c(O)c(O)c3)[o+]c2c1
REMARK SMILES IDX 10 1 20 2 21 3 22 4 2 5 3 6 4 7 6 8 7 9 8 10 11 11 12 12
REMARK SMILES IDX 13 13 19 14 15 15 17 16 14 17 16 19 18 21 9 23 1 25 5 27
REMARK H PARENT 14 18 16 20 18 22 9 24 1 26 5 28
REMARK Flexibility Score: inf
ROOT
ATOM      1  C   UNL     1      42.812  -8.931  11.662  1.00  0.00     0.402 A 
ATOM      2  O   UNL     1      43.314  -8.350  12.748  1.00  0.00    -0.202 OA
ATOM      3  C   UNL     1      43.277  -8.905  13.956  1.00  0.00     0.368 A 
ATOM      4  C   UNL     1      43.834  -8.217  15.037  1.00  0.00     0.162 A 
ATOM      5  C   UNL     1      43.813  -8.777  16.314  1.00  0.00     0.128 A 
ATOM      6  C   UNL     1      43.231 -10.034  16.515  1.00  0.00     0.093 A 
ATOM      7  C   UNL     1      42.667 -10.744  15.447  1.00  0.00     0.136 A 
ATOM      8  C   UNL     1      42.685 -10.176  14.147  1.00  0.00     0.125 A 
ATOM      9  C   UNL     1      42.131 -10.808  13.021  1.00  0.00     0.078 A 
ATOM     10  C   UNL     1      42.182 -10.184  11.772  1.00  0.00     0.223 A 
ENDROOT
BRANCH   1  11
ATOM     11  C   UNL     1      42.923  -8.214  10.370  1.00  0.00     0.091 A 
ATOM     12  C   UNL     1      41.897  -7.369   9.912  1.00  0.00     0.068 A 
ATOM     13  C   UNL     1      42.012  -6.718   8.676  1.00  0.00     0.162 A 
ATOM     14  C   UNL     1      44.047  -8.426   9.559  1.00  0.00     0.068 A 
ATOM     15  C   UNL     1      43.148  -6.916   7.881  1.00  0.00     0.200 A 
ATOM     16  C   UNL     1      44.168  -7.776   8.322  1.00  0.00     0.162 A 
BRANCH  13  17
ATOM     17  O   UNL     1      40.996  -5.875   8.228  1.00  0.00    -0.504 OA
ATOM     18  H   UNL     1      41.199  -5.030   7.707  1.00  0.00     0.293 HD
ENDBRANCH  13  17
BRANCH  15  19
ATOM     19  O   UNL     1      43.247  -6.256   6.656  1.00  0.00    -0.502 OA
ATOM     20  H   UNL     1      43.516  -5.283   6.588  1.00  0.00     0.293 HD
ENDBRANCH  15  19
BRANCH  16  21
ATOM     21  O   UNL     1      45.297  -7.983   7.530  1.00  0.00    -0.504 OA
ATOM     22  H   UNL     1      46.055  -8.582   7.834  1.00  0.00     0.293 HD
ENDBRANCH  16  21
ENDBRANCH   1  11
BRANCH  10  23
ATOM     23  O   UNL     1      41.589 -10.789  10.662  1.00  0.00    -0.500 OA
ATOM     24  H   UNL     1      40.934 -11.556  10.761  1.00  0.00     0.294 HD
ENDBRANCH  10  23
BRANCH   5  25
ATOM     25  O   UNL     1      44.373  -8.076  17.380  1.00  0.00    -0.507 OA
ATOM     26  H   UNL     1      44.320  -8.425  18.331  1.00  0.00     0.293 HD
ENDBRANCH   5  25
BRANCH   7  27
ATOM     27  O   UNL     1      42.109 -11.994  15.729  1.00  0.00    -0.507 OA
ATOM     28  H   UNL     1      42.103 -12.422  16.643  1.00  0.00     0.293 HD
ENDBRANCH   7  27
TORSDOF 7
ENDMDL
MODEL 6
REMARK VINA RESULT:    -6.557      1.816      6.957
REMARK INTER + INTRA:          -8.421
REMARK INTER:                  -8.311
REMARK INTRA:                  -0.109
REMARK UNBOUND:                -0.330
REMARK SMILES Oc1cc(O)c2cc(O)c(-c3cc(O)c(O)c(O)c3)[o+]c2c1
REMARK SMILES IDX 10 1 20 2 21 3 22 4 2 5 3 6 4 7 6 8 7 9 8 10 11 11 12 12
REMARK SMILES IDX 13 13 19 14 15 15 17 16 14 17 16 19 18 21 9 23 1 25 5 27
REMARK H PARENT 14 18 16 20 18 22 9 24 1 26 5 28
REMARK Flexibility Score: inf
ROOT
ATOM      1  C   UNL     1      42.825  -8.836  11.813  1.00  0.00     0.402 A 
ATOM      2  O   UNL     1      43.427  -9.777  11.091  1.00  0.00    -0.202 OA
ATOM      3  C   UNL     1      43.241  -9.925   9.783  1.00  0.00     0.368 A 
ATOM      4  C   UNL     1      43.922 -10.943   9.110  1.00  0.00     0.162 A 
ATOM      5  C   UNL     1      43.749 -11.118   7.737  1.00  0.00     0.128 A 
ATOM      6  C   UNL     1      42.889 -10.271   7.029  1.00  0.00     0.093 A 
ATOM      7  C   UNL     1      42.196  -9.243   7.680  1.00  0.00     0.136 A 
ATOM      8  C   UNL     1      42.368  -9.062   9.077  1.00  0.00     0.125 A 
ATOM      9  C   UNL     1      41.704  -8.069   9.815  1.00  0.00     0.078 A 
ATOM     10  C   UNL     1      41.921  -7.955  11.191  1.00  0.00     0.223 A 
ENDROOT
BRANCH   1  11
ATOM     11  C   UNL     1      43.122  -8.768  13.262  1.00  0.00     0.091 A 
ATOM     12  C   UNL     1      43.510  -7.562  13.873  1.00  0.00     0.068 A 
ATOM     13  C   UNL     1      43.808  -7.524  15.242  1.00  0.00     0.162 A 
ATOM     14  C   UNL     1      43.071  -9.939  14.033  1.00  0.00     0.068 A 
ATOM     15  C   UNL     1      43.734  -8.693  16.010  1.00  0.00     0.200 A 
ATOM     16  C   UNL     1      43.367  -9.906  15.403  1.00  0.00     0.162 A 
BRANCH  13  17
ATOM     17  O   UNL     1      44.186  -6.326  15.846  1.00  0.00    -0.504 OA
ATOM     18  H   UNL     1      44.870  -5.710  15.422  1.00  0.00     0.293 HD
ENDBRANCH  13  17
BRANCH  15  19
ATOM     19  O   UNL     1      44.030  -8.634  17.372  1.00  0.00    -0.502 OA
ATOM     20  H   UNL     1      43.314  -8.712  18.083  1.00  0.00     0.293 HD
ENDBRANCH  15  19
BRANCH  16  21
ATOM     21  O   UNL     1      43.299 -11.074  16.161  1.00  0.00    -0.504 OA
ATOM     22  H   UNL     1      42.631 -11.179  16.915  1.00  0.00     0.293 HD
ENDBRANCH  16  21
ENDBRANCH   1  11
BRANCH  10  23
ATOM     23  O   UNL     1      41.224  -6.999  11.933  1.00  0.00    -0.500 OA
ATOM     24  H   UNL     1      40.226  -7.072  12.090  1.00  0.00     0.294 HD
ENDBRANCH  10  23
BRANCH   5  25
ATOM     25  O   UNL     1      44.436 -12.139   7.084  1.00  0.00    -0.507 OA
ATOM     26  H   UNL     1      43.968 -12.762   6.435  1.00  0.00     0.293 HD
ENDBRANCH   5  25
BRANCH   7  27
ATOM     27  O   UNL     1      41.359  -8.438   6.902  1.00  0.00    -0.507 OA
ATOM     28  H   UNL     1      40.446  -8.118   7.191  1.00  0.00     0.293 HD
ENDBRANCH   7  27
TORSDOF 7
ENDMDL
MODEL 7
REMARK VINA RESULT:    -6.524      3.694      6.955
REMARK INTER + INTRA:          -8.380
REMARK INTER:                  -8.020
REMARK INTRA:                  -0.360
REMARK UNBOUND:                -0.330
REMARK SMILES Oc1cc(O)c2cc(O)c(-c3cc(O)c(O)c(O)c3)[o+]c2c1
REMARK SMILES IDX 10 1 20 2 21 3 22 4 2 5 3 6 4 7 6 8 7 9 8 10 11 11 12 12
REMARK SMILES IDX 13 13 19 14 15 15 17 16 14 17 16 19 18 21 9 23 1 25 5 27
REMARK H PARENT 14 18 16 20 18 22 9 24 1 26 5 28
REMARK Flexibility Score: inf
ROOT
ATOM      1  C   UNL     1      43.307  -7.481  11.923  1.00  0.00     0.402 A 
ATOM      2  O   UNL     1      44.354  -7.246  11.138  1.00  0.00    -0.202 OA
ATOM      3  C   UNL     1      44.247  -6.944   9.848  1.00  0.00     0.368 A 
ATOM      4  C   UNL     1      45.407  -6.710   9.105  1.00  0.00     0.162 A 
ATOM      5  C   UNL     1      45.323  -6.388   7.751  1.00  0.00     0.128 A 
ATOM      6  C   UNL     1      44.072  -6.298   7.131  1.00  0.00     0.093 A 
ATOM      7  C   UNL     1      42.894  -6.527   7.854  1.00  0.00     0.136 A 
ATOM      8  C   UNL     1      42.975  -6.857   9.232  1.00  0.00     0.125 A 
ATOM      9  C   UNL     1      41.850  -7.116  10.031  1.00  0.00     0.078 A 
ATOM     10  C   UNL     1      42.009  -7.440  11.381  1.00  0.00     0.223 A 
ENDROOT
BRANCH   1  11
ATOM     11  C   UNL     1      43.556  -7.798  13.348  1.00  0.00     0.091 A 
ATOM     12  C   UNL     1      43.889  -9.101  13.760  1.00  0.00     0.068 A 
ATOM     13  C   UNL     1      44.099  -9.385  15.116  1.00  0.00     0.162 A 
ATOM     14  C   UNL     1      43.404  -6.794  14.316  1.00  0.00     0.068 A 
ATOM     15  C   UNL     1      43.967  -8.372  16.075  1.00  0.00     0.200 A 
ATOM     16  C   UNL     1      43.614  -7.072  15.674  1.00  0.00     0.162 A 
BRANCH  13  17
ATOM     17  O   UNL     1      44.435 -10.676  15.521  1.00  0.00    -0.504 OA
ATOM     18  H   UNL     1      44.221 -11.484  14.948  1.00  0.00     0.293 HD
ENDBRANCH  13  17
BRANCH  15  19
ATOM     19  O   UNL     1      44.184  -8.672  17.420  1.00  0.00    -0.502 OA
ATOM     20  H   UNL     1      43.571  -9.287  17.940  1.00  0.00     0.293 HD
ENDBRANCH  15  19
BRANCH  16  21
ATOM     21  O   UNL     1      43.473  -6.062  16.624  1.00  0.00    -0.504 OA
ATOM     22  H   UNL     1      42.840  -6.157  17.409  1.00  0.00     0.293 HD
ENDBRANCH  16  21
ENDBRANCH   1  11
BRANCH  10  23
ATOM     23  O   UNL     1      40.894  -7.746  12.164  1.00  0.00    -0.500 OA
ATOM     24  H   UNL     1      40.244  -8.478  11.902  1.00  0.00     0.294 HD
ENDBRANCH  10  23
BRANCH   5  25
ATOM     25  O   UNL     1      46.492  -6.160   7.027  1.00  0.00    -0.507 OA
ATOM     26  H   UNL     1      47.403  -6.184   7.470  1.00  0.00     0.293 HD
ENDBRANCH   5  25
BRANCH   7  27
ATOM     27  O   UNL     1      41.684  -6.414   7.164  1.00  0.00    -0.507 OA
ATOM     28  H   UNL     1      41.369  -5.575   6.700  1.00  0.00     0.293 HD
ENDBRANCH   7  27
TORSDOF 7
ENDMDL
MODEL 8
REMARK VINA RESULT:    -6.461      2.595      4.082
REMARK INTER + INTRA:          -8.301
REMARK INTER:                  -7.980
REMARK INTRA:                  -0.321
REMARK UNBOUND:                -0.330
REMARK SMILES Oc1cc(O)c2cc(O)c(-c3cc(O)c(O)c(O)c3)[o+]c2c1
REMARK SMILES IDX 10 1 20 2 21 3 22 4 2 5 3 6 4 7 6 8 7 9 8 10 11 11 12 12
REMARK SMILES IDX 13 13 19 14 15 15 17 16 14 17 16 19 18 21 9 23 1 25 5 27
REMARK H PARENT 14 18 16 20 18 22 9 24 1 26 5 28
REMARK Flexibility Score: inf
ROOT
ATOM      1  C   UNL     1      42.882  -8.844  11.402  1.00  0.00     0.402 A 
ATOM      2  O   UNL     1      43.395  -8.335  12.519  1.00  0.00    -0.202 OA
ATOM      3  C   UNL     1      43.285  -8.922  13.707  1.00  0.00     0.368 A 
ATOM      4  C   UNL     1      43.861  -8.310  14.824  1.00  0.00     0.162 A 
ATOM      5  C   UNL     1      43.763  -8.905  16.081  1.00  0.00     0.128 A 
ATOM      6  C   UNL     1      43.086 -10.121  16.227  1.00  0.00     0.093 A 
ATOM      7  C   UNL     1      42.501 -10.755  15.124  1.00  0.00     0.136 A 
ATOM      8  C   UNL     1      42.596 -10.151  13.843  1.00  0.00     0.125 A 
ATOM      9  C   UNL     1      42.028 -10.706  12.684  1.00  0.00     0.078 A 
ATOM     10  C   UNL     1      42.159 -10.050  11.457  1.00  0.00     0.223 A 
ENDROOT
BRANCH   1  11
ATOM     11  C   UNL     1      43.080  -8.100  10.138  1.00  0.00     0.091 A 
ATOM     12  C   UNL     1      44.324  -8.089   9.483  1.00  0.00     0.068 A 
ATOM     13  C   UNL     1      44.498  -7.360   8.298  1.00  0.00     0.162 A 
ATOM     14  C   UNL     1      42.024  -7.343   9.610  1.00  0.00     0.068 A 
ATOM     15  C   UNL     1      43.432  -6.625   7.764  1.00  0.00     0.200 A 
ATOM     16  C   UNL     1      42.191  -6.612   8.424  1.00  0.00     0.162 A 
BRANCH  13  17
ATOM     17  O   UNL     1      45.730  -7.358   7.648  1.00  0.00    -0.504 OA
ATOM     18  H   UNL     1      46.603  -7.333   8.163  1.00  0.00     0.293 HD
ENDBRANCH  13  17
BRANCH  15  19
ATOM     19  O   UNL     1      43.621  -5.908   6.582  1.00  0.00    -0.502 OA
ATOM     20  H   UNL     1      44.455  -6.012   6.017  1.00  0.00     0.293 HD
ENDBRANCH  15  19
BRANCH  16  21
ATOM     21  O   UNL     1      41.130  -5.875   7.902  1.00  0.00    -0.504 OA
ATOM     22  H   UNL     1      40.704  -6.114   7.014  1.00  0.00     0.293 HD
ENDBRANCH  16  21
ENDBRANCH   1  11
BRANCH  10  23
ATOM     23  O   UNL     1      41.554 -10.576  10.314  1.00  0.00    -0.500 OA
ATOM     24  H   UNL     1      42.094 -11.026   9.584  1.00  0.00     0.294 HD
ENDBRANCH  10  23
BRANCH   5  25
ATOM     25  O   UNL     1      44.343  -8.279  17.183  1.00  0.00    -0.507 OA
ATOM     26  H   UNL     1      44.800  -7.378  17.101  1.00  0.00     0.293 HD
ENDBRANCH   5  25
BRANCH   7  27
ATOM     27  O   UNL     1      41.845 -11.967  15.351  1.00  0.00    -0.507 OA
ATOM     28  H   UNL     1      42.275 -12.777  15.774  1.00  0.00     0.293 HD
ENDBRANCH   7  27
TORSDOF 7
ENDMDL
MODEL 9
REMARK VINA RESULT:    -6.439      2.595      3.780
REMARK INTER + INTRA:          -8.275
REMARK INTER:                  -8.013
REMARK INTRA:                  -0.261
REMARK UNBOUND:                -0.330
REMARK SMILES Oc1cc(O)c2cc(O)c(-c3cc(O)c(O)c(O)c3)[o+]c2c1
REMARK SMILES IDX 10 1 20 2 21 3 22 4 2 5 3 6 4 7 6 8 7 9 8 10 11 11 12 12
REMARK SMILES IDX 13 13 19 14 15 15 17 16 14 17 16 19 18 21 9 23 1 25 5 27
REMARK H PARENT 14 18 16 20 18 22 9 24 1 26 5 28
REMARK Flexibility Score: inf
ROOT
ATOM      1  C   UNL     1      43.284  -8.089  11.380  1.00  0.00     0.402 A 
ATOM      2  O   UNL     1      42.892  -9.188  12.019  1.00  0.00    -0.202 OA
ATOM      3  C   UNL     1      42.959  -9.328  13.340  1.00  0.00     0.368 A 
ATOM      4  C   UNL     1      42.519 -10.521  13.920  1.00  0.00     0.162 A 
ATOM      5  C   UNL     1      42.574 -10.694  15.303  1.00  0.00     0.128 A 
ATOM      6  C   UNL     1      43.071  -9.668  16.114  1.00  0.00     0.093 A 
ATOM      7  C   UNL     1      43.517  -8.462  15.558  1.00  0.00     0.136 A 
ATOM      8  C   UNL     1      43.465  -8.284  14.151  1.00  0.00     0.125 A 
ATOM      9  C   UNL     1      43.902  -7.117  13.504  1.00  0.00     0.078 A 
ATOM     10  C   UNL     1      43.824  -7.016  12.112  1.00  0.00     0.223 A 
ENDROOT
BRANCH   1  11
ATOM     11  C   UNL     1      43.151  -8.051   9.906  1.00  0.00     0.091 A 
ATOM     12  C   UNL     1      42.278  -7.149   9.274  1.00  0.00     0.068 A 
ATOM     13  C   UNL     1      42.149  -7.144   7.878  1.00  0.00     0.162 A 
ATOM     14  C   UNL     1      43.866  -8.971   9.125  1.00  0.00     0.068 A 
ATOM     15  C   UNL     1      42.884  -8.050   7.102  1.00  0.00     0.200 A 
ATOM     16  C   UNL     1      43.743  -8.970   7.728  1.00  0.00     0.162 A 
BRANCH  13  17
ATOM     17  O   UNL     1      41.288  -6.243   7.254  1.00  0.00    -0.504 OA
ATOM     18  H   UNL     1      41.450  -5.923   6.307  1.00  0.00     0.293 HD
ENDBRANCH  13  17
BRANCH  15  19
ATOM     19  O   UNL     1      42.746  -8.028   5.714  1.00  0.00    -0.502 OA
ATOM     20  H   UNL     1      43.392  -8.510   5.101  1.00  0.00     0.293 HD
ENDBRANCH  15  19
BRANCH  16  21
ATOM     21  O   UNL     1      44.469  -9.879   6.961  1.00  0.00    -0.504 OA
ATOM     22  H   UNL     1      44.774  -9.656   6.021  1.00  0.00     0.293 HD
ENDBRANCH  16  21
ENDBRANCH   1  11
BRANCH  10  23
ATOM     23  O   UNL     1      44.304  -5.875  11.465  1.00  0.00    -0.500 OA
ATOM     24  H   UNL     1      44.034  -4.944  11.758  1.00  0.00     0.294 HD
ENDBRANCH  10  23
BRANCH   5  25
ATOM     25  O   UNL     1      42.132 -11.890  15.863  1.00  0.00    -0.507 OA
ATOM     26  H   UNL     1      42.127 -12.754  15.332  1.00  0.00     0.293 HD
ENDBRANCH   5  25
BRANCH   7  27
ATOM     27  O   UNL     1      43.996  -7.486  16.435  1.00  0.00    -0.507 OA
ATOM     28  H   UNL     1      44.948  -7.436  16.768  1.00  0.00     0.293 HD
ENDBRANCH   7  27
TORSDOF 7
ENDMDL
