MODEL 1
REMARK VINA RESULT:    -4.753      0.000      0.000
REMARK INTER + INTRA:          -6.092
REMARK INTER:                  -5.864
REMARK INTRA:                  -0.228
REMARK UNBOUND:                -0.228
REMARK SMILES O=c1c(O)c(-c2cc(O)c(O)c(O)c2)oc2cc(O)cc(O)c12
REMARK SMILES IDX 5 1 3 2 2 3 1 4 23 5 21 6 20 7 18 8 17 9 16 10 15 11 6 12
REMARK SMILES IDX 7 13 8 14 14 15 10 16 12 17 9 18 11 20 13 22 4 24 22 26
REMARK SMILES IDX 19 28
REMARK H PARENT 9 19 11 21 13 23 4 25 22 27 19 29
REMARK Flexibility Score: inf
ROOT
ATOM      1  C   UNL     1     170.314 171.801 159.690  1.00  0.00     0.180 A 
ATOM      2  C   UNL     1     169.773 172.943 160.311  1.00  0.00     0.208 A 
ATOM      3  C   UNL     1     170.381 173.431 161.479  1.00  0.00     0.238 A 
ATOM      4  O   UNL     1     169.911 174.460 162.038  1.00  0.00    -0.285 OA
ATOM      5  C   UNL     1     171.500 172.762 162.014  1.00  0.00     0.111 A 
ATOM      6  C   UNL     1     172.167 173.187 163.189  1.00  0.00     0.134 A 
ATOM      7  C   UNL     1     173.269 172.462 163.664  1.00  0.00     0.093 A 
ATOM      8  C   UNL     1     173.716 171.322 162.991  1.00  0.00     0.123 A 
ATOM      9  C   UNL     1     173.061 170.898 161.829  1.00  0.00     0.094 A 
ATOM     10  C   UNL     1     171.963 171.608 161.339  1.00  0.00     0.146 A 
ATOM     11  O   UNL     1     171.362 171.188 160.231  1.00  0.00    -0.452 OA
ENDROOT
BRANCH   1  12
ATOM     12  C   UNL     1     169.742 171.237 158.445  1.00  0.00     0.029 A 
ATOM     13  C   UNL     1     169.063 170.007 158.444  1.00  0.00     0.062 A 
ATOM     14  C   UNL     1     168.507 169.501 157.260  1.00  0.00     0.162 A 
ATOM     15  C   UNL     1     169.827 171.972 157.252  1.00  0.00     0.062 A 
ATOM     16  C   UNL     1     168.618 170.234 156.067  1.00  0.00     0.200 A 
ATOM     17  C   UNL     1     169.275 171.470 156.066  1.00  0.00     0.162 A 
BRANCH  14  18
ATOM     18  O   UNL     1     167.841 168.276 157.268  1.00  0.00    -0.504 OA
ATOM     19  H   UNL     1     168.237 167.453 156.829  1.00  0.00     0.293 HD
ENDBRANCH  14  18
BRANCH  16  20
ATOM     20  O   UNL     1     168.077 169.748 154.875  1.00  0.00    -0.502 OA
ATOM     21  H   UNL     1     167.785 170.364 154.126  1.00  0.00     0.293 HD
ENDBRANCH  16  20
BRANCH  17  22
ATOM     22  O   UNL     1     169.376 172.197 154.881  1.00  0.00    -0.504 OA
ATOM     23  H   UNL     1     168.864 171.930 154.049  1.00  0.00     0.293 HD
ENDBRANCH  17  22
ENDBRANCH   1  12
BRANCH   2  24
ATOM     24  O   UNL     1     168.633 173.559 159.787  1.00  0.00    -0.502 OA
ATOM     25  H   UNL     1     167.918 173.043 159.291  1.00  0.00     0.293 HD
ENDBRANCH   2  24
BRANCH   6  26
ATOM     26  O   UNL     1     171.744 174.320 163.885  1.00  0.00    -0.507 OA
ATOM     27  H   UNL     1     171.018 174.927 163.523  1.00  0.00     0.293 HD
ENDBRANCH   6  26
BRANCH   8  28
ATOM     28  O   UNL     1     174.813 170.619 163.484  1.00  0.00    -0.508 OA
ATOM     29  H   UNL     1     174.992 170.546 164.478  1.00  0.00     0.293 HD
ENDBRANCH   8  28
TORSDOF 7
ENDMDL
MODEL 2
REMARK VINA RESULT:    -4.732     10.493     12.280
REMARK INTER + INTRA:          -6.067
REMARK INTER:                  -5.834
REMARK INTRA:                  -0.233
REMARK UNBOUND:                -0.228
REMARK SMILES O=c1c(O)c(-c2cc(O)c(O)c(O)c2)oc2cc(O)cc(O)c12
REMARK SMILES IDX 5 1 3 2 2 3 1 4 23 5 21 6 20 7 18 8 17 9 16 10 15 11 6 12
REMARK SMILES IDX 7 13 8 14 14 15 10 16 12 17 9 18 11 20 13 22 4 24 22 26
REMARK SMILES IDX 19 28
REMARK H PARENT 9 19 11 21 13 23 4 25 22 27 19 29
REMARK Flexibility Score: inf
ROOT
ATOM      1  C   UNL     1     171.810 160.265 159.690  1.00  0.00     0.180 A 
ATOM      2  C   UNL     1     172.916 160.851 160.336  1.00  0.00     0.208 A 
ATOM      3  C   UNL     1     173.402 160.264 161.515  1.00  0.00     0.238 A 
ATOM      4  O   UNL     1     174.398 160.774 162.096  1.00  0.00    -0.285 OA
ATOM      5  C   UNL     1     172.766 159.119 162.037  1.00  0.00     0.111 A 
ATOM      6  C   UNL     1     173.191 158.470 163.222  1.00  0.00     0.134 A 
ATOM      7  C   UNL     1     172.500 157.340 163.682  1.00  0.00     0.093 A 
ATOM      8  C   UNL     1     171.394 156.848 162.985  1.00  0.00     0.123 A 
ATOM      9  C   UNL     1     170.970 157.485 161.813  1.00  0.00     0.094 A 
ATOM     10  C   UNL     1     171.647 158.611 161.337  1.00  0.00     0.146 A 
ATOM     11  O   UNL     1     171.227 159.193 160.220  1.00  0.00    -0.452 OA
ENDROOT
BRANCH   1  12
ATOM     12  C   UNL     1     171.252 160.814 158.433  1.00  0.00     0.029 A 
ATOM     13  C   UNL     1     171.992 160.805 157.239  1.00  0.00     0.062 A 
ATOM     14  C   UNL     1     171.437 161.307 156.053  1.00  0.00     0.162 A 
ATOM     15  C   UNL     1     169.935 161.300 158.418  1.00  0.00     0.062 A 
ATOM     16  C   UNL     1     170.126 161.813 156.054  1.00  0.00     0.200 A 
ATOM     17  C   UNL     1     169.376 161.805 157.236  1.00  0.00     0.162 A 
BRANCH  14  18
ATOM     18  O   UNL     1     172.182 161.301 154.875  1.00  0.00    -0.504 OA
ATOM     19  H   UNL     1     173.120 161.682 154.837  1.00  0.00     0.293 HD
ENDBRANCH  14  18
BRANCH  16  20
ATOM     20  O   UNL     1     169.554 162.323 154.887  1.00  0.00    -0.502 OA
ATOM     21  H   UNL     1     169.578 161.818 154.010  1.00  0.00     0.293 HD
ENDBRANCH  16  20
BRANCH  17  22
ATOM     22  O   UNL     1     168.073 162.301 157.231  1.00  0.00    -0.504 OA
ATOM     23  H   UNL     1     167.875 163.275 157.423  1.00  0.00     0.293 HD
ENDBRANCH  17  22
ENDBRANCH   1  12
BRANCH   2  24
ATOM     24  O   UNL     1     173.497 162.014 159.824  1.00  0.00    -0.502 OA
ATOM     25  H   UNL     1     174.274 162.477 160.279  1.00  0.00     0.293 HD
ENDBRANCH   2  24
BRANCH   6  26
ATOM     26  O   UNL     1     174.291 158.938 163.942  1.00  0.00    -0.507 OA
ATOM     27  H   UNL     1     174.206 159.689 164.618  1.00  0.00     0.293 HD
ENDBRANCH   6  26
BRANCH   8  28
ATOM     28  O   UNL     1     170.725 155.725 163.464  1.00  0.00    -0.508 OA
ATOM     29  H   UNL     1     169.719 155.720 163.590  1.00  0.00     0.293 HD
ENDBRANCH   8  28
TORSDOF 7
ENDMDL
MODEL 3
REMARK VINA RESULT:    -4.697     14.110     17.324
REMARK INTER + INTRA:          -6.024
REMARK INTER:                  -5.814
REMARK INTRA:                  -0.209
REMARK UNBOUND:                -0.228
REMARK SMILES O=c1c(O)c(-c2cc(O)c(O)c(O)c2)oc2cc(O)cc(O)c12
REMARK SMILES IDX 5 1 3 2 2 3 1 4 23 5 21 6 20 7 18 8 17 9 16 10 15 11 6 12
REMARK SMILES IDX 7 13 8 14 14 15 10 16 12 17 9 18 11 20 13 22 4 24 22 26
REMARK SMILES IDX 19 28
REMARK H PARENT 9 19 11 21 13 23 4 25 22 27 19 29
REMARK Flexibility Score: inf
ROOT
ATOM      1  C   UNL     1     160.309 158.627 159.713  1.00  0.00     0.180 A 
ATOM      2  C   UNL     1     160.913 157.506 160.316  1.00  0.00     0.208 A 
ATOM      3  C   UNL     1     160.365 156.999 161.504  1.00  0.00     0.238 A 
ATOM      4  O   UNL     1     160.891 155.989 162.047  1.00  0.00    -0.285 OA
ATOM      5  C   UNL     1     159.242 157.628 162.080  1.00  0.00     0.111 A 
ATOM      6  C   UNL     1     158.634 157.181 163.278  1.00  0.00     0.134 A 
ATOM      7  C   UNL     1     157.524 157.868 163.791  1.00  0.00     0.093 A 
ATOM      8  C   UNL     1     157.013 158.989 163.135  1.00  0.00     0.123 A 
ATOM      9  C   UNL     1     157.609 159.435 161.950  1.00  0.00     0.094 A 
ATOM     10  C   UNL     1     158.715 158.763 161.420  1.00  0.00     0.146 A 
ATOM     11  O   UNL     1     159.260 159.203 160.292  1.00  0.00    -0.452 OA
ENDROOT
BRANCH   1  12
ATOM     12  C   UNL     1     160.815 159.208 158.449  1.00  0.00     0.029 A 
ATOM     13  C   UNL     1     160.803 158.475 157.250  1.00  0.00     0.062 A 
ATOM     14  C   UNL     1     161.265 159.052 156.058  1.00  0.00     0.162 A 
ATOM     15  C   UNL     1     161.264 160.538 158.432  1.00  0.00     0.062 A 
ATOM     16  C   UNL     1     161.733 160.376 156.057  1.00  0.00     0.200 A 
ATOM     17  C   UNL     1     161.728 161.119 157.244  1.00  0.00     0.162 A 
BRANCH  14  18
ATOM     18  O   UNL     1     161.254 158.314 154.875  1.00  0.00    -0.504 OA
ATOM     19  H   UNL     1     161.232 158.764 153.967  1.00  0.00     0.293 HD
ENDBRANCH  14  18
BRANCH  16  20
ATOM     20  O   UNL     1     162.202 160.970 154.884  1.00  0.00    -0.502 OA
ATOM     21  H   UNL     1     163.119 161.395 154.824  1.00  0.00     0.293 HD
ENDBRANCH  16  20
BRANCH  17  22
ATOM     22  O   UNL     1     162.186 162.435 157.237  1.00  0.00    -0.504 OA
ATOM     23  H   UNL     1     161.620 163.192 156.874  1.00  0.00     0.293 HD
ENDBRANCH  17  22
ENDBRANCH   1  12
BRANCH   2  24
ATOM     24  O   UNL     1     162.055 156.931 159.751  1.00  0.00    -0.502 OA
ATOM     25  H   UNL     1     162.047 156.008 159.335  1.00  0.00     0.293 HD
ENDBRANCH   2  24
BRANCH   6  26
ATOM     26  O   UNL     1     159.122 156.066 163.959  1.00  0.00    -0.507 OA
ATOM     27  H   UNL     1     160.111 155.843 163.977  1.00  0.00     0.293 HD
ENDBRANCH   6  26
BRANCH   8  28
ATOM     28  O   UNL     1     155.910 159.653 163.666  1.00  0.00    -0.508 OA
ATOM     29  H   UNL     1     155.076 159.821 163.115  1.00  0.00     0.293 HD
ENDBRANCH   8  28
TORSDOF 7
ENDMDL
MODEL 4
REMARK VINA RESULT:    -4.686     10.217     12.109
REMARK INTER + INTRA:          -6.010
REMARK INTER:                  -5.797
REMARK INTRA:                  -0.213
REMARK UNBOUND:                -0.228
REMARK SMILES O=c1c(O)c(-c2cc(O)c(O)c(O)c2)oc2cc(O)cc(O)c12
REMARK SMILES IDX 5 1 3 2 2 3 1 4 23 5 21 6 20 7 18 8 17 9 16 10 15 11 6 12
REMARK SMILES IDX 7 13 8 14 14 15 10 16 12 17 9 18 11 20 13 22 4 24 22 26
REMARK SMILES IDX 19 28
REMARK H PARENT 9 19 11 21 13 23 4 25 22 27 19 29
REMARK Flexibility Score: inf
ROOT
ATOM      1  C   UNL     1     158.920 170.253 159.679  1.00  0.00     0.180 A 
ATOM      2  C   UNL     1     157.781 169.705 160.301  1.00  0.00     0.208 A 
ATOM      3  C   UNL     1     157.288 170.312 161.467  1.00  0.00     0.238 A 
ATOM      4  O   UNL     1     156.262 169.836 162.026  1.00  0.00    -0.285 OA
ATOM      5  C   UNL     1     157.949 171.436 162.002  1.00  0.00     0.111 A 
ATOM      6  C   UNL     1     157.519 172.101 163.175  1.00  0.00     0.134 A 
ATOM      7  C   UNL     1     158.237 173.208 163.649  1.00  0.00     0.093 A 
ATOM      8  C   UNL     1     159.374 173.662 162.977  1.00  0.00     0.123 A 
ATOM      9  C   UNL     1     159.803 173.009 161.816  1.00  0.00     0.094 A 
ATOM     10  C   UNL     1     159.100 171.905 161.327  1.00  0.00     0.146 A 
ATOM     11  O   UNL     1     159.526 171.306 160.220  1.00  0.00    -0.452 OA
ENDROOT
BRANCH   1  12
ATOM     12  C   UNL     1     159.488 169.683 158.436  1.00  0.00     0.029 A 
ATOM     13  C   UNL     1     158.760 169.679 157.234  1.00  0.00     0.062 A 
ATOM     14  C   UNL     1     159.325 169.157 156.061  1.00  0.00     0.162 A 
ATOM     15  C   UNL     1     160.801 169.189 158.441  1.00  0.00     0.062 A 
ATOM     16  C   UNL     1     160.632 168.643 156.083  1.00  0.00     0.200 A 
ATOM     17  C   UNL     1     161.370 168.663 157.273  1.00  0.00     0.162 A 
BRANCH  14  18
ATOM     18  O   UNL     1     158.592 169.151 154.875  1.00  0.00    -0.504 OA
ATOM     19  H   UNL     1     157.676 169.579 154.814  1.00  0.00     0.293 HD
ENDBRANCH  14  18
BRANCH  16  20
ATOM     20  O   UNL     1     161.213 168.114 154.930  1.00  0.00    -0.502 OA
ATOM     21  H   UNL     1     161.329 168.659 154.085  1.00  0.00     0.293 HD
ENDBRANCH  16  20
BRANCH  17  22
ATOM     22  O   UNL     1     162.669 168.160 157.288  1.00  0.00    -0.504 OA
ATOM     23  H   UNL     1     163.276 168.281 158.090  1.00  0.00     0.293 HD
ENDBRANCH  17  22
ENDBRANCH   1  12
BRANCH   2  24
ATOM     24  O   UNL     1     157.173 168.561 159.778  1.00  0.00    -0.502 OA
ATOM     25  H   UNL     1     156.465 168.044 160.284  1.00  0.00     0.293 HD
ENDBRANCH   2  24
BRANCH   6  26
ATOM     26  O   UNL     1     156.388 171.671 163.871  1.00  0.00    -0.507 OA
ATOM     27  H   UNL     1     155.517 171.465 163.396  1.00  0.00     0.293 HD
ENDBRANCH   6  26
BRANCH   8  28
ATOM     28  O   UNL     1     160.069 174.764 163.469  1.00  0.00    -0.508 OA
ATOM     29  H   UNL     1     160.065 174.997 164.455  1.00  0.00     0.293 HD
ENDBRANCH   8  28
TORSDOF 7
ENDMDL
MODEL 5
REMARK VINA RESULT:    -4.328     16.886     19.157
REMARK INTER + INTRA:          -5.568
REMARK INTER:                  -5.215
REMARK INTRA:                  -0.353
REMARK UNBOUND:                -0.228
REMARK SMILES O=c1c(O)c(-c2cc(O)c(O)c(O)c2)oc2cc(O)cc(O)c12
REMARK SMILES IDX 5 1 3 2 2 3 1 4 23 5 21 6 20 7 18 8 17 9 16 10 15 11 6 12
REMARK SMILES IDX 7 13 8 14 14 15 10 16 12 17 9 18 11 20 13 22 4 24 22 26
REMARK SMILES IDX 19 28
REMARK H PARENT 9 19 11 21 13 23 4 25 22 27 19 29
REMARK Flexibility Score: inf
ROOT
ATOM      1  C   UNL     1     157.982 158.505 164.306  1.00  0.00     0.180 A 
ATOM      2  C   UNL     1     156.721 159.130 164.250  1.00  0.00     0.208 A 
ATOM      3  C   UNL     1     156.079 159.469 165.451  1.00  0.00     0.238 A 
ATOM      4  O   UNL     1     154.955 160.039 165.413  1.00  0.00    -0.285 OA
ATOM      5  C   UNL     1     156.695 159.162 166.682  1.00  0.00     0.111 A 
ATOM      6  C   UNL     1     156.112 159.467 167.936  1.00  0.00     0.134 A 
ATOM      7  C   UNL     1     156.784 159.121 169.117  1.00  0.00     0.093 A 
ATOM      8  C   UNL     1     158.023 158.477 169.070  1.00  0.00     0.123 A 
ATOM      9  C   UNL     1     158.604 158.174 167.834  1.00  0.00     0.094 A 
ATOM     10  C   UNL     1     157.951 158.512 166.645  1.00  0.00     0.146 A 
ATOM     11  O   UNL     1     158.526 158.219 165.485  1.00  0.00    -0.452 OA
ENDROOT
BRANCH   1  12
ATOM     12  C   UNL     1     158.731 158.134 163.083  1.00  0.00     0.029 A 
ATOM     13  C   UNL     1     159.499 159.079 162.381  1.00  0.00     0.062 A 
ATOM     14  C   UNL     1     160.221 158.702 161.239  1.00  0.00     0.162 A 
ATOM     15  C   UNL     1     158.723 156.800 162.647  1.00  0.00     0.062 A 
ATOM     16  C   UNL     1     160.187 157.369 160.798  1.00  0.00     0.200 A 
ATOM     17  C   UNL     1     159.440 156.419 161.505  1.00  0.00     0.162 A 
BRANCH  14  18
ATOM     18  O   UNL     1     160.975 159.648 160.545  1.00  0.00    -0.504 OA
ATOM     19  H   UNL     1     161.986 159.674 160.610  1.00  0.00     0.293 HD
ENDBRANCH  14  18
BRANCH  16  20
ATOM     20  O   UNL     1     160.893 156.972 159.661  1.00  0.00    -0.502 OA
ATOM     21  H   UNL     1     160.452 156.468 158.902  1.00  0.00     0.293 HD
ENDBRANCH  16  20
BRANCH  17  22
ATOM     22  O   UNL     1     159.415 155.096 161.068  1.00  0.00    -0.504 OA
ATOM     23  H   UNL     1     160.249 154.635 160.725  1.00  0.00     0.293 HD
ENDBRANCH  17  22
ENDBRANCH   1  12
BRANCH   2  24
ATOM     24  O   UNL     1     156.111 159.378 163.017  1.00  0.00    -0.502 OA
ATOM     25  H   UNL     1     155.181 159.044 162.796  1.00  0.00     0.293 HD
ENDBRANCH   2  24
BRANCH   6  26
ATOM     26  O   UNL     1     154.876 160.109 168.016  1.00  0.00    -0.507 OA
ATOM     27  H   UNL     1     154.616 160.848 167.374  1.00  0.00     0.293 HD
ENDBRANCH   6  26
BRANCH   8  28
ATOM     28  O   UNL     1     158.669 158.144 170.258  1.00  0.00    -0.508 OA
ATOM     29  H   UNL     1     159.292 158.794 170.723  1.00  0.00     0.293 HD
ENDBRANCH   8  28
TORSDOF 7
ENDMDL
MODEL 6
REMARK VINA RESULT:    -4.298     12.965     15.375
REMARK INTER + INTRA:          -5.531
REMARK INTER:                  -5.172
REMARK INTRA:                  -0.359
REMARK UNBOUND:                -0.228
REMARK SMILES O=c1c(O)c(-c2cc(O)c(O)c(O)c2)oc2cc(O)cc(O)c12
REMARK SMILES IDX 5 1 3 2 2 3 1 4 23 5 21 6 20 7 18 8 17 9 16 10 15 11 6 12
REMARK SMILES IDX 7 13 8 14 14 15 10 16 12 17 9 18 11 20 13 22 4 24 22 26
REMARK SMILES IDX 19 28
REMARK H PARENT 9 19 11 21 13 23 4 25 22 27 19 29
REMARK Flexibility Score: inf
ROOT
ATOM      1  C   UNL     1     158.026 172.063 166.048  1.00  0.00     0.180 A 
ATOM      2  C   UNL     1     156.681 171.645 166.015  1.00  0.00     0.208 A 
ATOM      3  C   UNL     1     156.075 171.408 164.771  1.00  0.00     0.238 A 
ATOM      4  O   UNL     1     154.875 171.024 164.730  1.00  0.00    -0.285 OA
ATOM      5  C   UNL     1     156.813 171.611 163.586  1.00  0.00     0.111 A 
ATOM      6  C   UNL     1     156.274 171.399 162.294  1.00  0.00     0.134 A 
ATOM      7  C   UNL     1     157.070 171.631 161.163  1.00  0.00     0.093 A 
ATOM      8  C   UNL     1     158.388 172.072 161.297  1.00  0.00     0.123 A 
ATOM      9  C   UNL     1     158.926 172.283 162.572  1.00  0.00     0.094 A 
ATOM     10  C   UNL     1     158.150 172.054 163.711  1.00  0.00     0.146 A 
ATOM     11  O   UNL     1     158.686 172.257 164.910  1.00  0.00    -0.452 OA
ENDROOT
BRANCH   1  12
ATOM     12  C   UNL     1     158.740 172.314 167.321  1.00  0.00     0.029 A 
ATOM     13  C   UNL     1     159.520 171.316 167.931  1.00  0.00     0.062 A 
ATOM     14  C   UNL     1     160.209 171.581 169.123  1.00  0.00     0.162 A 
ATOM     15  C   UNL     1     158.687 173.590 167.902  1.00  0.00     0.062 A 
ATOM     16  C   UNL     1     160.130 172.856 169.709  1.00  0.00     0.200 A 
ATOM     17  C   UNL     1     159.371 173.859 169.095  1.00  0.00     0.162 A 
BRANCH  14  18
ATOM     18  O   UNL     1     160.974 170.583 169.724  1.00  0.00    -0.504 OA
ATOM     19  H   UNL     1     161.387 170.709 170.642  1.00  0.00     0.293 HD
ENDBRANCH  14  18
BRANCH  16  20
ATOM     20  O   UNL     1     160.802 173.141 170.898  1.00  0.00    -0.502 OA
ATOM     21  H   UNL     1     160.466 172.821 171.798  1.00  0.00     0.293 HD
ENDBRANCH  16  20
BRANCH  17  22
ATOM     22  O   UNL     1     159.302 175.125 169.674  1.00  0.00    -0.504 OA
ATOM     23  H   UNL     1     158.506 175.410 170.233  1.00  0.00     0.293 HD
ENDBRANCH  17  22
ENDBRANCH   1  12
BRANCH   2  24
ATOM     24  O   UNL     1     155.958 171.499 167.202  1.00  0.00    -0.502 OA
ATOM     25  H   UNL     1     155.519 170.626 167.465  1.00  0.00     0.293 HD
ENDBRANCH   2  24
BRANCH   6  26
ATOM     26  O   UNL     1     154.960 170.961 162.126  1.00  0.00    -0.507 OA
ATOM     27  H   UNL     1     154.441 171.147 161.276  1.00  0.00     0.293 HD
ENDBRANCH   6  26
BRANCH   8  28
ATOM     28  O   UNL     1     159.158 172.296 160.158  1.00  0.00    -0.508 OA
ATOM     29  H   UNL     1     159.254 171.592 159.436  1.00  0.00     0.293 HD
ENDBRANCH   8  28
TORSDOF 7
ENDMDL
MODEL 7
REMARK VINA RESULT:    -4.288     17.980     20.374
REMARK INTER + INTRA:          -5.519
REMARK INTER:                  -5.165
REMARK INTRA:                  -0.354
REMARK UNBOUND:                -0.228
REMARK SMILES O=c1c(O)c(-c2cc(O)c(O)c(O)c2)oc2cc(O)cc(O)c12
REMARK SMILES IDX 5 1 3 2 2 3 1 4 23 5 21 6 20 7 18 8 17 9 16 10 15 11 6 12
REMARK SMILES IDX 7 13 8 14 14 15 10 16 12 17 9 18 11 20 13 22 4 24 22 26
REMARK SMILES IDX 19 28
REMARK H PARENT 9 19 11 21 13 23 4 25 22 27 19 29
REMARK Flexibility Score: inf
ROOT
ATOM      1  C   UNL     1     158.411 157.995 166.035  1.00  0.00     0.180 A 
ATOM      2  C   UNL     1     158.903 156.675 166.057  1.00  0.00     0.208 A 
ATOM      3  C   UNL     1     159.232 156.054 164.842  1.00  0.00     0.238 A 
ATOM      4  O   UNL     1     159.684 154.876 164.851  1.00  0.00    -0.285 OA
ATOM      5  C   UNL     1     159.047 156.750 163.630  1.00  0.00     0.111 A 
ATOM      6  C   UNL     1     159.350 156.193 162.364  1.00  0.00     0.134 A 
ATOM      7  C   UNL     1     159.128 156.947 161.202  1.00  0.00     0.093 A 
ATOM      8  C   UNL     1     158.610 158.241 161.280  1.00  0.00     0.123 A 
ATOM      9  C   UNL     1     158.309 158.797 162.529  1.00  0.00     0.094 A 
ATOM     10  C   UNL     1     158.525 158.063 163.698  1.00  0.00     0.146 A 
ATOM     11  O   UNL     1     158.236 158.615 164.872  1.00  0.00    -0.452 OA
ENDROOT
BRANCH   1  12
ATOM     12  C   UNL     1     158.060 158.725 167.275  1.00  0.00     0.029 A 
ATOM     13  C   UNL     1     156.752 158.707 167.788  1.00  0.00     0.062 A 
ATOM     14  C   UNL     1     156.445 159.385 168.977  1.00  0.00     0.162 A 
ATOM     15  C   UNL     1     159.064 159.400 167.985  1.00  0.00     0.062 A 
ATOM     16  C   UNL     1     157.452 160.078 169.668  1.00  0.00     0.200 A 
ATOM     17  C   UNL     1     158.762 160.081 169.172  1.00  0.00     0.162 A 
BRANCH  14  18
ATOM     18  O   UNL     1     155.142 159.367 169.474  1.00  0.00    -0.504 OA
ATOM     19  H   UNL     1     154.795 160.101 170.081  1.00  0.00     0.293 HD
ENDBRANCH  14  18
BRANCH  16  20
ATOM     20  O   UNL     1     157.169 160.764 170.850  1.00  0.00    -0.502 OA
ATOM     21  H   UNL     1     157.796 161.462 171.231  1.00  0.00     0.293 HD
ENDBRANCH  16  20
BRANCH  17  22
ATOM     22  O   UNL     1     159.761 160.764 169.865  1.00  0.00    -0.504 OA
ATOM     23  H   UNL     1     160.548 160.277 170.276  1.00  0.00     0.293 HD
ENDBRANCH  17  22
ENDBRANCH   1  12
BRANCH   2  24
ATOM     24  O   UNL     1     159.031 155.990 167.269  1.00  0.00    -0.502 OA
ATOM     25  H   UNL     1     159.210 156.466 168.144  1.00  0.00     0.293 HD
ENDBRANCH   2  24
BRANCH   6  26
ATOM     26  O   UNL     1     159.867 154.902 162.252  1.00  0.00    -0.507 OA
ATOM     27  H   UNL     1     159.826 154.385 161.382  1.00  0.00     0.293 HD
ENDBRANCH   6  26
BRANCH   8  28
ATOM     28  O   UNL     1     158.399 158.969 160.112  1.00  0.00    -0.508 OA
ATOM     29  H   UNL     1     158.843 159.867 159.959  1.00  0.00     0.293 HD
ENDBRANCH   8  28
TORSDOF 7
ENDMDL
MODEL 8
REMARK VINA RESULT:    -4.244      1.712      3.493
REMARK INTER + INTRA:          -5.464
REMARK INTER:                  -5.136
REMARK INTRA:                  -0.328
REMARK UNBOUND:                -0.228
REMARK SMILES O=c1c(O)c(-c2cc(O)c(O)c(O)c2)oc2cc(O)cc(O)c12
REMARK SMILES IDX 5 1 3 2 2 3 1 4 23 5 21 6 20 7 18 8 17 9 16 10 15 11 6 12
REMARK SMILES IDX 7 13 8 14 14 15 10 16 12 17 9 18 11 20 13 22 4 24 22 26
REMARK SMILES IDX 19 28
REMARK H PARENT 9 19 11 21 13 23 4 25 22 27 19 29
REMARK Flexibility Score: inf
ROOT
ATOM      1  C   UNL     1     171.515 171.351 161.587  1.00  0.00     0.180 A 
ATOM      2  C   UNL     1     172.840 170.923 161.798  1.00  0.00     0.208 A 
ATOM      3  C   UNL     1     173.544 171.419 162.907  1.00  0.00     0.238 A 
ATOM      4  O   UNL     1     174.727 171.035 163.112  1.00  0.00    -0.285 OA
ATOM      5  C   UNL     1     172.923 172.346 163.769  1.00  0.00     0.111 A 
ATOM      6  C   UNL     1     173.565 172.897 164.905  1.00  0.00     0.134 A 
ATOM      7  C   UNL     1     172.883 173.820 165.709  1.00  0.00     0.093 A 
ATOM      8  C   UNL     1     171.576 174.205 165.402  1.00  0.00     0.123 A 
ATOM      9  C   UNL     1     170.936 173.664 164.281  1.00  0.00     0.094 A 
ATOM     10  C   UNL     1     171.598 172.740 163.468  1.00  0.00     0.146 A 
ATOM     11  O   UNL     1     170.967 172.237 162.414  1.00  0.00    -0.452 OA
ENDROOT
BRANCH   1  12
ATOM     12  C   UNL     1     170.701 170.858 160.452  1.00  0.00     0.029 A 
ATOM     13  C   UNL     1     170.106 169.585 160.478  1.00  0.00     0.062 A 
ATOM     14  C   UNL     1     169.318 169.146 159.404  1.00  0.00     0.162 A 
ATOM     15  C   UNL     1     170.468 171.699 159.353  1.00  0.00     0.062 A 
ATOM     16  C   UNL     1     169.111 169.987 158.298  1.00  0.00     0.200 A 
ATOM     17  C   UNL     1     169.684 171.265 158.276  1.00  0.00     0.162 A 
BRANCH  14  18
ATOM     18  O   UNL     1     168.738 167.879 159.435  1.00  0.00    -0.504 OA
ATOM     19  H   UNL     1     169.259 167.049 159.176  1.00  0.00     0.293 HD
ENDBRANCH  14  18
BRANCH  16  20
ATOM     20  O   UNL     1     168.335 169.570 157.215  1.00  0.00    -0.502 OA
ATOM     21  H   UNL     1     167.363 169.835 157.115  1.00  0.00     0.293 HD
ENDBRANCH  16  20
BRANCH  17  22
ATOM     22  O   UNL     1     169.469 172.099 157.181  1.00  0.00    -0.504 OA
ATOM     23  H   UNL     1     170.019 172.016 156.334  1.00  0.00     0.293 HD
ENDBRANCH  17  22
ENDBRANCH   1  12
BRANCH   2  24
ATOM     24  O   UNL     1     173.449 170.041 160.901  1.00  0.00    -0.502 OA
ATOM     25  H   UNL     1     174.155 169.376 161.189  1.00  0.00     0.293 HD
ENDBRANCH   2  24
BRANCH   6  26
ATOM     26  O   UNL     1     174.871 172.534 165.238  1.00  0.00    -0.507 OA
ATOM     27  H   UNL     1     175.196 171.578 165.157  1.00  0.00     0.293 HD
ENDBRANCH   6  26
BRANCH   8  28
ATOM     28  O   UNL     1     170.920 175.125 166.217  1.00  0.00    -0.508 OA
ATOM     29  H   UNL     1     171.332 176.023 166.441  1.00  0.00     0.293 HD
ENDBRANCH   8  28
TORSDOF 7
ENDMDL
MODEL 9
REMARK VINA RESULT:    -4.206     14.127     16.489
REMARK INTER + INTRA:          -5.418
REMARK INTER:                  -5.112
REMARK INTRA:                  -0.305
REMARK UNBOUND:                -0.228
REMARK SMILES O=c1c(O)c(-c2cc(O)c(O)c(O)c2)oc2cc(O)cc(O)c12
REMARK SMILES IDX 5 1 3 2 2 3 1 4 23 5 21 6 20 7 18 8 17 9 16 10 15 11 6 12
REMARK SMILES IDX 7 13 8 14 14 15 10 16 12 17 9 18 11 20 13 22 4 24 22 26
REMARK SMILES IDX 19 28
REMARK H PARENT 9 19 11 21 13 23 4 25 22 27 19 29
REMARK Flexibility Score: inf
ROOT
ATOM      1  C   UNL     1     160.140 171.300 170.410  1.00  0.00     0.180 A 
ATOM      2  C   UNL     1     160.624 172.380 169.647  1.00  0.00     0.208 A 
ATOM      3  C   UNL     1     159.870 172.826 168.549  1.00  0.00     0.238 A 
ATOM      4  O   UNL     1     160.289 173.799 167.866  1.00  0.00    -0.285 OA
ATOM      5  C   UNL     1     158.664 172.175 168.222  1.00  0.00     0.111 A 
ATOM      6  C   UNL     1     157.849 172.560 167.129  1.00  0.00     0.134 A 
ATOM      7  C   UNL     1     156.666 171.855 166.863  1.00  0.00     0.093 A 
ATOM      8  C   UNL     1     156.283 170.777 167.662  1.00  0.00     0.123 A 
ATOM      9  C   UNL     1     157.084 170.392 168.744  1.00  0.00     0.094 A 
ATOM     10  C   UNL     1     158.265 171.083 169.028  1.00  0.00     0.146 A 
ATOM     11  O   UNL     1     159.005 170.702 170.063  1.00  0.00    -0.452 OA
ENDROOT
BRANCH   1  12
ATOM     12  C   UNL     1     160.867 170.785 171.594  1.00  0.00     0.029 A 
ATOM     13  C   UNL     1     160.878 171.491 172.809  1.00  0.00     0.062 A 
ATOM     14  C   UNL     1     161.552 170.975 173.925  1.00  0.00     0.162 A 
ATOM     15  C   UNL     1     161.509 169.540 171.521  1.00  0.00     0.062 A 
ATOM     16  C   UNL     1     162.211 169.738 173.835  1.00  0.00     0.200 A 
ATOM     17  C   UNL     1     162.186 169.021 172.633  1.00  0.00     0.162 A 
BRANCH  14  18
ATOM     18  O   UNL     1     161.563 171.686 175.125  1.00  0.00    -0.504 OA
ATOM     19  H   UNL     1     162.185 171.437 175.885  1.00  0.00     0.293 HD
ENDBRANCH  14  18
BRANCH  16  20
ATOM     20  O   UNL     1     162.893 169.207 174.931  1.00  0.00    -0.502 OA
ATOM     21  H   UNL     1     163.613 168.503 174.829  1.00  0.00     0.293 HD
ENDBRANCH  16  20
BRANCH  17  22
ATOM     22  O   UNL     1     162.835 167.790 172.549  1.00  0.00    -0.504 OA
ATOM     23  H   UNL     1     162.337 166.917 172.678  1.00  0.00     0.293 HD
ENDBRANCH  17  22
ENDBRANCH   1  12
BRANCH   2  24
ATOM     24  O   UNL     1     161.848 172.977 169.964  1.00  0.00    -0.502 OA
ATOM     25  H   UNL     1     161.925 173.953 170.218  1.00  0.00     0.293 HD
ENDBRANCH   2  24
BRANCH   6  26
ATOM     26  O   UNL     1     158.205 173.632 166.310  1.00  0.00    -0.507 OA
ATOM     27  H   UNL     1     157.681 174.499 166.310  1.00  0.00     0.293 HD
ENDBRANCH   6  26
BRANCH   8  28
ATOM     28  O   UNL     1     155.103 170.093 167.376  1.00  0.00    -0.508 OA
ATOM     29  H   UNL     1     154.824 169.274 167.903  1.00  0.00     0.293 HD
ENDBRANCH   8  28
TORSDOF 7
ENDMDL
