MODEL 1
REMARK VINA RESULT:    -7.799      0.000      0.000
REMARK INTER + INTRA:          -8.303
REMARK INTER:                  -8.483
REMARK INTRA:                   0.180
REMARK UNBOUND:                 0.180
REMARK SMILES C[C@@H]1[C@H](C)CC[C@]2(C(=O)[O-])CC[C@]3(C)C(=CC[C@H]4[C@@]5(C)CC[C@@H](O)C(C)(C)[C@H]5CC[C@]43C)[C@@H]12
REMARK SMILES IDX 7 1 6 2 11 3 33 4 5 5 12 6 15 7 2 8 3 9 13 10 16 11 1 12
REMARK SMILES IDX 4 13 14 14 31 15 17 16 18 17 30 18 32 19 19 20 29 21 28 22
REMARK SMILES IDX 21 23 20 24 25 25 22 26 23 27 26 28 27 29 8 30 9 31 10 32
REMARK SMILES IDX 24 33
REMARK H PARENT 24 34
REMARK Flexibility Score: inf
ROOT
ATOM      1  C   UNL     1      -3.747 -32.702 -49.045  1.00  0.00     0.017 C 
ATOM      2  C   UNL     1      -2.826 -31.677 -48.288  1.00  0.00     0.014 C 
ATOM      3  C   UNL     1      -3.141 -34.137 -48.870  1.00  0.00     0.014 C 
ATOM      4  C   UNL     1      -3.794 -32.402 -50.576  1.00  0.00     0.030 C 
ATOM      5  C   UNL     1      -2.286 -30.535 -49.165  1.00  0.00     0.004 C 
ATOM      6  C   UNL     1      -3.811 -35.253 -49.727  1.00  0.00     0.013 C 
ATOM      7  C   UNL     1      -4.624 -33.502 -51.262  1.00  0.00    -0.063 C 
ATOM      8  C   UNL     1      -4.112 -30.912 -50.958  1.00  0.00    -0.003 C 
ATOM      9  C   UNL     1      -3.417 -29.888 -49.984  1.00  0.00    -0.011 C 
ATOM     10  C   UNL     1      -4.019 -34.910 -51.248  1.00  0.00    -0.006 C 
ATOM     11  C   UNL     1      -5.944 -33.316 -51.442  1.00  0.00    -0.027 C 
ATOM     12  C   UNL     1      -3.768 -30.695 -52.449  1.00  0.00     0.008 C 
ATOM     13  C   UNL     1      -2.912 -28.595 -50.648  1.00  0.00     0.008 C 
ATOM     14  C   UNL     1      -2.616 -34.845 -51.950  1.00  0.00     0.017 C 
ATOM     15  C   UNL     1      -4.952 -36.010 -51.987  1.00  0.00    -0.020 C 
ATOM     16  C   UNL     1      -6.918 -34.375 -51.822  1.00  0.00     0.032 C 
ATOM     17  C   UNL     1      -6.471 -35.842 -51.589  1.00  0.00     0.006 C 
ATOM     18  C   UNL     1      -4.892 -35.838 -53.530  1.00  0.00     0.008 C 
ATOM     19  C   UNL     1      -4.422 -37.431 -51.607  1.00  0.00     0.012 C 
ATOM     20  C   UNL     1      -7.497 -36.883 -52.264  1.00  0.00    -0.025 C 
ATOM     21  C   UNL     1      -5.751 -36.827 -54.329  1.00  0.00     0.005 C 
ATOM     22  C   UNL     1      -7.189 -37.182 -53.805  1.00  0.00     0.003 C 
ATOM     23  C   UNL     1      -8.979 -36.381 -52.073  1.00  0.00     0.010 C 
ATOM     24  C   UNL     1      -7.463 -38.229 -51.455  1.00  0.00     0.012 C 
ATOM     25  C   UNL     1      -8.345 -36.844 -54.842  1.00  0.00    -0.006 C 
ATOM     26  C   UNL     1     -10.043 -37.178 -52.828  1.00  0.00     0.033 C 
ATOM     27  C   UNL     1      -9.702 -37.436 -54.318  1.00  0.00     0.120 C 
ATOM     28  C   UNL     1      -8.454 -35.323 -55.148  1.00  0.00     0.014 C 
ATOM     29  C   UNL     1      -8.062 -37.556 -56.203  1.00  0.00     0.014 C 
ENDROOT
BRANCH   1  30
ATOM     30  C   UNL     1      -5.149 -32.627 -48.438  1.00  0.00     0.048 C 
ATOM     31  O   UNL     1      -5.821 -31.565 -48.477  1.00  0.00    -0.550 OA
ATOM     32  O   UNL     1      -5.723 -33.753 -47.862  1.00  0.00    -0.550 OA
ENDBRANCH   1  30
BRANCH  27  33
ATOM     33  O   UNL     1     -10.782 -37.073 -55.148  1.00  0.00    -0.393 OA
ATOM     34  H   UNL     1     -11.500 -37.745 -55.028  1.00  0.00     0.210 HD
ENDBRANCH  27  33
TORSDOF 2
ENDMDL
MODEL 2
REMARK VINA RESULT:    -7.644      2.715      7.940
REMARK INTER + INTRA:          -8.135
REMARK INTER:                  -8.310
REMARK INTRA:                   0.175
REMARK UNBOUND:                 0.180
REMARK SMILES C[C@@H]1[C@H](C)CC[C@]2(C(=O)[O-])CC[C@]3(C)C(=CC[C@H]4[C@@]5(C)CC[C@@H](O)C(C)(C)[C@H]5CC[C@]43C)[C@@H]12
REMARK SMILES IDX 7 1 6 2 11 3 33 4 5 5 12 6 15 7 2 8 3 9 13 10 16 11 1 12
REMARK SMILES IDX 4 13 14 14 31 15 17 16 18 17 30 18 32 19 19 20 29 21 28 22
REMARK SMILES IDX 21 23 20 24 25 25 22 26 23 27 26 28 27 29 8 30 9 31 10 32
REMARK SMILES IDX 24 33
REMARK H PARENT 24 34
REMARK Flexibility Score: inf
ROOT
ATOM      1  C   UNL     1      -8.004 -34.214 -49.384  1.00  0.00     0.017 C 
ATOM      2  C   UNL     1      -8.898 -35.482 -49.126  1.00  0.00     0.014 C 
ATOM      3  C   UNL     1      -8.627 -33.001 -48.610  1.00  0.00     0.014 C 
ATOM      4  C   UNL     1      -7.978 -33.835 -50.898  1.00  0.00     0.030 C 
ATOM      5  C   UNL     1      -9.436 -36.154 -50.400  1.00  0.00     0.004 C 
ATOM      6  C   UNL     1      -7.988 -31.615 -48.918  1.00  0.00     0.013 C 
ATOM      7  C   UNL     1      -7.175 -32.532 -51.059  1.00  0.00    -0.063 C 
ATOM      8  C   UNL     1      -7.645 -35.015 -51.879  1.00  0.00    -0.003 C 
ATOM      9  C   UNL     1      -8.309 -36.369 -51.426  1.00  0.00    -0.011 C 
ATOM     10  C   UNL     1      -7.799 -31.275 -50.442  1.00  0.00    -0.006 C 
ATOM     11  C   UNL     1      -5.855 -32.597 -51.312  1.00  0.00    -0.027 C 
ATOM     12  C   UNL     1      -8.010 -34.586 -53.318  1.00  0.00     0.008 C 
ATOM     13  C   UNL     1      -8.807 -37.269 -52.572  1.00  0.00     0.008 C 
ATOM     14  C   UNL     1      -9.213 -31.063 -51.093  1.00  0.00     0.017 C 
ATOM     15  C   UNL     1      -6.894 -29.947 -50.653  1.00  0.00    -0.020 C 
ATOM     16  C   UNL     1      -4.902 -31.458 -51.215  1.00  0.00     0.032 C 
ATOM     17  C   UNL     1      -5.367 -30.238 -50.376  1.00  0.00     0.006 C 
ATOM     18  C   UNL     1      -6.977 -29.449 -52.122  1.00  0.00     0.008 C 
ATOM     19  C   UNL     1      -7.438 -28.833 -49.700  1.00  0.00     0.012 C 
ATOM     20  C   UNL     1      -4.366 -28.989 -50.554  1.00  0.00    -0.025 C 
ATOM     21  C   UNL     1      -6.146 -28.198 -52.432  1.00  0.00     0.005 C 
ATOM     22  C   UNL     1      -4.704 -28.071 -51.820  1.00  0.00     0.003 C 
ATOM     23  C   UNL     1      -2.875 -29.496 -50.608  1.00  0.00     0.010 C 
ATOM     24  C   UNL     1      -4.406 -28.115 -49.250  1.00  0.00     0.012 C 
ATOM     25  C   UNL     1      -3.560 -27.913 -52.912  1.00  0.00    -0.006 C 
ATOM     26  C   UNL     1      -1.835 -28.432 -50.962  1.00  0.00     0.033 C 
ATOM     27  C   UNL     1      -2.203 -27.572 -52.198  1.00  0.00     0.120 C 
ATOM     28  C   UNL     1      -3.435 -29.158 -53.836  1.00  0.00     0.014 C 
ATOM     29  C   UNL     1      -3.875 -26.697 -53.840  1.00  0.00     0.014 C 
ENDROOT
BRANCH   1  30
ATOM     30  C   UNL     1      -6.592 -34.512 -48.879  1.00  0.00     0.048 C 
ATOM     31  O   UNL     1      -5.917 -35.464 -49.348  1.00  0.00    -0.550 OA
ATOM     32  O   UNL     1      -6.010 -33.704 -47.909  1.00  0.00    -0.550 OA
ENDBRANCH   1  30
BRANCH  27  33
ATOM     33  O   UNL     1      -1.132 -27.527 -53.113  1.00  0.00    -0.393 OA
ATOM     34  H   UNL     1      -0.400 -28.092 -52.756  1.00  0.00     0.210 HD
ENDBRANCH  27  33
TORSDOF 2
ENDMDL
MODEL 3
REMARK VINA RESULT:    -7.609      3.302      7.456
REMARK INTER + INTRA:          -8.096
REMARK INTER:                  -8.278
REMARK INTRA:                   0.182
REMARK UNBOUND:                 0.180
REMARK SMILES C[C@@H]1[C@H](C)CC[C@]2(C(=O)[O-])CC[C@]3(C)C(=CC[C@H]4[C@@]5(C)CC[C@@H](O)C(C)(C)[C@H]5CC[C@]43C)[C@@H]12
REMARK SMILES IDX 7 1 6 2 11 3 33 4 5 5 12 6 15 7 2 8 3 9 13 10 16 11 1 12
REMARK SMILES IDX 4 13 14 14 31 15 17 16 18 17 30 18 32 19 19 20 29 21 28 22
REMARK SMILES IDX 21 23 20 24 25 25 22 26 23 27 26 28 27 29 8 30 9 31 10 32
REMARK SMILES IDX 24 33
REMARK H PARENT 24 34
REMARK Flexibility Score: inf
ROOT
ATOM      1  C   UNL     1      -4.362 -35.651 -49.329  1.00  0.00     0.017 C 
ATOM      2  C   UNL     1      -4.494 -37.190 -49.036  1.00  0.00     0.014 C 
ATOM      3  C   UNL     1      -5.564 -34.910 -48.649  1.00  0.00     0.014 C 
ATOM      4  C   UNL     1      -4.440 -35.354 -50.860  1.00  0.00     0.030 C 
ATOM      5  C   UNL     1      -4.532 -38.078 -50.290  1.00  0.00     0.004 C 
ATOM      6  C   UNL     1      -5.707 -33.401 -49.009  1.00  0.00     0.013 C 
ATOM      7  C   UNL     1      -4.409 -33.829 -51.062  1.00  0.00    -0.063 C 
ATOM      8  C   UNL     1      -3.490 -36.223 -51.760  1.00  0.00    -0.003 C 
ATOM      9  C   UNL     1      -3.394 -37.712 -51.259  1.00  0.00    -0.011 C 
ATOM     10  C   UNL     1      -5.626 -33.056 -50.541  1.00  0.00    -0.006 C 
ATOM     11  C   UNL     1      -3.230 -33.214 -51.260  1.00  0.00    -0.027 C 
ATOM     12  C   UNL     1      -3.934 -36.082 -53.234  1.00  0.00     0.008 C 
ATOM     13  C   UNL     1      -3.289 -38.771 -52.371  1.00  0.00     0.008 C 
ATOM     14  C   UNL     1      -6.905 -33.619 -51.257  1.00  0.00     0.017 C 
ATOM     15  C   UNL     1      -5.517 -31.458 -50.790  1.00  0.00    -0.020 C 
ATOM     16  C   UNL     1      -3.003 -31.744 -51.190  1.00  0.00     0.032 C 
ATOM     17  C   UNL     1      -4.077 -30.914 -50.440  1.00  0.00     0.006 C 
ATOM     18  C   UNL     1      -5.753 -31.115 -52.287  1.00  0.00     0.008 C 
ATOM     19  C   UNL     1      -6.613 -30.756 -49.923  1.00  0.00     0.012 C 
ATOM     20  C   UNL     1      -3.848 -29.334 -50.648  1.00  0.00    -0.025 C 
ATOM     21  C   UNL     1      -5.662 -29.623 -52.635  1.00  0.00     0.005 C 
ATOM     22  C   UNL     1      -4.530 -28.756 -51.975  1.00  0.00     0.003 C 
ATOM     23  C   UNL     1      -2.308 -29.002 -50.616  1.00  0.00     0.010 C 
ATOM     24  C   UNL     1      -4.411 -28.568 -49.397  1.00  0.00     0.012 C 
ATOM     25  C   UNL     1      -3.563 -28.063 -53.029  1.00  0.00    -0.006 C 
ATOM     26  C   UNL     1      -1.939 -27.566 -50.989  1.00  0.00     0.033 C 
ATOM     27  C   UNL     1      -2.620 -27.053 -52.284  1.00  0.00     0.120 C 
ATOM     28  C   UNL     1      -2.762 -29.091 -53.877  1.00  0.00     0.014 C 
ATOM     29  C   UNL     1      -4.399 -27.208 -54.035  1.00  0.00     0.014 C 
ENDROOT
BRANCH   1  30
ATOM     30  C   UNL     1      -3.030 -35.165 -48.754  1.00  0.00     0.048 C 
ATOM     31  O   UNL     1      -2.990 -34.341 -47.805  1.00  0.00    -0.550 OA
ATOM     32  O   UNL     1      -1.831 -35.660 -49.252  1.00  0.00    -0.550 OA
ENDBRANCH   1  30
BRANCH  27  33
ATOM     33  O   UNL     1      -1.669 -26.489 -53.158  1.00  0.00    -0.393 OA
ATOM     34  H   UNL     1      -1.579 -25.528 -52.935  1.00  0.00     0.210 HD
ENDBRANCH  27  33
TORSDOF 2
ENDMDL
MODEL 4
REMARK VINA RESULT:    -7.545      2.546      3.090
REMARK INTER + INTRA:          -8.027
REMARK INTER:                  -8.236
REMARK INTRA:                   0.209
REMARK UNBOUND:                 0.180
REMARK SMILES C[C@@H]1[C@H](C)CC[C@]2(C(=O)[O-])CC[C@]3(C)C(=CC[C@H]4[C@@]5(C)CC[C@@H](O)C(C)(C)[C@H]5CC[C@]43C)[C@@H]12
REMARK SMILES IDX 7 1 6 2 11 3 33 4 5 5 12 6 15 7 2 8 3 9 13 10 16 11 1 12
REMARK SMILES IDX 4 13 14 14 31 15 17 16 18 17 30 18 32 19 19 20 29 21 28 22
REMARK SMILES IDX 21 23 20 24 25 25 22 26 23 27 26 28 27 29 8 30 9 31 10 32
REMARK SMILES IDX 24 33
REMARK H PARENT 24 34
REMARK Flexibility Score: inf
ROOT
ATOM      1  C   UNL     1      -7.277 -30.988 -48.466  1.00  0.00     0.017 C 
ATOM      2  C   UNL     1      -7.124 -29.674 -47.615  1.00  0.00     0.014 C 
ATOM      3  C   UNL     1      -6.076 -31.939 -48.133  1.00  0.00     0.014 C 
ATOM      4  C   UNL     1      -7.220 -30.685 -49.996  1.00  0.00     0.030 C 
ATOM      5  C   UNL     1      -7.089 -28.379 -48.442  1.00  0.00     0.004 C 
ATOM      6  C   UNL     1      -5.954 -33.201 -49.037  1.00  0.00     0.013 C 
ATOM      7  C   UNL     1      -7.270 -32.022 -50.758  1.00  0.00    -0.063 C 
ATOM      8  C   UNL     1      -8.170 -29.536 -50.488  1.00  0.00    -0.003 C 
ATOM      9  C   UNL     1      -8.243 -28.345 -49.461  1.00  0.00    -0.011 C 
ATOM     10  C   UNL     1      -6.057 -32.942 -50.585  1.00  0.00    -0.006 C 
ATOM     11  C   UNL     1      -8.459 -32.509 -51.156  1.00  0.00    -0.027 C 
ATOM     12  C   UNL     1      -7.744 -29.113 -51.912  1.00  0.00     0.008 C 
ATOM     13  C   UNL     1      -8.349 -26.944 -50.089  1.00  0.00     0.008 C 
ATOM     14  C   UNL     1      -4.779 -32.158 -51.055  1.00  0.00     0.017 C 
ATOM     15  C   UNL     1      -6.186 -34.327 -51.417  1.00  0.00    -0.020 C 
ATOM     16  C   UNL     1      -8.702 -33.895 -51.642  1.00  0.00     0.032 C 
ATOM     17  C   UNL     1      -7.629 -34.954 -51.276  1.00  0.00     0.006 C 
ATOM     18  C   UNL     1      -5.971 -34.082 -52.936  1.00  0.00     0.008 C 
ATOM     19  C   UNL     1      -5.089 -35.311 -50.895  1.00  0.00     0.012 C 
ATOM     20  C   UNL     1      -7.878 -36.337 -52.062  1.00  0.00    -0.025 C 
ATOM     21  C   UNL     1      -6.083 -35.331 -53.819  1.00  0.00     0.005 C 
ATOM     22  C   UNL     1      -7.218 -36.376 -53.519  1.00  0.00     0.003 C 
ATOM     23  C   UNL     1      -9.422 -36.647 -52.134  1.00  0.00     0.010 C 
ATOM     24  C   UNL     1      -7.310 -37.521 -51.201  1.00  0.00     0.012 C 
ATOM     25  C   UNL     1      -8.205 -36.614 -54.742  1.00  0.00    -0.006 C 
ATOM     26  C   UNL     1      -9.811 -37.834 -53.016  1.00  0.00     0.033 C 
ATOM     27  C   UNL     1      -9.151 -37.824 -54.419  1.00  0.00     0.120 C 
ATOM     28  C   UNL     1      -9.003 -35.336 -55.128  1.00  0.00     0.014 C 
ATOM     29  C   UNL     1      -7.390 -37.031 -56.008  1.00  0.00     0.014 C 
ENDROOT
BRANCH   1  30
ATOM     30  C   UNL     1      -8.608 -31.646 -48.097  1.00  0.00     0.048 C 
ATOM     31  O   UNL     1      -8.645 -32.727 -47.455  1.00  0.00    -0.550 OA
ATOM     32  O   UNL     1      -9.809 -31.035 -48.435  1.00  0.00    -0.550 OA
ENDBRANCH   1  30
BRANCH  27  33
ATOM     33  O   UNL     1     -10.118 -38.010 -55.427  1.00  0.00    -0.393 OA
ATOM     34  H   UNL     1      -9.885 -38.833 -55.927  1.00  0.00     0.210 HD
ENDBRANCH  27  33
TORSDOF 2
ENDMDL
MODEL 5
REMARK VINA RESULT:    -7.518      3.011      4.588
REMARK INTER + INTRA:          -7.997
REMARK INTER:                  -8.155
REMARK INTRA:                   0.157
REMARK UNBOUND:                 0.180
REMARK SMILES C[C@@H]1[C@H](C)CC[C@]2(C(=O)[O-])CC[C@]3(C)C(=CC[C@H]4[C@@]5(C)CC[C@@H](O)C(C)(C)[C@H]5CC[C@]43C)[C@@H]12
REMARK SMILES IDX 7 1 6 2 11 3 33 4 5 5 12 6 15 7 2 8 3 9 13 10 16 11 1 12
REMARK SMILES IDX 4 13 14 14 31 15 17 16 18 17 30 18 32 19 19 20 29 21 28 22
REMARK SMILES IDX 21 23 20 24 25 25 22 26 23 27 26 28 27 29 8 30 9 31 10 32
REMARK SMILES IDX 24 33
REMARK H PARENT 24 34
REMARK Flexibility Score: inf
ROOT
ATOM      1  C   UNL     1      -6.707 -32.056 -49.879  1.00  0.00     0.017 C 
ATOM      2  C   UNL     1      -7.273 -30.589 -49.904  1.00  0.00     0.014 C 
ATOM      3  C   UNL     1      -5.913 -32.261 -48.543  1.00  0.00     0.014 C 
ATOM      4  C   UNL     1      -5.709 -32.301 -51.055  1.00  0.00     0.030 C 
ATOM      5  C   UNL     1      -6.847 -29.761 -51.127  1.00  0.00     0.004 C 
ATOM      6  C   UNL     1      -5.110 -33.591 -48.442  1.00  0.00     0.013 C 
ATOM      7  C   UNL     1      -5.120 -33.715 -50.906  1.00  0.00    -0.063 C 
ATOM      8  C   UNL     1      -6.230 -31.880 -52.475  1.00  0.00    -0.003 C 
ATOM      9  C   UNL     1      -7.069 -30.549 -52.430  1.00  0.00    -0.011 C 
ATOM     10  C   UNL     1      -4.217 -33.944 -49.688  1.00  0.00    -0.006 C 
ATOM     11  C   UNL     1      -5.715 -34.746 -51.531  1.00  0.00    -0.027 C 
ATOM     12  C   UNL     1      -5.034 -31.838 -53.452  1.00  0.00     0.008 C 
ATOM     13  C   UNL     1      -6.888 -29.620 -53.644  1.00  0.00     0.008 C 
ATOM     14  C   UNL     1      -3.026 -32.923 -49.765  1.00  0.00     0.017 C 
ATOM     15  C   UNL     1      -3.638 -35.456 -49.602  1.00  0.00    -0.020 C 
ATOM     16  C   UNL     1      -5.445 -36.186 -51.265  1.00  0.00     0.032 C 
ATOM     17  C   UNL     1      -4.759 -36.523 -49.915  1.00  0.00     0.006 C 
ATOM     18  C   UNL     1      -2.522 -35.681 -50.659  1.00  0.00     0.008 C 
ATOM     19  C   UNL     1      -3.042 -35.666 -48.172  1.00  0.00     0.012 C 
ATOM     20  C   UNL     1      -4.300 -38.065 -49.860  1.00  0.00    -0.025 C 
ATOM     21  C   UNL     1      -1.911 -37.088 -50.669  1.00  0.00     0.005 C 
ATOM     22  C   UNL     1      -2.857 -38.330 -50.499  1.00  0.00     0.003 C 
ATOM     23  C   UNL     1      -5.393 -38.978 -50.536  1.00  0.00     0.010 C 
ATOM     24  C   UNL     1      -4.303 -38.544 -48.363  1.00  0.00     0.012 C 
ATOM     25  C   UNL     1      -2.794 -39.351 -51.715  1.00  0.00    -0.006 C 
ATOM     26  C   UNL     1      -4.998 -40.444 -50.719  1.00  0.00     0.033 C 
ATOM     27  C   UNL     1      -3.596 -40.650 -51.347  1.00  0.00     0.120 C 
ATOM     28  C   UNL     1      -3.282 -38.724 -53.053  1.00  0.00     0.014 C 
ATOM     29  C   UNL     1      -1.318 -39.809 -51.948  1.00  0.00     0.014 C 
ENDROOT
BRANCH   1  30
ATOM     30  C   UNL     1      -7.886 -33.027 -49.964  1.00  0.00     0.048 C 
ATOM     31  O   UNL     1      -8.114 -33.858 -49.048  1.00  0.00    -0.550 OA
ATOM     32  O   UNL     1      -8.756 -32.980 -51.046  1.00  0.00    -0.550 OA
ENDBRANCH   1  30
BRANCH  27  33
ATOM     33  O   UNL     1      -3.661 -41.545 -52.434  1.00  0.00    -0.393 OA
ATOM     34  H   UNL     1      -2.747 -41.649 -52.801  1.00  0.00     0.210 HD
ENDBRANCH  27  33
TORSDOF 2
ENDMDL
MODEL 6
REMARK VINA RESULT:    -7.469      2.834      5.174
REMARK INTER + INTRA:          -7.944
REMARK INTER:                  -8.105
REMARK INTRA:                   0.161
REMARK UNBOUND:                 0.180
REMARK SMILES C[C@@H]1[C@H](C)CC[C@]2(C(=O)[O-])CC[C@]3(C)C(=CC[C@H]4[C@@]5(C)CC[C@@H](O)C(C)(C)[C@H]5CC[C@]43C)[C@@H]12
REMARK SMILES IDX 7 1 6 2 11 3 33 4 5 5 12 6 15 7 2 8 3 9 13 10 16 11 1 12
REMARK SMILES IDX 4 13 14 14 31 15 17 16 18 17 30 18 32 19 19 20 29 21 28 22
REMARK SMILES IDX 21 23 20 24 25 25 22 26 23 27 26 28 27 29 8 30 9 31 10 32
REMARK SMILES IDX 24 33
REMARK H PARENT 24 34
REMARK Flexibility Score: inf
ROOT
ATOM      1  C   UNL     1      -5.813 -30.570 -51.186  1.00  0.00     0.017 C 
ATOM      2  C   UNL     1      -6.343 -29.095 -51.050  1.00  0.00     0.014 C 
ATOM      3  C   UNL     1      -6.140 -31.085 -52.630  1.00  0.00     0.014 C 
ATOM      4  C   UNL     1      -6.528 -31.526 -50.179  1.00  0.00     0.030 C 
ATOM      5  C   UNL     1      -7.329 -28.875 -49.892  1.00  0.00     0.004 C 
ATOM      6  C   UNL     1      -5.870 -32.599 -52.875  1.00  0.00     0.013 C 
ATOM      7  C   UNL     1      -6.038 -32.961 -50.440  1.00  0.00    -0.063 C 
ATOM      8  C   UNL     1      -6.557 -31.030 -48.689  1.00  0.00    -0.003 C 
ATOM      9  C   UNL     1      -6.785 -29.476 -48.584  1.00  0.00    -0.011 C 
ATOM     10  C   UNL     1      -6.443 -33.577 -51.784  1.00  0.00    -0.006 C 
ATOM     11  C   UNL     1      -4.985 -33.433 -49.750  1.00  0.00    -0.027 C 
ATOM     12  C   UNL     1      -7.587 -31.872 -47.904  1.00  0.00     0.008 C 
ATOM     13  C   UNL     1      -7.651 -29.021 -47.396  1.00  0.00     0.008 C 
ATOM     14  C   UNL     1      -8.011 -33.572 -51.870  1.00  0.00     0.017 C 
ATOM     15  C   UNL     1      -5.888 -35.087 -51.983  1.00  0.00    -0.020 C 
ATOM     16  C   UNL     1      -4.225 -34.671 -50.078  1.00  0.00     0.032 C 
ATOM     17  C   UNL     1      -4.383 -35.217 -51.522  1.00  0.00     0.006 C 
ATOM     18  C   UNL     1      -6.692 -36.091 -51.111  1.00  0.00     0.008 C 
ATOM     19  C   UNL     1      -6.052 -35.470 -53.490  1.00  0.00     0.012 C 
ATOM     20  C   UNL     1      -3.721 -36.676 -51.673  1.00  0.00    -0.025 C 
ATOM     21  C   UNL     1      -6.239 -37.553 -51.217  1.00  0.00     0.005 C 
ATOM     22  C   UNL     1      -4.702 -37.872 -51.264  1.00  0.00     0.003 C 
ATOM     23  C   UNL     1      -2.375 -36.746 -50.855  1.00  0.00     0.010 C 
ATOM     24  C   UNL     1      -3.252 -36.871 -53.159  1.00  0.00     0.012 C 
ATOM     25  C   UNL     1      -4.213 -38.824 -50.089  1.00  0.00    -0.006 C 
ATOM     26  C   UNL     1      -1.739 -38.133 -50.758  1.00  0.00     0.033 C 
ATOM     27  C   UNL     1      -2.727 -39.257 -50.353  1.00  0.00     0.120 C 
ATOM     28  C   UNL     1      -4.391 -38.184 -48.682  1.00  0.00     0.014 C 
ATOM     29  C   UNL     1      -5.051 -40.143 -50.090  1.00  0.00     0.014 C 
ENDROOT
BRANCH   1  30
ATOM     30  C   UNL     1      -4.304 -30.562 -50.941  1.00  0.00     0.048 C 
ATOM     31  O   UNL     1      -3.497 -30.960 -51.820  1.00  0.00    -0.550 OA
ATOM     32  O   UNL     1      -3.791 -30.075 -49.745  1.00  0.00    -0.550 OA
ENDBRANCH   1  30
BRANCH  27  33
ATOM     33  O   UNL     1      -2.209 -40.017 -49.285  1.00  0.00    -0.393 OA
ATOM     34  H   UNL     1      -1.407 -39.550 -48.937  1.00  0.00     0.210 HD
ENDBRANCH  27  33
TORSDOF 2
ENDMDL
MODEL 7
REMARK VINA RESULT:    -7.281      3.322      7.531
REMARK INTER + INTRA:          -7.740
REMARK INTER:                  -7.905
REMARK INTRA:                   0.166
REMARK UNBOUND:                 0.180
REMARK SMILES C[C@@H]1[C@H](C)CC[C@]2(C(=O)[O-])CC[C@]3(C)C(=CC[C@H]4[C@@]5(C)CC[C@@H](O)C(C)(C)[C@H]5CC[C@]43C)[C@@H]12
REMARK SMILES IDX 7 1 6 2 11 3 33 4 5 5 12 6 15 7 2 8 3 9 13 10 16 11 1 12
REMARK SMILES IDX 4 13 14 14 31 15 17 16 18 17 30 18 32 19 19 20 29 21 28 22
REMARK SMILES IDX 21 23 20 24 25 25 22 26 23 27 26 28 27 29 8 30 9 31 10 32
REMARK SMILES IDX 24 33
REMARK H PARENT 24 34
REMARK Flexibility Score: inf
ROOT
ATOM      1  C   UNL     1      -5.825 -35.320 -52.111  1.00  0.00     0.017 C 
ATOM      2  C   UNL     1      -5.293 -36.737 -52.537  1.00  0.00     0.014 C 
ATOM      3  C   UNL     1      -5.472 -34.295 -53.244  1.00  0.00     0.014 C 
ATOM      4  C   UNL     1      -5.133 -34.822 -50.803  1.00  0.00     0.030 C 
ATOM      5  C   UNL     1      -4.329 -37.385 -51.531  1.00  0.00     0.004 C 
ATOM      6  C   UNL     1      -5.743 -32.800 -52.899  1.00  0.00     0.013 C 
ATOM      7  C   UNL     1      -5.623 -33.393 -50.508  1.00  0.00    -0.063 C 
ATOM      8  C   UNL     1      -5.132 -35.847 -49.613  1.00  0.00    -0.003 C 
ATOM      9  C   UNL     1      -4.900 -37.325 -50.103  1.00  0.00    -0.011 C 
ATOM     10  C   UNL     1      -5.195 -32.313 -51.508  1.00  0.00    -0.006 C 
ATOM     11  C   UNL     1      -6.692 -33.214 -49.710  1.00  0.00    -0.027 C 
ATOM     12  C   UNL     1      -4.120 -35.371 -48.547  1.00  0.00     0.008 C 
ATOM     13  C   UNL     1      -4.055 -38.201 -49.161  1.00  0.00     0.008 C 
ATOM     14  C   UNL     1      -3.625 -32.292 -51.559  1.00  0.00     0.017 C 
ATOM     15  C   UNL     1      -5.751 -30.839 -51.128  1.00  0.00    -0.020 C 
ATOM     16  C   UNL     1      -7.449 -31.942 -49.557  1.00  0.00     0.032 C 
ATOM     17  C   UNL     1      -7.265 -30.889 -50.681  1.00  0.00     0.006 C 
ATOM     18  C   UNL     1      -4.968 -30.246 -49.924  1.00  0.00     0.008 C 
ATOM     19  C   UNL     1      -5.559 -29.912 -52.372  1.00  0.00     0.012 C 
ATOM     20  C   UNL     1      -7.929 -29.479 -50.279  1.00  0.00    -0.025 C 
ATOM     21  C   UNL     1      -5.423 -28.851 -49.475  1.00  0.00     0.005 C 
ATOM     22  C   UNL     1      -6.961 -28.532 -49.426  1.00  0.00     0.003 C 
ATOM     23  C   UNL     1      -9.291 -29.720 -49.522  1.00  0.00     0.010 C 
ATOM     24  C   UNL     1      -8.370 -28.731 -51.588  1.00  0.00     0.012 C 
ATOM     25  C   UNL     1      -7.476 -28.097 -47.987  1.00  0.00    -0.006 C 
ATOM     26  C   UNL     1      -9.934 -28.471 -48.917  1.00  0.00     0.033 C 
ATOM     27  C   UNL     1      -8.958 -27.590 -48.096  1.00  0.00     0.120 C 
ATOM     28  C   UNL     1      -7.323 -29.225 -46.927  1.00  0.00     0.014 C 
ATOM     29  C   UNL     1      -6.642 -26.881 -47.470  1.00  0.00     0.014 C 
ENDROOT
BRANCH   1  30
ATOM     30  C   UNL     1      -7.339 -35.414 -51.917  1.00  0.00     0.048 C 
ATOM     31  O   UNL     1      -7.844 -36.238 -51.112  1.00  0.00    -0.550 OA
ATOM     32  O   UNL     1      -8.188 -34.556 -52.605  1.00  0.00    -0.550 OA
ENDBRANCH   1  30
BRANCH  27  33
ATOM     33  O   UNL     1      -9.499 -27.292 -46.829  1.00  0.00    -0.393 OA
ATOM     34  H   UNL     1      -8.753 -27.035 -46.230  1.00  0.00     0.210 HD
ENDBRANCH  27  33
TORSDOF 2
ENDMDL
MODEL 8
REMARK VINA RESULT:    -7.137      3.942      7.780
REMARK INTER + INTRA:          -7.583
REMARK INTER:                  -7.740
REMARK INTRA:                   0.157
REMARK UNBOUND:                 0.180
REMARK SMILES C[C@@H]1[C@H](C)CC[C@]2(C(=O)[O-])CC[C@]3(C)C(=CC[C@H]4[C@@]5(C)CC[C@@H](O)C(C)(C)[C@H]5CC[C@]43C)[C@@H]12
REMARK SMILES IDX 7 1 6 2 11 3 33 4 5 5 12 6 15 7 2 8 3 9 13 10 16 11 1 12
REMARK SMILES IDX 4 13 14 14 31 15 17 16 18 17 30 18 32 19 19 20 29 21 28 22
REMARK SMILES IDX 21 23 20 24 25 25 22 26 23 27 26 28 27 29 8 30 9 31 10 32
REMARK SMILES IDX 24 33
REMARK H PARENT 24 34
REMARK Flexibility Score: inf
ROOT
ATOM      1  C   UNL     1      -5.045 -34.308 -50.556  1.00  0.00     0.017 C 
ATOM      2  C   UNL     1      -4.472 -35.613 -51.222  1.00  0.00     0.014 C 
ATOM      3  C   UNL     1      -5.828 -34.713 -49.260  1.00  0.00     0.014 C 
ATOM      4  C   UNL     1      -6.055 -33.583 -51.501  1.00  0.00     0.030 C 
ATOM      5  C   UNL     1      -4.906 -35.828 -52.681  1.00  0.00     0.004 C 
ATOM      6  C   UNL     1      -6.637 -33.567 -48.584  1.00  0.00     0.013 C 
ATOM      7  C   UNL     1      -6.650 -32.381 -50.747  1.00  0.00    -0.063 C 
ATOM      8  C   UNL     1      -5.545 -33.338 -52.966  1.00  0.00    -0.003 C 
ATOM      9  C   UNL     1      -4.699 -34.549 -53.511  1.00  0.00    -0.011 C 
ATOM     10  C   UNL     1      -7.543 -32.714 -49.546  1.00  0.00    -0.006 C 
ATOM     11  C   UNL     1      -6.065 -31.175 -50.863  1.00  0.00    -0.027 C 
ATOM     12  C   UNL     1      -6.750 -32.961 -53.857  1.00  0.00     0.008 C 
ATOM     13  C   UNL     1      -4.887 -34.857 -55.007  1.00  0.00     0.008 C 
ATOM     14  C   UNL     1      -8.729 -33.609 -50.053  1.00  0.00     0.017 C 
ATOM     15  C   UNL     1      -8.128 -31.396 -48.805  1.00  0.00    -0.020 C 
ATOM     16  C   UNL     1      -6.340 -29.998 -49.994  1.00  0.00     0.032 C 
ATOM     17  C   UNL     1      -7.016 -30.289 -48.629  1.00  0.00     0.006 C 
ATOM     18  C   UNL     1      -9.255 -30.742 -49.651  1.00  0.00     0.008 C 
ATOM     19  C   UNL     1      -8.713 -31.835 -47.423  1.00  0.00     0.012 C 
ATOM     20  C   UNL     1      -7.482 -28.929 -47.903  1.00  0.00    -0.025 C 
ATOM     21  C   UNL     1      -9.873 -29.476 -49.043  1.00  0.00     0.005 C 
ATOM     22  C   UNL     1      -8.931 -28.424 -48.354  1.00  0.00     0.003 C 
ATOM     23  C   UNL     1      -6.400 -27.804 -48.120  1.00  0.00     0.010 C 
ATOM     24  C   UNL     1      -7.467 -29.151 -46.348  1.00  0.00     0.012 C 
ATOM     25  C   UNL     1      -9.011 -26.976 -49.003  1.00  0.00    -0.006 C 
ATOM     26  C   UNL     1      -6.803 -26.408 -47.643  1.00  0.00     0.033 C 
ATOM     27  C   UNL     1      -8.212 -25.961 -48.110  1.00  0.00     0.120 C 
ATOM     28  C   UNL     1      -8.532 -26.952 -50.483  1.00  0.00     0.014 C 
ATOM     29  C   UNL     1     -10.491 -26.475 -49.004  1.00  0.00     0.014 C 
ENDROOT
BRANCH   1  30
ATOM     30  C   UNL     1      -3.872 -33.388 -50.216  1.00  0.00     0.048 C 
ATOM     31  O   UNL     1      -3.643 -33.033 -49.031  1.00  0.00    -0.550 OA
ATOM     32  O   UNL     1      -3.008 -32.955 -51.215  1.00  0.00    -0.550 OA
ENDBRANCH   1  30
BRANCH  27  33
ATOM     33  O   UNL     1      -8.161 -24.681 -48.698  1.00  0.00    -0.393 OA
ATOM     34  H   UNL     1      -7.988 -24.795 -49.667  1.00  0.00     0.210 HD
ENDBRANCH  27  33
TORSDOF 2
ENDMDL
MODEL 9
REMARK VINA RESULT:    -7.125      3.309      5.983
REMARK INTER + INTRA:          -7.570
REMARK INTER:                  -7.912
REMARK INTRA:                   0.343
REMARK UNBOUND:                 0.180
REMARK SMILES C[C@@H]1[C@H](C)CC[C@]2(C(=O)[O-])CC[C@]3(C)C(=CC[C@H]4[C@@]5(C)CC[C@@H](O)C(C)(C)[C@H]5CC[C@]43C)[C@@H]12
REMARK SMILES IDX 7 1 6 2 11 3 33 4 5 5 12 6 15 7 2 8 3 9 13 10 16 11 1 12
REMARK SMILES IDX 4 13 14 14 31 15 17 16 18 17 30 18 32 19 19 20 29 21 28 22
REMARK SMILES IDX 21 23 20 24 25 25 22 26 23 27 26 28 27 29 8 30 9 31 10 32
REMARK SMILES IDX 24 33
REMARK H PARENT 24 34
REMARK Flexibility Score: inf
ROOT
ATOM      1  C   UNL     1      -7.175 -28.705 -51.059  1.00  0.00     0.017 C 
ATOM      2  C   UNL     1      -7.893 -27.317 -50.891  1.00  0.00     0.014 C 
ATOM      3  C   UNL     1      -7.860 -29.480 -52.237  1.00  0.00     0.014 C 
ATOM      4  C   UNL     1      -7.324 -29.583 -49.777  1.00  0.00     0.030 C 
ATOM      5  C   UNL     1      -8.462 -27.059 -49.486  1.00  0.00     0.004 C 
ATOM      6  C   UNL     1      -7.411 -30.962 -52.412  1.00  0.00     0.013 C 
ATOM      7  C   UNL     1      -6.691 -30.958 -50.052  1.00  0.00    -0.063 C 
ATOM      8  C   UNL     1      -6.948 -28.870 -48.429  1.00  0.00    -0.003 C 
ATOM      9  C   UNL     1      -7.412 -27.366 -48.403  1.00  0.00    -0.011 C 
ATOM     10  C   UNL     1      -7.397 -31.828 -51.099  1.00  0.00    -0.006 C 
ATOM     11  C   UNL     1      -5.400 -31.165 -49.736  1.00  0.00    -0.027 C 
ATOM     12  C   UNL     1      -7.484 -29.715 -47.252  1.00  0.00     0.008 C 
ATOM     13  C   UNL     1      -7.904 -26.857 -47.036  1.00  0.00     0.008 C 
ATOM     14  C   UNL     1      -8.877 -32.056 -50.625  1.00  0.00     0.017 C 
ATOM     15  C   UNL     1      -6.669 -33.257 -51.332  1.00  0.00    -0.020 C 
ATOM     16  C   UNL     1      -4.577 -32.320 -50.189  1.00  0.00     0.032 C 
ATOM     17  C   UNL     1      -5.101 -33.101 -51.423  1.00  0.00     0.006 C 
ATOM     18  C   UNL     1      -6.937 -34.215 -50.139  1.00  0.00     0.008 C 
ATOM     19  C   UNL     1      -7.250 -33.890 -52.639  1.00  0.00     0.012 C 
ATOM     20  C   UNL     1      -4.267 -34.458 -51.654  1.00  0.00    -0.025 C 
ATOM     21  C   UNL     1      -6.282 -35.598 -50.255  1.00  0.00     0.005 C 
ATOM     22  C   UNL     1      -4.817 -35.701 -50.810  1.00  0.00     0.003 C 
ATOM     23  C   UNL     1      -2.738 -34.210 -51.362  1.00  0.00     0.010 C 
ATOM     24  C   UNL     1      -4.291 -34.816 -53.184  1.00  0.00     0.012 C 
ATOM     25  C   UNL     1      -3.798 -36.380 -49.796  1.00  0.00    -0.006 C 
ATOM     26  C   UNL     1      -1.860 -35.462 -51.362  1.00  0.00     0.033 C 
ATOM     27  C   UNL     1      -2.431 -36.636 -50.526  1.00  0.00     0.120 C 
ATOM     28  C   UNL     1      -3.615 -35.560 -48.488  1.00  0.00     0.014 C 
ATOM     29  C   UNL     1      -4.329 -37.787 -49.372  1.00  0.00     0.014 C 
ENDROOT
BRANCH   1  30
ATOM     30  C   UNL     1      -5.699 -28.448 -51.366  1.00  0.00     0.048 C 
ATOM     31  O   UNL     1      -5.258 -28.496 -52.543  1.00  0.00    -0.550 OA
ATOM     32  O   UNL     1      -4.818 -28.116 -50.344  1.00  0.00    -0.550 OA
ENDBRANCH   1  30
BRANCH  27  33
ATOM     33  O   UNL     1      -1.456 -37.140 -49.641  1.00  0.00    -0.393 OA
ATOM     34  H   UNL     1      -1.898 -37.788 -49.035  1.00  0.00     0.210 HD
ENDBRANCH  27  33
TORSDOF 2
ENDMDL
