MODEL 1
REMARK VINA RESULT:    -5.301      0.000      0.000
REMARK INTER + INTRA:         -18.169
REMARK INTER:                 -13.359
REMARK INTRA:                  -4.810
REMARK UNBOUND:                -4.810
REMARK SMILES CCCCCCCCCCCCCCCCCCCCCCCCCCCC(=O)[O-]
REMARK SMILES IDX 15 1 16 2 17 3 18 4 19 5 20 6 21 7 22 8 23 9 24 10 25 11
REMARK SMILES IDX 26 12 27 13 28 14 29 15 30 16 14 17 13 18 12 19 11 20 10 21
REMARK SMILES IDX 9 22 8 23 7 24 6 25 5 26 4 27 3 28 2 29 1 30
REMARK H PARENT
REMARK Flexibility Score: inf
ROOT
ATOM      1  C   UNL     1     -17.027  55.987  -3.543  1.00  0.00     0.000 C 
ENDROOT
BRANCH   1   2
ATOM      2  C   UNL     1     -18.329  56.754  -3.794  1.00  0.00     0.000 C 
BRANCH   2   3
ATOM      3  C   UNL     1     -19.413  56.354  -2.780  1.00  0.00     0.000 C 
BRANCH   3   4
ATOM      4  C   UNL     1     -20.837  56.622  -3.312  1.00  0.00     0.000 C 
BRANCH   4   5
ATOM      5  C   UNL     1     -21.766  55.397  -3.241  1.00  0.00     0.000 C 
BRANCH   5   6
ATOM      6  C   UNL     1     -21.393  54.427  -2.110  1.00  0.00     0.000 C 
BRANCH   6   7
ATOM      7  C   UNL     1     -22.629  54.035  -1.287  1.00  0.00     0.000 C 
BRANCH   7   8
ATOM      8  C   UNL     1     -22.332  53.920   0.216  1.00  0.00     0.000 C 
BRANCH   8   9
ATOM      9  C   UNL     1     -23.530  54.326   1.091  1.00  0.00     0.000 C 
BRANCH   9  10
ATOM     10  C   UNL     1     -24.637  55.040   0.295  1.00  0.00     0.000 C 
BRANCH  10  11
ATOM     11  C   UNL     1     -24.723  56.565   0.508  1.00  0.00     0.000 C 
BRANCH  11  12
ATOM     12  C   UNL     1     -24.995  57.391  -0.766  1.00  0.00     0.006 C 
BRANCH  12  13
ATOM     13  C   UNL     1     -23.734  57.970  -1.427  1.00  0.00     0.053 C 
BRANCH  13  14
ATOM     14  C   UNL     1     -24.002  59.292  -2.078  1.00  0.00     0.041 C 
ATOM     15  O   UNL     1     -25.095  59.501  -2.666  1.00  0.00    -0.550 OA
ATOM     16  O   UNL     1     -23.054  60.305  -2.008  1.00  0.00    -0.550 OA
ENDBRANCH  13  14
ENDBRANCH  12  13
ENDBRANCH  11  12
ENDBRANCH  10  11
ENDBRANCH   9  10
ENDBRANCH   8   9
ENDBRANCH   7   8
ENDBRANCH   6   7
ENDBRANCH   5   6
ENDBRANCH   4   5
ENDBRANCH   3   4
ENDBRANCH   2   3
ENDBRANCH   1   2
BRANCH   1  17
ATOM     17  C   UNL     1     -17.305  54.656  -2.829  1.00  0.00     0.000 C 
BRANCH  17  18
ATOM     18  C   UNL     1     -16.708  54.611  -1.412  1.00  0.00     0.000 C 
BRANCH  18  19
ATOM     19  C   UNL     1     -17.639  53.909  -0.409  1.00  0.00     0.000 C 
BRANCH  19  20
ATOM     20  C   UNL     1     -18.395  54.894   0.501  1.00  0.00     0.000 C 
BRANCH  20  21
ATOM     21  C   UNL     1     -17.866  56.340   0.484  1.00  0.00     0.000 C 
BRANCH  21  22
ATOM     22  C   UNL     1     -18.935  57.375   0.868  1.00  0.00    -0.000 C 
BRANCH  22  23
ATOM     23  C   UNL     1     -20.346  56.840   0.581  1.00  0.00    -0.000 C 
BRANCH  23  24
ATOM     24  C   UNL     1     -21.400  57.360   1.576  1.00  0.00    -0.000 C 
BRANCH  24  25
ATOM     25  C   UNL     1     -21.570  58.890   1.609  1.00  0.00    -0.000 C 
BRANCH  25  26
ATOM     26  C   UNL     1     -22.906  59.330   2.231  1.00  0.00    -0.000 C 
BRANCH  26  27
ATOM     27  C   UNL     1     -23.286  58.507   3.476  1.00  0.00    -0.000 C 
BRANCH  27  28
ATOM     28  C   UNL     1     -24.162  59.241   4.510  1.00  0.00    -0.000 C 
BRANCH  28  29
ATOM     29  C   UNL     1     -23.442  59.628   5.814  1.00  0.00    -0.003 C 
ATOM     30  C   UNL     1     -21.953  59.290   5.793  1.00  0.00     0.004 C 
ENDBRANCH  28  29
ENDBRANCH  27  28
ENDBRANCH  26  27
ENDBRANCH  25  26
ENDBRANCH  24  25
ENDBRANCH  23  24
ENDBRANCH  22  23
ENDBRANCH  21  22
ENDBRANCH  20  21
ENDBRANCH  19  20
ENDBRANCH  18  19
ENDBRANCH  17  18
ENDBRANCH   1  17
TORSDOF 26
ENDMDL
MODEL 2
REMARK VINA RESULT:    -5.295      2.831      5.335
REMARK INTER + INTRA:         -18.153
REMARK INTER:                 -12.976
REMARK INTRA:                  -5.177
REMARK UNBOUND:                -4.810
REMARK SMILES CCCCCCCCCCCCCCCCCCCCCCCCCCCC(=O)[O-]
REMARK SMILES IDX 15 1 16 2 17 3 18 4 19 5 20 6 21 7 22 8 23 9 24 10 25 11
REMARK SMILES IDX 26 12 27 13 28 14 29 15 30 16 14 17 13 18 12 19 11 20 10 21
REMARK SMILES IDX 9 22 8 23 7 24 6 25 5 26 4 27 3 28 2 29 1 30
REMARK H PARENT
REMARK Flexibility Score: inf
ROOT
ATOM      1  C   UNL     1     -18.874  53.783  -3.245  1.00  0.00     0.000 C 
ENDROOT
BRANCH   1   2
ATOM      2  C   UNL     1     -19.091  53.616  -1.737  1.00  0.00     0.000 C 
BRANCH   2   3
ATOM      3  C   UNL     1     -19.985  52.403  -1.436  1.00  0.00     0.000 C 
BRANCH   3   4
ATOM      4  C   UNL     1     -20.689  52.521  -0.067  1.00  0.00     0.000 C 
BRANCH   4   5
ATOM      5  C   UNL     1     -21.794  53.591  -0.029  1.00  0.00     0.000 C 
BRANCH   5   6
ATOM      6  C   UNL     1     -22.856  53.317   1.046  1.00  0.00     0.000 C 
BRANCH   6   7
ATOM      7  C   UNL     1     -23.643  54.592   1.384  1.00  0.00     0.000 C 
BRANCH   7   8
ATOM      8  C   UNL     1     -23.017  55.857   0.776  1.00  0.00     0.000 C 
BRANCH   8   9
ATOM      9  C   UNL     1     -22.785  56.964   1.819  1.00  0.00     0.000 C 
BRANCH   9  10
ATOM     10  C   UNL     1     -21.380  57.586   1.728  1.00  0.00     0.000 C 
BRANCH  10  11
ATOM     11  C   UNL     1     -20.446  56.956   0.673  1.00  0.00     0.000 C 
BRANCH  11  12
ATOM     12  C   UNL     1     -18.965  57.372   0.776  1.00  0.00     0.006 C 
BRANCH  12  13
ATOM     13  C   UNL     1     -17.967  56.230   0.526  1.00  0.00     0.053 C 
BRANCH  13  14
ATOM     14  C   UNL     1     -16.695  56.725  -0.090  1.00  0.00     0.041 C 
ATOM     15  O   UNL     1     -15.629  56.743   0.580  1.00  0.00    -0.550 OA
ATOM     16  O   UNL     1     -16.681  57.138  -1.417  1.00  0.00    -0.550 OA
ENDBRANCH  13  14
ENDBRANCH  12  13
ENDBRANCH  11  12
ENDBRANCH  10  11
ENDBRANCH   9  10
ENDBRANCH   8   9
ENDBRANCH   7   8
ENDBRANCH   6   7
ENDBRANCH   5   6
ENDBRANCH   4   5
ENDBRANCH   3   4
ENDBRANCH   2   3
ENDBRANCH   1   2
BRANCH   1  17
ATOM     17  C   UNL     1     -18.531  55.240  -3.590  1.00  0.00     0.000 C 
BRANCH  17  18
ATOM     18  C   UNL     1     -19.395  56.248  -2.815  1.00  0.00     0.000 C 
BRANCH  18  19
ATOM     19  C   UNL     1     -20.669  56.636  -3.586  1.00  0.00     0.000 C 
BRANCH  19  20
ATOM     20  C   UNL     1     -21.958  56.394  -2.778  1.00  0.00     0.000 C 
BRANCH  20  21
ATOM     21  C   UNL     1     -22.615  55.018  -2.989  1.00  0.00     0.000 C 
BRANCH  21  22
ATOM     22  C   UNL     1     -24.119  55.015  -2.679  1.00  0.00    -0.000 C 
BRANCH  22  23
ATOM     23  C   UNL     1     -24.595  56.413  -2.255  1.00  0.00    -0.000 C 
BRANCH  23  24
ATOM     24  C   UNL     1     -26.124  56.507  -2.101  1.00  0.00    -0.000 C 
BRANCH  24  25
ATOM     25  C   UNL     1     -26.711  55.729  -0.909  1.00  0.00    -0.000 C 
BRANCH  25  26
ATOM     26  C   UNL     1     -26.702  56.541   0.397  1.00  0.00    -0.000 C 
BRANCH  26  27
ATOM     27  C   UNL     1     -26.798  58.059   0.159  1.00  0.00    -0.000 C 
BRANCH  27  28
ATOM     28  C   UNL     1     -25.729  58.909   0.876  1.00  0.00    -0.000 C 
BRANCH  28  29
ATOM     29  C   UNL     1     -25.038  59.964  -0.006  1.00  0.00    -0.003 C 
ATOM     30  C   UNL     1     -23.704  59.483  -0.572  1.00  0.00     0.004 C 
ENDBRANCH  28  29
ENDBRANCH  27  28
ENDBRANCH  26  27
ENDBRANCH  25  26
ENDBRANCH  24  25
ENDBRANCH  23  24
ENDBRANCH  22  23
ENDBRANCH  21  22
ENDBRANCH  20  21
ENDBRANCH  19  20
ENDBRANCH  18  19
ENDBRANCH  17  18
ENDBRANCH   1  17
TORSDOF 26
ENDMDL
MODEL 3
REMARK VINA RESULT:    -5.240      1.286      5.510
REMARK INTER + INTRA:         -18.014
REMARK INTER:                 -13.018
REMARK INTRA:                  -4.997
REMARK UNBOUND:                -4.810
REMARK SMILES CCCCCCCCCCCCCCCCCCCCCCCCCCCC(=O)[O-]
REMARK SMILES IDX 15 1 16 2 17 3 18 4 19 5 20 6 21 7 22 8 23 9 24 10 25 11
REMARK SMILES IDX 26 12 27 13 28 14 29 15 30 16 14 17 13 18 12 19 11 20 10 21
REMARK SMILES IDX 9 22 8 23 7 24 6 25 5 26 4 27 3 28 2 29 1 30
REMARK H PARENT
REMARK Flexibility Score: inf
ROOT
ATOM      1  C   UNL     1     -22.111  53.940  -0.956  1.00  0.00     0.000 C 
ENDROOT
BRANCH   1   2
ATOM      2  C   UNL     1     -22.614  53.872   0.490  1.00  0.00     0.000 C 
BRANCH   2   3
ATOM      3  C   UNL     1     -23.600  55.013   0.789  1.00  0.00     0.000 C 
BRANCH   3   4
ATOM      4  C   UNL     1     -22.996  56.073   1.735  1.00  0.00     0.000 C 
BRANCH   4   5
ATOM      5  C   UNL     1     -21.965  56.993   1.058  1.00  0.00     0.000 C 
BRANCH   5   6
ATOM      6  C   UNL     1     -21.477  58.124   1.975  1.00  0.00     0.000 C 
BRANCH   6   7
ATOM      7  C   UNL     1     -22.622  58.663   2.846  1.00  0.00     0.000 C 
BRANCH   7   8
ATOM      8  C   UNL     1     -23.462  59.732   2.130  1.00  0.00     0.000 C 
BRANCH   8   9
ATOM      9  C   UNL     1     -24.968  59.587   2.408  1.00  0.00     0.000 C 
BRANCH   9  10
ATOM     10  C   UNL     1     -25.797  59.402   1.125  1.00  0.00     0.000 C 
BRANCH  10  11
ATOM     11  C   UNL     1     -25.581  58.065   0.387  1.00  0.00     0.000 C 
BRANCH  11  12
ATOM     12  C   UNL     1     -25.315  58.187  -1.127  1.00  0.00     0.006 C 
BRANCH  12  13
ATOM     13  C   UNL     1     -23.941  58.776  -1.485  1.00  0.00     0.053 C 
BRANCH  13  14
ATOM     14  C   UNL     1     -24.049  60.183  -1.983  1.00  0.00     0.041 C 
ATOM     15  O   UNL     1     -23.015  60.885  -2.135  1.00  0.00    -0.550 OA
ATOM     16  O   UNL     1     -25.292  60.711  -2.310  1.00  0.00    -0.550 OA
ENDBRANCH  13  14
ENDBRANCH  12  13
ENDBRANCH  11  12
ENDBRANCH  10  11
ENDBRANCH   9  10
ENDBRANCH   8   9
ENDBRANCH   7   8
ENDBRANCH   6   7
ENDBRANCH   5   6
ENDBRANCH   4   5
ENDBRANCH   3   4
ENDBRANCH   2   3
ENDBRANCH   1   2
BRANCH   1  17
ATOM     17  C   UNL     1     -23.218  54.438  -1.897  1.00  0.00     0.000 C 
BRANCH  17  18
ATOM     18  C   UNL     1     -22.725  55.531  -2.860  1.00  0.00     0.000 C 
BRANCH  18  19
ATOM     19  C   UNL     1     -21.460  56.236  -2.342  1.00  0.00     0.000 C 
BRANCH  19  20
ATOM     20  C   UNL     1     -20.492  56.641  -3.469  1.00  0.00     0.000 C 
BRANCH  20  21
ATOM     21  C   UNL     1     -19.210  55.793  -3.568  1.00  0.00     0.000 C 
BRANCH  21  22
ATOM     22  C   UNL     1     -17.926  56.629  -3.454  1.00  0.00    -0.000 C 
BRANCH  22  23
ATOM     23  C   UNL     1     -16.732  55.750  -3.050  1.00  0.00    -0.000 C 
BRANCH  23  24
ATOM     24  C   UNL     1     -17.139  54.543  -2.187  1.00  0.00    -0.000 C 
BRANCH  24  25
ATOM     25  C   UNL     1     -16.491  54.488  -0.792  1.00  0.00    -0.000 C 
BRANCH  25  26
ATOM     26  C   UNL     1     -17.523  54.505   0.349  1.00  0.00    -0.000 C 
BRANCH  26  27
ATOM     27  C   UNL     1     -18.639  55.543   0.129  1.00  0.00    -0.000 C 
BRANCH  27  28
ATOM     28  C   UNL     1     -18.192  57.017   0.196  1.00  0.00    -0.000 C 
BRANCH  28  29
ATOM     29  C   UNL     1     -17.096  57.318   1.234  1.00  0.00    -0.003 C 
ATOM     30  C   UNL     1     -15.861  57.973   0.620  1.00  0.00     0.004 C 
ENDBRANCH  28  29
ENDBRANCH  27  28
ENDBRANCH  26  27
ENDBRANCH  25  26
ENDBRANCH  24  25
ENDBRANCH  23  24
ENDBRANCH  22  23
ENDBRANCH  21  22
ENDBRANCH  20  21
ENDBRANCH  19  20
ENDBRANCH  18  19
ENDBRANCH  17  18
ENDBRANCH   1  17
TORSDOF 26
ENDMDL
MODEL 4
REMARK VINA RESULT:    -5.195      1.766      4.365
REMARK INTER + INTRA:         -17.902
REMARK INTER:                 -13.293
REMARK INTRA:                  -4.608
REMARK UNBOUND:                -4.810
REMARK SMILES CCCCCCCCCCCCCCCCCCCCCCCCCCCC(=O)[O-]
REMARK SMILES IDX 15 1 16 2 17 3 18 4 19 5 20 6 21 7 22 8 23 9 24 10 25 11
REMARK SMILES IDX 26 12 27 13 28 14 29 15 30 16 14 17 13 18 12 19 11 20 10 21
REMARK SMILES IDX 9 22 8 23 7 24 6 25 5 26 4 27 3 28 2 29 1 30
REMARK H PARENT
REMARK Flexibility Score: inf
ROOT
ATOM      1  C   UNL     1     -18.890  53.337  -0.790  1.00  0.00     0.000 C 
ENDROOT
BRANCH   1   2
ATOM      2  C   UNL     1     -17.858  53.866  -1.791  1.00  0.00     0.000 C 
BRANCH   2   3
ATOM      3  C   UNL     1     -18.488  54.080  -3.176  1.00  0.00     0.000 C 
BRANCH   3   4
ATOM      4  C   UNL     1     -18.109  55.448  -3.785  1.00  0.00     0.000 C 
BRANCH   4   5
ATOM      5  C   UNL     1     -18.910  56.627  -3.205  1.00  0.00     0.000 C 
BRANCH   5   6
ATOM      6  C   UNL     1     -20.188  56.184  -2.478  1.00  0.00     0.000 C 
BRANCH   6   7
ATOM      7  C   UNL     1     -21.442  56.583  -3.270  1.00  0.00     0.000 C 
BRANCH   7   8
ATOM      8  C   UNL     1     -22.735  56.437  -2.452  1.00  0.00     0.000 C 
BRANCH   8   9
ATOM      9  C   UNL     1     -23.591  55.242  -2.902  1.00  0.00     0.000 C 
BRANCH   9  10
ATOM     10  C   UNL     1     -24.954  55.180  -2.190  1.00  0.00     0.000 C 
BRANCH  10  11
ATOM     11  C   UNL     1     -25.844  56.428  -2.359  1.00  0.00     0.000 C 
BRANCH  11  12
ATOM     12  C   UNL     1     -26.065  57.255  -1.077  1.00  0.00     0.006 C 
BRANCH  12  13
ATOM     13  C   UNL     1     -26.145  58.773  -1.307  1.00  0.00     0.053 C 
BRANCH  13  14
ATOM     14  C   UNL     1     -24.817  59.438  -1.117  1.00  0.00     0.041 C 
ATOM     15  O   UNL     1     -24.431  59.769   0.035  1.00  0.00    -0.550 OA
ATOM     16  O   UNL     1     -23.991  59.664  -2.211  1.00  0.00    -0.550 OA
ENDBRANCH  13  14
ENDBRANCH  12  13
ENDBRANCH  11  12
ENDBRANCH  10  11
ENDBRANCH   9  10
ENDBRANCH   8   9
ENDBRANCH   7   8
ENDBRANCH   6   7
ENDBRANCH   5   6
ENDBRANCH   4   5
ENDBRANCH   3   4
ENDBRANCH   2   3
ENDBRANCH   1   2
BRANCH   1  17
ATOM     17  C   UNL     1     -19.901  52.412  -1.484  1.00  0.00     0.000 C 
BRANCH  17  18
ATOM     18  C   UNL     1     -21.355  52.869  -1.279  1.00  0.00     0.000 C 
BRANCH  18  19
ATOM     19  C   UNL     1     -21.525  53.717  -0.007  1.00  0.00     0.000 C 
BRANCH  19  20
ATOM     20  C   UNL     1     -22.990  53.822   0.455  1.00  0.00     0.000 C 
BRANCH  20  21
ATOM     21  C   UNL     1     -23.263  54.884   1.535  1.00  0.00     0.000 C 
BRANCH  21  22
ATOM     22  C   UNL     1     -23.296  56.315   0.978  1.00  0.00    -0.000 C 
BRANCH  22  23
ATOM     23  C   UNL     1     -22.915  57.336   2.060  1.00  0.00    -0.000 C 
BRANCH  23  24
ATOM     24  C   UNL     1     -21.553  58.006   1.805  1.00  0.00    -0.000 C 
BRANCH  24  25
ATOM     25  C   UNL     1     -20.552  57.164   0.992  1.00  0.00    -0.000 C 
BRANCH  25  26
ATOM     26  C   UNL     1     -19.102  57.658   1.132  1.00  0.00    -0.000 C 
BRANCH  26  27
ATOM     27  C   UNL     1     -18.077  56.683   0.525  1.00  0.00    -0.000 C 
BRANCH  27  28
ATOM     28  C   UNL     1     -16.771  57.328   0.019  1.00  0.00    -0.000 C 
BRANCH  28  29
ATOM     29  C   UNL     1     -16.217  58.457   0.907  1.00  0.00    -0.003 C 
ATOM     30  C   UNL     1     -14.736  58.736   0.656  1.00  0.00     0.004 C 
ENDBRANCH  28  29
ENDBRANCH  27  28
ENDBRANCH  26  27
ENDBRANCH  25  26
ENDBRANCH  24  25
ENDBRANCH  23  24
ENDBRANCH  22  23
ENDBRANCH  21  22
ENDBRANCH  20  21
ENDBRANCH  19  20
ENDBRANCH  18  19
ENDBRANCH  17  18
ENDBRANCH   1  17
TORSDOF 26
ENDMDL
MODEL 5
REMARK VINA RESULT:    -5.169      3.359      6.722
REMARK INTER + INTRA:         -17.835
REMARK INTER:                 -13.690
REMARK INTRA:                  -4.144
REMARK UNBOUND:                -4.810
REMARK SMILES CCCCCCCCCCCCCCCCCCCCCCCCCCCC(=O)[O-]
REMARK SMILES IDX 15 1 16 2 17 3 18 4 19 5 20 6 21 7 22 8 23 9 24 10 25 11
REMARK SMILES IDX 26 12 27 13 28 14 29 15 30 16 14 17 13 18 12 19 11 20 10 21
REMARK SMILES IDX 9 22 8 23 7 24 6 25 5 26 4 27 3 28 2 29 1 30
REMARK H PARENT
REMARK Flexibility Score: inf
ROOT
ATOM      1  C   UNL     1     -17.110  56.368   0.684  1.00  0.00     0.000 C 
ENDROOT
BRANCH   1   2
ATOM      2  C   UNL     1     -18.218  57.422   0.596  1.00  0.00     0.000 C 
BRANCH   2   3
ATOM      3  C   UNL     1     -19.606  56.783   0.767  1.00  0.00     0.000 C 
BRANCH   3   4
ATOM      4  C   UNL     1     -20.568  57.682   1.574  1.00  0.00     0.000 C 
BRANCH   4   5
ATOM      5  C   UNL     1     -22.030  57.203   1.551  1.00  0.00     0.000 C 
BRANCH   5   6
ATOM      6  C   UNL     1     -22.966  58.171   0.812  1.00  0.00     0.000 C 
BRANCH   6   7
ATOM      7  C   UNL     1     -24.073  58.688   1.743  1.00  0.00     0.000 C 
BRANCH   7   8
ATOM      8  C   UNL     1     -23.524  59.479   2.940  1.00  0.00     0.000 C 
BRANCH   8   9
ATOM      9  C   UNL     1     -24.381  59.312   4.206  1.00  0.00     0.000 C 
BRANCH   9  10
ATOM     10  C   UNL     1     -23.545  59.309   5.498  1.00  0.00     0.000 C 
BRANCH  10  11
ATOM     11  C   UNL     1     -22.017  59.360   5.295  1.00  0.00     0.000 C 
BRANCH  11  12
ATOM     12  C   UNL     1     -21.188  59.503   6.588  1.00  0.00     0.006 C 
BRANCH  12  13
ATOM     13  C   UNL     1     -21.359  58.344   7.583  1.00  0.00     0.053 C 
BRANCH  13  14
ATOM     14  C   UNL     1     -20.132  58.136   8.414  1.00  0.00     0.041 C 
ATOM     15  O   UNL     1     -19.289  59.062   8.547  1.00  0.00    -0.550 OA
ATOM     16  O   UNL     1     -19.933  56.926   9.069  1.00  0.00    -0.550 OA
ENDBRANCH  13  14
ENDBRANCH  12  13
ENDBRANCH  11  12
ENDBRANCH  10  11
ENDBRANCH   9  10
ENDBRANCH   8   9
ENDBRANCH   7   8
ENDBRANCH   6   7
ENDBRANCH   5   6
ENDBRANCH   4   5
ENDBRANCH   3   4
ENDBRANCH   2   3
ENDBRANCH   1   2
BRANCH   1  17
ATOM     17  C   UNL     1     -17.705  54.958   0.813  1.00  0.00     0.000 C 
BRANCH  17  18
ATOM     18  C   UNL     1     -17.028  53.945  -0.126  1.00  0.00     0.000 C 
BRANCH  18  19
ATOM     19  C   UNL     1     -16.466  54.612  -1.394  1.00  0.00     0.000 C 
BRANCH  19  20
ATOM     20  C   UNL     1     -17.478  54.648  -2.554  1.00  0.00     0.000 C 
BRANCH  20  21
ATOM     21  C   UNL     1     -17.316  55.829  -3.529  1.00  0.00     0.000 C 
BRANCH  21  22
ATOM     22  C   UNL     1     -18.594  56.668  -3.673  1.00  0.00    -0.000 C 
BRANCH  22  23
ATOM     23  C   UNL     1     -19.645  56.255  -2.630  1.00  0.00    -0.000 C 
BRANCH  23  24
ATOM     24  C   UNL     1     -21.038  56.021  -3.240  1.00  0.00    -0.000 C 
BRANCH  24  25
ATOM     25  C   UNL     1     -22.187  56.791  -2.562  1.00  0.00    -0.000 C 
BRANCH  25  26
ATOM     26  C   UNL     1     -23.180  55.866  -1.837  1.00  0.00    -0.000 C 
BRANCH  26  27
ATOM     27  C   UNL     1     -22.701  54.404  -1.777  1.00  0.00    -0.000 C 
BRANCH  27  28
ATOM     28  C   UNL     1     -22.150  53.946  -0.412  1.00  0.00    -0.000 C 
BRANCH  28  29
ATOM     29  C   UNL     1     -20.763  53.281  -0.460  1.00  0.00    -0.003 C 
ATOM     30  C   UNL     1     -20.493  52.565  -1.783  1.00  0.00     0.004 C 
ENDBRANCH  28  29
ENDBRANCH  27  28
ENDBRANCH  26  27
ENDBRANCH  25  26
ENDBRANCH  24  25
ENDBRANCH  23  24
ENDBRANCH  22  23
ENDBRANCH  21  22
ENDBRANCH  20  21
ENDBRANCH  19  20
ENDBRANCH  18  19
ENDBRANCH  17  18
ENDBRANCH   1  17
TORSDOF 26
ENDMDL
MODEL 6
REMARK VINA RESULT:    -5.165      2.671      5.873
REMARK INTER + INTRA:         -17.827
REMARK INTER:                 -13.088
REMARK INTRA:                  -4.739
REMARK UNBOUND:                -4.810
REMARK SMILES CCCCCCCCCCCCCCCCCCCCCCCCCCCC(=O)[O-]
REMARK SMILES IDX 15 1 16 2 17 3 18 4 19 5 20 6 21 7 22 8 23 9 24 10 25 11
REMARK SMILES IDX 26 12 27 13 28 14 29 15 30 16 14 17 13 18 12 19 11 20 10 21
REMARK SMILES IDX 9 22 8 23 7 24 6 25 5 26 4 27 3 28 2 29 1 30
REMARK H PARENT
REMARK Flexibility Score: inf
ROOT
ATOM      1  C   UNL     1     -18.519  57.420   0.845  1.00  0.00     0.000 C 
ENDROOT
BRANCH   1   2
ATOM      2  C   UNL     1     -17.176  56.697   0.701  1.00  0.00     0.000 C 
BRANCH   2   3
ATOM      3  C   UNL     1     -17.380  55.208   0.374  1.00  0.00     0.000 C 
BRANCH   3   4
ATOM      4  C   UNL     1     -16.509  54.746  -0.814  1.00  0.00     0.000 C 
BRANCH   4   5
ATOM      5  C   UNL     1     -17.258  54.718  -2.157  1.00  0.00     0.000 C 
BRANCH   5   6
ATOM      6  C   UNL     1     -17.057  55.997  -2.983  1.00  0.00     0.000 C 
BRANCH   6   7
ATOM      7  C   UNL     1     -18.401  56.679  -3.282  1.00  0.00     0.000 C 
BRANCH   7   8
ATOM      8  C   UNL     1     -19.582  55.697  -3.274  1.00  0.00     0.000 C 
BRANCH   8   9
ATOM      9  C   UNL     1     -20.946  56.409  -3.241  1.00  0.00     0.000 C 
BRANCH   9  10
ATOM     10  C   UNL     1     -22.129  55.430  -3.140  1.00  0.00     0.000 C 
BRANCH  10  11
ATOM     11  C   UNL     1     -22.553  55.053  -1.706  1.00  0.00     0.000 C 
BRANCH  11  12
ATOM     12  C   UNL     1     -22.273  53.591  -1.301  1.00  0.00     0.006 C 
BRANCH  12  13
ATOM     13  C   UNL     1     -20.927  53.376  -0.591  1.00  0.00     0.053 C 
BRANCH  13  14
ATOM     14  C   UNL     1     -20.117  52.300  -1.243  1.00  0.00     0.041 C 
ATOM     15  O   UNL     1     -19.860  51.234  -0.623  1.00  0.00    -0.550 OA
ATOM     16  O   UNL     1     -19.671  52.461  -2.549  1.00  0.00    -0.550 OA
ENDBRANCH  13  14
ENDBRANCH  12  13
ENDBRANCH  11  12
ENDBRANCH  10  11
ENDBRANCH   9  10
ENDBRANCH   8   9
ENDBRANCH   7   8
ENDBRANCH   6   7
ENDBRANCH   5   6
ENDBRANCH   4   5
ENDBRANCH   3   4
ENDBRANCH   2   3
ENDBRANCH   1   2
BRANCH   1  17
ATOM     17  C   UNL     1     -19.675  56.527   0.371  1.00  0.00     0.000 C 
BRANCH  17  18
ATOM     18  C   UNL     1     -21.051  57.069   0.796  1.00  0.00     0.000 C 
BRANCH  18  19
ATOM     19  C   UNL     1     -20.953  58.034   1.991  1.00  0.00     0.000 C 
BRANCH  19  20
ATOM     20  C   UNL     1     -22.023  59.140   1.960  1.00  0.00     0.000 C 
BRANCH  20  21
ATOM     21  C   UNL     1     -23.049  59.092   3.107  1.00  0.00     0.000 C 
BRANCH  21  22
ATOM     22  C   UNL     1     -24.491  59.334   2.636  1.00  0.00    -0.000 C 
BRANCH  22  23
ATOM     23  C   UNL     1     -24.787  58.549   1.349  1.00  0.00    -0.000 C 
BRANCH  23  24
ATOM     24  C   UNL     1     -25.219  59.453   0.179  1.00  0.00    -0.000 C 
BRANCH  24  25
ATOM     25  C   UNL     1     -24.232  59.511  -1.001  1.00  0.00    -0.000 C 
BRANCH  25  26
ATOM     26  C   UNL     1     -24.252  58.237  -1.862  1.00  0.00    -0.000 C 
BRANCH  26  27
ATOM     27  C   UNL     1     -25.678  57.789  -2.233  1.00  0.00    -0.000 C 
BRANCH  27  28
ATOM     28  C   UNL     1     -25.944  56.274  -2.122  1.00  0.00    -0.000 C 
BRANCH  28  29
ATOM     29  C   UNL     1     -26.685  55.836  -0.846  1.00  0.00    -0.003 C 
ATOM     30  C   UNL     1     -25.762  55.181   0.181  1.00  0.00     0.004 C 
ENDBRANCH  28  29
ENDBRANCH  27  28
ENDBRANCH  26  27
ENDBRANCH  25  26
ENDBRANCH  24  25
ENDBRANCH  23  24
ENDBRANCH  22  23
ENDBRANCH  21  22
ENDBRANCH  20  21
ENDBRANCH  19  20
ENDBRANCH  18  19
ENDBRANCH  17  18
ENDBRANCH   1  17
TORSDOF 26
ENDMDL
MODEL 7
REMARK VINA RESULT:    -5.113      1.314      2.234
REMARK INTER + INTRA:         -17.695
REMARK INTER:                 -13.743
REMARK INTRA:                  -3.952
REMARK UNBOUND:                -4.810
REMARK SMILES CCCCCCCCCCCCCCCCCCCCCCCCCCCC(=O)[O-]
REMARK SMILES IDX 15 1 16 2 17 3 18 4 19 5 20 6 21 7 22 8 23 9 24 10 25 11
REMARK SMILES IDX 26 12 27 13 28 14 29 15 30 16 14 17 13 18 12 19 11 20 10 21
REMARK SMILES IDX 9 22 8 23 7 24 6 25 5 26 4 27 3 28 2 29 1 30
REMARK H PARENT
REMARK Flexibility Score: inf
ROOT
ATOM      1  C   UNL     1     -16.687  56.370  -2.743  1.00  0.00     0.000 C 
ENDROOT
BRANCH   1   2
ATOM      2  C   UNL     1     -17.793  56.952  -3.631  1.00  0.00     0.000 C 
BRANCH   2   3
ATOM      3  C   UNL     1     -18.944  55.950  -3.811  1.00  0.00     0.000 C 
BRANCH   3   4
ATOM      4  C   UNL     1     -20.268  56.466  -3.206  1.00  0.00     0.000 C 
BRANCH   4   5
ATOM      5  C   UNL     1     -21.215  55.346  -2.742  1.00  0.00     0.000 C 
BRANCH   5   6
ATOM      6  C   UNL     1     -20.494  54.012  -2.501  1.00  0.00     0.000 C 
BRANCH   6   7
ATOM      7  C   UNL     1     -21.061  53.291  -1.269  1.00  0.00     0.000 C 
BRANCH   7   8
ATOM      8  C   UNL     1     -22.451  53.807  -0.864  1.00  0.00     0.000 C 
BRANCH   8   9
ATOM      9  C   UNL     1     -22.718  53.671   0.645  1.00  0.00     0.000 C 
BRANCH   9  10
ATOM     10  C   UNL     1     -24.018  54.366   1.086  1.00  0.00     0.000 C 
BRANCH  10  11
ATOM     11  C   UNL     1     -24.755  55.152  -0.018  1.00  0.00     0.000 C 
BRANCH  11  12
ATOM     12  C   UNL     1     -25.225  56.564   0.383  1.00  0.00     0.006 C 
BRANCH  12  13
ATOM     13  C   UNL     1     -25.568  57.480  -0.803  1.00  0.00     0.053 C 
BRANCH  13  14
ATOM     14  C   UNL     1     -24.438  58.403  -1.141  1.00  0.00     0.041 C 
ATOM     15  O   UNL     1     -23.480  58.000  -1.851  1.00  0.00    -0.550 OA
ATOM     16  O   UNL     1     -24.460  59.719  -0.696  1.00  0.00    -0.550 OA
ENDBRANCH  13  14
ENDBRANCH  12  13
ENDBRANCH  11  12
ENDBRANCH  10  11
ENDBRANCH   9  10
ENDBRANCH   8   9
ENDBRANCH   7   8
ENDBRANCH   6   7
ENDBRANCH   5   6
ENDBRANCH   4   5
ENDBRANCH   3   4
ENDBRANCH   2   3
ENDBRANCH   1   2
BRANCH   1  17
ATOM     17  C   UNL     1     -17.011  56.581  -1.257  1.00  0.00     0.000 C 
BRANCH  17  18
ATOM     18  C   UNL     1     -17.229  55.255  -0.508  1.00  0.00     0.000 C 
BRANCH  18  19
ATOM     19  C   UNL     1     -18.515  55.268   0.336  1.00  0.00     0.000 C 
BRANCH  19  20
ATOM     20  C   UNL     1     -19.113  56.677   0.500  1.00  0.00     0.000 C 
BRANCH  20  21
ATOM     21  C   UNL     1     -20.642  56.724   0.677  1.00  0.00     0.000 C 
BRANCH  21  22
ATOM     22  C   UNL     1     -21.104  57.846   1.619  1.00  0.00    -0.000 C 
BRANCH  22  23
ATOM     23  C   UNL     1     -22.562  57.633   2.053  1.00  0.00    -0.000 C 
BRANCH  23  24
ATOM     24  C   UNL     1     -23.191  58.887   2.687  1.00  0.00    -0.000 C 
BRANCH  24  25
ATOM     25  C   UNL     1     -23.285  58.867   4.224  1.00  0.00    -0.000 C 
BRANCH  25  26
ATOM     26  C   UNL     1     -22.105  59.581   4.905  1.00  0.00    -0.000 C 
BRANCH  26  27
ATOM     27  C   UNL     1     -22.070  59.359   6.428  1.00  0.00    -0.000 C 
BRANCH  27  28
ATOM     28  C   UNL     1     -20.720  59.661   7.108  1.00  0.00    -0.000 C 
BRANCH  28  29
ATOM     29  C   UNL     1     -19.829  58.432   7.360  1.00  0.00    -0.003 C 
ATOM     30  C   UNL     1     -20.519  57.361   8.203  1.00  0.00     0.004 C 
ENDBRANCH  28  29
ENDBRANCH  27  28
ENDBRANCH  26  27
ENDBRANCH  25  26
ENDBRANCH  24  25
ENDBRANCH  23  24
ENDBRANCH  22  23
ENDBRANCH  21  22
ENDBRANCH  20  21
ENDBRANCH  19  20
ENDBRANCH  18  19
ENDBRANCH  17  18
ENDBRANCH   1  17
TORSDOF 26
ENDMDL
MODEL 8
REMARK VINA RESULT:    -5.108      2.477      6.020
REMARK INTER + INTRA:         -17.682
REMARK INTER:                 -12.724
REMARK INTRA:                  -4.958
REMARK UNBOUND:                -4.810
REMARK SMILES CCCCCCCCCCCCCCCCCCCCCCCCCCCC(=O)[O-]
REMARK SMILES IDX 15 1 16 2 17 3 18 4 19 5 20 6 21 7 22 8 23 9 24 10 25 11
REMARK SMILES IDX 26 12 27 13 28 14 29 15 30 16 14 17 13 18 12 19 11 20 10 21
REMARK SMILES IDX 9 22 8 23 7 24 6 25 5 26 4 27 3 28 2 29 1 30
REMARK H PARENT
REMARK Flexibility Score: inf
ROOT
ATOM      1  C   UNL     1     -21.070  57.032   1.094  1.00  0.00     0.000 C 
ENDROOT
BRANCH   1   2
ATOM      2  C   UNL     1     -22.308  56.526   0.346  1.00  0.00     0.000 C 
BRANCH   2   3
ATOM      3  C   UNL     1     -23.250  55.757   1.287  1.00  0.00     0.000 C 
BRANCH   3   4
ATOM      4  C   UNL     1     -24.328  54.965   0.516  1.00  0.00     0.000 C 
BRANCH   4   5
ATOM      5  C   UNL     1     -24.337  55.243  -0.997  1.00  0.00     0.000 C 
BRANCH   5   6
ATOM      6  C   UNL     1     -25.666  55.835  -1.490  1.00  0.00     0.000 C 
BRANCH   6   7
ATOM      7  C   UNL     1     -25.673  57.365  -1.360  1.00  0.00     0.000 C 
BRANCH   7   8
ATOM      8  C   UNL     1     -26.714  57.873  -0.349  1.00  0.00     0.000 C 
BRANCH   8   9
ATOM      9  C   UNL     1     -26.073  58.454   0.922  1.00  0.00     0.000 C 
BRANCH   9  10
ATOM     10  C   UNL     1     -24.736  59.165   0.646  1.00  0.00     0.000 C 
BRANCH  10  11
ATOM     11  C   UNL     1     -24.052  59.787   1.881  1.00  0.00     0.000 C 
BRANCH  11  12
ATOM     12  C   UNL     1     -23.838  58.824   3.067  1.00  0.00     0.006 C 
BRANCH  12  13
ATOM     13  C   UNL     1     -22.637  59.175   3.960  1.00  0.00     0.053 C 
BRANCH  13  14
ATOM     14  C   UNL     1     -23.027  59.292   5.400  1.00  0.00     0.041 C 
ATOM     15  O   UNL     1     -22.159  59.180   6.305  1.00  0.00    -0.550 OA
ATOM     16  O   UNL     1     -24.347  59.557   5.743  1.00  0.00    -0.550 OA
ENDBRANCH  13  14
ENDBRANCH  12  13
ENDBRANCH  11  12
ENDBRANCH  10  11
ENDBRANCH   9  10
ENDBRANCH   8   9
ENDBRANCH   7   8
ENDBRANCH   6   7
ENDBRANCH   5   6
ENDBRANCH   4   5
ENDBRANCH   3   4
ENDBRANCH   2   3
ENDBRANCH   1   2
BRANCH   1  17
ATOM     17  C   UNL     1     -19.783  56.526   0.426  1.00  0.00     0.000 C 
BRANCH  17  18
ATOM     18  C   UNL     1     -18.554  57.370   0.801  1.00  0.00     0.000 C 
BRANCH  18  19
ATOM     19  C   UNL     1     -17.241  56.579   0.667  1.00  0.00     0.000 C 
BRANCH  19  20
ATOM     20  C   UNL     1     -17.466  55.093   0.332  1.00  0.00     0.000 C 
BRANCH  20  21
ATOM     21  C   UNL     1     -16.509  54.507  -0.722  1.00  0.00     0.000 C 
BRANCH  21  22
ATOM     22  C   UNL     1     -17.172  54.314  -2.094  1.00  0.00    -0.000 C 
BRANCH  22  23
ATOM     23  C   UNL     1     -17.052  55.586  -2.947  1.00  0.00    -0.000 C 
BRANCH  23  24
ATOM     24  C   UNL     1     -18.300  55.854  -3.808  1.00  0.00    -0.000 C 
BRANCH  24  25
ATOM     25  C   UNL     1     -19.490  56.479  -3.057  1.00  0.00    -0.000 C 
BRANCH  25  26
ATOM     26  C   UNL     1     -20.749  55.597  -3.092  1.00  0.00    -0.000 C 
BRANCH  26  27
ATOM     27  C   UNL     1     -20.472  54.143  -2.666  1.00  0.00    -0.000 C 
BRANCH  27  28
ATOM     28  C   UNL     1     -21.347  53.615  -1.511  1.00  0.00    -0.000 C 
BRANCH  28  29
ATOM     29  C   UNL     1     -20.572  52.951  -0.359  1.00  0.00    -0.003 C 
ATOM     30  C   UNL     1     -19.691  51.793  -0.826  1.00  0.00     0.004 C 
ENDBRANCH  28  29
ENDBRANCH  27  28
ENDBRANCH  26  27
ENDBRANCH  25  26
ENDBRANCH  24  25
ENDBRANCH  23  24
ENDBRANCH  22  23
ENDBRANCH  21  22
ENDBRANCH  20  21
ENDBRANCH  19  20
ENDBRANCH  18  19
ENDBRANCH  17  18
ENDBRANCH   1  17
TORSDOF 26
ENDMDL
MODEL 9
REMARK VINA RESULT:    -5.106      1.452      5.140
REMARK INTER + INTRA:         -17.677
REMARK INTER:                 -12.664
REMARK INTRA:                  -5.013
REMARK UNBOUND:                -4.810
REMARK SMILES CCCCCCCCCCCCCCCCCCCCCCCCCCCC(=O)[O-]
REMARK SMILES IDX 15 1 16 2 17 3 18 4 19 5 20 6 21 7 22 8 23 9 24 10 25 11
REMARK SMILES IDX 26 12 27 13 28 14 29 15 30 16 14 17 13 18 12 19 11 20 10 21
REMARK SMILES IDX 9 22 8 23 7 24 6 25 5 26 4 27 3 28 2 29 1 30
REMARK H PARENT
REMARK Flexibility Score: inf
ROOT
ATOM      1  C   UNL     1     -18.084  56.306  -3.653  1.00  0.00     0.000 C 
ENDROOT
BRANCH   1   2
ATOM      2  C   UNL     1     -16.895  55.695  -2.904  1.00  0.00     0.000 C 
BRANCH   2   3
ATOM      3  C   UNL     1     -17.332  54.488  -2.059  1.00  0.00     0.000 C 
BRANCH   3   4
ATOM      4  C   UNL     1     -16.740  54.527  -0.634  1.00  0.00     0.000 C 
BRANCH   4   5
ATOM      5  C   UNL     1     -17.695  55.116   0.418  1.00  0.00     0.000 C 
BRANCH   5   6
ATOM      6  C   UNL     1     -17.472  56.617   0.657  1.00  0.00     0.000 C 
BRANCH   6   7
ATOM      7  C   UNL     1     -18.808  57.354   0.833  1.00  0.00     0.000 C 
BRANCH   7   8
ATOM      8  C   UNL     1     -20.023  56.467   0.522  1.00  0.00     0.000 C 
BRANCH   8   9
ATOM      9  C   UNL     1     -21.352  57.240   0.578  1.00  0.00     0.000 C 
BRANCH   9  10
ATOM     10  C   UNL     1     -21.868  57.440   2.014  1.00  0.00     0.000 C 
BRANCH  10  11
ATOM     11  C   UNL     1     -22.864  58.602   2.201  1.00  0.00     0.000 C 
BRANCH  11  12
ATOM     12  C   UNL     1     -23.057  59.507   0.968  1.00  0.00     0.006 C 
BRANCH  12  13
ATOM     13  C   UNL     1     -24.427  59.365   0.285  1.00  0.00     0.053 C 
BRANCH  13  14
ATOM     14  C   UNL     1     -24.412  59.898  -1.114  1.00  0.00     0.041 C 
ATOM     15  O   UNL     1     -23.337  59.935  -1.769  1.00  0.00    -0.550 OA
ATOM     16  O   UNL     1     -25.593  60.327  -1.707  1.00  0.00    -0.550 OA
ENDBRANCH  13  14
ENDBRANCH  12  13
ENDBRANCH  11  12
ENDBRANCH  10  11
ENDBRANCH   9  10
ENDBRANCH   8   9
ENDBRANCH   7   8
ENDBRANCH   6   7
ENDBRANCH   5   6
ENDBRANCH   4   5
ENDBRANCH   3   4
ENDBRANCH   2   3
ENDBRANCH   1   2
BRANCH   1  17
ATOM     17  C   UNL     1     -19.405  55.977  -2.943  1.00  0.00     0.000 C 
BRANCH  17  18
ATOM     18  C   UNL     1     -20.615  56.659  -3.603  1.00  0.00     0.000 C 
BRANCH  18  19
ATOM     19  C   UNL     1     -21.886  56.553  -2.742  1.00  0.00     0.000 C 
BRANCH  19  20
ATOM     20  C   UNL     1     -22.612  55.205  -2.904  1.00  0.00     0.000 C 
BRANCH  20  21
ATOM     21  C   UNL     1     -24.147  55.272  -2.813  1.00  0.00     0.000 C 
BRANCH  21  22
ATOM     22  C   UNL     1     -24.647  56.429  -1.934  1.00  0.00    -0.000 C 
BRANCH  22  23
ATOM     23  C   UNL     1     -26.024  56.108  -1.333  1.00  0.00    -0.000 C 
BRANCH  23  24
ATOM     24  C   UNL     1     -25.934  55.373   0.017  1.00  0.00    -0.000 C 
BRANCH  24  25
ATOM     25  C   UNL     1     -24.523  55.291   0.626  1.00  0.00    -0.000 C 
BRANCH  25  26
ATOM     26  C   UNL     1     -24.247  53.946   1.320  1.00  0.00    -0.000 C 
BRANCH  26  27
ATOM     27  C   UNL     1     -22.767  53.528   1.246  1.00  0.00    -0.000 C 
BRANCH  27  28
ATOM     28  C   UNL     1     -22.128  53.604  -0.155  1.00  0.00    -0.000 C 
BRANCH  28  29
ATOM     29  C   UNL     1     -20.725  52.980  -0.266  1.00  0.00    -0.003 C 
ATOM     30  C   UNL     1     -20.420  52.450  -1.666  1.00  0.00     0.004 C 
ENDBRANCH  28  29
ENDBRANCH  27  28
ENDBRANCH  26  27
ENDBRANCH  25  26
ENDBRANCH  24  25
ENDBRANCH  23  24
ENDBRANCH  22  23
ENDBRANCH  21  22
ENDBRANCH  20  21
ENDBRANCH  19  20
ENDBRANCH  18  19
ENDBRANCH  17  18
ENDBRANCH   1  17
TORSDOF 26
ENDMDL
