MODEL 1
REMARK VINA RESULT:    -5.981      0.000      0.000
REMARK INTER + INTRA:          -6.486
REMARK INTER:                  -6.680
REMARK INTRA:                   0.194
REMARK UNBOUND:                 0.194
REMARK SMILES O=C([O-])c1ccccc1C(=O)[O-]
REMARK SMILES IDX 4 1 9 2 5 3 8 4 6 5 7 6 2 7 1 8 3 9 10 10 11 11 12 12
REMARK H PARENT
REMARK Flexibility Score: inf
ROOT
ATOM      1  C   UNL     1       8.052   9.360  31.105  1.00  0.00     0.006 A 
ATOM      2  C   UNL     1       7.393   9.530  32.354  1.00  0.00     0.006 A 
ATOM      3  C   UNL     1       8.761  10.444  30.553  1.00  0.00     0.010 A 
ATOM      4  C   UNL     1       7.414  10.795  32.973  1.00  0.00     0.010 A 
ATOM      5  C   UNL     1       8.786  11.682  31.195  1.00  0.00     0.001 A 
ATOM      6  C   UNL     1       8.104  11.861  32.396  1.00  0.00     0.001 A 
ENDROOT
BRANCH   1   7
ATOM      7  C   UNL     1       7.962   8.108  30.319  1.00  0.00     0.072 C 
ATOM      8  O   UNL     1       9.011   7.519  29.945  1.00  0.00    -0.545 OA
ATOM      9  O   UNL     1       6.727   7.603  29.928  1.00  0.00    -0.545 OA
ENDBRANCH   1   7
BRANCH   2  10
ATOM     10  C   UNL     1       6.745   8.409  33.074  1.00  0.00     0.072 C 
ATOM     11  O   UNL     1       5.650   7.941  32.663  1.00  0.00    -0.545 OA
ATOM     12  O   UNL     1       7.298   7.903  34.243  1.00  0.00    -0.545 OA
ENDBRANCH   2  10
TORSDOF 2
ENDMDL
MODEL 2
REMARK VINA RESULT:    -5.956      0.080      3.133
REMARK INTER + INTRA:          -6.458
REMARK INTER:                  -6.595
REMARK INTRA:                   0.137
REMARK UNBOUND:                 0.194
REMARK SMILES O=C([O-])c1ccccc1C(=O)[O-]
REMARK SMILES IDX 4 1 9 2 5 3 8 4 6 5 7 6 2 7 1 8 3 9 10 10 11 11 12 12
REMARK H PARENT
REMARK Flexibility Score: inf
ROOT
ATOM      1  C   UNL     1       7.401   9.547  32.375  1.00  0.00     0.006 A 
ATOM      2  C   UNL     1       8.091   9.398  31.141  1.00  0.00     0.006 A 
ATOM      3  C   UNL     1       7.400  10.803  33.011  1.00  0.00     0.010 A 
ATOM      4  C   UNL     1       8.807  10.492  30.620  1.00  0.00     0.010 A 
ATOM      5  C   UNL     1       8.100  11.880  32.465  1.00  0.00     0.001 A 
ATOM      6  C   UNL     1       8.811  11.722  31.279  1.00  0.00     0.001 A 
ENDROOT
BRANCH   1   7
ATOM      7  C   UNL     1       6.741   8.414  33.063  1.00  0.00     0.072 C 
ATOM      8  O   UNL     1       5.666   7.937  32.612  1.00  0.00    -0.545 OA
ATOM      9  O   UNL     1       7.259   7.905  34.249  1.00  0.00    -0.545 OA
ENDBRANCH   1   7
BRANCH   2  10
ATOM     10  C   UNL     1       8.028   8.156  30.336  1.00  0.00     0.072 C 
ATOM     11  O   UNL     1       9.085   7.542  30.034  1.00  0.00    -0.545 OA
ATOM     12  O   UNL     1       6.813   7.687  29.850  1.00  0.00    -0.545 OA
ENDBRANCH   2  10
TORSDOF 2
ENDMDL
MODEL 3
REMARK VINA RESULT:    -4.953      2.286      3.430
REMARK INTER + INTRA:          -5.338
REMARK INTER:                  -5.495
REMARK INTRA:                   0.157
REMARK UNBOUND:                 0.194
REMARK SMILES O=C([O-])c1ccccc1C(=O)[O-]
REMARK SMILES IDX 4 1 9 2 5 3 8 4 6 5 7 6 2 7 1 8 3 9 10 10 11 11 12 12
REMARK H PARENT
REMARK Flexibility Score: inf
ROOT
ATOM      1  C   UNL     1       7.452   9.778  32.385  1.00  0.00     0.006 A 
ATOM      2  C   UNL     1       6.535   8.691  32.350  1.00  0.00     0.006 A 
ATOM      3  C   UNL     1       8.333   9.964  31.303  1.00  0.00     0.010 A 
ATOM      4  C   UNL     1       6.576   7.795  31.265  1.00  0.00     0.010 A 
ATOM      5  C   UNL     1       8.341   9.075  30.228  1.00  0.00     0.001 A 
ATOM      6  C   UNL     1       7.473   7.986  30.214  1.00  0.00     0.001 A 
ENDROOT
BRANCH   1   7
ATOM      7  C   UNL     1       7.572  10.685  33.550  1.00  0.00     0.072 C 
ATOM      8  O   UNL     1       7.647  11.931  33.378  1.00  0.00    -0.545 OA
ATOM      9  O   UNL     1       7.671  10.173  34.839  1.00  0.00    -0.545 OA
ENDBRANCH   1   7
BRANCH   2  10
ATOM     10  C   UNL     1       5.481   8.503  33.374  1.00  0.00     0.072 C 
ATOM     11  O   UNL     1       5.331   7.383  33.930  1.00  0.00    -0.545 OA
ATOM     12  O   UNL     1       4.606   9.535  33.689  1.00  0.00    -0.545 OA
ENDBRANCH   2  10
TORSDOF 2
ENDMDL
MODEL 4
REMARK VINA RESULT:    -4.881      2.314      3.544
REMARK INTER + INTRA:          -5.258
REMARK INTER:                  -5.431
REMARK INTRA:                   0.174
REMARK UNBOUND:                 0.194
REMARK SMILES O=C([O-])c1ccccc1C(=O)[O-]
REMARK SMILES IDX 4 1 9 2 5 3 8 4 6 5 7 6 2 7 1 8 3 9 10 10 11 11 12 12
REMARK H PARENT
REMARK Flexibility Score: inf
ROOT
ATOM      1  C   UNL     1       6.532   8.644  32.301  1.00  0.00     0.006 A 
ATOM      2  C   UNL     1       7.443   9.735  32.357  1.00  0.00     0.006 A 
ATOM      3  C   UNL     1       6.583   7.766  31.203  1.00  0.00     0.010 A 
ATOM      4  C   UNL     1       8.329   9.943  31.283  1.00  0.00     0.010 A 
ATOM      5  C   UNL     1       7.484   7.979  30.159  1.00  0.00     0.001 A 
ATOM      6  C   UNL     1       8.347   9.072  30.193  1.00  0.00     0.001 A 
ENDROOT
BRANCH   1   7
ATOM      7  C   UNL     1       5.475   8.434  33.318  1.00  0.00     0.072 C 
ATOM      8  O   UNL     1       4.652   9.352  33.575  1.00  0.00    -0.545 OA
ATOM      9  O   UNL     1       5.417   7.251  34.046  1.00  0.00    -0.545 OA
ENDBRANCH   1   7
BRANCH   2  10
ATOM     10  C   UNL     1       7.554  10.623  33.538  1.00  0.00     0.072 C 
ATOM     11  O   UNL     1       7.624  11.871  33.387  1.00  0.00    -0.545 OA
ATOM     12  O   UNL     1       7.645  10.092  34.818  1.00  0.00    -0.545 OA
ENDBRANCH   2  10
TORSDOF 2
ENDMDL
MODEL 5
REMARK VINA RESULT:    -4.870      1.828      3.356
REMARK INTER + INTRA:          -5.245
REMARK INTER:                  -5.474
REMARK INTRA:                   0.230
REMARK UNBOUND:                 0.194
REMARK SMILES O=C([O-])c1ccccc1C(=O)[O-]
REMARK SMILES IDX 4 1 9 2 5 3 8 4 6 5 7 6 2 7 1 8 3 9 10 10 11 11 12 12
REMARK H PARENT
REMARK Flexibility Score: inf
ROOT
ATOM      1  C   UNL     1       7.515   9.059  31.568  1.00  0.00     0.006 A 
ATOM      2  C   UNL     1       7.943  10.407  31.718  1.00  0.00     0.006 A 
ATOM      3  C   UNL     1       6.754   8.465  32.593  1.00  0.00     0.010 A 
ATOM      4  C   UNL     1       7.650  11.090  32.914  1.00  0.00     0.010 A 
ATOM      5  C   UNL     1       6.457   9.168  33.761  1.00  0.00     0.001 A 
ATOM      6  C   UNL     1       6.914  10.474  33.926  1.00  0.00     0.001 A 
ENDROOT
BRANCH   1   7
ATOM      7  C   UNL     1       7.899   8.223  30.407  1.00  0.00     0.072 C 
ATOM      8  O   UNL     1       7.013   7.655  29.715  1.00  0.00    -0.545 OA
ATOM      9  O   UNL     1       9.238   8.000  30.106  1.00  0.00    -0.545 OA
ENDBRANCH   1   7
BRANCH   2  10
ATOM     10  C   UNL     1       8.624  11.153  30.634  1.00  0.00     0.072 C 
ATOM     11  O   UNL     1       9.534  11.979  30.909  1.00  0.00    -0.545 OA
ATOM     12  O   UNL     1       8.226  11.002  29.312  1.00  0.00    -0.545 OA
ENDBRANCH   2  10
TORSDOF 2
ENDMDL
MODEL 6
REMARK VINA RESULT:    -4.859      1.827      3.221
REMARK INTER + INTRA:          -5.233
REMARK INTER:                  -5.495
REMARK INTRA:                   0.262
REMARK UNBOUND:                 0.194
REMARK SMILES O=C([O-])c1ccccc1C(=O)[O-]
REMARK SMILES IDX 4 1 9 2 5 3 8 4 6 5 7 6 2 7 1 8 3 9 10 10 11 11 12 12
REMARK H PARENT
REMARK Flexibility Score: inf
ROOT
ATOM      1  C   UNL     1       7.927  10.411  31.721  1.00  0.00     0.006 A 
ATOM      2  C   UNL     1       7.487   9.066  31.573  1.00  0.00     0.006 A 
ATOM      3  C   UNL     1       7.639  11.097  32.917  1.00  0.00     0.010 A 
ATOM      4  C   UNL     1       6.721   8.480  32.599  1.00  0.00     0.010 A 
ATOM      5  C   UNL     1       6.896  10.487  33.928  1.00  0.00     0.001 A 
ATOM      6  C   UNL     1       6.429   9.186  33.765  1.00  0.00     0.001 A 
ENDROOT
BRANCH   1   7
ATOM      7  C   UNL     1       8.614  11.150  30.638  1.00  0.00     0.072 C 
ATOM      8  O   UNL     1       9.516  11.985  30.914  1.00  0.00    -0.545 OA
ATOM      9  O   UNL     1       8.230  10.984  29.312  1.00  0.00    -0.545 OA
ENDBRANCH   1   7
BRANCH   2  10
ATOM     10  C   UNL     1       7.865   8.226  30.413  1.00  0.00     0.072 C 
ATOM     11  O   UNL     1       6.976   7.654  29.729  1.00  0.00    -0.545 OA
ATOM     12  O   UNL     1       9.201   8.006  30.103  1.00  0.00    -0.545 OA
ENDBRANCH   2  10
TORSDOF 2
ENDMDL
MODEL 7
REMARK VINA RESULT:    -4.209      2.614      3.799
REMARK INTER + INTRA:          -4.507
REMARK INTER:                  -4.282
REMARK INTRA:                  -0.225
REMARK UNBOUND:                 0.194
REMARK SMILES O=C([O-])c1ccccc1C(=O)[O-]
REMARK SMILES IDX 4 1 9 2 5 3 8 4 6 5 7 6 2 7 1 8 3 9 10 10 11 11 12 12
REMARK H PARENT
REMARK Flexibility Score: inf
ROOT
ATOM      1  C   UNL     1       6.459   8.510  33.851  1.00  0.00     0.006 A 
ATOM      2  C   UNL     1       6.371   9.762  34.521  1.00  0.00     0.006 A 
ATOM      3  C   UNL     1       7.199   8.424  32.656  1.00  0.00     0.010 A 
ATOM      4  C   UNL     1       6.973  10.893  33.938  1.00  0.00     0.010 A 
ATOM      5  C   UNL     1       7.804   9.555  32.109  1.00  0.00     0.001 A 
ATOM      6  C   UNL     1       7.682  10.789  32.742  1.00  0.00     0.001 A 
ENDROOT
BRANCH   1   7
ATOM      7  C   UNL     1       5.740   7.302  34.318  1.00  0.00     0.072 C 
ATOM      8  O   UNL     1       4.517   7.151  34.055  1.00  0.00    -0.545 OA
ATOM      9  O   UNL     1       6.383   6.354  35.106  1.00  0.00    -0.545 OA
ENDBRANCH   1   7
BRANCH   2  10
ATOM     10  C   UNL     1       5.734   9.913  35.850  1.00  0.00     0.072 C 
ATOM     11  O   UNL     1       6.407   9.728  36.898  1.00  0.00    -0.545 OA
ATOM     12  O   UNL     1       4.379  10.195  35.959  1.00  0.00    -0.545 OA
ENDBRANCH   2  10
TORSDOF 2
ENDMDL
MODEL 8
REMARK VINA RESULT:    -4.141      2.595      4.252
REMARK INTER + INTRA:          -4.430
REMARK INTER:                  -4.213
REMARK INTRA:                  -0.218
REMARK UNBOUND:                 0.194
REMARK SMILES O=C([O-])c1ccccc1C(=O)[O-]
REMARK SMILES IDX 4 1 9 2 5 3 8 4 6 5 7 6 2 7 1 8 3 9 10 10 11 11 12 12
REMARK H PARENT
REMARK Flexibility Score: inf
ROOT
ATOM      1  C   UNL     1       6.357   9.763  34.513  1.00  0.00     0.006 A 
ATOM      2  C   UNL     1       6.473   8.518  33.835  1.00  0.00     0.006 A 
ATOM      3  C   UNL     1       6.958  10.906  33.951  1.00  0.00     0.010 A 
ATOM      4  C   UNL     1       7.238   8.450  32.655  1.00  0.00     0.010 A 
ATOM      5  C   UNL     1       7.693  10.818  32.769  1.00  0.00     0.001 A 
ATOM      6  C   UNL     1       7.843   9.590  32.129  1.00  0.00     0.001 A 
ENDROOT
BRANCH   1   7
ATOM      7  C   UNL     1       5.692   9.897  35.829  1.00  0.00     0.072 C 
ATOM      8  O   UNL     1       4.471  10.202  35.894  1.00  0.00    -0.545 OA
ATOM      9  O   UNL     1       6.416   9.755  37.008  1.00  0.00    -0.545 OA
ENDBRANCH   1   7
BRANCH   2  10
ATOM     10  C   UNL     1       5.758   7.299  34.278  1.00  0.00     0.072 C 
ATOM     11  O   UNL     1       4.550   7.125  33.968  1.00  0.00    -0.545 OA
ATOM     12  O   UNL     1       6.386   6.365  35.093  1.00  0.00    -0.545 OA
ENDBRANCH   2  10
TORSDOF 2
ENDMDL
MODEL 9
REMARK VINA RESULT:    -3.852      3.423      4.679
REMARK INTER + INTRA:          -4.108
REMARK INTER:                  -4.027
REMARK INTRA:                  -0.081
REMARK UNBOUND:                 0.194
REMARK SMILES O=C([O-])c1ccccc1C(=O)[O-]
REMARK SMILES IDX 4 1 9 2 5 3 8 4 6 5 7 6 2 7 1 8 3 9 10 10 11 11 12 12
REMARK H PARENT
REMARK Flexibility Score: inf
ROOT
ATOM      1  C   UNL     1       5.572   8.141  34.583  1.00  0.00     0.006 A 
ATOM      2  C   UNL     1       5.781   9.419  35.171  1.00  0.00     0.006 A 
ATOM      3  C   UNL     1       6.105   7.879  33.307  1.00  0.00     0.010 A 
ATOM      4  C   UNL     1       6.461  10.408  34.435  1.00  0.00     0.010 A 
ATOM      5  C   UNL     1       6.794   8.868  32.605  1.00  0.00     0.001 A 
ATOM      6  C   UNL     1       6.962  10.133  33.162  1.00  0.00     0.001 A 
ENDROOT
BRANCH   1   7
ATOM      7  C   UNL     1       4.749   7.091  35.227  1.00  0.00     0.072 C 
ATOM      8  O   UNL     1       5.215   5.933  35.393  1.00  0.00    -0.545 OA
ATOM      9  O   UNL     1       3.432   7.348  35.594  1.00  0.00    -0.545 OA
ENDBRANCH   1   7
BRANCH   2  10
ATOM     10  C   UNL     1       5.378   9.734  36.561  1.00  0.00     0.072 C 
ATOM     11  O   UNL     1       6.113   9.392  37.525  1.00  0.00    -0.545 OA
ATOM     12  O   UNL     1       4.162  10.350  36.825  1.00  0.00    -0.545 OA
ENDBRANCH   2  10
TORSDOF 2
ENDMDL
