MODEL 1
REMARK VINA RESULT:    -4.513      0.000      0.000
REMARK INTER + INTRA:          -6.115
REMARK INTER:                  -6.360
REMARK INTRA:                   0.244
REMARK UNBOUND:                 0.244
REMARK SMILES CC1=CCC(=C(C)C)C(=O)CC(C)=CCC1
REMARK SMILES IDX 12 1 14 2 13 3 15 4 16 5 2 6 1 7 3 8 11 10 9 11 10 12 5 13
REMARK SMILES IDX 6 14 7 15 8 16 4 17
REMARK H PARENT
REMARK Flexibility Score: 60.00
ROOT
ATOM      1  C   UNL     1      -9.176 -28.928 -19.249  1.00  0.00    -0.070 C 
ATOM      2  C   UNL     1     -10.222 -28.090 -19.069  1.00  0.00    -0.027 C 
ATOM      3  C   UNL     1      -9.301 -29.995 -20.308  1.00  0.00     0.039 C 
ENDROOT
BRANCH   2   4
ATOM      4  C   UNL     1     -10.327 -27.025 -18.000  1.00  0.00     0.032 C 
BRANCH   4   5
ATOM      5  C   UNL     1      -9.637 -25.690 -18.346  1.00  0.00     0.034 C 
BRANCH   5   6
ATOM      6  C   UNL     1      -8.651 -25.236 -17.285  1.00  0.00    -0.077 C 
ATOM      7  C   UNL     1      -9.209 -24.692 -15.994  1.00  0.00     0.039 C 
ATOM      8  C   UNL     1      -7.304 -25.222 -17.449  1.00  0.00    -0.023 CG0
ATOM      9  G   UNL     1      -6.524 -25.733 -18.644  1.00  0.00     0.000 G0
ENDBRANCH   5   6
ENDBRANCH   4   5
ENDBRANCH   2   4
BRANCH   1  10
ATOM     10  C   UNL     1      -7.935 -28.906 -18.381  1.00  0.00     0.111 C 
BRANCH  10  11
ATOM     11  C   UNL     1      -6.778 -28.244 -19.084  1.00  0.00     0.163 C 
ATOM     12  O   UNL     1      -6.440 -28.685 -20.215  1.00  0.00    -0.294 OA
BRANCH  11  13
ATOM     13  C   UNL     1      -5.990 -27.139 -18.462  1.00  0.00    -0.002 C 
ATOM     14  C   UNL     1      -4.890 -27.410 -17.696  1.00  0.00    -0.069 C 
ATOM     15  C   UNL     1      -4.165 -26.329 -16.925  1.00  0.00     0.039 C 
ATOM     16  C   UNL     1      -4.343 -28.816 -17.579  1.00  0.00     0.039 C 
BRANCH  13  17
ATOM     17  C   UNL     1      -6.516 -25.724 -18.640  1.00  0.00     0.066 CG0
ATOM     18  G   UNL     1      -7.309 -25.249 -17.438  1.00  0.00     0.000 G0
ENDBRANCH  13  17
ENDBRANCH  11  13
ENDBRANCH  10  11
ENDBRANCH   1  10
TORSDOF 0
ENDMDL
MODEL 2
REMARK VINA RESULT:    -4.077      2.176      4.994
REMARK INTER + INTRA:          -5.501
REMARK INTER:                  -5.925
REMARK INTRA:                   0.425
REMARK UNBOUND:                 0.244
REMARK SMILES CC1=CCC(=C(C)C)C(=O)CC(C)=CCC1
REMARK SMILES IDX 12 1 14 2 13 3 15 4 16 5 2 6 1 7 3 8 11 10 9 11 10 12 5 13
REMARK SMILES IDX 6 14 7 15 8 16 4 17
REMARK H PARENT
REMARK Flexibility Score: 60.00
ROOT
ATOM      1  C   UNL     1      -7.570 -23.355 -16.056  1.00  0.00    -0.070 C 
ATOM      2  C   UNL     1      -6.239 -23.265 -15.839  1.00  0.00    -0.027 C 
ATOM      3  C   UNL     1      -8.379 -22.083 -16.017  1.00  0.00     0.039 C 
ENDROOT
BRANCH   2   4
ATOM      4  C   UNL     1      -5.279 -24.430 -15.743  1.00  0.00     0.032 C 
BRANCH   4   5
ATOM      5  C   UNL     1      -4.167 -24.444 -16.812  1.00  0.00     0.034 C 
BRANCH   5   6
ATOM      6  C   UNL     1      -4.694 -24.261 -18.224  1.00  0.00    -0.077 C 
ATOM      7  C   UNL     1      -4.251 -23.037 -18.985  1.00  0.00     0.039 C 
ATOM      8  C   UNL     1      -5.589 -25.088 -18.819  1.00  0.00    -0.023 CG0
ATOM      9  G   UNL     1      -6.155 -26.377 -18.257  1.00  0.00     0.000 G0
ENDBRANCH   5   6
ENDBRANCH   4   5
ENDBRANCH   2   4
BRANCH   1  10
ATOM     10  C   UNL     1      -8.294 -24.673 -16.243  1.00  0.00     0.111 C 
BRANCH  10  11
ATOM     11  C   UNL     1      -8.318 -25.094 -17.689  1.00  0.00     0.163 C 
ATOM     12  O   UNL     1      -8.951 -24.375 -18.507  1.00  0.00    -0.294 OA
BRANCH  11  13
ATOM     13  C   UNL     1      -7.676 -26.356 -18.165  1.00  0.00    -0.002 C 
ATOM     14  C   UNL     1      -8.427 -27.469 -18.419  1.00  0.00    -0.069 C 
ATOM     15  C   UNL     1      -7.795 -28.804 -18.750  1.00  0.00     0.039 C 
ATOM     16  C   UNL     1      -9.939 -27.421 -18.381  1.00  0.00     0.039 C 
BRANCH  13  17
ATOM     17  C   UNL     1      -6.159 -26.371 -18.260  1.00  0.00     0.066 CG0
ATOM     18  G   UNL     1      -5.603 -25.076 -18.819  1.00  0.00     0.000 G0
ENDBRANCH  13  17
ENDBRANCH  11  13
ENDBRANCH  10  11
ENDBRANCH   1  10
TORSDOF 0
ENDMDL
MODEL 3
REMARK VINA RESULT:    -4.009      2.193      4.230
REMARK INTER + INTRA:          -5.406
REMARK INTER:                  -5.575
REMARK INTRA:                   0.169
REMARK UNBOUND:                 0.244
REMARK SMILES CC1=CCC(=C(C)C)C(=O)CC(C)=CCC1
REMARK SMILES IDX 12 1 14 2 13 3 15 4 16 5 2 6 1 7 3 8 11 10 9 11 10 12 5 13
REMARK SMILES IDX 6 14 7 15 8 16 4 17
REMARK H PARENT
REMARK Flexibility Score: 60.00
ROOT
ATOM      1  C   UNL     1      -8.934 -27.011 -18.170  1.00  0.00    -0.070 C 
ATOM      2  C   UNL     1      -8.041 -27.901 -18.657  1.00  0.00    -0.027 C 
ATOM      3  C   UNL     1     -10.362 -27.114 -18.644  1.00  0.00     0.039 C 
ENDROOT
BRANCH   2   4
ATOM      4  C   UNL     1      -6.554 -27.902 -18.379  1.00  0.00     0.032 C 
BRANCH   4   5
ATOM      5  C   UNL     1      -5.709 -27.074 -19.370  1.00  0.00     0.034 C 
BRANCH   5   6
ATOM      6  C   UNL     1      -4.800 -26.070 -18.684  1.00  0.00    -0.077 C 
ATOM      7  C   UNL     1      -3.529 -26.588 -18.059  1.00  0.00     0.039 C 
ATOM      8  C   UNL     1      -5.088 -24.753 -18.538  1.00  0.00    -0.023 CG0
ATOM      9  G   UNL     1      -6.288 -24.013 -19.095  1.00  0.00     0.000 G0
ENDBRANCH   5   6
ENDBRANCH   4   5
ENDBRANCH   2   4
BRANCH   1  10
ATOM     10  C   UNL     1      -8.553 -25.869 -17.251  1.00  0.00     0.111 C 
BRANCH  10  11
ATOM     11  C   UNL     1      -8.538 -24.551 -17.980  1.00  0.00     0.163 C 
ATOM     12  O   UNL     1      -9.573 -24.211 -18.614  1.00  0.00    -0.294 OA
BRANCH  11  13
ATOM     13  C   UNL     1      -7.329 -23.676 -18.028  1.00  0.00    -0.002 C 
ATOM     14  C   UNL     1      -7.221 -22.588 -17.207  1.00  0.00    -0.069 C 
ATOM     15  C   UNL     1      -6.087 -21.594 -17.339  1.00  0.00     0.039 C 
ATOM     16  C   UNL     1      -8.239 -22.322 -16.120  1.00  0.00     0.039 C 
BRANCH  13  17
ATOM     17  C   UNL     1      -6.282 -23.992 -19.084  1.00  0.00     0.066 CG0
ATOM     18  G   UNL     1      -5.105 -24.762 -18.517  1.00  0.00     0.000 G0
ENDBRANCH  13  17
ENDBRANCH  11  13
ENDBRANCH  10  11
ENDBRANCH   1  10
TORSDOF 0
ENDMDL
MODEL 4
REMARK VINA RESULT:    -4.000      3.302      5.129
REMARK INTER + INTRA:          -5.392
REMARK INTER:                  -5.966
REMARK INTRA:                   0.573
REMARK UNBOUND:                 0.244
REMARK SMILES CC1=CCC(=C(C)C)C(=O)CC(C)=CCC1
REMARK SMILES IDX 12 1 14 2 13 3 15 4 16 5 2 6 1 7 3 8 11 10 9 11 10 12 5 13
REMARK SMILES IDX 6 14 7 15 8 16 4 17
REMARK H PARENT
REMARK Flexibility Score: 60.00
ROOT
ATOM      1  C   UNL     1      -5.821 -24.669 -18.237  1.00  0.00    -0.070 C 
ATOM      2  C   UNL     1      -6.744 -25.531 -18.719  1.00  0.00    -0.027 C 
ATOM      3  C   UNL     1      -4.772 -24.154 -19.189  1.00  0.00     0.039 C 
ENDROOT
BRANCH   2   4
ATOM      4  C   UNL     1      -7.812 -26.229 -17.906  1.00  0.00     0.032 C 
BRANCH   4   5
ATOM      5  C   UNL     1      -9.194 -25.545 -17.929  1.00  0.00     0.034 C 
BRANCH   5   6
ATOM      6  C   UNL     1      -9.401 -24.578 -16.777  1.00  0.00    -0.077 C 
ATOM      7  C   UNL     1     -10.053 -25.107 -15.525  1.00  0.00     0.039 C 
ATOM      8  C   UNL     1      -9.101 -23.256 -16.825  1.00  0.00    -0.023 CG0
ATOM      9  G   UNL     1      -8.429 -22.513 -17.963  1.00  0.00     0.000 G0
ENDBRANCH   5   6
ENDBRANCH   4   5
ENDBRANCH   2   4
BRANCH   1  10
ATOM     10  C   UNL     1      -5.737 -24.273 -16.778  1.00  0.00     0.111 C 
BRANCH  10  11
ATOM     11  C   UNL     1      -6.306 -22.898 -16.542  1.00  0.00     0.163 C 
ATOM     12  O   UNL     1      -6.250 -22.424 -15.375  1.00  0.00    -0.294 OA
BRANCH  11  13
ATOM     13  C   UNL     1      -6.982 -22.115 -17.619  1.00  0.00    -0.002 C 
ATOM     14  C   UNL     1      -6.364 -21.041 -18.196  1.00  0.00    -0.069 C 
ATOM     15  C   UNL     1      -7.079 -20.134 -19.173  1.00  0.00     0.039 C 
ATOM     16  C   UNL     1      -4.923 -20.703 -17.881  1.00  0.00     0.039 C 
BRANCH  13  17
ATOM     17  C   UNL     1      -8.409 -22.505 -17.971  1.00  0.00     0.066 CG0
ATOM     18  G   UNL     1      -9.098 -23.248 -16.842  1.00  0.00     0.000 G0
ENDBRANCH  13  17
ENDBRANCH  11  13
ENDBRANCH  10  11
ENDBRANCH   1  10
TORSDOF 0
ENDMDL
MODEL 5
REMARK VINA RESULT:    -3.880      2.237      4.309
REMARK INTER + INTRA:          -5.223
REMARK INTER:                  -5.519
REMARK INTRA:                   0.296
REMARK UNBOUND:                 0.244
REMARK SMILES CC1=CCC(=C(C)C)C(=O)CC(C)=CCC1
REMARK SMILES IDX 12 1 14 2 13 3 15 4 16 5 2 6 1 7 3 8 11 10 9 11 10 12 5 13
REMARK SMILES IDX 6 14 7 15 8 16 4 17
REMARK H PARENT
REMARK Flexibility Score: 60.00
ROOT
ATOM      1  C   UNL     1      -5.525 -22.886 -16.474  1.00  0.00    -0.070 C 
ATOM      2  C   UNL     1      -6.691 -22.210 -16.587  1.00  0.00    -0.027 C 
ATOM      3  C   UNL     1      -4.242 -22.108 -16.616  1.00  0.00     0.039 C 
ENDROOT
BRANCH   2   4
ATOM      4  C   UNL     1      -8.073 -22.824 -16.571  1.00  0.00     0.032 C 
BRANCH   4   5
ATOM      5  C   UNL     1      -8.419 -23.673 -17.811  1.00  0.00     0.034 C 
BRANCH   5   6
ATOM      6  C   UNL     1      -8.885 -25.075 -17.464  1.00  0.00    -0.077 C 
ATOM      7  C   UNL     1     -10.092 -25.212 -16.570  1.00  0.00     0.039 C 
ATOM      8  C   UNL     1      -8.248 -26.210 -17.847  1.00  0.00    -0.023 CG0
ATOM      9  G   UNL     1      -7.037 -26.316 -18.753  1.00  0.00     0.000 G0
ENDBRANCH   5   6
ENDBRANCH   4   5
ENDBRANCH   2   4
BRANCH   1  10
ATOM     10  C   UNL     1      -5.450 -24.390 -16.305  1.00  0.00     0.111 C 
BRANCH  10  11
ATOM     11  C   UNL     1      -5.113 -25.077 -17.602  1.00  0.00     0.163 C 
ATOM     12  O   UNL     1      -4.330 -24.493 -18.399  1.00  0.00    -0.294 OA
BRANCH  11  13
ATOM     13  C   UNL     1      -5.719 -26.384 -17.997  1.00  0.00    -0.002 C 
ATOM     14  C   UNL     1      -5.066 -27.560 -17.751  1.00  0.00    -0.069 C 
ATOM     15  C   UNL     1      -5.575 -28.884 -18.277  1.00  0.00     0.039 C 
ATOM     16  C   UNL     1      -3.792 -27.594 -16.936  1.00  0.00     0.039 C 
BRANCH  13  17
ATOM     17  C   UNL     1      -7.032 -26.338 -18.761  1.00  0.00     0.066 CG0
ATOM     18  G   UNL     1      -8.231 -26.221 -17.840  1.00  0.00     0.000 G0
ENDBRANCH  13  17
ENDBRANCH  11  13
ENDBRANCH  10  11
ENDBRANCH   1  10
TORSDOF 0
ENDMDL
MODEL 6
REMARK VINA RESULT:    -3.796      2.418      5.694
REMARK INTER + INTRA:          -5.105
REMARK INTER:                  -5.677
REMARK INTRA:                   0.572
REMARK UNBOUND:                 0.244
REMARK SMILES CC1=CCC(=C(C)C)C(=O)CC(C)=CCC1
REMARK SMILES IDX 12 1 14 2 13 3 15 4 16 5 2 6 1 7 3 8 11 10 9 11 10 12 5 13
REMARK SMILES IDX 6 14 7 15 8 16 4 17
REMARK H PARENT
REMARK Flexibility Score: 60.00
ROOT
ATOM      1  C   UNL     1      -4.270 -23.759 -16.515  1.00  0.00    -0.070 C 
ATOM      2  C   UNL     1      -3.472 -24.709 -17.052  1.00  0.00    -0.027 C 
ATOM      3  C   UNL     1      -3.767 -22.338 -16.504  1.00  0.00     0.039 C 
ENDROOT
BRANCH   2   4
ATOM      4  C   UNL     1      -3.755 -26.194 -17.069  1.00  0.00     0.032 C 
BRANCH   4   5
ATOM      5  C   UNL     1      -4.234 -26.747 -18.427  1.00  0.00     0.034 C 
BRANCH   5   6
ATOM      6  C   UNL     1      -5.595 -27.415 -18.353  1.00  0.00    -0.077 C 
ATOM      7  C   UNL     1      -5.633 -28.912 -18.173  1.00  0.00     0.039 C 
ATOM      8  C   UNL     1      -6.775 -26.765 -18.507  1.00  0.00    -0.023 CG0
ATOM      9  G   UNL     1      -6.981 -25.273 -18.680  1.00  0.00     0.000 G0
ENDBRANCH   5   6
ENDBRANCH   4   5
ENDBRANCH   2   4
BRANCH   1  10
ATOM     10  C   UNL     1      -5.594 -24.067 -15.847  1.00  0.00     0.111 C 
BRANCH  10  11
ATOM     11  C   UNL     1      -6.760 -23.641 -16.700  1.00  0.00     0.163 C 
ATOM     12  O   UNL     1      -7.056 -22.417 -16.732  1.00  0.00    -0.294 OA
BRANCH  11  13
ATOM     13  C   UNL     1      -7.603 -24.619 -17.450  1.00  0.00    -0.002 C 
ATOM     14  C   UNL     1      -8.840 -24.975 -16.988  1.00  0.00    -0.069 C 
ATOM     15  C   UNL     1      -9.650 -26.076 -17.635  1.00  0.00     0.039 C 
ATOM     16  C   UNL     1      -9.461 -24.280 -15.796  1.00  0.00     0.039 C 
BRANCH  13  17
ATOM     17  C   UNL     1      -6.990 -25.264 -18.683  1.00  0.00     0.066 CG0
ATOM     18  G   UNL     1      -6.772 -26.754 -18.506  1.00  0.00     0.000 G0
ENDBRANCH  13  17
ENDBRANCH  11  13
ENDBRANCH  10  11
ENDBRANCH   1  10
TORSDOF 0
ENDMDL
MODEL 7
REMARK VINA RESULT:    -3.769      4.308      6.643
REMARK INTER + INTRA:          -5.067
REMARK INTER:                  -5.736
REMARK INTRA:                   0.669
REMARK UNBOUND:                 0.244
REMARK SMILES CC1=CCC(=C(C)C)C(=O)CC(C)=CCC1
REMARK SMILES IDX 12 1 14 2 13 3 15 4 16 5 2 6 1 7 3 8 11 10 9 11 10 12 5 13
REMARK SMILES IDX 6 14 7 15 8 16 4 17
REMARK H PARENT
REMARK Flexibility Score: 60.00
ROOT
ATOM      1  C   UNL     1      -6.223 -20.655 -18.905  1.00  0.00    -0.070 C 
ATOM      2  C   UNL     1      -5.030 -20.266 -18.401  1.00  0.00    -0.027 C 
ATOM      3  C   UNL     1      -7.419 -19.772 -18.648  1.00  0.00     0.039 C 
ENDROOT
BRANCH   2   4
ATOM      4  C   UNL     1      -3.743 -21.058 -18.468  1.00  0.00     0.032 C 
BRANCH   4   5
ATOM      5  C   UNL     1      -3.226 -21.570 -17.108  1.00  0.00     0.034 C 
BRANCH   5   6
ATOM      6  C   UNL     1      -3.437 -23.060 -16.912  1.00  0.00    -0.077 C 
ATOM      7  C   UNL     1      -2.281 -23.979 -17.221  1.00  0.00     0.039 C 
ATOM      8  C   UNL     1      -4.614 -23.625 -16.544  1.00  0.00    -0.023 CG0
ATOM      9  G   UNL     1      -5.894 -22.904 -16.168  1.00  0.00     0.000 G0
ENDBRANCH   5   6
ENDBRANCH   4   5
ENDBRANCH   2   4
BRANCH   1  10
ATOM     10  C   UNL     1      -6.431 -21.969 -19.630  1.00  0.00     0.111 C 
BRANCH  10  11
ATOM     11  C   UNL     1      -6.454 -23.132 -18.674  1.00  0.00     0.163 C 
ATOM     12  O   UNL     1      -6.089 -24.260 -19.102  1.00  0.00    -0.294 OA
BRANCH  11  13
ATOM     13  C   UNL     1      -6.951 -23.007 -17.271  1.00  0.00    -0.002 C 
ATOM     14  C   UNL     1      -8.288 -22.897 -17.010  1.00  0.00    -0.069 C 
ATOM     15  C   UNL     1      -8.812 -22.610 -15.620  1.00  0.00     0.039 C 
ATOM     16  C   UNL     1      -9.317 -23.056 -18.108  1.00  0.00     0.039 C 
BRANCH  13  17
ATOM     17  C   UNL     1      -5.907 -22.911 -16.170  1.00  0.00     0.066 CG0
ATOM     18  G   UNL     1      -4.612 -23.607 -16.542  1.00  0.00     0.000 G0
ENDBRANCH  13  17
ENDBRANCH  11  13
ENDBRANCH  10  11
ENDBRANCH   1  10
TORSDOF 0
ENDMDL
MODEL 8
REMARK VINA RESULT:    -3.741      2.131      2.997
REMARK INTER + INTRA:          -5.028
REMARK INTER:                  -5.186
REMARK INTRA:                   0.158
REMARK UNBOUND:                 0.244
REMARK SMILES CC1=CCC(=C(C)C)C(=O)CC(C)=CCC1
REMARK SMILES IDX 12 1 14 2 13 3 15 4 16 5 2 6 1 7 3 8 11 10 9 11 10 12 5 13
REMARK SMILES IDX 6 14 7 15 8 16 4 17
REMARK H PARENT
REMARK Flexibility Score: 60.00
ROOT
ATOM      1  C   UNL     1      -7.022 -27.270 -18.728  1.00  0.00    -0.070 C 
ATOM      2  C   UNL     1      -8.269 -26.932 -18.328  1.00  0.00    -0.027 C 
ATOM      3  C   UNL     1      -6.712 -28.734 -18.910  1.00  0.00     0.039 C 
ENDROOT
BRANCH   2   4
ATOM      4  C   UNL     1      -8.743 -25.534 -17.998  1.00  0.00     0.032 C 
BRANCH   4   5
ATOM      5  C   UNL     1      -8.294 -25.006 -16.620  1.00  0.00     0.034 C 
BRANCH   5   6
ATOM      6  C   UNL     1      -7.646 -23.636 -16.689  1.00  0.00    -0.077 C 
ATOM      7  C   UNL     1      -8.500 -22.477 -17.138  1.00  0.00     0.039 C 
ATOM      8  C   UNL     1      -6.334 -23.397 -16.441  1.00  0.00    -0.023 CG0
ATOM      9  G   UNL     1      -5.298 -24.396 -15.962  1.00  0.00     0.000 G0
ENDBRANCH   5   6
ENDBRANCH   4   5
ENDBRANCH   2   4
BRANCH   1  10
ATOM     10  C   UNL     1      -5.906 -26.261 -18.908  1.00  0.00     0.111 C 
BRANCH  10  11
ATOM     11  C   UNL     1      -4.975 -26.245 -17.724  1.00  0.00     0.163 C 
ATOM     12  O   UNL     1      -4.659 -27.348 -17.203  1.00  0.00    -0.294 OA
BRANCH  11  13
ATOM     13  C   UNL     1      -4.472 -24.977 -17.118  1.00  0.00    -0.002 C 
ATOM     14  C   UNL     1      -3.293 -24.423 -17.533  1.00  0.00    -0.069 C 
ATOM     15  C   UNL     1      -2.679 -23.230 -16.834  1.00  0.00     0.039 C 
ATOM     16  C   UNL     1      -2.540 -24.981 -18.720  1.00  0.00     0.039 C 
BRANCH  13  17
ATOM     17  C   UNL     1      -5.274 -24.391 -15.966  1.00  0.00     0.066 CG0
ATOM     18  G   UNL     1      -6.326 -23.407 -16.438  1.00  0.00     0.000 G0
ENDBRANCH  13  17
ENDBRANCH  11  13
ENDBRANCH  10  11
ENDBRANCH   1  10
TORSDOF 0
ENDMDL
MODEL 9
REMARK VINA RESULT:    -3.739      3.591      5.640
REMARK INTER + INTRA:          -5.025
REMARK INTER:                  -5.259
REMARK INTRA:                   0.234
REMARK UNBOUND:                 0.244
REMARK SMILES CC1=CCC(=C(C)C)C(=O)CC(C)=CCC1
REMARK SMILES IDX 12 1 14 2 13 3 15 4 16 5 2 6 1 7 3 8 11 10 9 11 10 12 5 13
REMARK SMILES IDX 6 14 7 15 8 16 4 17
REMARK H PARENT
REMARK Flexibility Score: 60.00
ROOT
ATOM      1  C   UNL     1      -7.771 -24.985 -17.877  1.00  0.00    -0.070 C 
ATOM      2  C   UNL     1      -7.052 -26.114 -17.693  1.00  0.00    -0.027 C 
ATOM      3  C   UNL     1      -9.246 -25.029 -17.568  1.00  0.00     0.039 C 
ENDROOT
BRANCH   2   4
ATOM      4  C   UNL     1      -5.590 -26.297 -18.035  1.00  0.00     0.032 C 
BRANCH   4   5
ATOM      5  C   UNL     1      -4.605 -25.761 -16.976  1.00  0.00     0.034 C 
BRANCH   5   6
ATOM      6  C   UNL     1      -3.580 -24.799 -17.548  1.00  0.00    -0.077 C 
ATOM      7  C   UNL     1      -2.493 -25.370 -18.424  1.00  0.00     0.039 C 
ATOM      8  C   UNL     1      -3.536 -23.473 -17.267  1.00  0.00    -0.023 CG0
ATOM      9  G   UNL     1      -4.525 -22.683 -16.433  1.00  0.00     0.000 G0
ENDBRANCH   5   6
ENDBRANCH   4   5
ENDBRANCH   2   4
BRANCH   1  10
ATOM     10  C   UNL     1      -7.188 -23.715 -18.463  1.00  0.00     0.111 C 
BRANCH  10  11
ATOM     11  C   UNL     1      -6.903 -22.691 -17.396  1.00  0.00     0.163 C 
ATOM     12  O   UNL     1      -7.835 -22.380 -16.607  1.00  0.00    -0.294 OA
BRANCH  11  13
ATOM     13  C   UNL     1      -5.586 -21.995 -17.285  1.00  0.00    -0.002 C 
ATOM     14  C   UNL     1      -5.337 -20.853 -17.994  1.00  0.00    -0.069 C 
ATOM     15  C   UNL     1      -3.966 -20.214 -18.028  1.00  0.00     0.039 C 
ATOM     16  C   UNL     1      -6.428 -20.169 -18.788  1.00  0.00     0.039 C 
BRANCH  13  17
ATOM     17  C   UNL     1      -4.517 -22.662 -16.433  1.00  0.00     0.066 CG0
ATOM     18  G   UNL     1      -3.542 -23.473 -17.264  1.00  0.00     0.000 G0
ENDBRANCH  13  17
ENDBRANCH  11  13
ENDBRANCH  10  11
ENDBRANCH   1  10
TORSDOF 0
ENDMDL
