MODEL 1
REMARK VINA RESULT:    -5.672      0.000      0.000
REMARK INTER + INTRA:          -7.092
REMARK INTER:                  -6.832
REMARK INTRA:                  -0.260
REMARK UNBOUND:                -0.260
REMARK SMILES O=c1c(O)c(-c2ccc(O)c(O)c2)oc2cc(O)cc(O)c12
REMARK SMILES IDX 5 1 3 2 2 3 1 4 22 5 20 6 19 7 17 8 16 9 15 10 14 11 6 12
REMARK SMILES IDX 7 13 8 14 9 15 13 16 11 17 10 18 12 20 4 22 21 24 18 26
REMARK H PARENT 10 19 12 21 4 23 21 25 18 27
REMARK Flexibility Score: inf
ROOT
ATOM      1  C   UNL     1      33.186 -37.940   9.721  1.00  0.00     0.180 A 
ATOM      2  C   UNL     1      31.832 -37.565   9.716  1.00  0.00     0.208 A 
ATOM      3  C   UNL     1      31.229 -37.207   8.499  1.00  0.00     0.238 A 
ATOM      4  O   UNL     1      30.002 -36.925   8.492  1.00  0.00    -0.285 OA
ATOM      5  C   UNL     1      31.991 -37.213   7.306  1.00  0.00     0.111 A 
ATOM      6  C   UNL     1      31.493 -36.831   6.024  1.00  0.00     0.134 A 
ATOM      7  C   UNL     1      32.300 -37.001   4.891  1.00  0.00     0.093 A 
ATOM      8  C   UNL     1      33.606 -37.476   5.002  1.00  0.00     0.123 A 
ATOM      9  C   UNL     1      34.123 -37.797   6.258  1.00  0.00     0.094 A 
ATOM     10  C   UNL     1      33.331 -37.673   7.402  1.00  0.00     0.146 A 
ATOM     11  O   UNL     1      33.857 -37.999   8.577  1.00  0.00    -0.452 OA
ENDROOT
BRANCH   1  12
ATOM     12  C   UNL     1      33.898 -38.305  10.967  1.00  0.00     0.025 A 
ATOM     13  C   UNL     1      34.176 -39.646  11.285  1.00  0.00     0.016 A 
ATOM     14  C   UNL     1      34.827 -39.969  12.477  1.00  0.00     0.051 A 
ATOM     15  C   UNL     1      35.197 -38.964  13.376  1.00  0.00     0.157 A 
ATOM     16  C   UNL     1      34.253 -37.299  11.881  1.00  0.00     0.062 A 
ATOM     17  C   UNL     1      34.908 -37.623  13.079  1.00  0.00     0.158 A 
BRANCH  15  18
ATOM     18  O   UNL     1      35.849 -39.318  14.558  1.00  0.00    -0.504 OA
ATOM     19  H   UNL     1      36.688 -39.886  14.560  1.00  0.00     0.293 HD
ENDBRANCH  15  18
BRANCH  17  20
ATOM     20  O   UNL     1      35.267 -36.615  13.974  1.00  0.00    -0.504 OA
ATOM     21  H   UNL     1      35.263 -35.639  13.704  1.00  0.00     0.293 HD
ENDBRANCH  17  20
ENDBRANCH   1  12
BRANCH   2  22
ATOM     22  O   UNL     1      31.091 -37.587  10.901  1.00  0.00    -0.502 OA
ATOM     23  H   UNL     1      31.125 -36.835  11.578  1.00  0.00     0.293 HD
ENDBRANCH   2  22
BRANCH   6  24
ATOM     24  O   UNL     1      30.236 -36.259   5.815  1.00  0.00    -0.507 OA
ATOM     25  H   UNL     1      29.951 -35.354   6.157  1.00  0.00     0.293 HD
ENDBRANCH   6  24
BRANCH   8  26
ATOM     26  O   UNL     1      34.385 -37.618   3.856  1.00  0.00    -0.508 OA
ATOM     27  H   UNL     1      35.182 -37.019   3.680  1.00  0.00     0.293 HD
ENDBRANCH   8  26
TORSDOF 6
ENDMDL
MODEL 2
REMARK VINA RESULT:    -5.383     10.164     13.855
REMARK INTER + INTRA:          -6.744
REMARK INTER:                  -6.445
REMARK INTRA:                  -0.299
REMARK UNBOUND:                -0.260
REMARK SMILES O=c1c(O)c(-c2ccc(O)c(O)c2)oc2cc(O)cc(O)c12
REMARK SMILES IDX 5 1 3 2 2 3 1 4 22 5 20 6 19 7 17 8 16 9 15 10 14 11 6 12
REMARK SMILES IDX 7 13 8 14 9 15 13 16 11 17 10 18 12 20 4 22 21 24 18 26
REMARK H PARENT 10 19 12 21 4 23 21 25 18 27
REMARK Flexibility Score: inf
ROOT
ATOM      1  C   UNL     1      36.722 -39.689  -2.761  1.00  0.00     0.180 A 
ATOM      2  C   UNL     1      37.662 -39.164  -3.665  1.00  0.00     0.208 A 
ATOM      3  C   UNL     1      38.566 -38.188  -3.216  1.00  0.00     0.238 A 
ATOM      4  O   UNL     1      39.441 -37.761  -4.015  1.00  0.00    -0.285 OA
ATOM      5  C   UNL     1      38.509 -37.737  -1.876  1.00  0.00     0.111 A 
ATOM      6  C   UNL     1      39.350 -36.723  -1.324  1.00  0.00     0.134 A 
ATOM      7  C   UNL     1      39.292 -36.450   0.048  1.00  0.00     0.093 A 
ATOM      8  C   UNL     1      38.382 -37.105   0.875  1.00  0.00     0.123 A 
ATOM      9  C   UNL     1      37.514 -38.055   0.336  1.00  0.00     0.094 A 
ATOM     10  C   UNL     1      37.572 -38.377  -1.022  1.00  0.00     0.146 A 
ATOM     11  O   UNL     1      36.736 -39.294  -1.494  1.00  0.00    -0.452 OA
ENDROOT
BRANCH   1  12
ATOM     12  C   UNL     1      35.721 -40.702  -3.166  1.00  0.00     0.025 A 
ATOM     13  C   UNL     1      36.052 -42.066  -3.250  1.00  0.00     0.016 A 
ATOM     14  C   UNL     1      35.098 -43.001  -3.657  1.00  0.00     0.051 A 
ATOM     15  C   UNL     1      33.806 -42.591  -3.999  1.00  0.00     0.157 A 
ATOM     16  C   UNL     1      34.429 -40.290  -3.530  1.00  0.00     0.062 A 
ATOM     17  C   UNL     1      33.469 -41.229  -3.938  1.00  0.00     0.158 A 
BRANCH  15  18
ATOM     18  O   UNL     1      32.874 -43.548  -4.400  1.00  0.00    -0.504 OA
ATOM     19  H   UNL     1      32.962 -44.524  -4.141  1.00  0.00     0.293 HD
ENDBRANCH  15  18
BRANCH  17  20
ATOM     20  O   UNL     1      32.185 -40.810  -4.285  1.00  0.00    -0.504 OA
ATOM     21  H   UNL     1      31.383 -41.422  -4.191  1.00  0.00     0.293 HD
ENDBRANCH  17  20
ENDBRANCH   1  12
BRANCH   2  22
ATOM     22  O   UNL     1      37.717 -39.639  -4.978  1.00  0.00    -0.502 OA
ATOM     23  H   UNL     1      38.245 -39.171  -5.704  1.00  0.00     0.293 HD
ENDBRANCH   2  22
BRANCH   6  24
ATOM     24  O   UNL     1      40.230 -35.944  -2.081  1.00  0.00    -0.507 OA
ATOM     25  H   UNL     1      41.220 -36.112  -2.164  1.00  0.00     0.293 HD
ENDBRANCH   6  24
BRANCH   8  26
ATOM     26  O   UNL     1      38.342 -36.796   2.234  1.00  0.00    -0.508 OA
ATOM     27  H   UNL     1      38.043 -35.886   2.562  1.00  0.00     0.293 HD
ENDBRANCH   8  26
TORSDOF 6
ENDMDL
MODEL 3
REMARK VINA RESULT:    -5.337      1.746      6.953
REMARK INTER + INTRA:          -6.688
REMARK INTER:                  -6.862
REMARK INTRA:                   0.174
REMARK UNBOUND:                -0.260
REMARK SMILES O=c1c(O)c(-c2ccc(O)c(O)c2)oc2cc(O)cc(O)c12
REMARK SMILES IDX 5 1 3 2 2 3 1 4 22 5 20 6 19 7 17 8 16 9 15 10 14 11 6 12
REMARK SMILES IDX 7 13 8 14 9 15 13 16 11 17 10 18 12 20 4 22 21 24 18 26
REMARK H PARENT 10 19 12 21 4 23 21 25 18 27
REMARK Flexibility Score: inf
ROOT
ATOM      1  C   UNL     1      33.181 -36.695   6.652  1.00  0.00     0.180 A 
ATOM      2  C   UNL     1      31.796 -36.493   6.777  1.00  0.00     0.208 A 
ATOM      3  C   UNL     1      31.215 -36.529   8.055  1.00  0.00     0.238 A 
ATOM      4  O   UNL     1      29.983 -36.294   8.165  1.00  0.00    -0.285 OA
ATOM      5  C   UNL     1      32.022 -36.782   9.189  1.00  0.00     0.111 A 
ATOM      6  C   UNL     1      31.534 -36.881  10.527  1.00  0.00     0.134 A 
ATOM      7  C   UNL     1      32.442 -37.004  11.587  1.00  0.00     0.093 A 
ATOM      8  C   UNL     1      33.813 -37.098  11.353  1.00  0.00     0.123 A 
ATOM      9  C   UNL     1      34.297 -37.062  10.045  1.00  0.00     0.094 A 
ATOM     10  C   UNL     1      33.420 -36.903   8.969  1.00  0.00     0.146 A 
ATOM     11  O   UNL     1      33.922 -36.864   7.741  1.00  0.00    -0.452 OA
ENDROOT
BRANCH   1  12
ATOM     12  C   UNL     1      33.862 -36.696   5.337  1.00  0.00     0.025 A 
ATOM     13  C   UNL     1      35.100 -36.055   5.153  1.00  0.00     0.016 A 
ATOM     14  C   UNL     1      35.712 -36.048   3.898  1.00  0.00     0.051 A 
ATOM     15  C   UNL     1      35.095 -36.666   2.806  1.00  0.00     0.157 A 
ATOM     16  C   UNL     1      33.235 -37.298   4.235  1.00  0.00     0.062 A 
ATOM     17  C   UNL     1      33.849 -37.293   2.973  1.00  0.00     0.158 A 
BRANCH  15  18
ATOM     18  O   UNL     1      35.732 -36.645   1.566  1.00  0.00    -0.504 OA
ATOM     19  H   UNL     1      35.233 -36.821   0.702  1.00  0.00     0.293 HD
ENDBRANCH  15  18
BRANCH  17  20
ATOM     20  O   UNL     1      33.224 -37.905   1.888  1.00  0.00    -0.504 OA
ATOM     21  H   UNL     1      32.340 -37.568   1.524  1.00  0.00     0.293 HD
ENDBRANCH  17  20
ENDBRANCH   1  12
BRANCH   2  22
ATOM     22  O   UNL     1      31.019 -36.223   5.647  1.00  0.00    -0.502 OA
ATOM     23  H   UNL     1      31.349 -36.398   4.706  1.00  0.00     0.293 HD
ENDBRANCH   2  22
BRANCH   6  24
ATOM     24  O   UNL     1      30.177 -36.891  10.863  1.00  0.00    -0.507 OA
ATOM     25  H   UNL     1      29.621 -36.068  11.037  1.00  0.00     0.293 HD
ENDBRANCH   6  24
BRANCH   8  26
ATOM     26  O   UNL     1      34.686 -37.235  12.430  1.00  0.00    -0.508 OA
ATOM     27  H   UNL     1      35.077 -36.429  12.902  1.00  0.00     0.293 HD
ENDBRANCH   8  26
TORSDOF 6
ENDMDL
MODEL 4
REMARK VINA RESULT:    -5.189      1.168      2.938
REMARK INTER + INTRA:          -6.511
REMARK INTER:                  -6.208
REMARK INTRA:                  -0.302
REMARK UNBOUND:                -0.260
REMARK SMILES O=c1c(O)c(-c2ccc(O)c(O)c2)oc2cc(O)cc(O)c12
REMARK SMILES IDX 5 1 3 2 2 3 1 4 22 5 20 6 19 7 17 8 16 9 15 10 14 11 6 12
REMARK SMILES IDX 7 13 8 14 9 15 13 16 11 17 10 18 12 20 4 22 21 24 18 26
REMARK H PARENT 10 19 12 21 4 23 21 25 18 27
REMARK Flexibility Score: inf
ROOT
ATOM      1  C   UNL     1      34.300 -38.386   9.202  1.00  0.00     0.180 A 
ATOM      2  C   UNL     1      35.322 -38.499   8.244  1.00  0.00     0.208 A 
ATOM      3  C   UNL     1      35.041 -38.179   6.906  1.00  0.00     0.238 A 
ATOM      4  O   UNL     1      35.975 -38.230   6.063  1.00  0.00    -0.285 OA
ATOM      5  C   UNL     1      33.738 -37.765   6.539  1.00  0.00     0.111 A 
ATOM      6  C   UNL     1      33.331 -37.455   5.207  1.00  0.00     0.134 A 
ATOM      7  C   UNL     1      32.052 -36.931   4.980  1.00  0.00     0.093 A 
ATOM      8  C   UNL     1      31.145 -36.768   6.026  1.00  0.00     0.123 A 
ATOM      9  C   UNL     1      31.511 -37.124   7.324  1.00  0.00     0.094 A 
ATOM     10  C   UNL     1      32.793 -37.615   7.588  1.00  0.00     0.146 A 
ATOM     11  O   UNL     1      33.106 -37.932   8.839  1.00  0.00    -0.452 OA
ENDROOT
BRANCH   1  12
ATOM     12  C   UNL     1      34.513 -38.729  10.626  1.00  0.00     0.025 A 
ATOM     13  C   UNL     1      34.515 -40.064  11.065  1.00  0.00     0.016 A 
ATOM     14  C   UNL     1      34.694 -40.364  12.417  1.00  0.00     0.051 A 
ATOM     15  C   UNL     1      34.859 -39.338  13.353  1.00  0.00     0.157 A 
ATOM     16  C   UNL     1      34.658 -37.700  11.571  1.00  0.00     0.062 A 
ATOM     17  C   UNL     1      34.839 -37.999  12.930  1.00  0.00     0.158 A 
BRANCH  15  18
ATOM     18  O   UNL     1      35.038 -39.668  14.697  1.00  0.00    -0.504 OA
ATOM     19  H   UNL     1      34.424 -39.318  15.423  1.00  0.00     0.293 HD
ENDBRANCH  15  18
BRANCH  17  20
ATOM     20  O   UNL     1      34.995 -36.970  13.858  1.00  0.00    -0.504 OA
ATOM     21  H   UNL     1      34.204 -36.577  14.353  1.00  0.00     0.293 HD
ENDBRANCH  17  20
ENDBRANCH   1  12
BRANCH   2  22
ATOM     22  O   UNL     1      36.608 -38.887   8.630  1.00  0.00    -0.502 OA
ATOM     23  H   UNL     1      37.009 -39.780   8.369  1.00  0.00     0.293 HD
ENDBRANCH   2  22
BRANCH   6  24
ATOM     24  O   UNL     1      34.128 -37.667   4.078  1.00  0.00    -0.507 OA
ATOM     25  H   UNL     1      35.015 -38.145   4.083  1.00  0.00     0.293 HD
ENDBRANCH   6  24
BRANCH   8  26
ATOM     26  O   UNL     1      29.875 -36.258   5.761  1.00  0.00    -0.508 OA
ATOM     27  H   UNL     1      29.737 -35.481   5.126  1.00  0.00     0.293 HD
ENDBRANCH   8  26
TORSDOF 6
ENDMDL
MODEL 5
REMARK VINA RESULT:    -5.145     11.514     14.430
REMARK INTER + INTRA:          -6.457
REMARK INTER:                  -6.255
REMARK INTRA:                  -0.202
REMARK UNBOUND:                -0.260
REMARK SMILES O=c1c(O)c(-c2ccc(O)c(O)c2)oc2cc(O)cc(O)c12
REMARK SMILES IDX 5 1 3 2 2 3 1 4 22 5 20 6 19 7 17 8 16 9 15 10 14 11 6 12
REMARK SMILES IDX 7 13 8 14 9 15 13 16 11 17 10 18 12 20 4 22 21 24 18 26
REMARK H PARENT 10 19 12 21 4 23 21 25 18 27
REMARK Flexibility Score: inf
ROOT
ATOM      1  C   UNL     1      37.181 -40.088  -3.014  1.00  0.00     0.180 A 
ATOM      2  C   UNL     1      37.921 -41.073  -3.690  1.00  0.00     0.208 A 
ATOM      3  C   UNL     1      39.256 -40.807  -4.034  1.00  0.00     0.238 A 
ATOM      4  O   UNL     1      39.930 -41.713  -4.591  1.00  0.00    -0.285 OA
ATOM      5  C   UNL     1      39.829 -39.553  -3.713  1.00  0.00     0.111 A 
ATOM      6  C   UNL     1      41.160 -39.160  -4.049  1.00  0.00     0.134 A 
ATOM      7  C   UNL     1      41.664 -37.946  -3.566  1.00  0.00     0.093 A 
ATOM      8  C   UNL     1      40.867 -37.082  -2.816  1.00  0.00     0.123 A 
ATOM      9  C   UNL     1      39.546 -37.429  -2.532  1.00  0.00     0.094 A 
ATOM     10  C   UNL     1      39.025 -38.650  -2.968  1.00  0.00     0.146 A 
ATOM     11  O   UNL     1      37.767 -38.948  -2.668  1.00  0.00    -0.452 OA
ENDROOT
BRANCH   1  12
ATOM     12  C   UNL     1      35.762 -40.286  -2.640  1.00  0.00     0.025 A 
ATOM     13  C   UNL     1      35.375 -40.453  -1.299  1.00  0.00     0.016 A 
ATOM     14  C   UNL     1      34.034 -40.663  -0.971  1.00  0.00     0.051 A 
ATOM     15  C   UNL     1      33.062 -40.722  -1.974  1.00  0.00     0.157 A 
ATOM     16  C   UNL     1      34.787 -40.366  -3.647  1.00  0.00     0.062 A 
ATOM     17  C   UNL     1      33.438 -40.576  -3.319  1.00  0.00     0.158 A 
BRANCH  15  18
ATOM     18  O   UNL     1      31.730 -40.930  -1.616  1.00  0.00    -0.504 OA
ATOM     19  H   UNL     1      31.426 -41.770  -1.138  1.00  0.00     0.293 HD
ENDBRANCH  15  18
BRANCH  17  20
ATOM     20  O   UNL     1      32.476 -40.642  -4.326  1.00  0.00    -0.504 OA
ATOM     21  H   UNL     1      32.068 -41.523  -4.614  1.00  0.00     0.293 HD
ENDBRANCH  17  20
ENDBRANCH   1  12
BRANCH   2  22
ATOM     22  O   UNL     1      37.343 -42.313  -3.978  1.00  0.00    -0.502 OA
ATOM     23  H   UNL     1      37.603 -42.859  -4.790  1.00  0.00     0.293 HD
ENDBRANCH   2  22
BRANCH   6  24
ATOM     24  O   UNL     1      42.010 -39.907  -4.870  1.00  0.00    -0.507 OA
ATOM     25  H   UNL     1      41.718 -40.412  -5.692  1.00  0.00     0.293 HD
ENDBRANCH   6  24
BRANCH   8  26
ATOM     26  O   UNL     1      41.397 -35.875  -2.365  1.00  0.00    -0.508 OA
ATOM     27  H   UNL     1      42.325 -35.821  -1.963  1.00  0.00     0.293 HD
ENDBRANCH   8  26
TORSDOF 6
ENDMDL
MODEL 6
REMARK VINA RESULT:    -5.045      1.859      2.458
REMARK INTER + INTRA:          -6.337
REMARK INTER:                  -6.014
REMARK INTRA:                  -0.324
REMARK UNBOUND:                -0.260
REMARK SMILES O=c1c(O)c(-c2ccc(O)c(O)c2)oc2cc(O)cc(O)c12
REMARK SMILES IDX 5 1 3 2 2 3 1 4 22 5 20 6 19 7 17 8 16 9 15 10 14 11 6 12
REMARK SMILES IDX 7 13 8 14 9 15 13 16 11 17 10 18 12 20 4 22 21 24 18 26
REMARK H PARENT 10 19 12 21 4 23 21 25 18 27
REMARK Flexibility Score: inf
ROOT
ATOM      1  C   UNL     1      34.285 -37.869   9.387  1.00  0.00     0.180 A 
ATOM      2  C   UNL     1      33.387 -36.985   8.764  1.00  0.00     0.208 A 
ATOM      3  C   UNL     1      33.587 -36.648   7.416  1.00  0.00     0.238 A 
ATOM      4  O   UNL     1      32.749 -35.899   6.849  1.00  0.00    -0.285 OA
ATOM      5  C   UNL     1      34.691 -37.186   6.712  1.00  0.00     0.111 A 
ATOM      6  C   UNL     1      35.013 -36.882   5.355  1.00  0.00     0.134 A 
ATOM      7  C   UNL     1      36.053 -37.573   4.720  1.00  0.00     0.093 A 
ATOM      8  C   UNL     1      36.823 -38.507   5.411  1.00  0.00     0.123 A 
ATOM      9  C   UNL     1      36.555 -38.770   6.755  1.00  0.00     0.094 A 
ATOM     10  C   UNL     1      35.501 -38.123   7.405  1.00  0.00     0.146 A 
ATOM     11  O   UNL     1      35.272 -38.408   8.682  1.00  0.00    -0.452 OA
ENDROOT
BRANCH   1  12
ATOM     12  C   UNL     1      34.154 -38.252  10.811  1.00  0.00     0.025 A 
ATOM     13  C   UNL     1      33.384 -39.361  11.203  1.00  0.00     0.016 A 
ATOM     14  C   UNL     1      33.254 -39.689  12.554  1.00  0.00     0.051 A 
ATOM     15  C   UNL     1      33.878 -38.911  13.534  1.00  0.00     0.157 A 
ATOM     16  C   UNL     1      34.762 -37.460  11.799  1.00  0.00     0.062 A 
ATOM     17  C   UNL     1      34.634 -37.790  13.157  1.00  0.00     0.158 A 
BRANCH  15  18
ATOM     18  O   UNL     1      33.733 -39.266  14.876  1.00  0.00    -0.504 OA
ATOM     19  H   UNL     1      33.707 -38.573  15.615  1.00  0.00     0.293 HD
ENDBRANCH  15  18
BRANCH  17  20
ATOM     20  O   UNL     1      35.253 -37.004  14.128  1.00  0.00    -0.504 OA
ATOM     21  H   UNL     1      35.033 -36.021  14.237  1.00  0.00     0.293 HD
ENDBRANCH  17  20
ENDBRANCH   1  12
BRANCH   2  22
ATOM     22  O   UNL     1      32.290 -36.482   9.471  1.00  0.00    -0.502 OA
ATOM     23  H   UNL     1      32.255 -36.469  10.483  1.00  0.00     0.293 HD
ENDBRANCH   2  22
BRANCH   6  24
ATOM     24  O   UNL     1      34.366 -35.898   4.601  1.00  0.00    -0.507 OA
ATOM     25  H   UNL     1      34.622 -35.631   3.663  1.00  0.00     0.293 HD
ENDBRANCH   6  24
BRANCH   8  26
ATOM     26  O   UNL     1      37.860 -39.165   4.753  1.00  0.00    -0.508 OA
ATOM     27  H   UNL     1      38.787 -39.229   5.155  1.00  0.00     0.293 HD
ENDBRANCH   8  26
TORSDOF 6
ENDMDL
MODEL 7
REMARK VINA RESULT:    -4.992      2.084      3.321
REMARK INTER + INTRA:          -6.273
REMARK INTER:                  -6.019
REMARK INTRA:                  -0.254
REMARK UNBOUND:                -0.260
REMARK SMILES O=c1c(O)c(-c2ccc(O)c(O)c2)oc2cc(O)cc(O)c12
REMARK SMILES IDX 5 1 3 2 2 3 1 4 22 5 20 6 19 7 17 8 16 9 15 10 14 11 6 12
REMARK SMILES IDX 7 13 8 14 9 15 13 16 11 17 10 18 12 20 4 22 21 24 18 26
REMARK H PARENT 10 19 12 21 4 23 21 25 18 27
REMARK Flexibility Score: inf
ROOT
ATOM      1  C   UNL     1      34.070 -37.667   7.373  1.00  0.00     0.180 A 
ATOM      2  C   UNL     1      32.835 -37.537   6.713  1.00  0.00     0.208 A 
ATOM      3  C   UNL     1      32.823 -37.345   5.322  1.00  0.00     0.238 A 
ATOM      4  O   UNL     1      31.713 -37.284   4.730  1.00  0.00    -0.285 OA
ATOM      5  C   UNL     1      34.044 -37.268   4.611  1.00  0.00     0.111 A 
ATOM      6  C   UNL     1      34.151 -37.035   3.206  1.00  0.00     0.134 A 
ATOM      7  C   UNL     1      35.405 -37.109   2.587  1.00  0.00     0.093 A 
ATOM      8  C   UNL     1      36.562 -37.341   3.330  1.00  0.00     0.123 A 
ATOM      9  C   UNL     1      36.476 -37.511   4.713  1.00  0.00     0.094 A 
ATOM     10  C   UNL     1      35.235 -37.480   5.354  1.00  0.00     0.146 A 
ATOM     11  O   UNL     1      35.195 -37.656   6.669  1.00  0.00    -0.452 OA
ENDROOT
BRANCH   1  12
ATOM     12  C   UNL     1      34.164 -37.847   8.839  1.00  0.00     0.025 A 
ATOM     13  C   UNL     1      33.875 -36.795   9.726  1.00  0.00     0.016 A 
ATOM     14  C   UNL     1      33.995 -36.981  11.105  1.00  0.00     0.051 A 
ATOM     15  C   UNL     1      34.416 -38.211  11.620  1.00  0.00     0.157 A 
ATOM     16  C   UNL     1      34.607 -39.075   9.357  1.00  0.00     0.062 A 
ATOM     17  C   UNL     1      34.726 -39.263  10.743  1.00  0.00     0.158 A 
BRANCH  15  18
ATOM     18  O   UNL     1      34.523 -38.367  13.002  1.00  0.00    -0.504 OA
ATOM     19  H   UNL     1      35.160 -39.035  13.419  1.00  0.00     0.293 HD
ENDBRANCH  15  18
BRANCH  17  20
ATOM     20  O   UNL     1      35.155 -40.490  11.248  1.00  0.00    -0.504 OA
ATOM     21  H   UNL     1      36.031 -40.583  11.746  1.00  0.00     0.293 HD
ENDBRANCH  17  20
ENDBRANCH   1  12
BRANCH   2  22
ATOM     22  O   UNL     1      31.640 -37.639   7.431  1.00  0.00    -0.502 OA
ATOM     23  H   UNL     1      31.577 -37.416   8.416  1.00  0.00     0.293 HD
ENDBRANCH   2  22
BRANCH   6  24
ATOM     24  O   UNL     1      33.069 -36.703   2.386  1.00  0.00    -0.507 OA
ATOM     25  H   UNL     1      32.183 -36.354   2.717  1.00  0.00     0.293 HD
ENDBRANCH   6  24
BRANCH   8  26
ATOM     26  O   UNL     1      37.795 -37.393   2.684  1.00  0.00    -0.508 OA
ATOM     27  H   UNL     1      38.328 -38.252   2.626  1.00  0.00     0.293 HD
ENDBRANCH   8  26
TORSDOF 6
ENDMDL
MODEL 8
REMARK VINA RESULT:    -4.965      5.969     11.050
REMARK INTER + INTRA:          -6.240
REMARK INTER:                  -5.925
REMARK INTRA:                  -0.315
REMARK UNBOUND:                -0.260
REMARK SMILES O=c1c(O)c(-c2ccc(O)c(O)c2)oc2cc(O)cc(O)c12
REMARK SMILES IDX 5 1 3 2 2 3 1 4 22 5 20 6 19 7 17 8 16 9 15 10 14 11 6 12
REMARK SMILES IDX 7 13 8 14 9 15 13 16 11 17 10 18 12 20 4 22 21 24 18 26
REMARK H PARENT 10 19 12 21 4 23 21 25 18 27
REMARK Flexibility Score: inf
ROOT
ATOM      1  C   UNL     1      34.194 -39.647   0.312  1.00  0.00     0.180 A 
ATOM      2  C   UNL     1      35.375 -38.905   0.484  1.00  0.00     0.208 A 
ATOM      3  C   UNL     1      35.472 -38.022   1.572  1.00  0.00     0.238 A 
ATOM      4  O   UNL     1      36.552 -37.401   1.752  1.00  0.00    -0.285 OA
ATOM      5  C   UNL     1      34.382 -37.880   2.464  1.00  0.00     0.111 A 
ATOM      6  C   UNL     1      34.355 -36.985   3.576  1.00  0.00     0.134 A 
ATOM      7  C   UNL     1      33.275 -37.023   4.467  1.00  0.00     0.093 A 
ATOM      8  C   UNL     1      32.193 -37.874   4.251  1.00  0.00     0.123 A 
ATOM      9  C   UNL     1      32.181 -38.711   3.134  1.00  0.00     0.094 A 
ATOM     10  C   UNL     1      33.260 -38.723   2.247  1.00  0.00     0.146 A 
ATOM     11  O   UNL     1      33.215 -39.541   1.202  1.00  0.00    -0.452 OA
ENDROOT
BRANCH   1  12
ATOM     12  C   UNL     1      34.007 -40.579  -0.823  1.00  0.00     0.025 A 
ATOM     13  C   UNL     1      34.477 -41.903  -0.768  1.00  0.00     0.016 A 
ATOM     14  C   UNL     1      34.311 -42.757  -1.860  1.00  0.00     0.051 A 
ATOM     15  C   UNL     1      33.689 -42.302  -3.027  1.00  0.00     0.157 A 
ATOM     16  C   UNL     1      33.401 -40.118  -2.003  1.00  0.00     0.062 A 
ATOM     17  C   UNL     1      33.233 -40.976  -3.101  1.00  0.00     0.158 A 
BRANCH  15  18
ATOM     18  O   UNL     1      33.535 -43.179  -4.101  1.00  0.00    -0.504 OA
ATOM     19  H   UNL     1      34.307 -43.728  -4.461  1.00  0.00     0.293 HD
ENDBRANCH  15  18
BRANCH  17  20
ATOM     20  O   UNL     1      32.618 -40.512  -4.264  1.00  0.00    -0.504 OA
ATOM     21  H   UNL     1      33.002 -40.704  -5.181  1.00  0.00     0.293 HD
ENDBRANCH  17  20
ENDBRANCH   1  12
BRANCH   2  22
ATOM     22  O   UNL     1      36.448 -39.076  -0.395  1.00  0.00    -0.502 OA
ATOM     23  H   UNL     1      36.810 -38.322  -0.965  1.00  0.00     0.293 HD
ENDBRANCH   2  22
BRANCH   6  24
ATOM     24  O   UNL     1      35.343 -36.029   3.831  1.00  0.00    -0.507 OA
ATOM     25  H   UNL     1      36.298 -36.091   3.516  1.00  0.00     0.293 HD
ENDBRANCH   6  24
BRANCH   8  26
ATOM     26  O   UNL     1      31.128 -37.875   5.150  1.00  0.00    -0.508 OA
ATOM     27  H   UNL     1      31.197 -38.330   6.052  1.00  0.00     0.293 HD
ENDBRANCH   8  26
TORSDOF 6
ENDMDL
MODEL 9
REMARK VINA RESULT:    -4.924     11.558     14.056
REMARK INTER + INTRA:          -6.191
REMARK INTER:                  -5.990
REMARK INTRA:                  -0.201
REMARK UNBOUND:                -0.260
REMARK SMILES O=c1c(O)c(-c2ccc(O)c(O)c2)oc2cc(O)cc(O)c12
REMARK SMILES IDX 5 1 3 2 2 3 1 4 22 5 20 6 19 7 17 8 16 9 15 10 14 11 6 12
REMARK SMILES IDX 7 13 8 14 9 15 13 16 11 17 10 18 12 20 4 22 21 24 18 26
REMARK H PARENT 10 19 12 21 4 23 21 25 18 27
REMARK Flexibility Score: inf
ROOT
ATOM      1  C   UNL     1      37.472 -39.534  -2.541  1.00  0.00     0.180 A 
ATOM      2  C   UNL     1      37.447 -38.956  -1.260  1.00  0.00     0.208 A 
ATOM      3  C   UNL     1      38.512 -38.129  -0.866  1.00  0.00     0.238 A 
ATOM      4  O   UNL     1      38.457 -37.571   0.262  1.00  0.00    -0.285 OA
ATOM      5  C   UNL     1      39.594 -37.904  -1.749  1.00  0.00     0.111 A 
ATOM      6  C   UNL     1      40.744 -37.117  -1.439  1.00  0.00     0.134 A 
ATOM      7  C   UNL     1      41.692 -36.855  -2.436  1.00  0.00     0.093 A 
ATOM      8  C   UNL     1      41.565 -37.405  -3.711  1.00  0.00     0.123 A 
ATOM      9  C   UNL     1      40.475 -38.224  -4.009  1.00  0.00     0.094 A 
ATOM     10  C   UNL     1      39.494 -38.474  -3.046  1.00  0.00     0.146 A 
ATOM     11  O   UNL     1      38.468 -39.251  -3.372  1.00  0.00    -0.452 OA
ENDROOT
BRANCH   1  12
ATOM     12  C   UNL     1      36.399 -40.436  -3.020  1.00  0.00     0.025 A 
ATOM     13  C   UNL     1      36.639 -41.802  -3.247  1.00  0.00     0.016 A 
ATOM     14  C   UNL     1      35.618 -42.629  -3.721  1.00  0.00     0.051 A 
ATOM     15  C   UNL     1      34.350 -42.105  -3.988  1.00  0.00     0.157 A 
ATOM     16  C   UNL     1      35.130 -39.908  -3.308  1.00  0.00     0.062 A 
ATOM     17  C   UNL     1      34.103 -40.738  -3.784  1.00  0.00     0.158 A 
BRANCH  15  18
ATOM     18  O   UNL     1      33.350 -42.957  -4.459  1.00  0.00    -0.504 OA
ATOM     19  H   UNL     1      32.964 -43.700  -3.888  1.00  0.00     0.293 HD
ENDBRANCH  15  18
BRANCH  17  20
ATOM     20  O   UNL     1      32.843 -40.206  -4.055  1.00  0.00    -0.504 OA
ATOM     21  H   UNL     1      32.347 -39.641  -3.376  1.00  0.00     0.293 HD
ENDBRANCH  17  20
ENDBRANCH   1  12
BRANCH   2  22
ATOM     22  O   UNL     1      36.358 -39.173  -0.411  1.00  0.00    -0.502 OA
ATOM     23  H   UNL     1      36.323 -38.808   0.533  1.00  0.00     0.293 HD
ENDBRANCH   2  22
BRANCH   6  24
ATOM     24  O   UNL     1      41.014 -36.597  -0.170  1.00  0.00    -0.507 OA
ATOM     25  H   UNL     1      41.809 -36.022   0.059  1.00  0.00     0.293 HD
ENDBRANCH   6  24
BRANCH   8  26
ATOM     26  O   UNL     1      42.535 -37.136  -4.675  1.00  0.00    -0.508 OA
ATOM     27  H   UNL     1      42.757 -36.188  -4.953  1.00  0.00     0.293 HD
ENDBRANCH   8  26
TORSDOF 6
ENDMDL
