MODEL 1
REMARK VINA RESULT:    -4.334      0.000      0.000
REMARK INTER + INTRA:          -5.486
REMARK INTER:                  -5.221
REMARK INTRA:                  -0.265
REMARK UNBOUND:                -0.265
REMARK SMILES NC(=O)C[C@@H]([NH3+])C(=O)[O-]
REMARK SMILES IDX 4 1 5 2 6 3 7 7 8 8 9 9 2 10 3 11 1 12
REMARK H PARENT 6 4 6 5 6 6 1 13 1 14
REMARK Flexibility Score: inf
ROOT
ATOM      1  C   UNL     1      -0.979  40.954  25.482  1.00  0.00     0.171 C 
ENDROOT
BRANCH   1   2
ATOM      2  C   UNL     1       0.424  41.488  25.121  1.00  0.00     0.237 C 
BRANCH   2   3
ATOM      3  N   UNL     1       1.477  40.505  25.418  1.00  0.00    -0.350 N 
ATOM      4  H   UNL     1       1.227  39.559  25.047  1.00  0.00     0.345 HD
ATOM      5  H   UNL     1       1.621  40.441  26.451  1.00  0.00     0.345 HD
ATOM      6  H   UNL     1       2.376  40.812  24.980  1.00  0.00     0.345 HD
ENDBRANCH   2   3
BRANCH   2   7
ATOM      7  C   UNL     1       0.488  41.945  23.686  1.00  0.00     0.100 C 
ATOM      8  O   UNL     1       1.443  41.600  22.940  1.00  0.00    -0.544 OA
ATOM      9  O   UNL     1      -0.543  42.715  23.162  1.00  0.00    -0.544 OA
ENDBRANCH   2   7
ENDBRANCH   1   2
BRANCH   1  10
ATOM     10  C   UNL     1      -1.840  41.968  26.183  1.00  0.00     0.223 C 
ATOM     11  O   UNL     1      -1.811  42.051  27.440  1.00  0.00    -0.275 OA
ATOM     12  N   UNL     1      -2.675  42.852  25.436  1.00  0.00    -0.369 N 
ATOM     13  H   UNL     1      -2.705  42.804  24.393  1.00  0.00     0.159 HD
ATOM     14  H   UNL     1      -3.262  43.562  25.925  1.00  0.00     0.159 HD
ENDBRANCH   1  10
TORSDOF 4
ENDMDL
MODEL 2
REMARK VINA RESULT:    -4.260     13.636     14.879
REMARK INTER + INTRA:          -5.397
REMARK INTER:                  -5.159
REMARK INTRA:                  -0.237
REMARK UNBOUND:                -0.265
REMARK SMILES NC(=O)C[C@@H]([NH3+])C(=O)[O-]
REMARK SMILES IDX 4 1 5 2 6 3 7 7 8 8 9 9 2 10 3 11 1 12
REMARK H PARENT 6 4 6 5 6 6 1 13 1 14
REMARK Flexibility Score: inf
ROOT
ATOM      1  C   UNL     1       1.005  51.546  36.007  1.00  0.00     0.171 C 
ENDROOT
BRANCH   1   2
ATOM      2  C   UNL     1      -0.394  51.868  35.437  1.00  0.00     0.237 C 
BRANCH   2   3
ATOM      3  N   UNL     1      -1.461  51.564  36.401  1.00  0.00    -0.350 N 
ATOM      4  H   UNL     1      -1.934  50.659  36.171  1.00  0.00     0.345 HD
ATOM      5  H   UNL     1      -2.170  52.332  36.399  1.00  0.00     0.345 HD
ATOM      6  H   UNL     1      -1.055  51.497  37.363  1.00  0.00     0.345 HD
ENDBRANCH   2   3
BRANCH   2   7
ATOM      7  C   UNL     1      -0.478  53.294  34.956  1.00  0.00     0.100 C 
ATOM      8  O   UNL     1      -1.456  54.024  35.268  1.00  0.00    -0.544 OA
ATOM      9  O   UNL     1       0.559  53.829  34.201  1.00  0.00    -0.544 OA
ENDBRANCH   2   7
ENDBRANCH   1   2
BRANCH   1  10
ATOM     10  C   UNL     1       1.901  50.845  35.024  1.00  0.00     0.223 C 
ATOM     11  O   UNL     1       1.765  49.608  34.822  1.00  0.00    -0.275 OA
ATOM     12  N   UNL     1       2.894  51.572  34.301  1.00  0.00    -0.369 N 
ATOM     13  H   UNL     1       3.017  52.599  34.448  1.00  0.00     0.159 HD
ATOM     14  H   UNL     1       3.507  51.085  33.612  1.00  0.00     0.159 HD
ENDBRANCH   1  10
TORSDOF 4
ENDMDL
MODEL 3
REMARK VINA RESULT:    -4.187     14.130     14.915
REMARK INTER + INTRA:          -5.309
REMARK INTER:                  -4.955
REMARK INTRA:                  -0.354
REMARK UNBOUND:                -0.265
REMARK SMILES NC(=O)C[C@@H]([NH3+])C(=O)[O-]
REMARK SMILES IDX 4 1 5 2 6 3 7 7 8 8 9 9 2 10 3 11 1 12
REMARK H PARENT 6 4 6 5 6 6 1 13 1 14
REMARK Flexibility Score: inf
ROOT
ATOM      1  C   UNL     1       1.701  49.898  35.486  1.00  0.00     0.171 C 
ENDROOT
BRANCH   1   2
ATOM      2  C   UNL     1       1.858  49.742  37.014  1.00  0.00     0.237 C 
BRANCH   2   3
ATOM      3  N   UNL     1       2.545  50.895  37.614  1.00  0.00    -0.350 N 
ATOM      4  H   UNL     1       2.668  50.768  38.646  1.00  0.00     0.345 HD
ATOM      5  H   UNL     1       1.994  51.766  37.439  1.00  0.00     0.345 HD
ATOM      6  H   UNL     1       3.487  51.009  37.174  1.00  0.00     0.345 HD
ENDBRANCH   2   3
BRANCH   2   7
ATOM      7  C   UNL     1       0.531  49.484  37.681  1.00  0.00     0.100 C 
ATOM      8  O   UNL     1       0.422  48.619  38.590  1.00  0.00    -0.544 OA
ATOM      9  O   UNL     1      -0.578  50.243  37.326  1.00  0.00    -0.544 OA
ENDBRANCH   2   7
ENDBRANCH   1   2
BRANCH   1  10
ATOM     10  C   UNL     1       1.915  51.307  35.007  1.00  0.00     0.223 C 
ATOM     11  O   UNL     1       1.074  52.201  35.292  1.00  0.00    -0.275 OA
ATOM     12  N   UNL     1       3.076  51.646  34.247  1.00  0.00    -0.369 N 
ATOM     13  H   UNL     1       3.788  50.921  34.009  1.00  0.00     0.159 HD
ATOM     14  H   UNL     1       3.227  52.627  33.926  1.00  0.00     0.159 HD
ENDBRANCH   1  10
TORSDOF 4
ENDMDL
MODEL 4
REMARK VINA RESULT:    -4.173      1.527      2.358
REMARK INTER + INTRA:          -5.292
REMARK INTER:                  -4.848
REMARK INTRA:                  -0.444
REMARK UNBOUND:                -0.265
REMARK SMILES NC(=O)C[C@@H]([NH3+])C(=O)[O-]
REMARK SMILES IDX 4 1 5 2 6 3 7 7 8 8 9 9 2 10 3 11 1 12
REMARK H PARENT 6 4 6 5 6 6 1 13 1 14
REMARK Flexibility Score: inf
ROOT
ATOM      1  C   UNL     1      -1.188  41.035  26.415  1.00  0.00     0.171 C 
ENDROOT
BRANCH   1   2
ATOM      2  C   UNL     1      -1.750  41.722  25.152  1.00  0.00     0.237 C 
BRANCH   2   3
ATOM      3  N   UNL     1      -2.567  42.898  25.487  1.00  0.00    -0.350 N 
ATOM      4  H   UNL     1      -2.279  43.732  24.925  1.00  0.00     0.345 HD
ATOM      5  H   UNL     1      -2.469  43.120  26.504  1.00  0.00     0.345 HD
ATOM      6  H   UNL     1      -3.574  42.692  25.292  1.00  0.00     0.345 HD
ENDBRANCH   2   3
BRANCH   2   7
ATOM      7  C   UNL     1      -0.651  42.075  24.182  1.00  0.00     0.100 C 
ATOM      8  O   UNL     1       0.537  41.709  24.391  1.00  0.00    -0.544 OA
ATOM      9  O   UNL     1      -0.956  42.768  23.017  1.00  0.00    -0.544 OA
ENDBRANCH   2   7
ENDBRANCH   1   2
BRANCH   1  10
ATOM     10  C   UNL     1      -0.841  42.000  27.515  1.00  0.00     0.223 C 
ATOM     11  O   UNL     1      -1.640  42.171  28.474  1.00  0.00    -0.275 OA
ATOM     12  N   UNL     1       0.397  42.710  27.492  1.00  0.00    -0.369 N 
ATOM     13  H   UNL     1       1.076  42.575  26.710  1.00  0.00     0.159 HD
ATOM     14  H   UNL     1       0.640  43.371  28.263  1.00  0.00     0.159 HD
ENDBRANCH   1  10
TORSDOF 4
ENDMDL
MODEL 5
REMARK VINA RESULT:    -4.164     13.118     14.261
REMARK INTER + INTRA:          -5.281
REMARK INTER:                  -4.780
REMARK INTRA:                  -0.501
REMARK UNBOUND:                -0.265
REMARK SMILES NC(=O)C[C@@H]([NH3+])C(=O)[O-]
REMARK SMILES IDX 4 1 5 2 6 3 7 7 8 8 9 9 2 10 3 11 1 12
REMARK H PARENT 6 4 6 5 6 6 1 13 1 14
REMARK Flexibility Score: inf
ROOT
ATOM      1  C   UNL     1       0.453  52.140  36.062  1.00  0.00     0.171 C 
ENDROOT
BRANCH   1   2
ATOM      2  C   UNL     1       0.285  50.688  35.566  1.00  0.00     0.237 C 
BRANCH   2   3
ATOM      3  N   UNL     1      -0.803  50.567  34.585  1.00  0.00    -0.350 N 
ATOM      4  H   UNL     1      -1.666  51.059  34.913  1.00  0.00     0.345 HD
ATOM      5  H   UNL     1      -1.025  49.558  34.424  1.00  0.00     0.345 HD
ATOM      6  H   UNL     1      -0.502  50.985  33.675  1.00  0.00     0.345 HD
ENDBRANCH   2   3
BRANCH   2   7
ATOM      7  C   UNL     1       1.579  50.138  35.022  1.00  0.00     0.100 C 
ATOM      8  O   UNL     1       1.749  48.897  34.890  1.00  0.00    -0.544 OA
ATOM      9  O   UNL     1       2.580  51.011  34.612  1.00  0.00    -0.544 OA
ENDBRANCH   2   7
ENDBRANCH   1   2
BRANCH   1  10
ATOM     10  C   UNL     1       0.048  53.168  35.043  1.00  0.00     0.223 C 
ATOM     11  O   UNL     1      -1.121  53.640  35.059  1.00  0.00    -0.275 OA
ATOM     12  N   UNL     1       0.982  53.632  34.068  1.00  0.00    -0.369 N 
ATOM     13  H   UNL     1       1.958  53.259  34.045  1.00  0.00     0.159 HD
ATOM     14  H   UNL     1       0.701  54.354  33.370  1.00  0.00     0.159 HD
ENDBRANCH   1  10
TORSDOF 4
ENDMDL
MODEL 6
REMARK VINA RESULT:    -4.158      1.472      3.573
REMARK INTER + INTRA:          -5.274
REMARK INTER:                  -4.773
REMARK INTRA:                  -0.501
REMARK UNBOUND:                -0.265
REMARK SMILES NC(=O)C[C@@H]([NH3+])C(=O)[O-]
REMARK SMILES IDX 4 1 5 2 6 3 7 7 8 8 9 9 2 10 3 11 1 12
REMARK H PARENT 6 4 6 5 6 6 1 13 1 14
REMARK Flexibility Score: inf
ROOT
ATOM      1  C   UNL     1      -0.481  40.813  25.111  1.00  0.00     0.171 C 
ENDROOT
BRANCH   1   2
ATOM      2  C   UNL     1      -0.293  41.349  26.547  1.00  0.00     0.237 C 
BRANCH   2   3
ATOM      3  N   UNL     1       0.784  42.347  26.622  1.00  0.00    -0.350 N 
ATOM      4  H   UNL     1       0.652  42.987  27.438  1.00  0.00     0.345 HD
ATOM      5  H   UNL     1       0.805  42.912  25.742  1.00  0.00     0.345 HD
ATOM      6  H   UNL     1       1.705  41.861  26.720  1.00  0.00     0.345 HD
ENDBRANCH   2   3
BRANCH   2   7
ATOM      7  C   UNL     1      -1.584  41.891  27.105  1.00  0.00     0.100 C 
ATOM      8  O   UNL     1      -1.726  42.072  28.344  1.00  0.00    -0.544 OA
ATOM      9  O   UNL     1      -2.615  42.244  26.242  1.00  0.00    -0.544 OA
ENDBRANCH   2   7
ENDBRANCH   1   2
BRANCH   1  10
ATOM     10  C   UNL     1      -0.100  41.807  24.049  1.00  0.00     0.223 C 
ATOM     11  O   UNL     1       1.059  41.783  23.555  1.00  0.00    -0.275 OA
ATOM     12  N   UNL     1      -1.048  42.766  23.580  1.00  0.00    -0.369 N 
ATOM     13  H   UNL     1      -2.016  42.795  23.971  1.00  0.00     0.159 HD
ATOM     14  H   UNL     1      -0.783  43.447  22.834  1.00  0.00     0.159 HD
ENDBRANCH   1  10
TORSDOF 4
ENDMDL
MODEL 7
REMARK VINA RESULT:    -4.157     12.825     13.955
REMARK INTER + INTRA:          -5.273
REMARK INTER:                  -4.827
REMARK INTRA:                  -0.446
REMARK UNBOUND:                -0.265
REMARK SMILES NC(=O)C[C@@H]([NH3+])C(=O)[O-]
REMARK SMILES IDX 4 1 5 2 6 3 7 7 8 8 9 9 2 10 3 11 1 12
REMARK H PARENT 6 4 6 5 6 6 1 13 1 14
REMARK Flexibility Score: inf
ROOT
ATOM      1  C   UNL     1       1.081  50.490  35.946  1.00  0.00     0.171 C 
ENDROOT
BRANCH   1   2
ATOM      2  C   UNL     1       1.643  51.775  35.300  1.00  0.00     0.237 C 
BRANCH   2   3
ATOM      3  N   UNL     1       2.448  51.480  34.106  1.00  0.00    -0.350 N 
ATOM      4  H   UNL     1       3.434  51.812  34.221  1.00  0.00     0.345 HD
ATOM      5  H   UNL     1       2.026  51.945  33.270  1.00  0.00     0.345 HD
ATOM      6  H   UNL     1       2.458  50.447  33.936  1.00  0.00     0.345 HD
ENDBRANCH   2   3
BRANCH   2   7
ATOM      7  C   UNL     1       0.546  52.762  34.993  1.00  0.00     0.100 C 
ATOM      8  O   UNL     1       0.770  53.774  34.276  1.00  0.00    -0.544 OA
ATOM      9  O   UNL     1      -0.741  52.530  35.463  1.00  0.00    -0.544 OA
ENDBRANCH   2   7
ENDBRANCH   1   2
BRANCH   1  10
ATOM     10  C   UNL     1       0.707  49.434  34.943  1.00  0.00     0.223 C 
ATOM     11  O   UNL     1       1.491  48.472  34.723  1.00  0.00    -0.275 OA
ATOM     12  N   UNL     1      -0.540  49.499  34.251  1.00  0.00    -0.369 N 
ATOM     13  H   UNL     1      -1.207  50.284  34.427  1.00  0.00     0.159 HD
ATOM     14  H   UNL     1      -0.802  48.759  33.564  1.00  0.00     0.159 HD
ENDBRANCH   1  10
TORSDOF 4
ENDMDL
MODEL 8
REMARK VINA RESULT:    -4.140      2.549      3.830
REMARK INTER + INTRA:          -5.252
REMARK INTER:                  -4.893
REMARK INTRA:                  -0.359
REMARK UNBOUND:                -0.265
REMARK SMILES NC(=O)C[C@@H]([NH3+])C(=O)[O-]
REMARK SMILES IDX 4 1 5 2 6 3 7 7 8 8 9 9 2 10 3 11 1 12
REMARK H PARENT 6 4 6 5 6 6 1 13 1 14
REMARK Flexibility Score: inf
ROOT
ATOM      1  C   UNL     1      -1.825  41.506  27.101  1.00  0.00     0.171 C 
ENDROOT
BRANCH   1   2
ATOM      2  C   UNL     1      -1.921  39.972  27.238  1.00  0.00     0.237 C 
BRANCH   2   3
ATOM      3  N   UNL     1      -2.535  39.354  26.053  1.00  0.00    -0.350 N 
ATOM      4  H   UNL     1      -3.452  38.908  26.290  1.00  0.00     0.345 HD
ATOM      5  H   UNL     1      -1.893  38.629  25.659  1.00  0.00     0.345 HD
ATOM      6  H   UNL     1      -2.694  40.084  25.320  1.00  0.00     0.345 HD
ENDBRANCH   2   3
BRANCH   2   7
ATOM      7  C   UNL     1      -0.577  39.360  27.542  1.00  0.00     0.100 C 
ATOM      8  O   UNL     1       0.425  39.613  26.822  1.00  0.00    -0.544 OA
ATOM      9  O   UNL     1      -0.427  38.547  28.659  1.00  0.00    -0.544 OA
ENDBRANCH   2   7
ENDBRANCH   1   2
BRANCH   1  10
ATOM     10  C   UNL     1      -1.987  41.989  25.686  1.00  0.00     0.223 C 
ATOM     11  O   UNL     1      -1.091  41.745  24.834  1.00  0.00    -0.275 OA
ATOM     12  N   UNL     1      -3.158  42.705  25.294  1.00  0.00    -0.369 N 
ATOM     13  H   UNL     1      -3.915  42.909  25.984  1.00  0.00     0.159 HD
ATOM     14  H   UNL     1      -3.272  43.029  24.308  1.00  0.00     0.159 HD
ENDBRANCH   1  10
TORSDOF 4
ENDMDL
MODEL 9
REMARK VINA RESULT:    -4.035      2.334      2.539
REMARK INTER + INTRA:          -5.125
REMARK INTER:                  -4.653
REMARK INTRA:                  -0.472
REMARK UNBOUND:                -0.265
REMARK SMILES NC(=O)C[C@@H]([NH3+])C(=O)[O-]
REMARK SMILES IDX 4 1 5 2 6 3 7 7 8 8 9 9 2 10 3 11 1 12
REMARK H PARENT 6 4 6 5 6 6 1 13 1 14
REMARK Flexibility Score: inf
ROOT
ATOM      1  C   UNL     1      -1.481  40.454  25.962  1.00  0.00     0.171 C 
ENDROOT
BRANCH   1   2
ATOM      2  C   UNL     1      -0.179  40.827  25.221  1.00  0.00     0.237 C 
BRANCH   2   3
ATOM      3  N   UNL     1      -0.341  42.043  24.410  1.00  0.00    -0.350 N 
ATOM      4  H   UNL     1      -0.355  41.819  23.388  1.00  0.00     0.345 HD
ATOM      5  H   UNL     1       0.444  42.706  24.604  1.00  0.00     0.345 HD
ATOM      6  H   UNL     1      -1.239  42.516  24.664  1.00  0.00     0.345 HD
ENDBRANCH   2   3
BRANCH   2   7
ATOM      7  C   UNL     1       0.982  40.954  26.175  1.00  0.00     0.100 C 
ATOM      8  O   UNL     1       1.942  40.139  26.134  1.00  0.00    -0.544 OA
ATOM      9  O   UNL     1       1.020  42.009  27.077  1.00  0.00    -0.544 OA
ENDBRANCH   2   7
ENDBRANCH   1   2
BRANCH   1  10
ATOM     10  C   UNL     1      -2.250  41.648  26.454  1.00  0.00     0.223 C 
ATOM     11  O   UNL     1      -3.021  42.264  25.670  1.00  0.00    -0.275 OA
ATOM     12  N   UNL     1      -2.130  42.080  27.810  1.00  0.00    -0.369 N 
ATOM     13  H   UNL     1      -1.502  41.578  28.477  1.00  0.00     0.159 HD
ATOM     14  H   UNL     1      -2.674  42.903  28.151  1.00  0.00     0.159 HD
ENDBRANCH   1  10
TORSDOF 4
ENDMDL
