MODEL 1
REMARK VINA RESULT:    -0.573      0.000      0.000
REMARK INTER + INTRA:          -1.231
REMARK INTER:                  -0.840
REMARK INTRA:                  -0.391
REMARK UNBOUND:                -0.391
REMARK SMILES O=C([O-])CCCCCCCC(=O)[O-]
REMARK SMILES IDX 7 1 6 2 5 3 4 4 2 5 1 6 3 7 8 8 9 9 10 10 11 11 12 12 13 13
REMARK H PARENT
REMARK Flexibility Score: inf
ROOT
ATOM      1  C   UNL     1      19.891  40.698  10.819  1.00  0.00     0.000 C 
ENDROOT
BRANCH   1   2
ATOM      2  C   UNL     1      20.002  40.745  12.350  1.00  0.00     0.000 C 
BRANCH   2   3
ATOM      3  C   UNL     1      20.148  42.189  12.846  1.00  0.00     0.006 C 
BRANCH   3   4
ATOM      4  C   UNL     1      19.933  43.187  11.704  1.00  0.00     0.053 C 
BRANCH   4   5
ATOM      5  C   UNL     1      20.557  44.505  12.034  1.00  0.00     0.041 C 
ATOM      6  O   UNL     1      20.286  45.080  13.121  1.00  0.00    -0.550 OA
ATOM      7  O   UNL     1      21.399  45.124  11.119  1.00  0.00    -0.550 OA
ENDBRANCH   4   5
ENDBRANCH   3   4
ENDBRANCH   2   3
ENDBRANCH   1   2
BRANCH   1   8
ATOM      8  C   UNL     1      18.627  39.967  10.332  1.00  0.00     0.000 C 
BRANCH   8   9
ATOM      9  C   UNL     1      17.478  40.886   9.878  1.00  0.00     0.006 C 
BRANCH   9  10
ATOM     10  C   UNL     1      16.164  40.131   9.646  1.00  0.00     0.053 C 
BRANCH  10  11
ATOM     11  C   UNL     1      14.996  40.983  10.035  1.00  0.00     0.041 C 
ATOM     12  O   UNL     1      14.985  42.210   9.752  1.00  0.00    -0.550 OA
ATOM     13  O   UNL     1      13.943  40.432  10.753  1.00  0.00    -0.550 OA
ENDBRANCH  10  11
ENDBRANCH   9  10
ENDBRANCH   8   9
ENDBRANCH   1   8
TORSDOF 8
ENDMDL
MODEL 2
REMARK VINA RESULT:    -0.129      0.984      5.623
REMARK INTER + INTRA:          -0.580
REMARK INTER:                  -0.120
REMARK INTRA:                  -0.460
REMARK UNBOUND:                -0.391
REMARK SMILES O=C([O-])CCCCCCCC(=O)[O-]
REMARK SMILES IDX 7 1 6 2 5 3 4 4 2 5 1 6 3 7 8 8 9 9 10 10 11 11 12 12 13 13
REMARK H PARENT
REMARK Flexibility Score: inf
ROOT
ATOM      1  C   UNL     1      19.529  40.247  11.811  1.00  0.00     0.000 C 
ENDROOT
BRANCH   1   2
ATOM      2  C   UNL     1      19.627  40.941  10.444  1.00  0.00     0.000 C 
BRANCH   2   3
ATOM      3  C   UNL     1      18.270  41.519  10.024  1.00  0.00     0.006 C 
BRANCH   3   4
ATOM      4  C   UNL     1      17.240  40.407   9.807  1.00  0.00     0.053 C 
BRANCH   4   5
ATOM      5  C   UNL     1      15.853  40.965   9.819  1.00  0.00     0.041 C 
ATOM      6  O   UNL     1      15.626  42.108   9.341  1.00  0.00    -0.550 OA
ATOM      7  O   UNL     1      14.818  40.245  10.404  1.00  0.00    -0.550 OA
ENDBRANCH   4   5
ENDBRANCH   3   4
ENDBRANCH   2   3
ENDBRANCH   1   2
BRANCH   1   8
ATOM      8  C   UNL     1      20.184  41.059  12.943  1.00  0.00     0.000 C 
BRANCH   8   9
ATOM      9  C   UNL     1      21.056  42.239  12.478  1.00  0.00     0.006 C 
BRANCH   9  10
ATOM     10  C   UNL     1      20.621  43.580  13.082  1.00  0.00     0.053 C 
BRANCH  10  11
ATOM     11  C   UNL     1      20.416  44.597  12.004  1.00  0.00     0.041 C 
ATOM     12  O   UNL     1      21.395  45.012  11.330  1.00  0.00    -0.550 OA
ATOM     13  O   UNL     1      19.152  45.125  11.778  1.00  0.00    -0.550 OA
ENDBRANCH  10  11
ENDBRANCH   9  10
ENDBRANCH   8   9
ENDBRANCH   1   8
TORSDOF 8
ENDMDL
MODEL 3
REMARK VINA RESULT:     1.085      0.694      5.884
REMARK INTER + INTRA:           1.203
REMARK INTER:                   1.524
REMARK INTRA:                  -0.322
REMARK UNBOUND:                -0.391
REMARK SMILES O=C([O-])CCCCCCCC(=O)[O-]
REMARK SMILES IDX 7 1 6 2 5 3 4 4 2 5 1 6 3 7 8 8 9 9 10 10 11 11 12 12 13 13
REMARK H PARENT
REMARK Flexibility Score: inf
ROOT
ATOM      1  C   UNL     1      19.867  41.287  10.817  1.00  0.00     0.000 C 
ENDROOT
BRANCH   1   2
ATOM      2  C   UNL     1      18.699  40.322  10.568  1.00  0.00     0.000 C 
BRANCH   2   3
ATOM      3  C   UNL     1      17.604  40.990   9.728  1.00  0.00     0.006 C 
BRANCH   3   4
ATOM      4  C   UNL     1      16.328  40.144   9.713  1.00  0.00     0.053 C 
BRANCH   4   5
ATOM      5  C   UNL     1      15.134  40.989  10.026  1.00  0.00     0.041 C 
ATOM      6  O   UNL     1      15.107  42.200   9.684  1.00  0.00    -0.550 OA
ATOM      7  O   UNL     1      14.071  40.452  10.743  1.00  0.00    -0.550 OA
ENDBRANCH   4   5
ENDBRANCH   3   4
ENDBRANCH   2   3
ENDBRANCH   1   2
BRANCH   1   8
ATOM      8  C   UNL     1      20.306  41.329  12.292  1.00  0.00     0.000 C 
BRANCH   8   9
ATOM      9  C   UNL     1      19.796  42.545  13.088  1.00  0.00     0.006 C 
BRANCH   9  10
ATOM     10  C   UNL     1      20.801  43.701  13.125  1.00  0.00     0.053 C 
BRANCH  10  11
ATOM     11  C   UNL     1      20.494  44.696  12.051  1.00  0.00     0.041 C 
ATOM     12  O   UNL     1      19.318  45.120  11.898  1.00  0.00    -0.550 OA
ATOM     13  O   UNL     1      21.495  45.117  11.186  1.00  0.00    -0.550 OA
ENDBRANCH  10  11
ENDBRANCH   9  10
ENDBRANCH   8   9
ENDBRANCH   1   8
TORSDOF 8
ENDMDL
MODEL 4
REMARK VINA RESULT:     2.326      0.900      6.011
REMARK INTER + INTRA:           3.023
REMARK INTER:                   3.453
REMARK INTRA:                  -0.431
REMARK UNBOUND:                -0.391
REMARK SMILES O=C([O-])CCCCCCCC(=O)[O-]
REMARK SMILES IDX 7 1 6 2 5 3 4 4 2 5 1 6 3 7 8 8 9 9 10 10 11 11 12 12 13 13
REMARK H PARENT
REMARK Flexibility Score: inf
ROOT
ATOM      1  C   UNL     1      18.512  40.273  11.155  1.00  0.00     0.000 C 
ENDROOT
BRANCH   1   2
ATOM      2  C   UNL     1      17.966  40.576   9.751  1.00  0.00     0.000 C 
BRANCH   2   3
ATOM      3  C   UNL     1      16.772  41.535   9.821  1.00  0.00     0.006 C 
BRANCH   3   4
ATOM      4  C   UNL     1      15.490  40.854   9.335  1.00  0.00     0.053 C 
BRANCH   4   5
ATOM      5  C   UNL     1      14.589  40.548  10.489  1.00  0.00     0.041 C 
ATOM      6  O   UNL     1      14.810  39.543  11.216  1.00  0.00    -0.550 OA
ATOM      7  O   UNL     1      13.475  41.342  10.732  1.00  0.00    -0.550 OA
ENDBRANCH   4   5
ENDBRANCH   3   4
ENDBRANCH   2   3
ENDBRANCH   1   2
BRANCH   1   8
ATOM      8  C   UNL     1      20.009  40.600  11.300  1.00  0.00     0.000 C 
BRANCH   8   9
ATOM      9  C   UNL     1      20.334  41.737  12.286  1.00  0.00     0.006 C 
BRANCH   9  10
ATOM     10  C   UNL     1      19.588  43.038  11.967  1.00  0.00     0.053 C 
BRANCH  10  11
ATOM     11  C   UNL     1      20.491  44.217  12.150  1.00  0.00     0.041 C 
ATOM     12  O   UNL     1      20.292  45.027  13.093  1.00  0.00    -0.550 OA
ATOM     13  O   UNL     1      21.522  44.448  11.249  1.00  0.00    -0.550 OA
ENDBRANCH  10  11
ENDBRANCH   9  10
ENDBRANCH   8   9
ENDBRANCH   1   8
TORSDOF 8
ENDMDL
