MODEL 1
REMARK VINA RESULT:    -4.096      0.000      0.000
REMARK INTER + INTRA:          -6.142
REMARK INTER:                  -5.772
REMARK INTRA:                  -0.370
REMARK UNBOUND:                -0.370
REMARK SMILES CCCCCCCCC(=O)[O-]
REMARK SMILES IDX 6 1 7 2 8 3 9 4 10 5 11 6 5 7 4 8 3 9 2 10 1 11
REMARK H PARENT
REMARK Flexibility Score: inf
ROOT
ATOM      1  C   UNL     1      45.084  -5.339  83.778  1.00  0.00     0.000 C 
ENDROOT
BRANCH   1   2
ATOM      2  C   UNL     1      43.811  -5.099  84.602  1.00  0.00     0.006 C 
BRANCH   2   3
ATOM      3  C   UNL     1      42.556  -5.635  83.901  1.00  0.00     0.053 C 
BRANCH   3   4
ATOM      4  C   UNL     1      42.391  -7.109  84.107  1.00  0.00     0.041 C 
ATOM      5  O   UNL     1      42.001  -7.843  83.161  1.00  0.00    -0.550 OA
ATOM      6  O   UNL     1      42.638  -7.669  85.354  1.00  0.00    -0.550 OA
ENDBRANCH   3   4
ENDBRANCH   2   3
ENDBRANCH   1   2
BRANCH   1   7
ATOM      7  C   UNL     1      46.035  -4.137  83.875  1.00  0.00     0.000 C 
BRANCH   7   8
ATOM      8  C   UNL     1      45.602  -3.124  84.948  1.00  0.00    -0.000 C 
BRANCH   8   9
ATOM      9  C   UNL     1      46.546  -1.916  85.038  1.00  0.00    -0.000 C 
BRANCH   9  10
ATOM     10  C   UNL     1      47.773  -2.111  84.140  1.00  0.00    -0.003 C 
ATOM     11  C   UNL     1      48.058  -0.857  83.317  1.00  0.00     0.004 C 
ENDBRANCH   9  10
ENDBRANCH   8   9
ENDBRANCH   7   8
ENDBRANCH   1   7
TORSDOF 7
ENDMDL
MODEL 2
REMARK VINA RESULT:    -3.928      3.689      6.283
REMARK INTER + INTRA:          -5.906
REMARK INTER:                  -5.691
REMARK INTRA:                  -0.215
REMARK UNBOUND:                -0.370
REMARK SMILES CCCCCCCCC(=O)[O-]
REMARK SMILES IDX 6 1 7 2 8 3 9 4 10 5 11 6 5 7 4 8 3 9 2 10 1 11
REMARK H PARENT
REMARK Flexibility Score: inf
ROOT
ATOM      1  C   UNL     1      45.571  -4.657  83.246  1.00  0.00     0.000 C 
ENDROOT
BRANCH   1   2
ATOM      2  C   UNL     1      45.885  -3.623  84.336  1.00  0.00     0.006 C 
BRANCH   2   3
ATOM      3  C   UNL     1      47.019  -2.674  83.927  1.00  0.00     0.053 C 
BRANCH   3   4
ATOM      4  C   UNL     1      46.865  -1.322  84.552  1.00  0.00     0.041 C 
ATOM      5  O   UNL     1      46.392  -0.364  83.885  1.00  0.00    -0.550 OA
ATOM      6  O   UNL     1      47.273  -1.112  85.863  1.00  0.00    -0.550 OA
ENDBRANCH   3   4
ENDBRANCH   2   3
ENDBRANCH   1   2
BRANCH   1   7
ATOM      7  C   UNL     1      45.010  -5.949  83.860  1.00  0.00     0.000 C 
BRANCH   7   8
ATOM      8  C   UNL     1      43.543  -5.808  84.299  1.00  0.00    -0.000 C 
BRANCH   8   9
ATOM      9  C   UNL     1      43.118  -6.889  85.303  1.00  0.00    -0.000 C 
BRANCH   9  10
ATOM     10  C   UNL     1      41.897  -7.662  84.792  1.00  0.00    -0.003 C 
ATOM     11  C   UNL     1      41.877  -7.719  83.267  1.00  0.00     0.004 C 
ENDBRANCH   9  10
ENDBRANCH   8   9
ENDBRANCH   7   8
ENDBRANCH   1   7
TORSDOF 7
ENDMDL
MODEL 3
REMARK VINA RESULT:    -3.799      4.249      6.414
REMARK INTER + INTRA:          -5.723
REMARK INTER:                  -5.417
REMARK INTRA:                  -0.307
REMARK UNBOUND:                -0.370
REMARK SMILES CCCCCCCCC(=O)[O-]
REMARK SMILES IDX 6 1 7 2 8 3 9 4 10 5 11 6 5 7 4 8 3 9 2 10 1 11
REMARK H PARENT
REMARK Flexibility Score: inf
ROOT
ATOM      1  C   UNL     1      45.748  -3.434  84.426  1.00  0.00     0.000 C 
ENDROOT
BRANCH   1   2
ATOM      2  C   UNL     1      47.115  -2.818  84.097  1.00  0.00     0.006 C 
BRANCH   2   3
ATOM      3  C   UNL     1      47.160  -2.227  82.682  1.00  0.00     0.053 C 
BRANCH   3   4
ATOM      4  C   UNL     1      48.393  -1.406  82.462  1.00  0.00     0.041 C 
ATOM      5  O   UNL     1      49.121  -1.610  81.454  1.00  0.00    -0.550 OA
ATOM      6  O   UNL     1      48.756  -0.436  83.387  1.00  0.00    -0.550 OA
ENDBRANCH   3   4
ENDBRANCH   2   3
ENDBRANCH   1   2
BRANCH   1   7
ATOM      7  C   UNL     1      45.572  -4.787  83.721  1.00  0.00     0.000 C 
BRANCH   7   8
ATOM      8  C   UNL     1      44.138  -5.330  83.831  1.00  0.00    -0.000 C 
BRANCH   8   9
ATOM      9  C   UNL     1      43.385  -4.774  85.048  1.00  0.00    -0.000 C 
BRANCH   9  10
ATOM     10  C   UNL     1      42.611  -5.883  85.769  1.00  0.00    -0.003 C 
ATOM     11  C   UNL     1      43.160  -7.262  85.410  1.00  0.00     0.004 C 
ENDBRANCH   9  10
ENDBRANCH   8   9
ENDBRANCH   7   8
ENDBRANCH   1   7
TORSDOF 7
ENDMDL
MODEL 4
REMARK VINA RESULT:    -3.790     12.555     14.219
REMARK INTER + INTRA:          -5.711
REMARK INTER:                  -5.153
REMARK INTRA:                  -0.558
REMARK UNBOUND:                -0.370
REMARK SMILES CCCCCCCCC(=O)[O-]
REMARK SMILES IDX 6 1 7 2 8 3 9 4 10 5 11 6 5 7 4 8 3 9 2 10 1 11
REMARK H PARENT
REMARK Flexibility Score: inf
ROOT
ATOM      1  C   UNL     1      50.069  -1.235  71.577  1.00  0.00     0.000 C 
ENDROOT
BRANCH   1   2
ATOM      2  C   UNL     1      51.136  -0.478  72.380  1.00  0.00     0.006 C 
BRANCH   2   3
ATOM      3  C   UNL     1      52.558  -0.939  72.037  1.00  0.00     0.053 C 
BRANCH   3   4
ATOM      4  C   UNL     1      52.954  -2.151  72.823  1.00  0.00     0.041 C 
ATOM      5  O   UNL     1      52.458  -2.359  73.962  1.00  0.00    -0.550 OA
ATOM      6  O   UNL     1      53.896  -3.035  72.312  1.00  0.00    -0.550 OA
ENDBRANCH   3   4
ENDBRANCH   2   3
ENDBRANCH   1   2
BRANCH   1   7
ATOM      7  C   UNL     1      48.828  -1.513  72.438  1.00  0.00     0.000 C 
BRANCH   7   8
ATOM      8  C   UNL     1      48.980  -2.771  73.308  1.00  0.00    -0.000 C 
BRANCH   8   9
ATOM      9  C   UNL     1      49.601  -3.949  72.544  1.00  0.00    -0.000 C 
BRANCH   9  10
ATOM     10  C   UNL     1      48.938  -5.272  72.942  1.00  0.00    -0.003 C 
ATOM     11  C   UNL     1      47.546  -5.399  72.328  1.00  0.00     0.004 C 
ENDBRANCH   9  10
ENDBRANCH   8   9
ENDBRANCH   7   8
ENDBRANCH   1   7
TORSDOF 7
ENDMDL
MODEL 5
REMARK VINA RESULT:    -3.783     13.228     14.556
REMARK INTER + INTRA:          -5.701
REMARK INTER:                  -5.441
REMARK INTRA:                  -0.261
REMARK UNBOUND:                -0.370
REMARK SMILES CCCCCCCCC(=O)[O-]
REMARK SMILES IDX 6 1 7 2 8 3 9 4 10 5 11 6 5 7 4 8 3 9 2 10 1 11
REMARK H PARENT
REMARK Flexibility Score: inf
ROOT
ATOM      1  C   UNL     1      52.690  -2.315  73.149  1.00  0.00     0.000 C 
ENDROOT
BRANCH   1   2
ATOM      2  C   UNL     1      53.623  -3.415  72.623  1.00  0.00     0.006 C 
BRANCH   2   3
ATOM      3  C   UNL     1      54.725  -3.771  73.629  1.00  0.00     0.053 C 
BRANCH   3   4
ATOM      4  C   UNL     1      54.872  -5.253  73.791  1.00  0.00     0.041 C 
ATOM      5  O   UNL     1      55.992  -5.802  73.616  1.00  0.00    -0.550 OA
ATOM      6  O   UNL     1      53.765  -6.031  74.102  1.00  0.00    -0.550 OA
ENDBRANCH   3   4
ENDBRANCH   2   3
ENDBRANCH   1   2
BRANCH   1   7
ATOM      7  C   UNL     1      52.585  -1.158  72.143  1.00  0.00     0.000 C 
BRANCH   7   8
ATOM      8  C   UNL     1      51.188  -0.517  72.121  1.00  0.00    -0.000 C 
BRANCH   8   9
ATOM      9  C   UNL     1      50.067  -1.546  71.914  1.00  0.00    -0.000 C 
BRANCH   9  10
ATOM     10  C   UNL     1      48.706  -0.854  71.771  1.00  0.00    -0.003 C 
ATOM     11  C   UNL     1      48.454   0.112  72.925  1.00  0.00     0.004 C 
ENDBRANCH   9  10
ENDBRANCH   8   9
ENDBRANCH   7   8
ENDBRANCH   1   7
TORSDOF 7
ENDMDL
MODEL 6
REMARK VINA RESULT:    -3.750     13.158     14.731
REMARK INTER + INTRA:          -5.655
REMARK INTER:                  -5.278
REMARK INTRA:                  -0.376
REMARK UNBOUND:                -0.370
REMARK SMILES CCCCCCCCC(=O)[O-]
REMARK SMILES IDX 6 1 7 2 8 3 9 4 10 5 11 6 5 7 4 8 3 9 2 10 1 11
REMARK H PARENT
REMARK Flexibility Score: inf
ROOT
ATOM      1  C   UNL     1      51.980  -0.269  71.930  1.00  0.00     0.000 C 
ENDROOT
BRANCH   1   2
ATOM      2  C   UNL     1      53.256  -1.122  71.937  1.00  0.00     0.006 C 
BRANCH   2   3
ATOM      3  C   UNL     1      53.034  -2.496  72.582  1.00  0.00     0.053 C 
BRANCH   3   4
ATOM      4  C   UNL     1      54.281  -3.325  72.567  1.00  0.00     0.041 C 
ATOM      5  O   UNL     1      54.718  -3.833  73.634  1.00  0.00    -0.550 OA
ATOM      6  O   UNL     1      54.978  -3.511  71.380  1.00  0.00    -0.550 OA
ENDBRANCH   3   4
ENDBRANCH   2   3
ENDBRANCH   1   2
BRANCH   1   7
ATOM      7  C   UNL     1      50.837  -0.987  72.665  1.00  0.00     0.000 C 
BRANCH   7   8
ATOM      8  C   UNL     1      49.572  -1.125  71.801  1.00  0.00    -0.000 C 
BRANCH   8   9
ATOM      9  C   UNL     1      48.402  -0.280  72.325  1.00  0.00    -0.000 C 
BRANCH   9  10
ATOM     10  C   UNL     1      48.749   0.364  73.672  1.00  0.00    -0.003 C 
ATOM     11  C   UNL     1      48.634   1.884  73.603  1.00  0.00     0.004 C 
ENDBRANCH   9  10
ENDBRANCH   8   9
ENDBRANCH   7   8
ENDBRANCH   1   7
TORSDOF 7
ENDMDL
MODEL 7
REMARK VINA RESULT:    -3.725     12.067     13.986
REMARK INTER + INTRA:          -5.619
REMARK INTER:                  -4.931
REMARK INTRA:                  -0.687
REMARK UNBOUND:                -0.370
REMARK SMILES CCCCCCCCC(=O)[O-]
REMARK SMILES IDX 6 1 7 2 8 3 9 4 10 5 11 6 5 7 4 8 3 9 2 10 1 11
REMARK H PARENT
REMARK Flexibility Score: inf
ROOT
ATOM      1  C   UNL     1      50.360  -0.795  71.878  1.00  0.00     0.000 C 
ENDROOT
BRANCH   1   2
ATOM      2  C   UNL     1      51.001  -2.145  72.226  1.00  0.00     0.006 C 
BRANCH   2   3
ATOM      3  C   UNL     1      52.242  -1.987  73.115  1.00  0.00     0.053 C 
BRANCH   3   4
ATOM      4  C   UNL     1      53.508  -2.058  72.319  1.00  0.00     0.041 C 
ATOM      5  O   UNL     1      53.893  -1.064  71.648  1.00  0.00    -0.550 OA
ATOM      6  O   UNL     1      54.247  -3.234  72.292  1.00  0.00    -0.550 OA
ENDBRANCH   3   4
ENDBRANCH   2   3
ENDBRANCH   1   2
BRANCH   1   7
ATOM      7  C   UNL     1      48.831  -0.861  72.016  1.00  0.00     0.000 C 
BRANCH   7   8
ATOM      8  C   UNL     1      48.271   0.239  72.932  1.00  0.00    -0.000 C 
BRANCH   8   9
ATOM      9  C   UNL     1      48.981   0.296  74.293  1.00  0.00    -0.000 C 
BRANCH   9  10
ATOM     10  C   UNL     1      48.386  -0.729  75.264  1.00  0.00    -0.003 C 
ATOM     11  C   UNL     1      49.405  -1.810  75.618  1.00  0.00     0.004 C 
ENDBRANCH   9  10
ENDBRANCH   8   9
ENDBRANCH   7   8
ENDBRANCH   1   7
TORSDOF 7
ENDMDL
MODEL 8
REMARK VINA RESULT:    -3.706     12.525     14.409
REMARK INTER + INTRA:          -5.593
REMARK INTER:                  -5.249
REMARK INTRA:                  -0.344
REMARK UNBOUND:                -0.370
REMARK SMILES CCCCCCCCC(=O)[O-]
REMARK SMILES IDX 6 1 7 2 8 3 9 4 10 5 11 6 5 7 4 8 3 9 2 10 1 11
REMARK H PARENT
REMARK Flexibility Score: inf
ROOT
ATOM      1  C   UNL     1      51.583  -0.811  72.242  1.00  0.00     0.000 C 
ENDROOT
BRANCH   1   2
ATOM      2  C   UNL     1      52.989  -1.428  72.242  1.00  0.00     0.006 C 
BRANCH   2   3
ATOM      3  C   UNL     1      53.155  -2.495  73.332  1.00  0.00     0.053 C 
BRANCH   3   4
ATOM      4  C   UNL     1      54.131  -3.556  72.926  1.00  0.00     0.041 C 
ATOM      5  O   UNL     1      54.747  -3.467  71.832  1.00  0.00    -0.550 OA
ATOM      6  O   UNL     1      54.335  -4.661  73.743  1.00  0.00    -0.550 OA
ENDBRANCH   3   4
ENDBRANCH   2   3
ENDBRANCH   1   2
BRANCH   1   7
ATOM      7  C   UNL     1      50.520  -1.869  71.908  1.00  0.00     0.000 C 
BRANCH   7   8
ATOM      8  C   UNL     1      49.166  -1.581  72.578  1.00  0.00    -0.000 C 
BRANCH   8   9
ATOM      9  C   UNL     1      48.656  -2.763  73.415  1.00  0.00    -0.000 C 
BRANCH   9  10
ATOM     10  C   UNL     1      48.717  -4.069  72.614  1.00  0.00    -0.003 C 
ATOM     11  C   UNL     1      47.624  -5.039  73.057  1.00  0.00     0.004 C 
ENDBRANCH   9  10
ENDBRANCH   8   9
ENDBRANCH   7   8
ENDBRANCH   1   7
TORSDOF 7
ENDMDL
MODEL 9
REMARK VINA RESULT:    -3.677     12.518     13.884
REMARK INTER + INTRA:          -5.552
REMARK INTER:                  -5.198
REMARK INTRA:                  -0.355
REMARK UNBOUND:                -0.370
REMARK SMILES CCCCCCCCC(=O)[O-]
REMARK SMILES IDX 6 1 7 2 8 3 9 4 10 5 11 6 5 7 4 8 3 9 2 10 1 11
REMARK H PARENT
REMARK Flexibility Score: inf
ROOT
ATOM      1  C   UNL     1      48.674  -0.500  72.236  1.00  0.00     0.000 C 
ENDROOT
BRANCH   1   2
ATOM      2  C   UNL     1      48.956  -0.091  73.688  1.00  0.00     0.006 C 
BRANCH   2   3
ATOM      3  C   UNL     1      48.985   1.432  73.868  1.00  0.00     0.053 C 
BRANCH   3   4
ATOM      4  C   UNL     1      47.635   2.043  73.644  1.00  0.00     0.041 C 
ATOM      5  O   UNL     1      47.515   3.068  72.922  1.00  0.00    -0.550 OA
ATOM      6  O   UNL     1      46.515   1.498  74.259  1.00  0.00    -0.550 OA
ENDBRANCH   3   4
ENDBRANCH   2   3
ENDBRANCH   1   2
BRANCH   1   7
ATOM      7  C   UNL     1      49.828  -1.342  71.669  1.00  0.00     0.000 C 
BRANCH   7   8
ATOM      8  C   UNL     1      51.189  -0.970  72.280  1.00  0.00    -0.000 C 
BRANCH   8   9
ATOM      9  C   UNL     1      52.048  -2.200  72.607  1.00  0.00    -0.000 C 
BRANCH   9  10
ATOM     10  C   UNL     1      53.540  -1.850  72.578  1.00  0.00    -0.003 C 
ATOM     11  C   UNL     1      53.831  -0.756  71.554  1.00  0.00     0.004 C 
ENDBRANCH   9  10
ENDBRANCH   8   9
ENDBRANCH   7   8
ENDBRANCH   1   7
TORSDOF 7
ENDMDL
