MODEL 1
REMARK VINA RESULT:    -4.019      0.000      0.000
REMARK INTER + INTRA:          -4.698
REMARK INTER:                  -4.489
REMARK INTRA:                  -0.209
REMARK UNBOUND:                -0.209
REMARK SMILES CC(C)c1ccc(C(=O)[O-])cc1
REMARK SMILES IDX 7 1 6 2 11 3 5 4 12 5 4 6 8 7 9 8 10 9 2 10 1 11 3 12
REMARK H PARENT
REMARK Flexibility Score: inf
ROOT
ATOM      1  C   UNL     1      41.608 182.672 172.418  1.00  0.00    -0.003 A 
ATOM      2  C   UNL     1      41.439 183.947 172.987  1.00  0.00     0.010 A 
ATOM      3  C   UNL     1      40.593 182.155 171.596  1.00  0.00     0.010 A 
ATOM      4  C   UNL     1      40.281 184.687 172.739  1.00  0.00     0.004 A 
ATOM      5  C   UNL     1      39.435 182.896 171.347  1.00  0.00     0.004 A 
ATOM      6  C   UNL     1      39.264 184.169 171.915  1.00  0.00    -0.045 A 
ENDROOT
BRANCH   1   7
ATOM      7  C   UNL     1      42.833 181.885 172.679  1.00  0.00     0.071 C 
ATOM      8  O   UNL     1      43.572 181.514 171.729  1.00  0.00    -0.545 OA
ATOM      9  O   UNL     1      43.187 181.545 173.980  1.00  0.00    -0.545 OA
ENDBRANCH   1   7
BRANCH   6  10
ATOM     10  C   UNL     1      38.001 184.963 171.636  1.00  0.00     0.013 C 
ATOM     11  C   UNL     1      37.161 185.129 172.908  1.00  0.00     0.012 C 
ATOM     12  C   UNL     1      37.180 184.318 170.514  1.00  0.00     0.012 C 
ENDBRANCH   6  10
TORSDOF 2
ENDMDL
MODEL 2
REMARK VINA RESULT:    -3.882      3.686      5.373
REMARK INTER + INTRA:          -4.544
REMARK INTER:                  -4.326
REMARK INTRA:                  -0.218
REMARK UNBOUND:                -0.209
REMARK SMILES CC(C)c1ccc(C(=O)[O-])cc1
REMARK SMILES IDX 7 1 6 2 11 3 5 4 12 5 4 6 8 7 9 8 10 9 2 10 1 11 3 12
REMARK H PARENT
REMARK Flexibility Score: inf
ROOT
ATOM      1  C   UNL     1      37.866 183.327 170.847  1.00  0.00    -0.003 A 
ATOM      2  C   UNL     1      39.163 183.332 170.303  1.00  0.00     0.010 A 
ATOM      3  C   UNL     1      37.679 182.838 172.151  1.00  0.00     0.010 A 
ATOM      4  C   UNL     1      40.247 182.859 171.047  1.00  0.00     0.004 A 
ATOM      5  C   UNL     1      38.762 182.366 172.895  1.00  0.00     0.004 A 
ATOM      6  C   UNL     1      40.058 182.369 172.353  1.00  0.00    -0.045 A 
ENDROOT
BRANCH   1   7
ATOM      7  C   UNL     1      36.717 183.826 170.062  1.00  0.00     0.071 C 
ATOM      8  O   UNL     1      35.555 183.390 170.277  1.00  0.00    -0.545 OA
ATOM      9  O   UNL     1      36.903 184.787 169.074  1.00  0.00    -0.545 OA
ENDBRANCH   1   7
BRANCH   6  10
ATOM     10  C   UNL     1      41.227 181.853 173.173  1.00  0.00     0.013 C 
ATOM     11  C   UNL     1      42.477 181.678 172.303  1.00  0.00     0.012 C 
ATOM     12  C   UNL     1      40.864 180.547 173.888  1.00  0.00     0.012 C 
ENDBRANCH   6  10
TORSDOF 2
ENDMDL
MODEL 3
REMARK VINA RESULT:    -3.848      1.800      2.320
REMARK INTER + INTRA:          -4.507
REMARK INTER:                  -4.295
REMARK INTRA:                  -0.212
REMARK UNBOUND:                -0.209
REMARK SMILES CC(C)c1ccc(C(=O)[O-])cc1
REMARK SMILES IDX 7 1 6 2 11 3 5 4 12 5 4 6 8 7 9 8 10 9 2 10 1 11 3 12
REMARK H PARENT
REMARK Flexibility Score: inf
ROOT
ATOM      1  C   UNL     1      40.056 182.243 172.355  1.00  0.00    -0.003 A 
ATOM      2  C   UNL     1      38.800 182.229 172.985  1.00  0.00     0.010 A 
ATOM      3  C   UNL     1      40.169 182.810 171.074  1.00  0.00     0.010 A 
ATOM      4  C   UNL     1      37.680 182.771 172.348  1.00  0.00     0.004 A 
ATOM      5  C   UNL     1      39.050 183.353 170.438  1.00  0.00     0.004 A 
ATOM      6  C   UNL     1      37.793 183.339 171.065  1.00  0.00    -0.045 A 
ENDROOT
BRANCH   1   7
ATOM      7  C   UNL     1      41.243 181.670 173.026  1.00  0.00     0.071 C 
ATOM      8  O   UNL     1      42.015 182.402 173.700  1.00  0.00    -0.545 OA
ATOM      9  O   UNL     1      41.523 180.312 172.922  1.00  0.00    -0.545 OA
ENDBRANCH   1   7
BRANCH   6  10
ATOM     10  C   UNL     1      36.586 183.932 170.362  1.00  0.00     0.013 C 
ATOM     11  C   UNL     1      35.347 183.047 170.548  1.00  0.00     0.012 C 
ATOM     12  C   UNL     1      36.875 184.171 168.876  1.00  0.00     0.012 C 
ENDBRANCH   6  10
TORSDOF 2
ENDMDL
MODEL 4
REMARK VINA RESULT:    -3.802     22.848     23.508
REMARK INTER + INTRA:          -4.455
REMARK INTER:                  -4.239
REMARK INTRA:                  -0.217
REMARK UNBOUND:                -0.209
REMARK SMILES CC(C)c1ccc(C(=O)[O-])cc1
REMARK SMILES IDX 7 1 6 2 11 3 5 4 12 5 4 6 8 7 9 8 10 9 2 10 1 11 3 12
REMARK H PARENT
REMARK Flexibility Score: inf
ROOT
ATOM      1  C   UNL     1      32.477 168.710 156.137  1.00  0.00    -0.003 A 
ATOM      2  C   UNL     1      32.832 169.425 154.980  1.00  0.00     0.010 A 
ATOM      3  C   UNL     1      31.133 168.709 156.549  1.00  0.00     0.010 A 
ATOM      4  C   UNL     1      31.866 170.122 154.251  1.00  0.00     0.004 A 
ATOM      5  C   UNL     1      30.167 169.406 155.820  1.00  0.00     0.004 A 
ATOM      6  C   UNL     1      30.521 170.122 154.664  1.00  0.00    -0.045 A 
ENDROOT
BRANCH   1   7
ATOM      7  C   UNL     1      33.497 167.971 156.911  1.00  0.00     0.071 C 
ATOM      8  O   UNL     1      34.688 167.907 156.506  1.00  0.00    -0.545 OA
ATOM      9  O   UNL     1      33.155 167.335 158.099  1.00  0.00    -0.545 OA
ENDBRANCH   1   7
BRANCH   6  10
ATOM     10  C   UNL     1      29.460 170.875 153.882  1.00  0.00     0.013 C 
ATOM     11  C   UNL     1      29.744 172.382 153.875  1.00  0.00     0.012 C 
ATOM     12  C   UNL     1      28.058 170.580 154.426  1.00  0.00     0.012 C 
ENDBRANCH   6  10
TORSDOF 2
ENDMDL
MODEL 5
REMARK VINA RESULT:    -3.787     20.886     22.157
REMARK INTER + INTRA:          -4.439
REMARK INTER:                  -4.218
REMARK INTRA:                  -0.221
REMARK UNBOUND:                -0.209
REMARK SMILES CC(C)c1ccc(C(=O)[O-])cc1
REMARK SMILES IDX 7 1 6 2 11 3 5 4 12 5 4 6 8 7 9 8 10 9 2 10 1 11 3 12
REMARK H PARENT
REMARK Flexibility Score: inf
ROOT
ATOM      1  C   UNL     1      31.128 168.383 160.180  1.00  0.00    -0.003 A 
ATOM      2  C   UNL     1      32.077 167.369 159.962  1.00  0.00     0.010 A 
ATOM      3  C   UNL     1      30.824 169.266 159.131  1.00  0.00     0.010 A 
ATOM      4  C   UNL     1      32.707 167.241 158.722  1.00  0.00     0.004 A 
ATOM      5  C   UNL     1      31.454 169.138 157.890  1.00  0.00     0.004 A 
ATOM      6  C   UNL     1      32.403 168.126 157.671  1.00  0.00    -0.045 A 
ENDROOT
BRANCH   1   7
ATOM      7  C   UNL     1      30.460 168.521 161.492  1.00  0.00     0.071 C 
ATOM      8  O   UNL     1      30.493 167.582 162.331  1.00  0.00    -0.545 OA
ATOM      9  O   UNL     1      29.784 169.692 161.818  1.00  0.00    -0.545 OA
ENDBRANCH   1   7
BRANCH   6  10
ATOM     10  C   UNL     1      33.079 167.999 156.318  1.00  0.00     0.013 C 
ATOM     11  C   UNL     1      34.528 167.520 156.467  1.00  0.00     0.012 C 
ATOM     12  C   UNL     1      33.011 169.318 155.540  1.00  0.00     0.012 C 
ENDBRANCH   6  10
TORSDOF 2
ENDMDL
MODEL 6
REMARK VINA RESULT:    -3.784     20.931     22.149
REMARK INTER + INTRA:          -4.435
REMARK INTER:                  -4.214
REMARK INTRA:                  -0.221
REMARK UNBOUND:                -0.209
REMARK SMILES CC(C)c1ccc(C(=O)[O-])cc1
REMARK SMILES IDX 7 1 6 2 11 3 5 4 12 5 4 6 8 7 9 8 10 9 2 10 1 11 3 12
REMARK H PARENT
REMARK Flexibility Score: inf
ROOT
ATOM      1  C   UNL     1      31.162 168.328 160.185  1.00  0.00    -0.003 A 
ATOM      2  C   UNL     1      30.861 169.258 159.174  1.00  0.00     0.010 A 
ATOM      3  C   UNL     1      32.092 167.310 159.916  1.00  0.00     0.010 A 
ATOM      4  C   UNL     1      31.477 169.171 157.923  1.00  0.00     0.004 A 
ATOM      5  C   UNL     1      32.709 167.224 158.665  1.00  0.00     0.004 A 
ATOM      6  C   UNL     1      32.408 168.152 157.654  1.00  0.00    -0.045 A 
ENDROOT
BRANCH   1   7
ATOM      7  C   UNL     1      30.511 168.417 161.510  1.00  0.00     0.071 C 
ATOM      8  O   UNL     1      30.600 167.468 162.333  1.00  0.00    -0.545 OA
ATOM      9  O   UNL     1      29.792 169.552 161.866  1.00  0.00    -0.545 OA
ENDBRANCH   1   7
BRANCH   6  10
ATOM     10  C   UNL     1      33.085 168.045 156.300  1.00  0.00     0.013 C 
ATOM     11  C   UNL     1      34.533 167.559 156.442  1.00  0.00     0.012 C 
ATOM     12  C   UNL     1      33.022 169.378 155.545  1.00  0.00     0.012 C 
ENDBRANCH   6  10
TORSDOF 2
ENDMDL
MODEL 7
REMARK VINA RESULT:    -3.762      3.088      5.041
REMARK INTER + INTRA:          -4.411
REMARK INTER:                  -4.200
REMARK INTRA:                  -0.212
REMARK UNBOUND:                -0.209
REMARK SMILES CC(C)c1ccc(C(=O)[O-])cc1
REMARK SMILES IDX 7 1 6 2 11 3 5 4 12 5 4 6 8 7 9 8 10 9 2 10 1 11 3 12
REMARK H PARENT
REMARK Flexibility Score: inf
ROOT
ATOM      1  C   UNL     1      38.986 184.132 171.971  1.00  0.00    -0.003 A 
ATOM      2  C   UNL     1      39.844 184.684 172.938  1.00  0.00     0.010 A 
ATOM      3  C   UNL     1      39.330 182.906 171.378  1.00  0.00     0.010 A 
ATOM      4  C   UNL     1      41.019 184.024 173.304  1.00  0.00     0.004 A 
ATOM      5  C   UNL     1      40.505 182.245 171.744  1.00  0.00     0.004 A 
ATOM      6  C   UNL     1      41.364 182.796 172.710  1.00  0.00    -0.045 A 
ENDROOT
BRANCH   1   7
ATOM      7  C   UNL     1      37.741 184.829 171.581  1.00  0.00     0.071 C 
ATOM      8  O   UNL     1      37.039 184.403 170.626  1.00  0.00    -0.545 OA
ATOM      9  O   UNL     1      37.327 185.966 172.266  1.00  0.00    -0.545 OA
ENDBRANCH   1   7
BRANCH   6  10
ATOM     10  C   UNL     1      42.638 182.067 173.098  1.00  0.00     0.013 C 
ATOM     11  C   UNL     1      43.348 181.500 171.863  1.00  0.00     0.012 C 
ATOM     12  C   UNL     1      42.353 180.966 174.125  1.00  0.00     0.012 C 
ENDBRANCH   6  10
TORSDOF 2
ENDMDL
MODEL 8
REMARK VINA RESULT:    -3.734     13.593     15.080
REMARK INTER + INTRA:          -4.380
REMARK INTER:                  -4.166
REMARK INTRA:                  -0.214
REMARK UNBOUND:                -0.209
REMARK SMILES CC(C)c1ccc(C(=O)[O-])cc1
REMARK SMILES IDX 7 1 6 2 11 3 5 4 12 5 4 6 8 7 9 8 10 9 2 10 1 11 3 12
REMARK H PARENT
REMARK Flexibility Score: inf
ROOT
ATOM      1  C   UNL     1      27.578 178.531 168.022  1.00  0.00    -0.003 A 
ATOM      2  C   UNL     1      26.468 178.057 167.301  1.00  0.00     0.010 A 
ATOM      3  C   UNL     1      27.929 179.887 167.915  1.00  0.00     0.010 A 
ATOM      4  C   UNL     1      25.726 178.920 166.492  1.00  0.00     0.004 A 
ATOM      5  C   UNL     1      27.186 180.751 167.107  1.00  0.00     0.004 A 
ATOM      6  C   UNL     1      26.077 180.279 166.385  1.00  0.00    -0.045 A 
ENDROOT
BRANCH   1   7
ATOM      7  C   UNL     1      28.366 177.619 168.879  1.00  0.00     0.071 C 
ATOM      8  O   UNL     1      29.079 178.073 169.813  1.00  0.00    -0.545 OA
ATOM      9  O   UNL     1      28.330 176.246 168.667  1.00  0.00    -0.545 OA
ENDBRANCH   1   7
BRANCH   6  10
ATOM     10  C   UNL     1      25.280 181.228 165.509  1.00  0.00     0.013 C 
ATOM     11  C   UNL     1      25.485 180.913 164.023  1.00  0.00     0.012 C 
ATOM     12  C   UNL     1      25.630 182.689 165.818  1.00  0.00     0.012 C 
ENDBRANCH   6  10
TORSDOF 2
ENDMDL
MODEL 9
REMARK VINA RESULT:    -3.664      4.194      5.764
REMARK INTER + INTRA:          -4.301
REMARK INTER:                  -4.094
REMARK INTRA:                  -0.207
REMARK UNBOUND:                -0.209
REMARK SMILES CC(C)c1ccc(C(=O)[O-])cc1
REMARK SMILES IDX 7 1 6 2 11 3 5 4 12 5 4 6 8 7 9 8 10 9 2 10 1 11 3 12
REMARK H PARENT
REMARK Flexibility Score: inf
ROOT
ATOM      1  C   UNL     1      36.169 183.088 171.143  1.00  0.00    -0.003 A 
ATOM      2  C   UNL     1      36.923 183.684 170.116  1.00  0.00     0.010 A 
ATOM      3  C   UNL     1      36.838 182.564 172.261  1.00  0.00     0.010 A 
ATOM      4  C   UNL     1      38.315 183.753 170.207  1.00  0.00     0.004 A 
ATOM      5  C   UNL     1      38.231 182.633 172.352  1.00  0.00     0.004 A 
ATOM      6  C   UNL     1      38.986 183.227 171.327  1.00  0.00    -0.045 A 
ENDROOT
BRANCH   1   7
ATOM      7  C   UNL     1      34.695 183.013 171.050  1.00  0.00     0.071 C 
ATOM      8  O   UNL     1      34.138 182.614 169.993  1.00  0.00    -0.545 OA
ATOM      9  O   UNL     1      33.902 183.383 172.130  1.00  0.00    -0.545 OA
ENDBRANCH   1   7
BRANCH   6  10
ATOM     10  C   UNL     1      40.498 183.296 171.439  1.00  0.00     0.013 C 
ATOM     11  C   UNL     1      41.074 181.974 171.960  1.00  0.00     0.012 C 
ATOM     12  C   UNL     1      40.934 184.473 172.319  1.00  0.00     0.012 C 
ENDBRANCH   6  10
TORSDOF 2
ENDMDL
