MODEL 1
REMARK VINA RESULT:    -4.156      0.000      0.000
REMARK INTER + INTRA:          -7.530
REMARK INTER:                  -7.072
REMARK INTRA:                  -0.458
REMARK UNBOUND:                -0.458
REMARK SMILES CCCCCCCCCCCCCC(=O)[O-]
REMARK SMILES IDX 8 1 9 2 10 3 11 4 12 5 13 6 14 7 15 8 16 9 7 10 6 11 5 12
REMARK SMILES IDX 4 13 3 14 2 15 1 16
REMARK H PARENT
REMARK Flexibility Score: inf
ROOT
ATOM      1  C   UNL     1       1.584  -0.055  58.087  1.00  0.00     0.000 C 
ENDROOT
BRANCH   1   2
ATOM      2  C   UNL     1       0.555  -0.642  57.105  1.00  0.00     0.000 C 
BRANCH   2   3
ATOM      3  C   UNL     1      -0.032  -1.977  57.592  1.00  0.00     0.000 C 
BRANCH   3   4
ATOM      4  C   UNL     1      -1.558  -1.925  57.768  1.00  0.00     0.000 C 
BRANCH   4   5
ATOM      5  C   UNL     1      -1.932  -1.314  59.126  1.00  0.00     0.006 C 
BRANCH   5   6
ATOM      6  C   UNL     1      -2.901  -2.204  59.917  1.00  0.00     0.053 C 
BRANCH   6   7
ATOM      7  C   UNL     1      -4.302  -2.094  59.400  1.00  0.00     0.041 C 
ATOM      8  O   UNL     1      -4.765  -0.975  59.054  1.00  0.00    -0.550 OA
ATOM      9  O   UNL     1      -5.088  -3.233  59.271  1.00  0.00    -0.550 OA
ENDBRANCH   6   7
ENDBRANCH   5   6
ENDBRANCH   4   5
ENDBRANCH   3   4
ENDBRANCH   2   3
ENDBRANCH   1   2
BRANCH   1  10
ATOM     10  C   UNL     1       2.966   0.162  57.444  1.00  0.00     0.000 C 
BRANCH  10  11
ATOM     11  C   UNL     1       3.467   1.621  57.439  1.00  0.00    -0.000 C 
BRANCH  11  12
ATOM     12  C   UNL     1       4.569   1.931  56.410  1.00  0.00    -0.000 C 
BRANCH  12  13
ATOM     13  C   UNL     1       5.727   2.748  57.005  1.00  0.00    -0.000 C 
BRANCH  13  14
ATOM     14  C   UNL     1       6.494   1.928  58.054  1.00  0.00    -0.000 C 
BRANCH  14  15
ATOM     15  C   UNL     1       7.824   2.584  58.458  1.00  0.00    -0.003 C 
ATOM     16  C   UNL     1       8.911   2.421  57.396  1.00  0.00     0.004 C 
ENDBRANCH  14  15
ENDBRANCH  13  14
ENDBRANCH  12  13
ENDBRANCH  11  12
ENDBRANCH  10  11
ENDBRANCH   1  10
TORSDOF 12
ENDMDL
MODEL 2
REMARK VINA RESULT:    -4.070      4.602      9.126
REMARK INTER + INTRA:          -7.383
REMARK INTER:                  -6.622
REMARK INTRA:                  -0.761
REMARK UNBOUND:                -0.458
REMARK SMILES CCCCCCCCCCCCCC(=O)[O-]
REMARK SMILES IDX 8 1 9 2 10 3 11 4 12 5 13 6 14 7 15 8 16 9 7 10 6 11 5 12
REMARK SMILES IDX 4 13 3 14 2 15 1 16
REMARK H PARENT
REMARK Flexibility Score: inf
ROOT
ATOM      1  C   UNL     1       1.449  -1.047  57.637  1.00  0.00     0.000 C 
ENDROOT
BRANCH   1   2
ATOM      2  C   UNL     1       2.569   0.007  57.646  1.00  0.00     0.000 C 
BRANCH   2   3
ATOM      3  C   UNL     1       2.027   1.445  57.679  1.00  0.00     0.000 C 
BRANCH   3   4
ATOM      4  C   UNL     1       2.985   2.455  57.028  1.00  0.00     0.000 C 
BRANCH   4   5
ATOM      5  C   UNL     1       4.397   1.867  56.898  1.00  0.00     0.006 C 
BRANCH   5   6
ATOM      6  C   UNL     1       5.465   2.953  56.721  1.00  0.00     0.053 C 
BRANCH   6   7
ATOM      7  C   UNL     1       6.773   2.551  57.331  1.00  0.00     0.041 C 
ATOM      8  O   UNL     1       7.852   2.771  56.721  1.00  0.00    -0.550 OA
ATOM      9  O   UNL     1       6.801   1.963  58.590  1.00  0.00    -0.550 OA
ENDBRANCH   6   7
ENDBRANCH   5   6
ENDBRANCH   4   5
ENDBRANCH   3   4
ENDBRANCH   2   3
ENDBRANCH   1   2
BRANCH   1  10
ATOM     10  C   UNL     1       0.060  -0.445  57.916  1.00  0.00     0.000 C 
BRANCH  10  11
ATOM     11  C   UNL     1      -0.918  -0.468  56.724  1.00  0.00    -0.000 C 
BRANCH  11  12
ATOM     12  C   UNL     1      -2.401  -0.641  57.097  1.00  0.00    -0.000 C 
BRANCH  12  13
ATOM     13  C   UNL     1      -2.779  -2.103  57.379  1.00  0.00    -0.000 C 
BRANCH  13  14
ATOM     14  C   UNL     1      -3.548  -2.224  58.704  1.00  0.00    -0.000 C 
BRANCH  14  15
ATOM     15  C   UNL     1      -2.651  -1.986  59.930  1.00  0.00    -0.003 C 
ATOM     16  C   UNL     1      -3.345  -1.176  61.023  1.00  0.00     0.004 C 
ENDBRANCH  14  15
ENDBRANCH  13  14
ENDBRANCH  12  13
ENDBRANCH  11  12
ENDBRANCH  10  11
ENDBRANCH   1  10
TORSDOF 12
ENDMDL
MODEL 3
REMARK VINA RESULT:    -4.014     11.068     14.166
REMARK INTER + INTRA:          -7.288
REMARK INTER:                  -6.551
REMARK INTRA:                  -0.737
REMARK UNBOUND:                -0.458
REMARK SMILES CCCCCCCCCCCCCC(=O)[O-]
REMARK SMILES IDX 8 1 9 2 10 3 11 4 12 5 13 6 14 7 15 8 16 9 7 10 6 11 5 12
REMARK SMILES IDX 4 13 3 14 2 15 1 16
REMARK H PARENT
REMARK Flexibility Score: inf
ROOT
ATOM      1  C   UNL     1       6.677   2.656  68.701  1.00  0.00     0.000 C 
ENDROOT
BRANCH   1   2
ATOM      2  C   UNL     1       7.715   3.125  67.667  1.00  0.00     0.000 C 
BRANCH   2   3
ATOM      3  C   UNL     1       9.055   2.381  67.796  1.00  0.00     0.000 C 
BRANCH   3   4
ATOM      4  C   UNL     1      10.052   2.760  66.689  1.00  0.00     0.000 C 
BRANCH   4   5
ATOM      5  C   UNL     1      11.474   2.312  67.058  1.00  0.00     0.006 C 
BRANCH   5   6
ATOM      6  C   UNL     1      12.219   1.701  65.863  1.00  0.00     0.053 C 
BRANCH   6   7
ATOM      7  C   UNL     1      12.089   0.209  65.833  1.00  0.00     0.041 C 
ATOM      8  O   UNL     1      12.373  -0.432  64.787  1.00  0.00    -0.550 OA
ATOM      9  O   UNL     1      11.685  -0.477  66.972  1.00  0.00    -0.550 OA
ENDBRANCH   6   7
ENDBRANCH   5   6
ENDBRANCH   4   5
ENDBRANCH   3   4
ENDBRANCH   2   3
ENDBRANCH   1   2
BRANCH   1  10
ATOM     10  C   UNL     1       6.939   1.225  69.204  1.00  0.00     0.000 C 
BRANCH  10  11
ATOM     11  C   UNL     1       5.820   0.207  68.905  1.00  0.00    -0.000 C 
BRANCH  11  12
ATOM     12  C   UNL     1       4.623   0.764  68.113  1.00  0.00    -0.000 C 
BRANCH  12  13
ATOM     13  C   UNL     1       3.647  -0.332  67.659  1.00  0.00    -0.000 C 
BRANCH  13  14
ATOM     14  C   UNL     1       4.165  -1.724  68.050  1.00  0.00    -0.000 C 
BRANCH  14  15
ATOM     15  C   UNL     1       4.083  -2.731  66.891  1.00  0.00    -0.003 C 
ATOM     16  C   UNL     1       3.040  -2.344  65.844  1.00  0.00     0.004 C 
ENDBRANCH  14  15
ENDBRANCH  13  14
ENDBRANCH  12  13
ENDBRANCH  11  12
ENDBRANCH  10  11
ENDBRANCH   1  10
TORSDOF 12
ENDMDL
MODEL 4
REMARK VINA RESULT:    -3.943     11.953     15.578
REMARK INTER + INTRA:          -7.167
REMARK INTER:                  -5.559
REMARK INTRA:                  -1.608
REMARK UNBOUND:                -0.458
REMARK SMILES CCCCCCCCCCCCCC(=O)[O-]
REMARK SMILES IDX 8 1 9 2 10 3 11 4 12 5 13 6 14 7 15 8 16 9 7 10 6 11 5 12
REMARK SMILES IDX 4 13 3 14 2 15 1 16
REMARK H PARENT
REMARK Flexibility Score: inf
ROOT
ATOM      1  C   UNL     1      -3.785 -10.943  64.918  1.00  0.00     0.000 C 
ENDROOT
BRANCH   1   2
ATOM      2  C   UNL     1      -5.078 -10.322  64.363  1.00  0.00     0.000 C 
BRANCH   2   3
ATOM      3  C   UNL     1      -6.083  -9.964  65.470  1.00  0.00     0.000 C 
BRANCH   3   4
ATOM      4  C   UNL     1      -6.749  -8.597  65.246  1.00  0.00     0.000 C 
BRANCH   4   5
ATOM      5  C   UNL     1      -5.865  -7.462  65.784  1.00  0.00     0.006 C 
BRANCH   5   6
ATOM      6  C   UNL     1      -4.931  -6.893  64.708  1.00  0.00     0.053 C 
BRANCH   6   7
ATOM      7  C   UNL     1      -3.501  -6.903  65.153  1.00  0.00     0.041 C 
ATOM      8  O   UNL     1      -2.586  -6.562  64.357  1.00  0.00    -0.550 OA
ATOM      9  O   UNL     1      -3.180  -7.256  66.458  1.00  0.00    -0.550 OA
ENDBRANCH   6   7
ENDBRANCH   5   6
ENDBRANCH   4   5
ENDBRANCH   3   4
ENDBRANCH   2   3
ENDBRANCH   1   2
BRANCH   1  10
ATOM     10  C   UNL     1      -3.657 -10.793  66.445  1.00  0.00     0.000 C 
BRANCH  10  11
ATOM     11  C   UNL     1      -3.640 -12.117  67.236  1.00  0.00    -0.000 C 
BRANCH  11  12
ATOM     12  C   UNL     1      -3.733 -13.393  66.381  1.00  0.00    -0.000 C 
BRANCH  12  13
ATOM     13  C   UNL     1      -5.146 -13.995  66.360  1.00  0.00    -0.000 C 
BRANCH  13  14
ATOM     14  C   UNL     1      -5.671 -14.113  64.921  1.00  0.00    -0.000 C 
BRANCH  14  15
ATOM     15  C   UNL     1      -4.560 -14.457  63.915  1.00  0.00    -0.003 C 
ATOM     16  C   UNL     1      -4.892 -14.013  62.491  1.00  0.00     0.004 C 
ENDBRANCH  14  15
ENDBRANCH  13  14
ENDBRANCH  12  13
ENDBRANCH  11  12
ENDBRANCH  10  11
ENDBRANCH   1  10
TORSDOF 12
ENDMDL
MODEL 5
REMARK VINA RESULT:    -3.925     11.782     16.109
REMARK INTER + INTRA:          -7.137
REMARK INTER:                  -5.146
REMARK INTRA:                  -1.991
REMARK UNBOUND:                -0.458
REMARK SMILES CCCCCCCCCCCCCC(=O)[O-]
REMARK SMILES IDX 8 1 9 2 10 3 11 4 12 5 13 6 14 7 15 8 16 9 7 10 6 11 5 12
REMARK SMILES IDX 4 13 3 14 2 15 1 16
REMARK H PARENT
REMARK Flexibility Score: inf
ROOT
ATOM      1  C   UNL     1      -4.094 -14.080  64.898  1.00  0.00     0.000 C 
ENDROOT
BRANCH   1   2
ATOM      2  C   UNL     1      -4.662 -12.973  63.995  1.00  0.00     0.000 C 
BRANCH   2   3
ATOM      3  C   UNL     1      -4.101 -11.584  64.340  1.00  0.00     0.000 C 
BRANCH   3   4
ATOM      4  C   UNL     1      -5.186 -10.495  64.365  1.00  0.00     0.000 C 
BRANCH   4   5
ATOM      5  C   UNL     1      -4.696  -9.251  65.120  1.00  0.00     0.006 C 
BRANCH   5   6
ATOM      6  C   UNL     1      -3.315  -8.786  64.639  1.00  0.00     0.053 C 
BRANCH   6   7
ATOM      7  C   UNL     1      -3.161  -7.300  64.749  1.00  0.00     0.041 C 
ATOM      8  O   UNL     1      -2.427  -6.802  65.643  1.00  0.00    -0.550 OA
ATOM      9  O   UNL     1      -3.801  -6.465  63.842  1.00  0.00    -0.550 OA
ENDBRANCH   6   7
ENDBRANCH   5   6
ENDBRANCH   4   5
ENDBRANCH   3   4
ENDBRANCH   2   3
ENDBRANCH   1   2
BRANCH   1  10
ATOM     10  C   UNL     1      -5.074 -14.508  66.006  1.00  0.00     0.000 C 
BRANCH  10  11
ATOM     11  C   UNL     1      -6.471 -13.857  65.936  1.00  0.00    -0.000 C 
BRANCH  11  12
ATOM     12  C   UNL     1      -6.739 -12.767  66.989  1.00  0.00    -0.000 C 
BRANCH  12  13
ATOM     13  C   UNL     1      -5.659 -12.713  68.080  1.00  0.00    -0.000 C 
BRANCH  13  14
ATOM     14  C   UNL     1      -4.996 -11.328  68.128  1.00  0.00    -0.000 C 
BRANCH  14  15
ATOM     15  C   UNL     1      -3.477 -11.393  67.903  1.00  0.00    -0.003 C 
ATOM     16  C   UNL     1      -2.874 -12.733  68.323  1.00  0.00     0.004 C 
ENDBRANCH  14  15
ENDBRANCH  13  14
ENDBRANCH  12  13
ENDBRANCH  11  12
ENDBRANCH  10  11
ENDBRANCH   1  10
TORSDOF 12
ENDMDL
MODEL 6
REMARK VINA RESULT:    -3.862     10.868     14.946
REMARK INTER + INTRA:          -7.030
REMARK INTER:                  -5.358
REMARK INTRA:                  -1.672
REMARK UNBOUND:                -0.458
REMARK SMILES CCCCCCCCCCCCCC(=O)[O-]
REMARK SMILES IDX 8 1 9 2 10 3 11 4 12 5 13 6 14 7 15 8 16 9 7 10 6 11 5 12
REMARK SMILES IDX 4 13 3 14 2 15 1 16
REMARK H PARENT
REMARK Flexibility Score: inf
ROOT
ATOM      1  C   UNL     1      -5.875  -9.917  65.268  1.00  0.00     0.000 C 
ENDROOT
BRANCH   1   2
ATOM      2  C   UNL     1      -6.510  -8.598  64.797  1.00  0.00     0.000 C 
BRANCH   2   3
ATOM      3  C   UNL     1      -5.623  -7.378  65.091  1.00  0.00     0.000 C 
BRANCH   3   4
ATOM      4  C   UNL     1      -5.126  -7.341  66.545  1.00  0.00     0.000 C 
BRANCH   4   5
ATOM      5  C   UNL     1      -3.591  -7.364  66.600  1.00  0.00     0.006 C 
BRANCH   5   6
ATOM      6  C   UNL     1      -2.956  -7.098  65.229  1.00  0.00     0.053 C 
BRANCH   6   7
ATOM      7  C   UNL     1      -2.232  -5.787  65.198  1.00  0.00     0.041 C 
ATOM      8  O   UNL     1      -1.653  -5.357  66.231  1.00  0.00    -0.550 OA
ATOM      9  O   UNL     1      -2.167  -5.055  64.019  1.00  0.00    -0.550 OA
ENDBRANCH   6   7
ENDBRANCH   5   6
ENDBRANCH   4   5
ENDBRANCH   3   4
ENDBRANCH   2   3
ENDBRANCH   1   2
BRANCH   1  10
ATOM     10  C   UNL     1      -4.714 -10.376  64.367  1.00  0.00     0.000 C 
BRANCH  10  11
ATOM     11  C   UNL     1      -3.437 -10.816  65.113  1.00  0.00    -0.000 C 
BRANCH  11  12
ATOM     12  C   UNL     1      -3.660 -11.326  66.548  1.00  0.00    -0.000 C 
BRANCH  12  13
ATOM     13  C   UNL     1      -3.395 -12.833  66.693  1.00  0.00    -0.000 C 
BRANCH  13  14
ATOM     14  C   UNL     1      -4.556 -13.652  66.110  1.00  0.00    -0.000 C 
BRANCH  14  15
ATOM     15  C   UNL     1      -4.129 -14.500  64.901  1.00  0.00    -0.003 C 
ATOM     16  C   UNL     1      -4.777 -14.038  63.596  1.00  0.00     0.004 C 
ENDBRANCH  14  15
ENDBRANCH  13  14
ENDBRANCH  12  13
ENDBRANCH  11  12
ENDBRANCH  10  11
ENDBRANCH   1  10
TORSDOF 12
ENDMDL
MODEL 7
REMARK VINA RESULT:    -3.851     12.552     13.526
REMARK INTER + INTRA:          -7.010
REMARK INTER:                  -5.989
REMARK INTRA:                  -1.022
REMARK UNBOUND:                -0.458
REMARK SMILES CCCCCCCCCCCCCC(=O)[O-]
REMARK SMILES IDX 8 1 9 2 10 3 11 4 12 5 13 6 14 7 15 8 16 9 7 10 6 11 5 12
REMARK SMILES IDX 4 13 3 14 2 15 1 16
REMARK H PARENT
REMARK Flexibility Score: inf
ROOT
ATOM      1  C   UNL     1       4.452  -2.692  68.977  1.00  0.00     0.000 C 
ENDROOT
BRANCH   1   2
ATOM      2  C   UNL     1       4.046  -3.454  70.250  1.00  0.00     0.000 C 
BRANCH   2   3
ATOM      3  C   UNL     1       4.877  -4.729  70.466  1.00  0.00     0.000 C 
BRANCH   3   4
ATOM      4  C   UNL     1       4.786  -5.261  71.905  1.00  0.00     0.000 C 
BRANCH   4   5
ATOM      5  C   UNL     1       5.654  -6.516  72.081  1.00  0.00     0.006 C 
BRANCH   5   6
ATOM      6  C   UNL     1       6.420  -6.877  70.802  1.00  0.00     0.053 C 
BRANCH   6   7
ATOM      7  C   UNL     1       6.311  -8.337  70.483  1.00  0.00     0.041 C 
ATOM      8  O   UNL     1       7.348  -9.045  70.388  1.00  0.00    -0.550 OA
ATOM      9  O   UNL     1       5.061  -8.922  70.324  1.00  0.00    -0.550 OA
ENDBRANCH   6   7
ENDBRANCH   5   6
ENDBRANCH   4   5
ENDBRANCH   3   4
ENDBRANCH   2   3
ENDBRANCH   1   2
BRANCH   1  10
ATOM     10  C   UNL     1       4.596  -3.612  67.751  1.00  0.00     0.000 C 
BRANCH  10  11
ATOM     11  C   UNL     1       3.870  -3.130  66.478  1.00  0.00    -0.000 C 
BRANCH  11  12
ATOM     12  C   UNL     1       2.333  -3.114  66.568  1.00  0.00    -0.000 C 
BRANCH  12  13
ATOM     13  C   UNL     1       1.751  -1.693  66.590  1.00  0.00    -0.000 C 
BRANCH  13  14
ATOM     14  C   UNL     1       2.630  -0.727  65.781  1.00  0.00    -0.000 C 
BRANCH  14  15
ATOM     15  C   UNL     1       2.808   0.632  66.476  1.00  0.00    -0.003 C 
ATOM     16  C   UNL     1       3.728   0.558  67.694  1.00  0.00     0.004 C 
ENDBRANCH  14  15
ENDBRANCH  13  14
ENDBRANCH  12  13
ENDBRANCH  11  12
ENDBRANCH  10  11
ENDBRANCH   1  10
TORSDOF 12
ENDMDL
MODEL 8
REMARK VINA RESULT:    -3.842     10.104     15.054
REMARK INTER + INTRA:          -6.994
REMARK INTER:                  -5.700
REMARK INTRA:                  -1.295
REMARK UNBOUND:                -0.458
REMARK SMILES CCCCCCCCCCCCCC(=O)[O-]
REMARK SMILES IDX 8 1 9 2 10 3 11 4 12 5 13 6 14 7 15 8 16 9 7 10 6 11 5 12
REMARK SMILES IDX 4 13 3 14 2 15 1 16
REMARK H PARENT
REMARK Flexibility Score: inf
ROOT
ATOM      1  C   UNL     1      -4.834 -10.477  64.996  1.00  0.00     0.000 C 
ENDROOT
BRANCH   1   2
ATOM      2  C   UNL     1      -3.433 -10.355  64.374  1.00  0.00     0.000 C 
BRANCH   2   3
ATOM      3  C   UNL     1      -3.015  -8.894  64.142  1.00  0.00     0.000 C 
BRANCH   3   4
ATOM      4  C   UNL     1      -3.750  -7.912  65.068  1.00  0.00     0.000 C 
BRANCH   4   5
ATOM      5  C   UNL     1      -2.836  -6.743  65.463  1.00  0.00     0.006 C 
BRANCH   5   6
ATOM      6  C   UNL     1      -2.346  -5.951  64.244  1.00  0.00     0.053 C 
BRANCH   6   7
ATOM      7  C   UNL     1      -3.468  -5.230  63.562  1.00  0.00     0.041 C 
ATOM      8  O   UNL     1      -3.678  -5.401  62.332  1.00  0.00    -0.550 OA
ATOM      9  O   UNL     1      -4.304  -4.394  64.293  1.00  0.00    -0.550 OA
ENDBRANCH   6   7
ENDBRANCH   5   6
ENDBRANCH   4   5
ENDBRANCH   3   4
ENDBRANCH   2   3
ENDBRANCH   1   2
BRANCH   1  10
ATOM     10  C   UNL     1      -4.809 -11.073  66.415  1.00  0.00     0.000 C 
BRANCH  10  11
ATOM     11  C   UNL     1      -3.445 -11.634  66.869  1.00  0.00    -0.000 C 
BRANCH  11  12
ATOM     12  C   UNL     1      -3.465 -13.097  67.345  1.00  0.00    -0.000 C 
BRANCH  12  13
ATOM     13  C   UNL     1      -4.627 -13.904  66.746  1.00  0.00    -0.000 C 
BRANCH  13  14
ATOM     14  C   UNL     1      -4.252 -14.461  65.364  1.00  0.00    -0.000 C 
BRANCH  14  15
ATOM     15  C   UNL     1      -5.342 -14.206  64.310  1.00  0.00    -0.003 C 
ATOM     16  C   UNL     1      -4.770 -13.963  62.914  1.00  0.00     0.004 C 
ENDBRANCH  14  15
ENDBRANCH  13  14
ENDBRANCH  12  13
ENDBRANCH  11  12
ENDBRANCH  10  11
ENDBRANCH   1  10
TORSDOF 12
ENDMDL
MODEL 9
REMARK VINA RESULT:    -3.820     13.554     16.762
REMARK INTER + INTRA:          -6.958
REMARK INTER:                  -5.012
REMARK INTRA:                  -1.946
REMARK UNBOUND:                -0.458
REMARK SMILES CCCCCCCCCCCCCC(=O)[O-]
REMARK SMILES IDX 8 1 9 2 10 3 11 4 12 5 13 6 14 7 15 8 16 9 7 10 6 11 5 12
REMARK SMILES IDX 4 13 3 14 2 15 1 16
REMARK H PARENT
REMARK Flexibility Score: inf
ROOT
ATOM      1  C   UNL     1      -5.040 -15.111  66.906  1.00  0.00     0.000 C 
ENDROOT
BRANCH   1   2
ATOM      2  C   UNL     1      -4.175 -14.206  66.012  1.00  0.00     0.000 C 
BRANCH   2   3
ATOM      3  C   UNL     1      -4.455 -14.414  64.515  1.00  0.00     0.000 C 
BRANCH   3   4
ATOM      4  C   UNL     1      -4.855 -13.113  63.801  1.00  0.00     0.000 C 
BRANCH   4   5
ATOM      5  C   UNL     1      -4.091 -11.913  64.379  1.00  0.00     0.006 C 
BRANCH   5   6
ATOM      6  C   UNL     1      -4.937 -10.633  64.387  1.00  0.00     0.053 C 
BRANCH   6   7
ATOM      7  C   UNL     1      -4.103  -9.418  64.650  1.00  0.00     0.041 C 
ATOM      8  O   UNL     1      -2.947  -9.323  64.161  1.00  0.00    -0.550 OA
ATOM      9  O   UNL     1      -4.616  -8.374  65.410  1.00  0.00    -0.550 OA
ENDBRANCH   6   7
ENDBRANCH   5   6
ENDBRANCH   4   5
ENDBRANCH   3   4
ENDBRANCH   2   3
ENDBRANCH   1   2
BRANCH   1  10
ATOM     10  C   UNL     1      -6.107 -14.328  67.693  1.00  0.00     0.000 C 
BRANCH  10  11
ATOM     11  C   UNL     1      -6.985 -13.382  66.848  1.00  0.00    -0.000 C 
BRANCH  11  12
ATOM     12  C   UNL     1      -6.914 -11.896  67.242  1.00  0.00    -0.000 C 
BRANCH  12  13
ATOM     13  C   UNL     1      -6.009 -11.644  68.458  1.00  0.00    -0.000 C 
BRANCH  13  14
ATOM     14  C   UNL     1      -4.926 -10.606  68.129  1.00  0.00    -0.000 C 
BRANCH  14  15
ATOM     15  C   UNL     1      -3.524 -11.229  68.027  1.00  0.00    -0.003 C 
ATOM     16  C   UNL     1      -2.599 -10.794  69.162  1.00  0.00     0.004 C 
ENDBRANCH  14  15
ENDBRANCH  13  14
ENDBRANCH  12  13
ENDBRANCH  11  12
ENDBRANCH  10  11
ENDBRANCH   1  10
TORSDOF 12
ENDMDL
