MODEL 1
REMARK VINA RESULT:    -4.360      0.000      0.000
REMARK INTER + INTRA:         -13.192
REMARK INTER:                  -9.457
REMARK INTRA:                  -3.735
REMARK UNBOUND:                -3.735
REMARK SMILES CCCCCCCCCCCCCCCCCCCCCC(=O)[O-]
REMARK SMILES IDX 12 1 11 2 10 3 9 4 8 5 7 6 6 7 5 8 4 9 3 10 2 11 1 12 13 13
REMARK SMILES IDX 14 14 15 15 16 16 17 17 18 18 19 19 20 20 21 21 22 22 23 23
REMARK SMILES IDX 24 24
REMARK H PARENT
REMARK Flexibility Score: inf
ROOT
ATOM      1  C   UNL     1     -51.470  14.181 -29.441  1.00  0.00     0.000 C 
ENDROOT
BRANCH   1   2
ATOM      2  C   UNL     1     -51.430  12.647 -29.536  1.00  0.00     0.000 C 
BRANCH   2   3
ATOM      3  C   UNL     1     -50.207  12.042 -28.824  1.00  0.00     0.000 C 
BRANCH   3   4
ATOM      4  C   UNL     1     -50.073  10.529 -29.062  1.00  0.00    -0.000 C 
BRANCH   4   5
ATOM      5  C   UNL     1     -48.723  10.147 -29.695  1.00  0.00    -0.000 C 
BRANCH   5   6
ATOM      6  C   UNL     1     -48.799  10.035 -31.226  1.00  0.00    -0.000 C 
BRANCH   6   7
ATOM      7  C   UNL     1     -50.124   9.429 -31.713  1.00  0.00    -0.000 C 
BRANCH   7   8
ATOM      8  C   UNL     1     -50.920  10.449 -32.544  1.00  0.00    -0.000 C 
BRANCH   8   9
ATOM      9  C   UNL     1     -52.428  10.412 -32.247  1.00  0.00    -0.000 C 
BRANCH   9  10
ATOM     10  C   UNL     1     -52.823   9.237 -31.334  1.00  0.00    -0.000 C 
BRANCH  10  11
ATOM     11  C   UNL     1     -53.604   9.695 -30.093  1.00  0.00    -0.003 C 
ATOM     12  C   UNL     1     -55.057   9.215 -30.096  1.00  0.00     0.004 C 
ENDBRANCH  10  11
ENDBRANCH   9  10
ENDBRANCH   8   9
ENDBRANCH   7   8
ENDBRANCH   6   7
ENDBRANCH   5   6
ENDBRANCH   4   5
ENDBRANCH   3   4
ENDBRANCH   2   3
ENDBRANCH   1   2
BRANCH   1  13
ATOM     13  C   UNL     1     -51.991  14.838 -30.731  1.00  0.00     0.000 C 
BRANCH  13  14
ATOM     14  C   UNL     1     -52.951  13.928 -31.518  1.00  0.00     0.000 C 
BRANCH  14  15
ATOM     15  C   UNL     1     -54.451  14.162 -31.245  1.00  0.00     0.000 C 
BRANCH  15  16
ATOM     16  C   UNL     1     -55.252  12.900 -30.870  1.00  0.00     0.000 C 
BRANCH  16  17
ATOM     17  C   UNL     1     -55.783  12.875 -29.423  1.00  0.00     0.000 C 
BRANCH  17  18
ATOM     18  C   UNL     1     -54.884  13.583 -28.390  1.00  0.00     0.000 C 
BRANCH  18  19
ATOM     19  C   UNL     1     -55.450  14.902 -27.826  1.00  0.00     0.000 C 
BRANCH  19  20
ATOM     20  C   UNL     1     -54.632  16.164 -28.171  1.00  0.00     0.006 C 
BRANCH  20  21
ATOM     21  C   UNL     1     -55.332  17.127 -29.143  1.00  0.00     0.053 C 
BRANCH  21  22
ATOM     22  C   UNL     1     -54.370  18.095 -29.761  1.00  0.00     0.041 C 
ATOM     23  O   UNL     1     -53.938  17.901 -30.927  1.00  0.00    -0.550 OA
ATOM     24  O   UNL     1     -53.926  19.195 -29.038  1.00  0.00    -0.550 OA
ENDBRANCH  21  22
ENDBRANCH  20  21
ENDBRANCH  19  20
ENDBRANCH  18  19
ENDBRANCH  17  18
ENDBRANCH  16  17
ENDBRANCH  15  16
ENDBRANCH  14  15
ENDBRANCH  13  14
ENDBRANCH   1  13
TORSDOF 20
ENDMDL
MODEL 2
REMARK VINA RESULT:    -4.204      1.025      3.533
REMARK INTER + INTRA:         -12.855
REMARK INTER:                  -9.373
REMARK INTRA:                  -3.482
REMARK UNBOUND:                -3.735
REMARK SMILES CCCCCCCCCCCCCCCCCCCCCC(=O)[O-]
REMARK SMILES IDX 12 1 11 2 10 3 9 4 8 5 7 6 6 7 5 8 4 9 3 10 2 11 1 12 13 13
REMARK SMILES IDX 14 14 15 15 16 16 17 17 18 18 19 19 20 20 21 21 22 22 23 23
REMARK SMILES IDX 24 24
REMARK H PARENT
REMARK Flexibility Score: inf
ROOT
ATOM      1  C   UNL     1     -51.415  10.544 -32.572  1.00  0.00     0.000 C 
ENDROOT
BRANCH   1   2
ATOM      2  C   UNL     1     -51.406   9.054 -32.191  1.00  0.00     0.000 C 
BRANCH   2   3
ATOM      3  C   UNL     1     -50.104   8.632 -31.486  1.00  0.00     0.000 C 
BRANCH   3   4
ATOM      4  C   UNL     1     -49.045   9.747 -31.486  1.00  0.00    -0.000 C 
BRANCH   4   5
ATOM      5  C   UNL     1     -48.617  10.155 -30.065  1.00  0.00    -0.000 C 
BRANCH   5   6
ATOM      6  C   UNL     1     -49.790  10.684 -29.224  1.00  0.00    -0.000 C 
BRANCH   6   7
ATOM      7  C   UNL     1     -49.851  12.219 -29.187  1.00  0.00    -0.000 C 
BRANCH   7   8
ATOM      8  C   UNL     1     -51.049  12.700 -28.352  1.00  0.00    -0.000 C 
BRANCH   8   9
ATOM      9  C   UNL     1     -52.106  13.431 -29.195  1.00  0.00    -0.000 C 
BRANCH   9  10
ATOM     10  C   UNL     1     -51.490  14.482 -30.137  1.00  0.00    -0.000 C 
BRANCH  10  11
ATOM     11  C   UNL     1     -52.472  14.943 -31.224  1.00  0.00    -0.003 C 
ATOM     12  C   UNL     1     -52.437  16.456 -31.451  1.00  0.00     0.004 C 
ENDBRANCH  10  11
ENDBRANCH   9  10
ENDBRANCH   8   9
ENDBRANCH   7   8
ENDBRANCH   6   7
ENDBRANCH   5   6
ENDBRANCH   4   5
ENDBRANCH   3   4
ENDBRANCH   2   3
ENDBRANCH   1   2
BRANCH   1  13
ATOM     13  C   UNL     1     -52.722  11.248 -32.170  1.00  0.00     0.000 C 
BRANCH  13  14
ATOM     14  C   UNL     1     -53.479  10.508 -31.052  1.00  0.00     0.000 C 
BRANCH  14  15
ATOM     15  C   UNL     1     -54.963  10.898 -30.895  1.00  0.00     0.000 C 
BRANCH  15  16
ATOM     16  C   UNL     1     -55.252  12.411 -30.954  1.00  0.00     0.000 C 
BRANCH  16  17
ATOM     17  C   UNL     1     -55.760  13.026 -29.634  1.00  0.00     0.000 C 
BRANCH  17  18
ATOM     18  C   UNL     1     -55.762  14.567 -29.595  1.00  0.00     0.000 C 
BRANCH  18  19
ATOM     19  C   UNL     1     -55.415  15.186 -28.227  1.00  0.00     0.000 C 
BRANCH  19  20
ATOM     20  C   UNL     1     -54.506  16.432 -28.285  1.00  0.00     0.006 C 
BRANCH  20  21
ATOM     21  C   UNL     1     -55.262  17.762 -28.428  1.00  0.00     0.053 C 
BRANCH  21  22
ATOM     22  C   UNL     1     -54.998  18.417 -29.749  1.00  0.00     0.041 C 
ATOM     23  O   UNL     1     -55.568  17.997 -30.790  1.00  0.00    -0.550 OA
ATOM     24  O   UNL     1     -54.096  19.471 -29.837  1.00  0.00    -0.550 OA
ENDBRANCH  21  22
ENDBRANCH  20  21
ENDBRANCH  19  20
ENDBRANCH  18  19
ENDBRANCH  17  18
ENDBRANCH  16  17
ENDBRANCH  15  16
ENDBRANCH  14  15
ENDBRANCH  13  14
ENDBRANCH   1  13
TORSDOF 20
ENDMDL
MODEL 3
REMARK VINA RESULT:    -4.189      1.434      3.365
REMARK INTER + INTRA:         -12.822
REMARK INTER:                  -9.686
REMARK INTRA:                  -3.136
REMARK UNBOUND:                -3.735
REMARK SMILES CCCCCCCCCCCCCCCCCCCCCC(=O)[O-]
REMARK SMILES IDX 12 1 11 2 10 3 9 4 8 5 7 6 6 7 5 8 4 9 3 10 2 11 1 12 13 13
REMARK SMILES IDX 14 14 15 15 16 16 17 17 18 18 19 19 20 20 21 21 22 22 23 23
REMARK SMILES IDX 24 24
REMARK H PARENT
REMARK Flexibility Score: inf
ROOT
ATOM      1  C   UNL     1     -50.956   9.658 -29.263  1.00  0.00     0.000 C 
ENDROOT
BRANCH   1   2
ATOM      2  C   UNL     1     -50.490   8.253 -29.680  1.00  0.00     0.000 C 
BRANCH   2   3
ATOM      3  C   UNL     1     -49.331   8.291 -30.692  1.00  0.00     0.000 C 
BRANCH   3   4
ATOM      4  C   UNL     1     -49.817   8.205 -32.148  1.00  0.00    -0.000 C 
BRANCH   4   5
ATOM      5  C   UNL     1     -49.720   9.553 -32.884  1.00  0.00    -0.000 C 
BRANCH   5   6
ATOM      6  C   UNL     1     -51.045  10.331 -32.867  1.00  0.00    -0.000 C 
BRANCH   6   7
ATOM      7  C   UNL     1     -52.272   9.415 -32.742  1.00  0.00    -0.000 C 
BRANCH   7   8
ATOM      8  C   UNL     1     -53.440  10.152 -32.067  1.00  0.00    -0.000 C 
BRANCH   8   9
ATOM      9  C   UNL     1     -53.289  11.681 -32.119  1.00  0.00    -0.000 C 
BRANCH   9  10
ATOM     10  C   UNL     1     -54.557  12.418 -31.652  1.00  0.00    -0.000 C 
BRANCH  10  11
ATOM     11  C   UNL     1     -55.354  11.615 -30.613  1.00  0.00    -0.003 C 
ATOM     12  C   UNL     1     -54.897  11.886 -29.178  1.00  0.00     0.004 C 
ENDBRANCH  10  11
ENDBRANCH   9  10
ENDBRANCH   8   9
ENDBRANCH   7   8
ENDBRANCH   6   7
ENDBRANCH   5   6
ENDBRANCH   4   5
ENDBRANCH   3   4
ENDBRANCH   2   3
ENDBRANCH   1   2
BRANCH   1  13
ATOM     13  C   UNL     1     -49.811  10.685 -29.270  1.00  0.00     0.000 C 
BRANCH  13  14
ATOM     14  C   UNL     1     -50.252  12.073 -28.769  1.00  0.00     0.000 C 
BRANCH  14  15
ATOM     15  C   UNL     1     -51.388  12.732 -29.577  1.00  0.00     0.000 C 
BRANCH  15  16
ATOM     16  C   UNL     1     -51.429  14.272 -29.512  1.00  0.00     0.000 C 
BRANCH  16  17
ATOM     17  C   UNL     1     -51.651  14.972 -30.867  1.00  0.00     0.000 C 
BRANCH  17  18
ATOM     18  C   UNL     1     -52.998  15.708 -31.004  1.00  0.00     0.000 C 
BRANCH  18  19
ATOM     19  C   UNL     1     -53.910  15.640 -29.764  1.00  0.00     0.000 C 
BRANCH  19  20
ATOM     20  C   UNL     1     -54.546  16.982 -29.346  1.00  0.00     0.006 C 
BRANCH  20  21
ATOM     21  C   UNL     1     -55.096  17.814 -30.515  1.00  0.00     0.053 C 
BRANCH  21  22
ATOM     22  C   UNL     1     -54.490  19.183 -30.561  1.00  0.00     0.041 C 
ATOM     23  O   UNL     1     -55.178  20.168 -30.938  1.00  0.00    -0.550 OA
ATOM     24  O   UNL     1     -53.156  19.366 -30.220  1.00  0.00    -0.550 OA
ENDBRANCH  21  22
ENDBRANCH  20  21
ENDBRANCH  19  20
ENDBRANCH  18  19
ENDBRANCH  17  18
ENDBRANCH  16  17
ENDBRANCH  15  16
ENDBRANCH  14  15
ENDBRANCH  13  14
ENDBRANCH   1  13
TORSDOF 20
ENDMDL
MODEL 4
REMARK VINA RESULT:    -4.154      1.043      1.901
REMARK INTER + INTRA:         -12.746
REMARK INTER:                  -9.557
REMARK INTRA:                  -3.189
REMARK UNBOUND:                -3.735
REMARK SMILES CCCCCCCCCCCCCCCCCCCCCC(=O)[O-]
REMARK SMILES IDX 12 1 11 2 10 3 9 4 8 5 7 6 6 7 5 8 4 9 3 10 2 11 1 12 13 13
REMARK SMILES IDX 14 14 15 15 16 16 17 17 18 18 19 19 20 20 21 21 22 22 23 23
REMARK SMILES IDX 24 24
REMARK H PARENT
REMARK Flexibility Score: inf
ROOT
ATOM      1  C   UNL     1     -51.916  15.372 -30.845  1.00  0.00     0.000 C 
ENDROOT
BRANCH   1   2
ATOM      2  C   UNL     1     -51.391  13.955 -30.561  1.00  0.00     0.000 C 
BRANCH   2   3
ATOM      3  C   UNL     1     -51.378  13.620 -29.059  1.00  0.00     0.000 C 
BRANCH   3   4
ATOM      4  C   UNL     1     -51.189  12.118 -28.791  1.00  0.00    -0.000 C 
BRANCH   4   5
ATOM      5  C   UNL     1     -49.722  11.673 -28.923  1.00  0.00    -0.000 C 
BRANCH   5   6
ATOM      6  C   UNL     1     -49.585  10.220 -29.403  1.00  0.00    -0.000 C 
BRANCH   6   7
ATOM      7  C   UNL     1     -48.871  10.107 -30.759  1.00  0.00    -0.000 C 
BRANCH   7   8
ATOM      8  C   UNL     1     -49.287   8.821 -31.491  1.00  0.00    -0.000 C 
BRANCH   8   9
ATOM      9  C   UNL     1     -50.664   8.939 -32.164  1.00  0.00    -0.000 C 
BRANCH   9  10
ATOM     10  C   UNL     1     -50.924  10.343 -32.739  1.00  0.00    -0.000 C 
BRANCH  10  11
ATOM     11  C   UNL     1     -52.373  10.807 -32.523  1.00  0.00    -0.003 C 
ATOM     12  C   UNL     1     -53.023  10.168 -31.295  1.00  0.00     0.004 C 
ENDBRANCH  10  11
ENDBRANCH   9  10
ENDBRANCH   8   9
ENDBRANCH   7   8
ENDBRANCH   6   7
ENDBRANCH   5   6
ENDBRANCH   4   5
ENDBRANCH   3   4
ENDBRANCH   2   3
ENDBRANCH   1   2
BRANCH   1  13
ATOM     13  C   UNL     1     -53.396  15.380 -31.263  1.00  0.00     0.000 C 
BRANCH  13  14
ATOM     14  C   UNL     1     -53.856  14.036 -31.855  1.00  0.00     0.000 C 
BRANCH  14  15
ATOM     15  C   UNL     1     -55.088  13.405 -31.174  1.00  0.00     0.000 C 
BRANCH  15  16
ATOM     16  C   UNL     1     -55.056  13.408 -29.632  1.00  0.00     0.000 C 
BRANCH  16  17
ATOM     17  C   UNL     1     -56.031  14.398 -28.965  1.00  0.00     0.000 C 
BRANCH  17  18
ATOM     18  C   UNL     1     -55.467  15.136 -27.736  1.00  0.00     0.000 C 
BRANCH  18  19
ATOM     19  C   UNL     1     -54.645  16.401 -28.053  1.00  0.00     0.000 C 
BRANCH  19  20
ATOM     20  C   UNL     1     -55.405  17.733 -27.882  1.00  0.00     0.006 C 
BRANCH  20  21
ATOM     21  C   UNL     1     -54.637  18.970 -28.374  1.00  0.00     0.053 C 
BRANCH  21  22
ATOM     22  C   UNL     1     -54.354  18.905 -29.844  1.00  0.00     0.041 C 
ATOM     23  O   UNL     1     -55.284  18.661 -30.657  1.00  0.00    -0.550 OA
ATOM     24  O   UNL     1     -53.058  19.081 -30.313  1.00  0.00    -0.550 OA
ENDBRANCH  21  22
ENDBRANCH  20  21
ENDBRANCH  19  20
ENDBRANCH  18  19
ENDBRANCH  17  18
ENDBRANCH  16  17
ENDBRANCH  15  16
ENDBRANCH  14  15
ENDBRANCH  13  14
ENDBRANCH   1  13
TORSDOF 20
ENDMDL
MODEL 5
REMARK VINA RESULT:    -4.137      2.190      6.859
REMARK INTER + INTRA:         -12.708
REMARK INTER:                  -9.748
REMARK INTRA:                  -2.960
REMARK UNBOUND:                -3.735
REMARK SMILES CCCCCCCCCCCCCCCCCCCCCC(=O)[O-]
REMARK SMILES IDX 12 1 11 2 10 3 9 4 8 5 7 6 6 7 5 8 4 9 3 10 2 11 1 12 13 13
REMARK SMILES IDX 14 14 15 15 16 16 17 17 18 18 19 19 20 20 21 21 22 22 23 23
REMARK SMILES IDX 24 24
REMARK H PARENT
REMARK Flexibility Score: inf
ROOT
ATOM      1  C   UNL     1     -50.865  11.653 -29.207  1.00  0.00     0.000 C 
ENDROOT
BRANCH   1   2
ATOM      2  C   UNL     1     -50.779  13.050 -28.571  1.00  0.00     0.000 C 
BRANCH   2   3
ATOM      3  C   UNL     1     -51.599  14.101 -29.340  1.00  0.00     0.000 C 
BRANCH   3   4
ATOM      4  C   UNL     1     -51.938  13.654 -30.771  1.00  0.00    -0.000 C 
BRANCH   4   5
ATOM      5  C   UNL     1     -53.131  14.424 -31.365  1.00  0.00    -0.000 C 
BRANCH   5   6
ATOM      6  C   UNL     1     -53.657  15.518 -30.422  1.00  0.00    -0.000 C 
BRANCH   6   7
ATOM      7  C   UNL     1     -55.128  15.308 -30.031  1.00  0.00    -0.000 C 
BRANCH   7   8
ATOM      8  C   UNL     1     -55.328  15.517 -28.521  1.00  0.00    -0.000 C 
BRANCH   8   9
ATOM      9  C   UNL     1     -54.713  16.833 -28.016  1.00  0.00    -0.000 C 
BRANCH   9  10
ATOM     10  C   UNL     1     -55.739  17.979 -27.950  1.00  0.00    -0.000 C 
BRANCH  10  11
ATOM     11  C   UNL     1     -55.216  19.272 -28.595  1.00  0.00    -0.003 C 
ATOM     12  C   UNL     1     -53.933  19.057 -29.399  1.00  0.00     0.004 C 
ENDBRANCH  10  11
ENDBRANCH   9  10
ENDBRANCH   8   9
ENDBRANCH   7   8
ENDBRANCH   6   7
ENDBRANCH   5   6
ENDBRANCH   4   5
ENDBRANCH   3   4
ENDBRANCH   2   3
ENDBRANCH   1   2
BRANCH   1  13
ATOM     13  C   UNL     1     -49.505  10.935 -29.240  1.00  0.00     0.000 C 
BRANCH  13  14
ATOM     14  C   UNL     1     -49.542   9.625 -30.047  1.00  0.00     0.000 C 
BRANCH  14  15
ATOM     15  C   UNL     1     -48.959   9.715 -31.473  1.00  0.00     0.000 C 
BRANCH  15  16
ATOM     16  C   UNL     1     -49.976   9.495 -32.610  1.00  0.00     0.000 C 
BRANCH  16  17
ATOM     17  C   UNL     1     -51.031  10.609 -32.762  1.00  0.00     0.000 C 
BRANCH  17  18
ATOM     18  C   UNL     1     -52.493  10.144 -32.605  1.00  0.00     0.000 C 
BRANCH  18  19
ATOM     19  C   UNL     1     -52.793   9.353 -31.317  1.00  0.00     0.000 C 
BRANCH  19  20
ATOM     20  C   UNL     1     -54.286   9.265 -30.937  1.00  0.00     0.006 C 
BRANCH  20  21
ATOM     21  C   UNL     1     -54.631   9.883 -29.573  1.00  0.00     0.053 C 
BRANCH  21  22
ATOM     22  C   UNL     1     -54.834  11.364 -29.665  1.00  0.00     0.041 C 
ATOM     23  O   UNL     1     -54.460  12.114 -28.725  1.00  0.00    -0.550 OA
ATOM     24  O   UNL     1     -55.466  11.914 -30.773  1.00  0.00    -0.550 OA
ENDBRANCH  21  22
ENDBRANCH  20  21
ENDBRANCH  19  20
ENDBRANCH  18  19
ENDBRANCH  17  18
ENDBRANCH  16  17
ENDBRANCH  15  16
ENDBRANCH  14  15
ENDBRANCH  13  14
ENDBRANCH   1  13
TORSDOF 20
ENDMDL
MODEL 6
REMARK VINA RESULT:    -4.077      2.674      6.824
REMARK INTER + INTRA:         -12.579
REMARK INTER:                  -9.180
REMARK INTRA:                  -3.399
REMARK UNBOUND:                -3.735
REMARK SMILES CCCCCCCCCCCCCCCCCCCCCC(=O)[O-]
REMARK SMILES IDX 12 1 11 2 10 3 9 4 8 5 7 6 6 7 5 8 4 9 3 10 2 11 1 12 13 13
REMARK SMILES IDX 14 14 15 15 16 16 17 17 18 18 19 19 20 20 21 21 22 22 23 23
REMARK SMILES IDX 24 24
REMARK H PARENT
REMARK Flexibility Score: inf
ROOT
ATOM      1  C   UNL     1     -50.478  12.161 -28.571  1.00  0.00     0.000 C 
ENDROOT
BRANCH   1   2
ATOM      2  C   UNL     1     -51.913  12.702 -28.672  1.00  0.00     0.000 C 
BRANCH   2   3
ATOM      3  C   UNL     1     -51.956  14.216 -28.945  1.00  0.00     0.000 C 
BRANCH   3   4
ATOM      4  C   UNL     1     -51.676  14.558 -30.418  1.00  0.00    -0.000 C 
BRANCH   4   5
ATOM      5  C   UNL     1     -52.957  14.889 -31.203  1.00  0.00    -0.000 C 
BRANCH   5   6
ATOM      6  C   UNL     1     -53.535  13.666 -31.933  1.00  0.00    -0.000 C 
BRANCH   6   7
ATOM      7  C   UNL     1     -54.736  13.049 -31.201  1.00  0.00    -0.000 C 
BRANCH   7   8
ATOM      8  C   UNL     1     -55.425  14.090 -30.305  1.00  0.00    -0.000 C 
BRANCH   8   9
ATOM      9  C   UNL     1     -55.681  13.573 -28.880  1.00  0.00    -0.000 C 
BRANCH   9  10
ATOM     10  C   UNL     1     -55.450  14.652 -27.807  1.00  0.00    -0.000 C 
BRANCH  10  11
ATOM     11  C   UNL     1     -55.236  16.047 -28.414  1.00  0.00    -0.003 C 
ATOM     12  C   UNL     1     -55.036  17.131 -27.353  1.00  0.00     0.004 C 
ENDBRANCH  10  11
ENDBRANCH   9  10
ENDBRANCH   8   9
ENDBRANCH   7   8
ENDBRANCH   6   7
ENDBRANCH   5   6
ENDBRANCH   4   5
ENDBRANCH   3   4
ENDBRANCH   2   3
ENDBRANCH   1   2
BRANCH   1  13
ATOM     13  C   UNL     1     -50.122  11.211 -29.727  1.00  0.00     0.000 C 
BRANCH  13  14
ATOM     14  C   UNL     1     -49.211  10.051 -29.288  1.00  0.00     0.000 C 
BRANCH  14  15
ATOM     15  C   UNL     1     -49.691   8.645 -29.706  1.00  0.00     0.000 C 
BRANCH  15  16
ATOM     16  C   UNL     1     -48.954   8.036 -30.915  1.00  0.00     0.000 C 
BRANCH  16  17
ATOM     17  C   UNL     1     -49.814   7.875 -32.184  1.00  0.00     0.000 C 
BRANCH  17  18
ATOM     18  C   UNL     1     -50.372   9.191 -32.761  1.00  0.00     0.000 C 
BRANCH  18  19
ATOM     19  C   UNL     1     -51.898   9.215 -32.977  1.00  0.00     0.000 C 
BRANCH  19  20
ATOM     20  C   UNL     1     -52.696   9.995 -31.911  1.00  0.00     0.006 C 
BRANCH  20  21
ATOM     21  C   UNL     1     -53.143   9.149 -30.709  1.00  0.00     0.053 C 
BRANCH  21  22
ATOM     22  C   UNL     1     -54.558   9.442 -30.313  1.00  0.00     0.041 C 
ATOM     23  O   UNL     1     -55.511   9.066 -31.045  1.00  0.00    -0.550 OA
ATOM     24  O   UNL     1     -54.823  10.159 -29.153  1.00  0.00    -0.550 OA
ENDBRANCH  21  22
ENDBRANCH  20  21
ENDBRANCH  19  20
ENDBRANCH  18  19
ENDBRANCH  17  18
ENDBRANCH  16  17
ENDBRANCH  15  16
ENDBRANCH  14  15
ENDBRANCH  13  14
ENDBRANCH   1  13
TORSDOF 20
ENDMDL
MODEL 7
REMARK VINA RESULT:    -4.067      3.161      7.387
REMARK INTER + INTRA:         -12.557
REMARK INTER:                  -9.157
REMARK INTRA:                  -3.399
REMARK UNBOUND:                -3.735
REMARK SMILES CCCCCCCCCCCCCCCCCCCCCC(=O)[O-]
REMARK SMILES IDX 12 1 11 2 10 3 9 4 8 5 7 6 6 7 5 8 4 9 3 10 2 11 1 12 13 13
REMARK SMILES IDX 14 14 15 15 16 16 17 17 18 18 19 19 20 20 21 21 22 22 23 23
REMARK SMILES IDX 24 24
REMARK H PARENT
REMARK Flexibility Score: inf
ROOT
ATOM      1  C   UNL     1     -51.656  14.441 -29.761  1.00  0.00     0.000 C 
ENDROOT
BRANCH   1   2
ATOM      2  C   UNL     1     -52.372  14.284 -31.113  1.00  0.00     0.000 C 
BRANCH   2   3
ATOM      3  C   UNL     1     -52.659  12.813 -31.462  1.00  0.00     0.000 C 
BRANCH   3   4
ATOM      4  C   UNL     1     -54.121  12.580 -31.881  1.00  0.00    -0.000 C 
BRANCH   4   5
ATOM      5  C   UNL     1     -55.092  13.568 -31.211  1.00  0.00    -0.000 C 
BRANCH   5   6
ATOM      6  C   UNL     1     -55.583  13.076 -29.840  1.00  0.00    -0.000 C 
BRANCH   6   7
ATOM      7  C   UNL     1     -56.124  14.213 -28.960  1.00  0.00    -0.000 C 
BRANCH   7   8
ATOM      8  C   UNL     1     -55.011  14.802 -28.079  1.00  0.00    -0.000 C 
BRANCH   8   9
ATOM      9  C   UNL     1     -54.560  16.196 -28.541  1.00  0.00    -0.000 C 
BRANCH   9  10
ATOM     10  C   UNL     1     -55.570  16.859 -29.495  1.00  0.00    -0.000 C 
BRANCH  10  11
ATOM     11  C   UNL     1     -54.925  17.301 -30.818  1.00  0.00    -0.003 C 
ATOM     12  C   UNL     1     -53.549  17.941 -30.622  1.00  0.00     0.004 C 
ENDBRANCH  10  11
ENDBRANCH   9  10
ENDBRANCH   8   9
ENDBRANCH   7   8
ENDBRANCH   6   7
ENDBRANCH   5   6
ENDBRANCH   4   5
ENDBRANCH   3   4
ENDBRANCH   2   3
ENDBRANCH   1   2
BRANCH   1  13
ATOM     13  C   UNL     1     -51.826  13.208 -28.857  1.00  0.00     0.000 C 
BRANCH  13  14
ATOM     14  C   UNL     1     -50.496  12.485 -28.577  1.00  0.00     0.000 C 
BRANCH  14  15
ATOM     15  C   UNL     1     -50.457  10.999 -28.991  1.00  0.00     0.000 C 
BRANCH  15  16
ATOM     16  C   UNL     1     -49.081  10.488 -29.465  1.00  0.00     0.000 C 
BRANCH  16  17
ATOM     17  C   UNL     1     -49.134   9.325 -30.475  1.00  0.00     0.000 C 
BRANCH  17  18
ATOM     18  C   UNL     1     -49.176   9.753 -31.955  1.00  0.00     0.000 C 
BRANCH  18  19
ATOM     19  C   UNL     1     -50.580   9.777 -32.590  1.00  0.00     0.000 C 
BRANCH  19  20
ATOM     20  C   UNL     1     -51.522   8.643 -32.135  1.00  0.00     0.006 C 
BRANCH  20  21
ATOM     21  C   UNL     1     -52.881   9.124 -31.600  1.00  0.00     0.053 C 
BRANCH  21  22
ATOM     22  C   UNL     1     -53.283   8.392 -30.356  1.00  0.00     0.041 C 
ATOM     23  O   UNL     1     -54.495   8.126 -30.142  1.00  0.00    -0.550 OA
ATOM     24  O   UNL     1     -52.324   8.034 -29.417  1.00  0.00    -0.550 OA
ENDBRANCH  21  22
ENDBRANCH  20  21
ENDBRANCH  19  20
ENDBRANCH  18  19
ENDBRANCH  17  18
ENDBRANCH  16  17
ENDBRANCH  15  16
ENDBRANCH  14  15
ENDBRANCH  13  14
ENDBRANCH   1  13
TORSDOF 20
ENDMDL
MODEL 8
REMARK VINA RESULT:    -4.036      1.316      3.305
REMARK INTER + INTRA:         -12.491
REMARK INTER:                  -9.582
REMARK INTRA:                  -2.909
REMARK UNBOUND:                -3.735
REMARK SMILES CCCCCCCCCCCCCCCCCCCCCC(=O)[O-]
REMARK SMILES IDX 12 1 11 2 10 3 9 4 8 5 7 6 6 7 5 8 4 9 3 10 2 11 1 12 13 13
REMARK SMILES IDX 14 14 15 15 16 16 17 17 18 18 19 19 20 20 21 21 22 22 23 23
REMARK SMILES IDX 24 24
REMARK H PARENT
REMARK Flexibility Score: inf
ROOT
ATOM      1  C   UNL     1     -53.143  11.572 -32.494  1.00  0.00     0.000 C 
ENDROOT
BRANCH   1   2
ATOM      2  C   UNL     1     -52.409  10.241 -32.725  1.00  0.00     0.000 C 
BRANCH   2   3
ATOM      3  C   UNL     1     -52.983   9.094 -31.875  1.00  0.00     0.000 C 
BRANCH   3   4
ATOM      4  C   UNL     1     -51.932   8.022 -31.542  1.00  0.00    -0.000 C 
BRANCH   4   5
ATOM      5  C   UNL     1     -50.678   8.129 -32.428  1.00  0.00    -0.000 C 
BRANCH   5   6
ATOM      6  C   UNL     1     -49.390   8.311 -31.609  1.00  0.00    -0.000 C 
BRANCH   6   7
ATOM      7  C   UNL     1     -48.965   9.782 -31.487  1.00  0.00    -0.000 C 
BRANCH   7   8
ATOM      8  C   UNL     1     -48.795  10.183 -30.013  1.00  0.00    -0.000 C 
BRANCH   8   9
ATOM      9  C   UNL     1     -50.123  10.187 -29.240  1.00  0.00    -0.000 C 
BRANCH   9  10
ATOM     10  C   UNL     1     -50.962  11.449 -29.509  1.00  0.00    -0.000 C 
BRANCH  10  11
ATOM     11  C   UNL     1     -50.357  12.705 -28.861  1.00  0.00    -0.003 C 
ATOM     12  C   UNL     1     -51.308  13.902 -28.888  1.00  0.00     0.004 C 
ENDBRANCH  10  11
ENDBRANCH   9  10
ENDBRANCH   8   9
ENDBRANCH   7   8
ENDBRANCH   6   7
ENDBRANCH   5   6
ENDBRANCH   4   5
ENDBRANCH   3   4
ENDBRANCH   2   3
ENDBRANCH   1   2
BRANCH   1  13
ATOM     13  C   UNL     1     -54.230  11.466 -31.411  1.00  0.00     0.000 C 
BRANCH  13  14
ATOM     14  C   UNL     1     -54.444  12.786 -30.648  1.00  0.00     0.000 C 
BRANCH  14  15
ATOM     15  C   UNL     1     -55.337  12.684 -29.395  1.00  0.00     0.000 C 
BRANCH  15  16
ATOM     16  C   UNL     1     -54.812  13.435 -28.155  1.00  0.00     0.000 C 
BRANCH  16  17
ATOM     17  C   UNL     1     -55.699  14.603 -27.680  1.00  0.00     0.000 C 
BRANCH  17  18
ATOM     18  C   UNL     1     -55.587  15.887 -28.525  1.00  0.00     0.000 C 
BRANCH  18  19
ATOM     19  C   UNL     1     -54.177  16.193 -29.066  1.00  0.00     0.000 C 
BRANCH  19  20
ATOM     20  C   UNL     1     -54.136  16.766 -30.498  1.00  0.00     0.006 C 
BRANCH  20  21
ATOM     21  C   UNL     1     -55.127  17.914 -30.750  1.00  0.00     0.053 C 
BRANCH  21  22
ATOM     22  C   UNL     1     -54.656  19.202 -30.147  1.00  0.00     0.041 C 
ATOM     23  O   UNL     1     -53.679  19.816 -30.650  1.00  0.00    -0.550 OA
ATOM     24  O   UNL     1     -55.275  19.707 -29.010  1.00  0.00    -0.550 OA
ENDBRANCH  21  22
ENDBRANCH  20  21
ENDBRANCH  19  20
ENDBRANCH  18  19
ENDBRANCH  17  18
ENDBRANCH  16  17
ENDBRANCH  15  16
ENDBRANCH  14  15
ENDBRANCH  13  14
ENDBRANCH   1  13
TORSDOF 20
ENDMDL
MODEL 9
REMARK VINA RESULT:    -4.032      1.177      2.568
REMARK INTER + INTRA:         -12.482
REMARK INTER:                  -9.245
REMARK INTRA:                  -3.238
REMARK UNBOUND:                -3.735
REMARK SMILES CCCCCCCCCCCCCCCCCCCCCC(=O)[O-]
REMARK SMILES IDX 12 1 11 2 10 3 9 4 8 5 7 6 6 7 5 8 4 9 3 10 2 11 1 12 13 13
REMARK SMILES IDX 14 14 15 15 16 16 17 17 18 18 19 19 20 20 21 21 22 22 23 23
REMARK SMILES IDX 24 24
REMARK H PARENT
REMARK Flexibility Score: inf
ROOT
ATOM      1  C   UNL     1     -49.690  11.497 -29.467  1.00  0.00     0.000 C 
ENDROOT
BRANCH   1   2
ATOM      2  C   UNL     1     -49.027  10.127 -29.249  1.00  0.00     0.000 C 
BRANCH   2   3
ATOM      3  C   UNL     1     -50.000   8.957 -29.475  1.00  0.00     0.000 C 
BRANCH   3   4
ATOM      4  C   UNL     1     -49.418   7.875 -30.400  1.00  0.00    -0.000 C 
BRANCH   4   5
ATOM      5  C   UNL     1     -49.054   8.420 -31.792  1.00  0.00    -0.000 C 
BRANCH   5   6
ATOM      6  C   UNL     1     -49.975   7.881 -32.897  1.00  0.00    -0.000 C 
BRANCH   6   7
ATOM      7  C   UNL     1     -51.319   8.623 -32.966  1.00  0.00    -0.000 C 
BRANCH   7   8
ATOM      8  C   UNL     1     -51.103  10.144 -33.005  1.00  0.00    -0.000 C 
BRANCH   8   9
ATOM      9  C   UNL     1     -51.909  10.887 -31.927  1.00  0.00    -0.000 C 
BRANCH   9  10
ATOM     10  C   UNL     1     -53.395  11.040 -32.298  1.00  0.00    -0.000 C 
BRANCH  10  11
ATOM     11  C   UNL     1     -54.318  10.237 -31.368  1.00  0.00    -0.003 C 
ATOM     12  C   UNL     1     -54.200  10.664 -29.904  1.00  0.00     0.004 C 
ENDBRANCH  10  11
ENDBRANCH   9  10
ENDBRANCH   8   9
ENDBRANCH   7   8
ENDBRANCH   6   7
ENDBRANCH   5   6
ENDBRANCH   4   5
ENDBRANCH   3   4
ENDBRANCH   2   3
ENDBRANCH   1   2
BRANCH   1  13
ATOM     13  C   UNL     1     -50.489  11.969 -28.241  1.00  0.00     0.000 C 
BRANCH  13  14
ATOM     14  C   UNL     1     -51.608  12.962 -28.603  1.00  0.00     0.000 C 
BRANCH  14  15
ATOM     15  C   UNL     1     -51.305  13.882 -29.804  1.00  0.00     0.000 C 
BRANCH  15  16
ATOM     16  C   UNL     1     -52.389  14.934 -30.112  1.00  0.00     0.000 C 
BRANCH  16  17
ATOM     17  C   UNL     1     -53.459  14.484 -31.127  1.00  0.00     0.000 C 
BRANCH  17  18
ATOM     18  C   UNL     1     -54.836  14.156 -30.516  1.00  0.00     0.000 C 
BRANCH  18  19
ATOM     19  C   UNL     1     -54.980  14.479 -29.016  1.00  0.00     0.000 C 
BRANCH  19  20
ATOM     20  C   UNL     1     -55.727  15.791 -28.699  1.00  0.00     0.006 C 
BRANCH  20  21
ATOM     21  C   UNL     1     -54.862  16.867 -28.024  1.00  0.00     0.053 C 
BRANCH  21  22
ATOM     22  C   UNL     1     -54.546  17.998 -28.955  1.00  0.00     0.041 C 
ATOM     23  O   UNL     1     -54.141  19.099 -28.499  1.00  0.00    -0.550 OA
ATOM     24  O   UNL     1     -54.731  17.846 -30.323  1.00  0.00    -0.550 OA
ENDBRANCH  21  22
ENDBRANCH  20  21
ENDBRANCH  19  20
ENDBRANCH  18  19
ENDBRANCH  17  18
ENDBRANCH  16  17
ENDBRANCH  15  16
ENDBRANCH  14  15
ENDBRANCH  13  14
ENDBRANCH   1  13
TORSDOF 20
ENDMDL
