MODEL 1
REMARK VINA RESULT:    -4.123      0.000      0.000
REMARK INTER + INTRA:          -5.776
REMARK INTER:                  -5.328
REMARK INTRA:                  -0.448
REMARK UNBOUND:                -0.448
REMARK SMILES C=CC(=O)CCCCC
REMARK SMILES IDX 6 1 7 2 8 3 9 4 5 5 3 6 4 7 2 8 1 9
REMARK H PARENT
REMARK Flexibility Score: inf
ROOT
ATOM      1  C   UNL     1      49.271  19.903  21.117  1.00  0.00     0.008 C 
ENDROOT
BRANCH   1   2
ATOM      2  C   UNL     1      49.359  21.372  20.665  1.00  0.00     0.000 C 
BRANCH   2   3
ATOM      3  C   UNL     1      48.901  21.632  19.218  1.00  0.00    -0.003 C 
ATOM      4  C   UNL     1      49.872  22.514  18.433  1.00  0.00     0.004 C 
ENDBRANCH   2   3
ENDBRANCH   1   2
BRANCH   1   5
ATOM      5  C   UNL     1      47.925  19.252  20.774  1.00  0.00     0.080 C 
BRANCH   5   6
ATOM      6  C   UNL     1      46.900  19.583  21.818  1.00  0.00     0.155 C 
ATOM      7  O   UNL     1      47.038  19.127  22.986  1.00  0.00    -0.295 OA
BRANCH   6   8
ATOM      8  C   UNL     1      45.769  20.471  21.485  1.00  0.00     0.039 C 
ATOM      9  C   UNL     1      45.392  20.707  20.229  1.00  0.00     0.012 C 
ENDBRANCH   6   8
ENDBRANCH   5   6
ENDBRANCH   1   5
TORSDOF 5
ENDMDL
MODEL 2
REMARK VINA RESULT:    -4.066      0.867      1.082
REMARK INTER + INTRA:          -5.702
REMARK INTER:                  -5.276
REMARK INTRA:                  -0.426
REMARK UNBOUND:                -0.448
REMARK SMILES C=CC(=O)CCCCC
REMARK SMILES IDX 6 1 7 2 8 3 9 4 5 5 3 6 4 7 2 8 1 9
REMARK H PARENT
REMARK Flexibility Score: inf
ROOT
ATOM      1  C   UNL     1      49.199  20.068  21.081  1.00  0.00     0.008 C 
ENDROOT
BRANCH   1   2
ATOM      2  C   UNL     1      49.349  21.118  19.965  1.00  0.00     0.000 C 
BRANCH   2   3
ATOM      3  C   UNL     1      48.984  22.556  20.377  1.00  0.00    -0.003 C 
ATOM      4  C   UNL     1      50.133  23.288  21.072  1.00  0.00     0.004 C 
ENDBRANCH   2   3
ENDBRANCH   1   2
BRANCH   1   5
ATOM      5  C   UNL     1      47.988  19.147  20.876  1.00  0.00     0.080 C 
BRANCH   5   6
ATOM      6  C   UNL     1      46.893  19.499  21.838  1.00  0.00     0.155 C 
ATOM      7  O   UNL     1      46.868  18.950  22.974  1.00  0.00    -0.295 OA
BRANCH   6   8
ATOM      8  C   UNL     1      45.883  20.510  21.469  1.00  0.00     0.039 C 
ATOM      9  C   UNL     1      45.423  20.640  20.225  1.00  0.00     0.012 C 
ENDBRANCH   6   8
ENDBRANCH   5   6
ENDBRANCH   1   5
TORSDOF 5
ENDMDL
MODEL 3
REMARK VINA RESULT:    -3.923      1.435      3.533
REMARK INTER + INTRA:          -5.517
REMARK INTER:                  -4.979
REMARK INTRA:                  -0.538
REMARK UNBOUND:                -0.448
REMARK SMILES C=CC(=O)CCCCC
REMARK SMILES IDX 6 1 7 2 8 3 9 4 5 5 3 6 4 7 2 8 1 9
REMARK H PARENT
REMARK Flexibility Score: inf
ROOT
ATOM      1  C   UNL     1      47.240  19.241  22.240  1.00  0.00     0.008 C 
ENDROOT
BRANCH   1   2
ATOM      2  C   UNL     1      45.926  20.032  22.104  1.00  0.00     0.000 C 
BRANCH   2   3
ATOM      3  C   UNL     1      45.636  20.565  20.689  1.00  0.00    -0.003 C 
ATOM      4  C   UNL     1      45.271  22.049  20.672  1.00  0.00     0.004 C 
ENDBRANCH   2   3
ENDBRANCH   1   2
BRANCH   1   5
ATOM      5  C   UNL     1      47.930  18.991  20.892  1.00  0.00     0.080 C 
BRANCH   5   6
ATOM      6  C   UNL     1      49.285  19.634  20.868  1.00  0.00     0.155 C 
ATOM      7  O   UNL     1      50.309  18.926  21.072  1.00  0.00    -0.295 OA
BRANCH   6   8
ATOM      8  C   UNL     1      49.413  21.073  20.566  1.00  0.00     0.039 C 
ATOM      9  C   UNL     1      49.057  21.590  19.391  1.00  0.00     0.012 C 
ENDBRANCH   6   8
ENDBRANCH   5   6
ENDBRANCH   1   5
TORSDOF 5
ENDMDL
MODEL 4
REMARK VINA RESULT:    -3.863      2.361      4.196
REMARK INTER + INTRA:          -5.439
REMARK INTER:                  -5.016
REMARK INTRA:                  -0.423
REMARK UNBOUND:                -0.448
REMARK SMILES C=CC(=O)CCCCC
REMARK SMILES IDX 6 1 7 2 8 3 9 4 5 5 3 6 4 7 2 8 1 9
REMARK H PARENT
REMARK Flexibility Score: inf
ROOT
ATOM      1  C   UNL     1      49.206  19.984  21.138  1.00  0.00     0.008 C 
ENDROOT
BRANCH   1   2
ATOM      2  C   UNL     1      47.896  19.186  21.265  1.00  0.00     0.000 C 
BRANCH   2   3
ATOM      3  C   UNL     1      46.663  20.026  21.649  1.00  0.00    -0.003 C 
ATOM      4  C   UNL     1      45.849  20.479  20.437  1.00  0.00     0.004 C 
ENDBRANCH   2   3
ENDBRANCH   1   2
BRANCH   1   5
ATOM      5  C   UNL     1      49.548  20.345  19.686  1.00  0.00     0.080 C 
BRANCH   5   6
ATOM      6  C   UNL     1      49.579  21.835  19.510  1.00  0.00     0.155 C 
ATOM      7  O   UNL     1      49.747  22.318  18.357  1.00  0.00    -0.295 OA
BRANCH   6   8
ATOM      8  C   UNL     1      49.372  22.720  20.674  1.00  0.00     0.039 C 
ATOM      9  C   UNL     1      50.302  23.575  21.095  1.00  0.00     0.012 C 
ENDBRANCH   6   8
ENDBRANCH   5   6
ENDBRANCH   1   5
TORSDOF 5
ENDMDL
MODEL 5
REMARK VINA RESULT:    -3.845      1.872      3.923
REMARK INTER + INTRA:          -5.417
REMARK INTER:                  -5.035
REMARK INTRA:                  -0.382
REMARK UNBOUND:                -0.448
REMARK SMILES C=CC(=O)CCCCC
REMARK SMILES IDX 6 1 7 2 8 3 9 4 5 5 3 6 4 7 2 8 1 9
REMARK H PARENT
REMARK Flexibility Score: inf
ROOT
ATOM      1  C   UNL     1      47.938  19.333  20.823  1.00  0.00     0.008 C 
ENDROOT
BRANCH   1   2
ATOM      2  C   UNL     1      47.008  19.492  22.039  1.00  0.00     0.000 C 
BRANCH   2   3
ATOM      3  C   UNL     1      45.743  20.332  21.781  1.00  0.00    -0.003 C 
ATOM      4  C   UNL     1      45.457  20.539  20.294  1.00  0.00     0.004 C 
ENDBRANCH   2   3
ENDBRANCH   1   2
BRANCH   1   5
ATOM      5  C   UNL     1      49.242  20.130  20.958  1.00  0.00     0.080 C 
BRANCH   5   6
ATOM      6  C   UNL     1      49.159  21.408  20.177  1.00  0.00     0.155 C 
ATOM      7  O   UNL     1      48.604  21.406  19.044  1.00  0.00    -0.295 OA
BRANCH   6   8
ATOM      8  C   UNL     1      49.686  22.660  20.754  1.00  0.00     0.039 C 
ATOM      9  C   UNL     1      48.986  23.794  20.760  1.00  0.00     0.012 C 
ENDBRANCH   6   8
ENDBRANCH   5   6
ENDBRANCH   1   5
TORSDOF 5
ENDMDL
MODEL 6
REMARK VINA RESULT:    -3.687      1.615      2.199
REMARK INTER + INTRA:          -5.212
REMARK INTER:                  -4.998
REMARK INTRA:                  -0.214
REMARK UNBOUND:                -0.448
REMARK SMILES C=CC(=O)CCCCC
REMARK SMILES IDX 6 1 7 2 8 3 9 4 5 5 3 6 4 7 2 8 1 9
REMARK H PARENT
REMARK Flexibility Score: inf
ROOT
ATOM      1  C   UNL     1      49.235  21.641  20.739  1.00  0.00     0.008 C 
ENDROOT
BRANCH   1   2
ATOM      2  C   UNL     1      50.068  22.734  20.046  1.00  0.00     0.000 C 
BRANCH   2   3
ATOM      3  C   UNL     1      50.418  22.446  18.574  1.00  0.00    -0.003 C 
ATOM      4  C   UNL     1      49.996  23.570  17.628  1.00  0.00     0.004 C 
ENDBRANCH   2   3
ENDBRANCH   1   2
BRANCH   1   5
ATOM      5  C   UNL     1      48.332  20.871  19.766  1.00  0.00     0.080 C 
BRANCH   5   6
ATOM      6  C   UNL     1      47.247  20.154  20.513  1.00  0.00     0.155 C 
ATOM      7  O   UNL     1      46.040  20.386  20.225  1.00  0.00    -0.295 OA
BRANCH   6   8
ATOM      8  C   UNL     1      47.595  19.156  21.544  1.00  0.00     0.039 C 
ATOM      9  C   UNL     1      46.956  19.080  22.710  1.00  0.00     0.012 C 
ENDBRANCH   6   8
ENDBRANCH   5   6
ENDBRANCH   1   5
TORSDOF 5
ENDMDL
MODEL 7
REMARK VINA RESULT:    -3.650      2.772      4.806
REMARK INTER + INTRA:          -5.165
REMARK INTER:                  -4.897
REMARK INTRA:                  -0.268
REMARK UNBOUND:                -0.448
REMARK SMILES C=CC(=O)CCCCC
REMARK SMILES IDX 6 1 7 2 8 3 9 4 5 5 3 6 4 7 2 8 1 9
REMARK H PARENT
REMARK Flexibility Score: inf
ROOT
ATOM      1  C   UNL     1      49.660  20.506  19.704  1.00  0.00     0.008 C 
ENDROOT
BRANCH   1   2
ATOM      2  C   UNL     1      49.331  19.993  21.117  1.00  0.00     0.000 C 
BRANCH   2   3
ATOM      3  C   UNL     1      48.160  18.995  21.186  1.00  0.00    -0.003 C 
ATOM      4  C   UNL     1      47.178  19.304  22.316  1.00  0.00     0.004 C 
ENDBRANCH   2   3
ENDBRANCH   1   2
BRANCH   1   5
ATOM      5  C   UNL     1      48.903  21.791  19.343  1.00  0.00     0.080 C 
BRANCH   5   6
ATOM      6  C   UNL     1      49.866  22.882  18.977  1.00  0.00     0.155 C 
ATOM      7  O   UNL     1      49.932  23.272  17.779  1.00  0.00    -0.295 OA
BRANCH   6   8
ATOM      8  C   UNL     1      50.692  23.518  20.023  1.00  0.00     0.039 C 
ATOM      9  C   UNL     1      50.245  23.720  21.261  1.00  0.00     0.012 C 
ENDBRANCH   6   8
ENDBRANCH   5   6
ENDBRANCH   1   5
TORSDOF 5
ENDMDL
MODEL 8
REMARK VINA RESULT:    -3.625      2.384      4.630
REMARK INTER + INTRA:          -5.132
REMARK INTER:                  -4.893
REMARK INTRA:                  -0.239
REMARK UNBOUND:                -0.448
REMARK SMILES C=CC(=O)CCCCC
REMARK SMILES IDX 6 1 7 2 8 3 9 4 5 5 3 6 4 7 2 8 1 9
REMARK H PARENT
REMARK Flexibility Score: inf
ROOT
ATOM      1  C   UNL     1      49.480  20.308  19.975  1.00  0.00     0.008 C 
ENDROOT
BRANCH   1   2
ATOM      2  C   UNL     1      48.527  19.210  20.479  1.00  0.00     0.000 C 
BRANCH   2   3
ATOM      3  C   UNL     1      47.223  19.728  21.115  1.00  0.00    -0.003 C 
ATOM      4  C   UNL     1      46.999  19.200  22.532  1.00  0.00     0.004 C 
ENDBRANCH   2   3
ENDBRANCH   1   2
BRANCH   1   5
ATOM      5  C   UNL     1      49.267  21.655  20.677  1.00  0.00     0.080 C 
BRANCH   5   6
ATOM      6  C   UNL     1      50.079  22.728  20.015  1.00  0.00     0.155 C 
ATOM      7  O   UNL     1      50.542  23.673  20.711  1.00  0.00    -0.295 OA
BRANCH   6   8
ATOM      8  C   UNL     1      50.368  22.647  18.569  1.00  0.00     0.039 C 
ATOM      9  C   UNL     1      50.061  23.630  17.724  1.00  0.00     0.012 C 
ENDBRANCH   6   8
ENDBRANCH   5   6
ENDBRANCH   1   5
TORSDOF 5
ENDMDL
MODEL 9
REMARK VINA RESULT:    -3.490      2.241      3.224
REMARK INTER + INTRA:          -4.958
REMARK INTER:                  -4.674
REMARK INTRA:                  -0.284
REMARK UNBOUND:                -0.448
REMARK SMILES C=CC(=O)CCCCC
REMARK SMILES IDX 6 1 7 2 8 3 9 4 5 5 3 6 4 7 2 8 1 9
REMARK H PARENT
REMARK Flexibility Score: inf
ROOT
ATOM      1  C   UNL     1      50.247  21.865  18.973  1.00  0.00     0.008 C 
ENDROOT
BRANCH   1   2
ATOM      2  C   UNL     1      50.321  23.294  19.542  1.00  0.00     0.000 C 
BRANCH   2   3
ATOM      3  C   UNL     1      49.527  23.515  20.842  1.00  0.00    -0.003 C 
ATOM      4  C   UNL     1      50.161  24.560  21.760  1.00  0.00     0.004 C 
ENDBRANCH   2   3
ENDBRANCH   1   2
BRANCH   1   5
ATOM      5  C   UNL     1      49.028  21.083  19.480  1.00  0.00     0.080 C 
BRANCH   5   6
ATOM      6  C   UNL     1      49.457  19.786  20.099  1.00  0.00     0.155 C 
ATOM      7  O   UNL     1      50.497  19.212  19.676  1.00  0.00    -0.295 OA
BRANCH   6   8
ATOM      8  C   UNL     1      48.688  19.216  21.224  1.00  0.00     0.039 C 
ATOM      9  C   UNL     1      47.525  19.727  21.625  1.00  0.00     0.012 C 
ENDBRANCH   6   8
ENDBRANCH   5   6
ENDBRANCH   1   5
TORSDOF 5
ENDMDL
