MODEL 1
REMARK VINA RESULT:    -4.198      0.000      0.000
REMARK INTER + INTRA:          -8.473
REMARK INTER:                  -7.634
REMARK INTRA:                  -0.839
REMARK UNBOUND:                -0.839
REMARK SMILES CCCCCCCCCCCCCCCC(=O)[O-]
REMARK SMILES IDX 9 1 10 2 11 3 12 4 13 5 14 6 15 7 16 8 17 9 18 10 8 11 7 12
REMARK SMILES IDX 6 13 5 14 4 15 3 16 2 17 1 18
REMARK H PARENT
REMARK Flexibility Score: inf
ROOT
ATOM      1  C   UNL     1       2.733  13.659  16.096  1.00  0.00     0.000 C 
ENDROOT
BRANCH   1   2
ATOM      2  C   UNL     1       2.719  13.221  17.571  1.00  0.00     0.000 C 
BRANCH   2   3
ATOM      3  C   UNL     1       2.013  14.249  18.479  1.00  0.00     0.000 C 
BRANCH   3   4
ATOM      4  C   UNL     1       1.114  15.241  17.713  1.00  0.00     0.000 C 
BRANCH   4   5
ATOM      5  C   UNL     1      -0.166  15.662  18.454  1.00  0.00     0.000 C 
BRANCH   5   6
ATOM      6  C   UNL     1      -0.364  17.188  18.481  1.00  0.00     0.006 C 
BRANCH   6   7
ATOM      7  C   UNL     1       0.969  17.940  18.595  1.00  0.00     0.053 C 
BRANCH   7   8
ATOM      8  C   UNL     1       0.908  19.286  17.942  1.00  0.00     0.041 C 
ATOM      9  O   UNL     1      -0.154  19.963  17.983  1.00  0.00    -0.550 OA
ATOM     10  O   UNL     1       2.031  19.806  17.311  1.00  0.00    -0.550 OA
ENDBRANCH   7   8
ENDBRANCH   6   7
ENDBRANCH   5   6
ENDBRANCH   4   5
ENDBRANCH   3   4
ENDBRANCH   2   3
ENDBRANCH   1   2
BRANCH   1  11
ATOM     11  C   UNL     1       3.102  12.515  15.137  1.00  0.00     0.000 C 
BRANCH  11  12
ATOM     12  C   UNL     1       4.541  12.616  14.588  1.00  0.00    -0.000 C 
BRANCH  12  13
ATOM     13  C   UNL     1       5.580  12.765  15.710  1.00  0.00    -0.000 C 
BRANCH  13  14
ATOM     14  C   UNL     1       5.609  11.520  16.605  1.00  0.00    -0.000 C 
BRANCH  14  15
ATOM     15  C   UNL     1       6.884  11.488  17.461  1.00  0.00    -0.000 C 
BRANCH  15  16
ATOM     16  C   UNL     1       6.592  11.237  18.948  1.00  0.00    -0.000 C 
BRANCH  16  17
ATOM     17  C   UNL     1       5.091  11.123  19.246  1.00  0.00    -0.003 C 
ATOM     18  C   UNL     1       4.837  10.216  20.447  1.00  0.00     0.004 C 
ENDBRANCH  16  17
ENDBRANCH  15  16
ENDBRANCH  14  15
ENDBRANCH  13  14
ENDBRANCH  12  13
ENDBRANCH  11  12
ENDBRANCH   1  11
TORSDOF 14
ENDMDL
MODEL 2
REMARK VINA RESULT:    -4.192      3.765      7.782
REMARK INTER + INTRA:          -8.462
REMARK INTER:                  -7.990
REMARK INTRA:                  -0.472
REMARK UNBOUND:                -0.839
REMARK SMILES CCCCCCCCCCCCCCCC(=O)[O-]
REMARK SMILES IDX 9 1 10 2 11 3 12 4 13 5 14 6 15 7 16 8 17 9 18 10 8 11 7 12
REMARK SMILES IDX 6 13 5 14 4 15 3 16 2 17 1 18
REMARK H PARENT
REMARK Flexibility Score: inf
ROOT
ATOM      1  C   UNL     1       2.418  13.719  15.807  1.00  0.00     0.000 C 
ENDROOT
BRANCH   1   2
ATOM      2  C   UNL     1       2.873  12.627  14.825  1.00  0.00     0.000 C 
BRANCH   2   3
ATOM      3  C   UNL     1       4.376  12.733  14.487  1.00  0.00     0.000 C 
BRANCH   3   4
ATOM      4  C   UNL     1       5.289  12.779  15.729  1.00  0.00     0.000 C 
BRANCH   4   5
ATOM      5  C   UNL     1       5.601  11.410  16.357  1.00  0.00     0.000 C 
BRANCH   5   6
ATOM      6  C   UNL     1       6.233  11.526  17.755  1.00  0.00     0.006 C 
BRANCH   6   7
ATOM      7  C   UNL     1       5.199  11.331  18.872  1.00  0.00     0.053 C 
BRANCH   7   8
ATOM      8  C   UNL     1       5.795  10.665  20.074  1.00  0.00     0.041 C 
ATOM      9  O   UNL     1       7.042  10.680  20.253  1.00  0.00    -0.550 OA
ATOM     10  O   UNL     1       4.973  10.053  21.011  1.00  0.00    -0.550 OA
ENDBRANCH   7   8
ENDBRANCH   6   7
ENDBRANCH   5   6
ENDBRANCH   4   5
ENDBRANCH   3   4
ENDBRANCH   2   3
ENDBRANCH   1   2
BRANCH   1  11
ATOM     11  C   UNL     1       2.784  13.400  17.266  1.00  0.00     0.000 C 
BRANCH  11  12
ATOM     12  C   UNL     1       1.908  14.146  18.295  1.00  0.00    -0.000 C 
BRANCH  12  13
ATOM     13  C   UNL     1       1.185  15.351  17.675  1.00  0.00    -0.000 C 
BRANCH  13  14
ATOM     14  C   UNL     1      -0.130  15.642  18.407  1.00  0.00    -0.000 C 
BRANCH  14  15
ATOM     15  C   UNL     1      -0.283  17.145  18.688  1.00  0.00    -0.000 C 
BRANCH  15  16
ATOM     16  C   UNL     1       1.022  17.924  18.465  1.00  0.00    -0.000 C 
BRANCH  16  17
ATOM     17  C   UNL     1       0.777  19.382  18.048  1.00  0.00    -0.003 C 
ATOM     18  C   UNL     1       1.883  19.882  17.123  1.00  0.00     0.004 C 
ENDBRANCH  16  17
ENDBRANCH  15  16
ENDBRANCH  14  15
ENDBRANCH  13  14
ENDBRANCH  12  13
ENDBRANCH  11  12
ENDBRANCH   1  11
TORSDOF 14
ENDMDL
MODEL 3
REMARK VINA RESULT:    -4.145      0.992      1.338
REMARK INTER + INTRA:          -8.376
REMARK INTER:                  -7.503
REMARK INTRA:                  -0.873
REMARK UNBOUND:                -0.839
REMARK SMILES CCCCCCCCCCCCCCCC(=O)[O-]
REMARK SMILES IDX 9 1 10 2 11 3 12 4 13 5 14 6 15 7 16 8 17 9 18 10 8 11 7 12
REMARK SMILES IDX 6 13 5 14 4 15 3 16 2 17 1 18
REMARK H PARENT
REMARK Flexibility Score: inf
ROOT
ATOM      1  C   UNL     1       2.193  14.377  16.590  1.00  0.00     0.000 C 
ENDROOT
BRANCH   1   2
ATOM      2  C   UNL     1       1.664  14.614  18.015  1.00  0.00     0.000 C 
BRANCH   2   3
ATOM      3  C   UNL     1       0.829  15.907  18.120  1.00  0.00     0.000 C 
BRANCH   3   4
ATOM      4  C   UNL     1      -0.655  15.662  18.460  1.00  0.00     0.000 C 
BRANCH   4   5
ATOM      5  C   UNL     1      -1.487  16.935  18.694  1.00  0.00     0.000 C 
BRANCH   5   6
ATOM      6  C   UNL     1      -0.917  17.820  19.816  1.00  0.00     0.006 C 
BRANCH   6   7
ATOM      7  C   UNL     1      -0.937  19.308  19.441  1.00  0.00     0.053 C 
BRANCH   7   8
ATOM      8  C   UNL     1      -0.123  19.587  18.215  1.00  0.00     0.041 C 
ATOM      9  O   UNL     1      -0.676  20.036  17.176  1.00  0.00    -0.550 OA
ATOM     10  O   UNL     1       1.250  19.376  18.227  1.00  0.00    -0.550 OA
ENDBRANCH   7   8
ENDBRANCH   6   7
ENDBRANCH   5   6
ENDBRANCH   4   5
ENDBRANCH   3   4
ENDBRANCH   2   3
ENDBRANCH   1   2
BRANCH   1  11
ATOM     11  C   UNL     1       2.941  13.041  16.446  1.00  0.00     0.000 C 
BRANCH  11  12
ATOM     12  C   UNL     1       3.761  12.935  15.143  1.00  0.00    -0.000 C 
BRANCH  12  13
ATOM     13  C   UNL     1       5.186  12.419  15.395  1.00  0.00    -0.000 C 
BRANCH  13  14
ATOM     14  C   UNL     1       5.250  11.579  16.676  1.00  0.00    -0.000 C 
BRANCH  14  15
ATOM     15  C   UNL     1       6.613  11.734  17.368  1.00  0.00    -0.000 C 
BRANCH  15  16
ATOM     16  C   UNL     1       6.598  11.240  18.822  1.00  0.00    -0.000 C 
BRANCH  16  17
ATOM     17  C   UNL     1       5.181  11.160  19.407  1.00  0.00    -0.003 C 
ATOM     18  C   UNL     1       5.129  10.202  20.593  1.00  0.00     0.004 C 
ENDBRANCH  16  17
ENDBRANCH  15  16
ENDBRANCH  14  15
ENDBRANCH  13  14
ENDBRANCH  12  13
ENDBRANCH  11  12
ENDBRANCH   1  11
TORSDOF 14
ENDMDL
MODEL 4
REMARK VINA RESULT:    -4.121      3.153      7.168
REMARK INTER + INTRA:          -8.333
REMARK INTER:                  -7.035
REMARK INTRA:                  -1.298
REMARK UNBOUND:                -0.839
REMARK SMILES CCCCCCCCCCCCCCCC(=O)[O-]
REMARK SMILES IDX 9 1 10 2 11 3 12 4 13 5 14 6 15 7 16 8 17 9 18 10 8 11 7 12
REMARK SMILES IDX 6 13 5 14 4 15 3 16 2 17 1 18
REMARK H PARENT
REMARK Flexibility Score: inf
ROOT
ATOM      1  C   UNL     1       2.769  11.640  18.251  1.00  0.00     0.000 C 
ENDROOT
BRANCH   1   2
ATOM      2  C   UNL     1       3.736  10.842  19.142  1.00  0.00     0.000 C 
BRANCH   2   3
ATOM      3  C   UNL     1       5.011  11.642  19.484  1.00  0.00     0.000 C 
BRANCH   3   4
ATOM      4  C   UNL     1       6.295  11.060  18.860  1.00  0.00     0.000 C 
BRANCH   4   5
ATOM      5  C   UNL     1       6.773  11.767  17.581  1.00  0.00     0.000 C 
BRANCH   5   6
ATOM      6  C   UNL     1       5.937  11.393  16.345  1.00  0.00     0.006 C 
BRANCH   6   7
ATOM      7  C   UNL     1       5.152  12.592  15.796  1.00  0.00     0.053 C 
BRANCH   7   8
ATOM      8  C   UNL     1       4.181  12.183  14.731  1.00  0.00     0.041 C 
ATOM      9  O   UNL     1       3.252  12.961  14.387  1.00  0.00    -0.550 OA
ATOM     10  O   UNL     1       4.319  10.954  14.098  1.00  0.00    -0.550 OA
ENDBRANCH   7   8
ENDBRANCH   6   7
ENDBRANCH   5   6
ENDBRANCH   4   5
ENDBRANCH   3   4
ENDBRANCH   2   3
ENDBRANCH   1   2
BRANCH   1  11
ATOM     11  C   UNL     1       2.518  13.066  18.770  1.00  0.00     0.000 C 
BRANCH  11  12
ATOM     12  C   UNL     1       2.331  14.105  17.644  1.00  0.00    -0.000 C 
BRANCH  12  13
ATOM     13  C   UNL     1       0.976  14.821  17.735  1.00  0.00    -0.000 C 
BRANCH  13  14
ATOM     14  C   UNL     1       1.117  16.185  18.420  1.00  0.00    -0.000 C 
BRANCH  14  15
ATOM     15  C   UNL     1      -0.245  16.885  18.539  1.00  0.00    -0.000 C 
BRANCH  15  16
ATOM     16  C   UNL     1      -1.400  15.898  18.763  1.00  0.00    -0.000 C 
BRANCH  16  17
ATOM     17  C   UNL     1      -1.916  15.908  20.209  1.00  0.00    -0.003 C 
ATOM     18  C   UNL     1      -1.989  14.493  20.777  1.00  0.00     0.004 C 
ENDBRANCH  16  17
ENDBRANCH  15  16
ENDBRANCH  14  15
ENDBRANCH  13  14
ENDBRANCH  12  13
ENDBRANCH  11  12
ENDBRANCH   1  11
TORSDOF 14
ENDMDL
MODEL 5
REMARK VINA RESULT:    -4.071      3.865      8.323
REMARK INTER + INTRA:          -8.242
REMARK INTER:                  -7.229
REMARK INTRA:                  -1.013
REMARK UNBOUND:                -0.839
REMARK SMILES CCCCCCCCCCCCCCCC(=O)[O-]
REMARK SMILES IDX 9 1 10 2 11 3 12 4 13 5 14 6 15 7 16 8 17 9 18 10 8 11 7 12
REMARK SMILES IDX 6 13 5 14 4 15 3 16 2 17 1 18
REMARK H PARENT
REMARK Flexibility Score: inf
ROOT
ATOM      1  C   UNL     1       2.047  14.423  17.697  1.00  0.00     0.000 C 
ENDROOT
BRANCH   1   2
ATOM      2  C   UNL     1       2.034  14.061  16.202  1.00  0.00     0.000 C 
BRANCH   2   3
ATOM      3  C   UNL     1       3.320  13.328  15.766  1.00  0.00     0.000 C 
BRANCH   3   4
ATOM      4  C   UNL     1       3.653  12.094  16.629  1.00  0.00     0.000 C 
BRANCH   4   5
ATOM      5  C   UNL     1       5.090  11.567  16.480  1.00  0.00     0.000 C 
BRANCH   5   6
ATOM      6  C   UNL     1       5.855  11.538  17.815  1.00  0.00     0.006 C 
BRANCH   6   7
ATOM      7  C   UNL     1       4.911  11.421  19.019  1.00  0.00     0.053 C 
BRANCH   7   8
ATOM      8  C   UNL     1       5.523  10.633  20.135  1.00  0.00     0.041 C 
ATOM      9  O   UNL     1       6.766  10.683  20.339  1.00  0.00    -0.550 OA
ATOM     10  O   UNL     1       4.720   9.864  20.967  1.00  0.00    -0.550 OA
ENDBRANCH   7   8
ENDBRANCH   6   7
ENDBRANCH   5   6
ENDBRANCH   4   5
ENDBRANCH   3   4
ENDBRANCH   2   3
ENDBRANCH   1   2
BRANCH   1  11
ATOM     11  C   UNL     1       1.205  15.669  18.016  1.00  0.00     0.000 C 
BRANCH  11  12
ATOM     12  C   UNL     1      -0.224  15.338  18.497  1.00  0.00    -0.000 C 
BRANCH  12  13
ATOM     13  C   UNL     1      -1.149  16.563  18.453  1.00  0.00    -0.000 C 
BRANCH  13  14
ATOM     14  C   UNL     1      -1.267  17.215  19.836  1.00  0.00    -0.000 C 
BRANCH  14  15
ATOM     15  C   UNL     1      -1.577  18.715  19.712  1.00  0.00    -0.000 C 
BRANCH  15  16
ATOM     16  C   UNL     1      -0.863  19.371  18.521  1.00  0.00    -0.000 C 
BRANCH  16  17
ATOM     17  C   UNL     1       0.605  19.706  18.821  1.00  0.00    -0.003 C 
ATOM     18  C   UNL     1       1.478  19.506  17.585  1.00  0.00     0.004 C 
ENDBRANCH  16  17
ENDBRANCH  15  16
ENDBRANCH  14  15
ENDBRANCH  13  14
ENDBRANCH  12  13
ENDBRANCH  11  12
ENDBRANCH   1  11
TORSDOF 14
ENDMDL
MODEL 6
REMARK VINA RESULT:    -4.040      3.900      7.905
REMARK INTER + INTRA:          -8.186
REMARK INTER:                  -7.178
REMARK INTRA:                  -1.008
REMARK UNBOUND:                -0.839
REMARK SMILES CCCCCCCCCCCCCCCC(=O)[O-]
REMARK SMILES IDX 9 1 10 2 11 3 12 4 13 5 14 6 15 7 16 8 17 9 18 10 8 11 7 12
REMARK SMILES IDX 6 13 5 14 4 15 3 16 2 17 1 18
REMARK H PARENT
REMARK Flexibility Score: inf
ROOT
ATOM      1  C   UNL     1       2.066  13.644  15.317  1.00  0.00     0.000 C 
ENDROOT
BRANCH   1   2
ATOM      2  C   UNL     1       3.185  12.751  14.754  1.00  0.00     0.000 C 
BRANCH   2   3
ATOM      3  C   UNL     1       4.470  12.816  15.606  1.00  0.00     0.000 C 
BRANCH   3   4
ATOM      4  C   UNL     1       4.696  11.568  16.484  1.00  0.00     0.000 C 
BRANCH   4   5
ATOM      5  C   UNL     1       3.618  11.322  17.553  1.00  0.00     0.000 C 
BRANCH   5   6
ATOM      6  C   UNL     1       4.141  11.531  18.985  1.00  0.00     0.006 C 
BRANCH   6   7
ATOM      7  C   UNL     1       5.670  11.433  19.060  1.00  0.00     0.053 C 
BRANCH   7   8
ATOM      8  C   UNL     1       6.121  10.634  20.244  1.00  0.00     0.041 C 
ATOM      9  O   UNL     1       5.274  10.130  21.028  1.00  0.00    -0.550 OA
ATOM     10  O   UNL     1       7.476  10.420  20.465  1.00  0.00    -0.550 OA
ENDBRANCH   7   8
ENDBRANCH   6   7
ENDBRANCH   5   6
ENDBRANCH   4   5
ENDBRANCH   3   4
ENDBRANCH   2   3
ENDBRANCH   1   2
BRANCH   1  11
ATOM     11  C   UNL     1       2.513  14.457  16.543  1.00  0.00     0.000 C 
BRANCH  11  12
ATOM     12  C   UNL     1       1.494  14.429  17.702  1.00  0.00    -0.000 C 
BRANCH  12  13
ATOM     13  C   UNL     1       0.886  15.813  17.973  1.00  0.00    -0.000 C 
BRANCH  13  14
ATOM     14  C   UNL     1      -0.548  15.692  18.501  1.00  0.00    -0.000 C 
BRANCH  14  15
ATOM     15  C   UNL     1      -1.036  17.028  19.081  1.00  0.00    -0.000 C 
BRANCH  15  16
ATOM     16  C   UNL     1       0.002  18.151  18.934  1.00  0.00    -0.000 C 
BRANCH  16  17
ATOM     17  C   UNL     1      -0.636  19.504  18.584  1.00  0.00    -0.003 C 
ATOM     18  C   UNL     1      -1.850  19.321  17.678  1.00  0.00     0.004 C 
ENDBRANCH  16  17
ENDBRANCH  15  16
ENDBRANCH  14  15
ENDBRANCH  13  14
ENDBRANCH  12  13
ENDBRANCH  11  12
ENDBRANCH   1  11
TORSDOF 14
ENDMDL
MODEL 7
REMARK VINA RESULT:    -3.969      0.989      3.349
REMARK INTER + INTRA:          -8.057
REMARK INTER:                  -7.156
REMARK INTRA:                  -0.901
REMARK UNBOUND:                -0.839
REMARK SMILES CCCCCCCCCCCCCCCC(=O)[O-]
REMARK SMILES IDX 9 1 10 2 11 3 12 4 13 5 14 6 15 7 16 8 17 9 18 10 8 11 7 12
REMARK SMILES IDX 6 13 5 14 4 15 3 16 2 17 1 18
REMARK H PARENT
REMARK Flexibility Score: inf
ROOT
ATOM      1  C   UNL     1       3.794  10.903  19.192  1.00  0.00     0.000 C 
ENDROOT
BRANCH   1   2
ATOM      2  C   UNL     1       2.771  11.698  18.364  1.00  0.00     0.000 C 
BRANCH   2   3
ATOM      3  C   UNL     1       2.584  13.137  18.889  1.00  0.00     0.000 C 
BRANCH   3   4
ATOM      4  C   UNL     1       2.341  14.177  17.778  1.00  0.00     0.000 C 
BRANCH   4   5
ATOM      5  C   UNL     1       1.040  14.985  17.917  1.00  0.00     0.000 C 
BRANCH   5   6
ATOM      6  C   UNL     1       1.282  16.426  18.399  1.00  0.00     0.006 C 
BRANCH   6   7
ATOM      7  C   UNL     1      -0.020  17.119  18.820  1.00  0.00     0.053 C 
BRANCH   7   8
ATOM      8  C   UNL     1      -0.025  18.571  18.450  1.00  0.00     0.041 C 
ATOM      9  O   UNL     1      -1.112  19.205  18.384  1.00  0.00    -0.550 OA
ATOM     10  O   UNL     1       1.172  19.231  18.206  1.00  0.00    -0.550 OA
ENDBRANCH   7   8
ENDBRANCH   6   7
ENDBRANCH   5   6
ENDBRANCH   4   5
ENDBRANCH   3   4
ENDBRANCH   2   3
ENDBRANCH   1   2
BRANCH   1  11
ATOM     11  C   UNL     1       5.087  11.691  19.459  1.00  0.00     0.000 C 
BRANCH  11  12
ATOM     12  C   UNL     1       6.346  11.023  18.866  1.00  0.00    -0.000 C 
BRANCH  12  13
ATOM     13  C   UNL     1       6.732  11.621  17.505  1.00  0.00    -0.000 C 
BRANCH  13  14
ATOM     14  C   UNL     1       5.551  11.578  16.528  1.00  0.00    -0.000 C 
BRANCH  14  15
ATOM     15  C   UNL     1       5.478  12.867  15.696  1.00  0.00    -0.000 C 
BRANCH  15  16
ATOM     16  C   UNL     1       4.770  12.662  14.347  1.00  0.00    -0.000 C 
BRANCH  16  17
ATOM     17  C   UNL     1       3.314  12.200  14.506  1.00  0.00    -0.003 C 
ATOM     18  C   UNL     1       2.367  13.393  14.602  1.00  0.00     0.004 C 
ENDBRANCH  16  17
ENDBRANCH  15  16
ENDBRANCH  14  15
ENDBRANCH  13  14
ENDBRANCH  12  13
ENDBRANCH  11  12
ENDBRANCH   1  11
TORSDOF 14
ENDMDL
MODEL 8
REMARK VINA RESULT:    -3.925      1.038      2.809
REMARK INTER + INTRA:          -7.976
REMARK INTER:                  -6.763
REMARK INTRA:                  -1.214
REMARK UNBOUND:                -0.839
REMARK SMILES CCCCCCCCCCCCCCCC(=O)[O-]
REMARK SMILES IDX 9 1 10 2 11 3 12 4 13 5 14 6 15 7 16 8 17 9 18 10 8 11 7 12
REMARK SMILES IDX 6 13 5 14 4 15 3 16 2 17 1 18
REMARK H PARENT
REMARK Flexibility Score: inf
ROOT
ATOM      1  C   UNL     1       2.704  13.192  18.772  1.00  0.00     0.000 C 
ENDROOT
BRANCH   1   2
ATOM      2  C   UNL     1       2.037  14.049  17.683  1.00  0.00     0.000 C 
BRANCH   2   3
ATOM      3  C   UNL     1       1.430  15.349  18.253  1.00  0.00     0.000 C 
BRANCH   3   4
ATOM      4  C   UNL     1      -0.072  15.517  17.951  1.00  0.00     0.000 C 
BRANCH   4   5
ATOM      5  C   UNL     1      -0.942  15.884  19.166  1.00  0.00     0.000 C 
BRANCH   5   6
ATOM      6  C   UNL     1      -1.609  17.263  19.026  1.00  0.00     0.006 C 
BRANCH   6   7
ATOM      7  C   UNL     1      -0.699  18.396  19.520  1.00  0.00     0.053 C 
BRANCH   7   8
ATOM      8  C   UNL     1      -0.060  19.135  18.385  1.00  0.00     0.041 C 
ATOM      9  O   UNL     1      -0.733  19.952  17.701  1.00  0.00    -0.550 OA
ATOM     10  O   UNL     1       1.285  18.942  18.098  1.00  0.00    -0.550 OA
ENDBRANCH   7   8
ENDBRANCH   6   7
ENDBRANCH   5   6
ENDBRANCH   4   5
ENDBRANCH   3   4
ENDBRANCH   2   3
ENDBRANCH   1   2
BRANCH   1  11
ATOM     11  C   UNL     1       2.781  11.703  18.394  1.00  0.00     0.000 C 
BRANCH  11  12
ATOM     12  C   UNL     1       3.852  10.924  19.188  1.00  0.00    -0.000 C 
BRANCH  12  13
ATOM     13  C   UNL     1       5.135  11.744  19.388  1.00  0.00    -0.000 C 
BRANCH  13  14
ATOM     14  C   UNL     1       6.314  11.116  18.635  1.00  0.00    -0.000 C 
BRANCH  14  15
ATOM     15  C   UNL     1       6.552  11.824  17.293  1.00  0.00    -0.000 C 
BRANCH  15  16
ATOM     16  C   UNL     1       5.475  11.491  16.249  1.00  0.00    -0.000 C 
BRANCH  16  17
ATOM     17  C   UNL     1       4.937  12.739  15.534  1.00  0.00    -0.003 C 
ATOM     18  C   UNL     1       3.721  12.399  14.677  1.00  0.00     0.004 C 
ENDBRANCH  16  17
ENDBRANCH  15  16
ENDBRANCH  14  15
ENDBRANCH  13  14
ENDBRANCH  12  13
ENDBRANCH  11  12
ENDBRANCH   1  11
TORSDOF 14
ENDMDL
MODEL 9
REMARK VINA RESULT:    -3.854      1.061      2.325
REMARK INTER + INTRA:          -7.847
REMARK INTER:                  -6.837
REMARK INTRA:                  -1.010
REMARK UNBOUND:                -0.839
REMARK SMILES CCCCCCCCCCCCCCCC(=O)[O-]
REMARK SMILES IDX 9 1 10 2 11 3 12 4 13 5 14 6 15 7 16 8 17 9 18 10 8 11 7 12
REMARK SMILES IDX 6 13 5 14 4 15 3 16 2 17 1 18
REMARK H PARENT
REMARK Flexibility Score: inf
ROOT
ATOM      1  C   UNL     1       1.584  14.758  18.013  1.00  0.00     0.000 C 
ENDROOT
BRANCH   1   2
ATOM      2  C   UNL     1       0.633  15.967  18.003  1.00  0.00     0.000 C 
BRANCH   2   3
ATOM      3  C   UNL     1      -0.706  15.662  18.707  1.00  0.00     0.000 C 
BRANCH   3   4
ATOM      4  C   UNL     1      -1.654  16.876  18.791  1.00  0.00     0.000 C 
BRANCH   4   5
ATOM      5  C   UNL     1      -1.385  17.830  19.967  1.00  0.00     0.000 C 
BRANCH   5   6
ATOM      6  C   UNL     1      -1.075  19.266  19.510  1.00  0.00     0.006 C 
BRANCH   6   7
ATOM      7  C   UNL     1       0.410  19.457  19.175  1.00  0.00     0.053 C 
BRANCH   7   8
ATOM      8  C   UNL     1       0.619  19.788  17.730  1.00  0.00     0.041 C 
ATOM      9  O   UNL     1       1.774  19.740  17.229  1.00  0.00    -0.550 OA
ATOM     10  O   UNL     1      -0.465  20.122  16.928  1.00  0.00    -0.550 OA
ENDBRANCH   7   8
ENDBRANCH   6   7
ENDBRANCH   5   6
ENDBRANCH   4   5
ENDBRANCH   3   4
ENDBRANCH   2   3
ENDBRANCH   1   2
BRANCH   1  11
ATOM     11  C   UNL     1       2.222  14.490  16.639  1.00  0.00     0.000 C 
BRANCH  11  12
ATOM     12  C   UNL     1       2.777  13.057  16.491  1.00  0.00    -0.000 C 
BRANCH  12  13
ATOM     13  C   UNL     1       3.653  12.902  15.239  1.00  0.00    -0.000 C 
BRANCH  13  14
ATOM     14  C   UNL     1       5.121  12.670  15.617  1.00  0.00    -0.000 C 
BRANCH  14  15
ATOM     15  C   UNL     1       5.259  11.482  16.580  1.00  0.00    -0.000 C 
BRANCH  15  16
ATOM     16  C   UNL     1       6.428  11.649  17.563  1.00  0.00    -0.000 C 
BRANCH  16  17
ATOM     17  C   UNL     1       5.996  11.499  19.029  1.00  0.00    -0.003 C 
ATOM     18  C   UNL     1       4.511  11.164  19.131  1.00  0.00     0.004 C 
ENDBRANCH  16  17
ENDBRANCH  15  16
ENDBRANCH  14  15
ENDBRANCH  13  14
ENDBRANCH  12  13
ENDBRANCH  11  12
ENDBRANCH   1  11
TORSDOF 14
ENDMDL
