MODEL 1
REMARK VINA RESULT:    -3.570      0.000      0.000
REMARK INTER + INTRA:          -5.387
REMARK INTER:                  -5.031
REMARK INTRA:                  -0.356
REMARK UNBOUND:                -0.356
REMARK SMILES CCCCCCCCC(=O)[O-]
REMARK SMILES IDX 6 1 7 2 8 3 9 4 10 5 11 6 5 7 4 8 3 9 2 10 1 11
REMARK H PARENT
REMARK Flexibility Score: inf
ROOT
ATOM      1  C   UNL     1     -46.139 -26.397   2.734  1.00  0.00     0.000 C 
ENDROOT
BRANCH   1   2
ATOM      2  C   UNL     1     -45.238 -26.260   1.494  1.00  0.00     0.006 C 
BRANCH   2   3
ATOM      3  C   UNL     1     -45.065 -27.594   0.754  1.00  0.00     0.053 C 
BRANCH   3   4
ATOM      4  C   UNL     1     -44.192 -27.449  -0.454  1.00  0.00     0.041 C 
ATOM      5  O   UNL     1     -42.945 -27.599  -0.358  1.00  0.00    -0.550 OA
ATOM      6  O   UNL     1     -44.758 -27.176  -1.693  1.00  0.00    -0.550 OA
ENDBRANCH   3   4
ENDBRANCH   2   3
ENDBRANCH   1   2
BRANCH   1   7
ATOM      7  C   UNL     1     -46.462 -27.861   3.072  1.00  0.00     0.000 C 
BRANCH   7   8
ATOM      8  C   UNL     1     -46.736 -28.079   4.570  1.00  0.00    -0.000 C 
BRANCH   8   9
ATOM      9  C   UNL     1     -45.589 -28.842   5.266  1.00  0.00    -0.000 C 
BRANCH   9  10
ATOM     10  C   UNL     1     -45.284 -28.334   6.685  1.00  0.00    -0.003 C 
ATOM     11  C   UNL     1     -45.459 -26.823   6.830  1.00  0.00     0.004 C 
ENDBRANCH   9  10
ENDBRANCH   8   9
ENDBRANCH   7   8
ENDBRANCH   1   7
TORSDOF 7
ENDMDL
MODEL 2
REMARK VINA RESULT:    -3.556      0.882      1.542
REMARK INTER + INTRA:          -5.368
REMARK INTER:                  -4.998
REMARK INTRA:                  -0.370
REMARK UNBOUND:                -0.356
REMARK SMILES CCCCCCCCC(=O)[O-]
REMARK SMILES IDX 6 1 7 2 8 3 9 4 10 5 11 6 5 7 4 8 3 9 2 10 1 11
REMARK H PARENT
REMARK Flexibility Score: inf
ROOT
ATOM      1  C   UNL     1     -45.508 -26.248   1.777  1.00  0.00     0.000 C 
ENDROOT
BRANCH   1   2
ATOM      2  C   UNL     1     -45.654 -27.103   0.506  1.00  0.00     0.006 C 
BRANCH   2   3
ATOM      3  C   UNL     1     -44.501 -28.103   0.345  1.00  0.00     0.053 C 
BRANCH   3   4
ATOM      4  C   UNL     1     -43.366 -27.520  -0.440  1.00  0.00     0.041 C 
ATOM      5  O   UNL     1     -43.585 -26.642  -1.316  1.00  0.00    -0.550 OA
ATOM      6  O   UNL     1     -42.063 -27.926  -0.184  1.00  0.00    -0.550 OA
ENDBRANCH   3   4
ENDBRANCH   2   3
ENDBRANCH   1   2
BRANCH   1   7
ATOM      7  C   UNL     1     -46.621 -26.518   2.803  1.00  0.00     0.000 C 
BRANCH   7   8
ATOM      8  C   UNL     1     -46.611 -27.965   3.325  1.00  0.00    -0.000 C 
BRANCH   8   9
ATOM      9  C   UNL     1     -46.071 -28.060   4.767  1.00  0.00    -0.000 C 
BRANCH   9  10
ATOM     10  C   UNL     1     -45.979 -26.700   5.480  1.00  0.00    -0.003 C 
ATOM     11  C   UNL     1     -45.498 -26.815   6.925  1.00  0.00     0.004 C 
ENDBRANCH   9  10
ENDBRANCH   8   9
ENDBRANCH   7   8
ENDBRANCH   1   7
TORSDOF 7
ENDMDL
MODEL 3
REMARK VINA RESULT:    -3.491      3.118      5.513
REMARK INTER + INTRA:          -5.276
REMARK INTER:                  -4.872
REMARK INTRA:                  -0.404
REMARK UNBOUND:                -0.356
REMARK SMILES CCCCCCCCC(=O)[O-]
REMARK SMILES IDX 6 1 7 2 8 3 9 4 10 5 11 6 5 7 4 8 3 9 2 10 1 11
REMARK H PARENT
REMARK Flexibility Score: inf
ROOT
ATOM      1  C   UNL     1     -44.820 -26.632   0.808  1.00  0.00     0.000 C 
ENDROOT
BRANCH   1   2
ATOM      2  C   UNL     1     -45.720 -26.074   1.924  1.00  0.00     0.006 C 
BRANCH   2   3
ATOM      3  C   UNL     1     -46.670 -27.139   2.490  1.00  0.00     0.053 C 
BRANCH   3   4
ATOM      4  C   UNL     1     -46.442 -27.365   3.953  1.00  0.00     0.041 C 
ATOM      5  O   UNL     1     -45.921 -28.438   4.356  1.00  0.00    -0.550 OA
ATOM      6  O   UNL     1     -46.779 -26.377   4.870  1.00  0.00    -0.550 OA
ENDBRANCH   3   4
ENDBRANCH   2   3
ENDBRANCH   1   2
BRANCH   1   7
ATOM      7  C   UNL     1     -44.978 -28.150   0.624  1.00  0.00     0.000 C 
BRANCH   7   8
ATOM      8  C   UNL     1     -43.786 -28.788  -0.110  1.00  0.00    -0.000 C 
BRANCH   8   9
ATOM      9  C   UNL     1     -42.701 -27.750  -0.469  1.00  0.00    -0.000 C 
BRANCH   9  10
ATOM     10  C   UNL     1     -41.267 -28.252  -0.230  1.00  0.00    -0.003 C 
ATOM     11  C   UNL     1     -41.197 -29.754   0.045  1.00  0.00     0.004 C 
ENDBRANCH   9  10
ENDBRANCH   8   9
ENDBRANCH   7   8
ENDBRANCH   1   7
TORSDOF 7
ENDMDL
MODEL 4
REMARK VINA RESULT:    -3.429      3.579      5.972
REMARK INTER + INTRA:          -5.189
REMARK INTER:                  -4.865
REMARK INTRA:                  -0.323
REMARK UNBOUND:                -0.356
REMARK SMILES CCCCCCCCC(=O)[O-]
REMARK SMILES IDX 6 1 7 2 8 3 9 4 10 5 11 6 5 7 4 8 3 9 2 10 1 11
REMARK H PARENT
REMARK Flexibility Score: inf
ROOT
ATOM      1  C   UNL     1     -46.363 -27.936   3.056  1.00  0.00     0.000 C 
ENDROOT
BRANCH   1   2
ATOM      2  C   UNL     1     -46.282 -28.056   4.587  1.00  0.00     0.006 C 
BRANCH   2   3
ATOM      3  C   UNL     1     -46.058 -26.696   5.263  1.00  0.00     0.053 C 
BRANCH   3   4
ATOM      4  C   UNL     1     -45.575 -26.850   6.673  1.00  0.00     0.041 C 
ATOM      5  O   UNL     1     -45.820 -25.958   7.528  1.00  0.00    -0.550 OA
ATOM      6  O   UNL     1     -44.878 -27.991   7.049  1.00  0.00    -0.550 OA
ENDBRANCH   3   4
ENDBRANCH   2   3
ENDBRANCH   1   2
BRANCH   1   7
ATOM      7  C   UNL     1     -46.373 -26.476   2.575  1.00  0.00     0.000 C 
BRANCH   7   8
ATOM      8  C   UNL     1     -45.762 -26.307   1.174  1.00  0.00    -0.000 C 
BRANCH   8   9
ATOM      9  C   UNL     1     -44.901 -27.520   0.764  1.00  0.00    -0.000 C 
BRANCH   9  10
ATOM     10  C   UNL     1     -43.688 -27.147  -0.105  1.00  0.00    -0.003 C 
ATOM     11  C   UNL     1     -42.688 -28.293  -0.259  1.00  0.00     0.004 C 
ENDBRANCH   9  10
ENDBRANCH   8   9
ENDBRANCH   7   8
ENDBRANCH   1   7
TORSDOF 7
ENDMDL
MODEL 5
REMARK VINA RESULT:    -3.311      1.324      2.175
REMARK INTER + INTRA:          -5.022
REMARK INTER:                  -4.745
REMARK INTRA:                  -0.277
REMARK UNBOUND:                -0.356
REMARK SMILES CCCCCCCCC(=O)[O-]
REMARK SMILES IDX 6 1 7 2 8 3 9 4 10 5 11 6 5 7 4 8 3 9 2 10 1 11
REMARK H PARENT
REMARK Flexibility Score: inf
ROOT
ATOM      1  C   UNL     1     -44.873 -26.731   0.775  1.00  0.00     0.000 C 
ENDROOT
BRANCH   1   2
ATOM      2  C   UNL     1     -43.840 -27.603   0.041  1.00  0.00     0.006 C 
BRANCH   2   3
ATOM      3  C   UNL     1     -44.495 -28.541  -0.982  1.00  0.00     0.053 C 
BRANCH   3   4
ATOM      4  C   UNL     1     -45.337 -27.788  -1.965  1.00  0.00     0.041 C 
ATOM      5  O   UNL     1     -44.797 -27.044  -2.825  1.00  0.00    -0.550 OA
ATOM      6  O   UNL     1     -46.719 -27.932  -1.951  1.00  0.00    -0.550 OA
ENDBRANCH   3   4
ENDBRANCH   2   3
ENDBRANCH   1   2
BRANCH   1   7
ATOM      7  C   UNL     1     -45.690 -27.523   1.808  1.00  0.00     0.000 C 
BRANCH   7   8
ATOM      8  C   UNL     1     -46.393 -26.616   2.833  1.00  0.00    -0.000 C 
BRANCH   8   9
ATOM      9  C   UNL     1     -46.737 -27.368   4.135  1.00  0.00    -0.000 C 
BRANCH   9  10
ATOM     10  C   UNL     1     -46.035 -26.797   5.379  1.00  0.00    -0.003 C 
ATOM     11  C   UNL     1     -45.547 -27.880   6.341  1.00  0.00     0.004 C 
ENDBRANCH   9  10
ENDBRANCH   8   9
ENDBRANCH   7   8
ENDBRANCH   1   7
TORSDOF 7
ENDMDL
MODEL 6
REMARK VINA RESULT:    -3.212      4.627      5.746
REMARK INTER + INTRA:          -4.883
REMARK INTER:                  -4.544
REMARK INTRA:                  -0.339
REMARK UNBOUND:                -0.356
REMARK SMILES CCCCCCCCC(=O)[O-]
REMARK SMILES IDX 6 1 7 2 8 3 9 4 10 5 11 6 5 7 4 8 3 9 2 10 1 11
REMARK H PARENT
REMARK Flexibility Score: inf
ROOT
ATOM      1  C   UNL     1     -45.818 -29.388  -1.549  1.00  0.00     0.000 C 
ENDROOT
BRANCH   1   2
ATOM      2  C   UNL     1     -46.599 -28.694  -2.679  1.00  0.00     0.006 C 
BRANCH   2   3
ATOM      3  C   UNL     1     -45.906 -28.846  -4.040  1.00  0.00     0.053 C 
BRANCH   3   4
ATOM      4  C   UNL     1     -45.336 -27.547  -4.521  1.00  0.00     0.041 C 
ATOM      5  O   UNL     1     -45.344 -27.267  -5.749  1.00  0.00    -0.550 OA
ATOM      6  O   UNL     1     -44.821 -26.634  -3.610  1.00  0.00    -0.550 OA
ENDBRANCH   3   4
ENDBRANCH   2   3
ENDBRANCH   1   2
BRANCH   1   7
ATOM      7  C   UNL     1     -45.109 -28.391  -0.620  1.00  0.00     0.000 C 
BRANCH   7   8
ATOM      8  C   UNL     1     -43.691 -28.845  -0.230  1.00  0.00    -0.000 C 
BRANCH   8   9
ATOM      9  C   UNL     1     -42.652 -27.717  -0.401  1.00  0.00    -0.000 C 
BRANCH   9  10
ATOM     10  C   UNL     1     -41.198 -28.191  -0.237  1.00  0.00    -0.003 C 
ATOM     11  C   UNL     1     -41.085 -29.688   0.048  1.00  0.00     0.004 C 
ENDBRANCH   9  10
ENDBRANCH   8   9
ENDBRANCH   7   8
ENDBRANCH   1   7
TORSDOF 7
ENDMDL
MODEL 7
REMARK VINA RESULT:    -3.200      1.602      2.686
REMARK INTER + INTRA:          -4.866
REMARK INTER:                  -4.532
REMARK INTRA:                  -0.334
REMARK UNBOUND:                -0.356
REMARK SMILES CCCCCCCCC(=O)[O-]
REMARK SMILES IDX 6 1 7 2 8 3 9 4 10 5 11 6 5 7 4 8 3 9 2 10 1 11
REMARK H PARENT
REMARK Flexibility Score: inf
ROOT
ATOM      1  C   UNL     1     -45.758 -27.662   0.246  1.00  0.00     0.000 C 
ENDROOT
BRANCH   1   2
ATOM      2  C   UNL     1     -44.681 -27.885  -0.829  1.00  0.00     0.006 C 
BRANCH   2   3
ATOM      3  C   UNL     1     -43.325 -27.292  -0.423  1.00  0.00     0.053 C 
BRANCH   3   4
ATOM      4  C   UNL     1     -42.271 -28.349  -0.300  1.00  0.00     0.041 C 
ATOM      5  O   UNL     1     -41.056 -28.027  -0.223  1.00  0.00    -0.550 OA
ATOM      6  O   UNL     1     -42.633 -29.689  -0.244  1.00  0.00    -0.550 OA
ENDBRANCH   3   4
ENDBRANCH   2   3
ENDBRANCH   1   2
BRANCH   1   7
ATOM      7  C   UNL     1     -45.356 -26.592   1.274  1.00  0.00     0.000 C 
BRANCH   7   8
ATOM      8  C   UNL     1     -46.550 -26.085   2.102  1.00  0.00    -0.000 C 
BRANCH   8   9
ATOM      9  C   UNL     1     -46.950 -27.077   3.214  1.00  0.00    -0.000 C 
BRANCH   9  10
ATOM     10  C   UNL     1     -46.218 -26.837   4.545  1.00  0.00    -0.003 C 
ATOM     11  C   UNL     1     -45.871 -28.131   5.279  1.00  0.00     0.004 C 
ENDBRANCH   9  10
ENDBRANCH   8   9
ENDBRANCH   7   8
ENDBRANCH   1   7
TORSDOF 7
ENDMDL
MODEL 8
REMARK VINA RESULT:    -3.014      4.905      6.395
REMARK INTER + INTRA:          -4.604
REMARK INTER:                  -4.293
REMARK INTRA:                  -0.311
REMARK UNBOUND:                -0.356
REMARK SMILES CCCCCCCCC(=O)[O-]
REMARK SMILES IDX 6 1 7 2 8 3 9 4 10 5 11 6 5 7 4 8 3 9 2 10 1 11
REMARK H PARENT
REMARK Flexibility Score: inf
ROOT
ATOM      1  C   UNL     1     -45.999 -28.871  -2.836  1.00  0.00     0.000 C 
ENDROOT
BRANCH   1   2
ATOM      2  C   UNL     1     -45.931 -28.800  -4.371  1.00  0.00     0.006 C 
BRANCH   2   3
ATOM      3  C   UNL     1     -45.306 -27.487  -4.863  1.00  0.00     0.053 C 
BRANCH   3   4
ATOM      4  C   UNL     1     -45.135 -27.477  -6.351  1.00  0.00     0.041 C 
ATOM      5  O   UNL     1     -46.084 -27.118  -7.097  1.00  0.00    -0.550 OA
ATOM      6  O   UNL     1     -43.916 -27.836  -6.913  1.00  0.00    -0.550 OA
ENDBRANCH   3   4
ENDBRANCH   2   3
ENDBRANCH   1   2
BRANCH   1   7
ATOM      7  C   UNL     1     -45.096 -27.830  -2.154  1.00  0.00     0.000 C 
BRANCH   7   8
ATOM      8  C   UNL     1     -45.198 -27.868  -0.619  1.00  0.00    -0.000 C 
BRANCH   8   9
ATOM      9  C   UNL     1     -43.879 -27.448   0.062  1.00  0.00    -0.000 C 
BRANCH   9  10
ATOM     10  C   UNL     1     -42.641 -27.625  -0.834  1.00  0.00    -0.003 C 
ATOM     11  C   UNL     1     -41.419 -28.136  -0.072  1.00  0.00     0.004 C 
ENDBRANCH   9  10
ENDBRANCH   8   9
ENDBRANCH   7   8
ENDBRANCH   1   7
TORSDOF 7
ENDMDL
MODEL 9
REMARK VINA RESULT:    -2.978      2.981      5.136
REMARK INTER + INTRA:          -4.553
REMARK INTER:                  -3.857
REMARK INTRA:                  -0.697
REMARK UNBOUND:                -0.356
REMARK SMILES CCCCCCCCC(=O)[O-]
REMARK SMILES IDX 6 1 7 2 8 3 9 4 10 5 11 6 5 7 4 8 3 9 2 10 1 11
REMARK H PARENT
REMARK Flexibility Score: inf
ROOT
ATOM      1  C   UNL     1     -45.204 -30.034   1.331  1.00  0.00     0.000 C 
ENDROOT
BRANCH   1   2
ATOM      2  C   UNL     1     -46.071 -28.990   2.055  1.00  0.00     0.006 C 
BRANCH   2   3
ATOM      3  C   UNL     1     -46.275 -27.723   1.213  1.00  0.00     0.053 C 
BRANCH   3   4
ATOM      4  C   UNL     1     -45.989 -26.481   2.000  1.00  0.00     0.041 C 
ATOM      5  O   UNL     1     -46.304 -26.415   3.218  1.00  0.00    -0.550 OA
ATOM      6  O   UNL     1     -45.349 -25.407   1.395  1.00  0.00    -0.550 OA
ENDBRANCH   3   4
ENDBRANCH   2   3
ENDBRANCH   1   2
BRANCH   1   7
ATOM      7  C   UNL     1     -45.468 -30.077  -0.182  1.00  0.00     0.000 C 
BRANCH   7   8
ATOM      8  C   UNL     1     -44.189 -29.883  -1.015  1.00  0.00    -0.000 C 
BRANCH   8   9
ATOM      9  C   UNL     1     -42.939 -29.699  -0.129  1.00  0.00    -0.000 C 
BRANCH   9  10
ATOM     10  C   UNL     1     -42.241 -28.343  -0.324  1.00  0.00    -0.003 C 
ATOM     11  C   UNL     1     -43.202 -27.229  -0.739  1.00  0.00     0.004 C 
ENDBRANCH   9  10
ENDBRANCH   8   9
ENDBRANCH   7   8
ENDBRANCH   1   7
TORSDOF 7
ENDMDL
