MODEL 1
REMARK VINA RESULT:    -3.344      0.000      0.000
REMARK INTER + INTRA:          -4.008
REMARK INTER:                  -3.931
REMARK INTRA:                  -0.078
REMARK UNBOUND:                -0.078
REMARK SMILES CCCCC(=O)[O-]
REMARK SMILES IDX 4 1 5 2 6 3 7 4 3 5 2 6 1 7
REMARK H PARENT
REMARK Flexibility Score: inf
ROOT
ATOM      1  C   UNL     1      12.406 -30.965  22.242  1.00  0.00     0.053 C 
ENDROOT
BRANCH   1   2
ATOM      2  C   UNL     1      13.433 -31.154  21.166  1.00  0.00     0.041 C 
ATOM      3  O   UNL     1      13.380 -32.157  20.408  1.00  0.00    -0.550 OA
ATOM      4  O   UNL     1      14.467 -30.237  21.024  1.00  0.00    -0.550 OA
ENDBRANCH   1   2
BRANCH   1   5
ATOM      5  C   UNL     1      11.185 -30.189  21.731  1.00  0.00     0.006 C 
BRANCH   5   6
ATOM      6  C   UNL     1      10.876 -28.959  22.596  1.00  0.00    -0.003 C 
ATOM      7  C   UNL     1      11.984 -28.708  23.614  1.00  0.00     0.004 C 
ENDBRANCH   5   6
ENDBRANCH   1   5
TORSDOF 3
ENDMDL
MODEL 2
REMARK VINA RESULT:    -3.338      3.167      4.066
REMARK INTER + INTRA:          -4.001
REMARK INTER:                  -3.911
REMARK INTRA:                  -0.090
REMARK UNBOUND:                -0.078
REMARK SMILES CCCCC(=O)[O-]
REMARK SMILES IDX 4 1 5 2 6 3 7 4 3 5 2 6 1 7
REMARK H PARENT
REMARK Flexibility Score: inf
ROOT
ATOM      1  C   UNL     1      12.759 -29.275  24.142  1.00  0.00     0.053 C 
ENDROOT
BRANCH   1   2
ATOM      2  C   UNL     1      12.426 -27.836  24.395  1.00  0.00     0.041 C 
ATOM      3  O   UNL     1      11.502 -27.275  23.750  1.00  0.00    -0.550 OA
ATOM      4  O   UNL     1      13.159 -27.105  25.321  1.00  0.00    -0.550 OA
ENDBRANCH   1   2
BRANCH   1   5
ATOM      5  C   UNL     1      13.061 -29.536  22.660  1.00  0.00     0.006 C 
BRANCH   5   6
ATOM      6  C   UNL     1      12.286 -30.741  22.113  1.00  0.00    -0.003 C 
ATOM      7  C   UNL     1      10.933 -30.317  21.549  1.00  0.00     0.004 C 
ENDBRANCH   5   6
ENDBRANCH   1   5
TORSDOF 3
ENDMDL
MODEL 3
REMARK VINA RESULT:    -3.285      9.959     10.917
REMARK INTER + INTRA:          -3.939
REMARK INTER:                  -3.832
REMARK INTRA:                  -0.106
REMARK UNBOUND:                -0.078
REMARK SMILES CCCCC(=O)[O-]
REMARK SMILES IDX 4 1 5 2 6 3 7 4 3 5 2 6 1 7
REMARK H PARENT
REMARK Flexibility Score: inf
ROOT
ATOM      1  C   UNL     1      21.959 -25.062  20.732  1.00  0.00     0.053 C 
ENDROOT
BRANCH   1   2
ATOM      2  C   UNL     1      23.111 -24.988  19.777  1.00  0.00     0.041 C 
ATOM      3  O   UNL     1      23.348 -25.943  18.994  1.00  0.00    -0.550 OA
ATOM      4  O   UNL     1      23.942 -23.874  19.776  1.00  0.00    -0.550 OA
ENDBRANCH   1   2
BRANCH   1   5
ATOM      5  C   UNL     1      20.722 -25.696  20.082  1.00  0.00     0.006 C 
BRANCH   5   6
ATOM      6  C   UNL     1      20.198 -26.897  20.880  1.00  0.00    -0.003 C 
ATOM      7  C   UNL     1      21.159 -28.079  20.793  1.00  0.00     0.004 C 
ENDBRANCH   5   6
ENDBRANCH   1   5
TORSDOF 3
ENDMDL
MODEL 4
REMARK VINA RESULT:    -3.279      0.861      1.770
REMARK INTER + INTRA:          -3.932
REMARK INTER:                  -3.901
REMARK INTRA:                  -0.030
REMARK UNBOUND:                -0.078
REMARK SMILES CCCCC(=O)[O-]
REMARK SMILES IDX 4 1 5 2 6 3 7 4 3 5 2 6 1 7
REMARK H PARENT
REMARK Flexibility Score: inf
ROOT
ATOM      1  C   UNL     1      12.304 -30.576  22.151  1.00  0.00     0.053 C 
ENDROOT
BRANCH   1   2
ATOM      2  C   UNL     1      13.404 -30.981  21.217  1.00  0.00     0.041 C 
ATOM      3  O   UNL     1      14.417 -30.249  21.074  1.00  0.00    -0.550 OA
ATOM      4  O   UNL     1      13.292 -32.154  20.480  1.00  0.00    -0.550 OA
ENDBRANCH   1   2
BRANCH   1   5
ATOM      5  C   UNL     1      12.851 -29.877  23.403  1.00  0.00     0.006 C 
BRANCH   5   6
ATOM      6  C   UNL     1      11.946 -28.729  23.869  1.00  0.00    -0.003 C 
ATOM      7  C   UNL     1      12.718 -27.734  24.731  1.00  0.00     0.004 C 
ENDBRANCH   5   6
ENDBRANCH   1   5
TORSDOF 3
ENDMDL
MODEL 5
REMARK VINA RESULT:    -3.234      1.958      2.762
REMARK INTER + INTRA:          -3.878
REMARK INTER:                  -3.856
REMARK INTRA:                  -0.022
REMARK UNBOUND:                -0.078
REMARK SMILES CCCCC(=O)[O-]
REMARK SMILES IDX 4 1 5 2 6 3 7 4 3 5 2 6 1 7
REMARK H PARENT
REMARK Flexibility Score: inf
ROOT
ATOM      1  C   UNL     1      14.411 -32.003  21.580  1.00  0.00     0.053 C 
ENDROOT
BRANCH   1   2
ATOM      2  C   UNL     1      14.623 -33.383  21.036  1.00  0.00     0.041 C 
ATOM      3  O   UNL     1      14.284 -33.659  19.856  1.00  0.00    -0.550 OA
ATOM      4  O   UNL     1      15.167 -34.373  21.845  1.00  0.00    -0.550 OA
ENDBRANCH   1   2
BRANCH   1   5
ATOM      5  C   UNL     1      13.174 -31.335  20.966  1.00  0.00     0.006 C 
BRANCH   5   6
ATOM      6  C   UNL     1      12.276 -30.688  22.030  1.00  0.00    -0.003 C 
ATOM      7  C   UNL     1      10.881 -30.410  21.478  1.00  0.00     0.004 C 
ENDBRANCH   5   6
ENDBRANCH   1   5
TORSDOF 3
ENDMDL
MODEL 6
REMARK VINA RESULT:    -3.212      2.017      2.606
REMARK INTER + INTRA:          -3.854
REMARK INTER:                  -3.812
REMARK INTRA:                  -0.042
REMARK UNBOUND:                -0.078
REMARK SMILES CCCCC(=O)[O-]
REMARK SMILES IDX 4 1 5 2 6 3 7 4 3 5 2 6 1 7
REMARK H PARENT
REMARK Flexibility Score: inf
ROOT
ATOM      1  C   UNL     1      13.052 -30.133  23.507  1.00  0.00     0.053 C 
ENDROOT
BRANCH   1   2
ATOM      2  C   UNL     1      12.410 -30.544  22.216  1.00  0.00     0.041 C 
ATOM      3  O   UNL     1      11.248 -30.153  21.934  1.00  0.00    -0.550 OA
ATOM      4  O   UNL     1      13.085 -31.386  21.341  1.00  0.00    -0.550 OA
ENDBRANCH   1   2
BRANCH   1   5
ATOM      5  C   UNL     1      13.440 -28.649  23.500  1.00  0.00     0.006 C 
BRANCH   5   6
ATOM      6  C   UNL     1      12.749 -27.863  24.623  1.00  0.00    -0.003 C 
ATOM      7  C   UNL     1      13.538 -26.607  24.983  1.00  0.00     0.004 C 
ENDBRANCH   5   6
ENDBRANCH   1   5
TORSDOF 3
ENDMDL
MODEL 7
REMARK VINA RESULT:    -3.195      2.126      2.337
REMARK INTER + INTRA:          -3.833
REMARK INTER:                  -3.803
REMARK INTRA:                  -0.031
REMARK UNBOUND:                -0.078
REMARK SMILES CCCCC(=O)[O-]
REMARK SMILES IDX 4 1 5 2 6 3 7 4 3 5 2 6 1 7
REMARK H PARENT
REMARK Flexibility Score: inf
ROOT
ATOM      1  C   UNL     1      13.259 -30.251  23.915  1.00  0.00     0.053 C 
ENDROOT
BRANCH   1   2
ATOM      2  C   UNL     1      13.618 -31.641  23.486  1.00  0.00     0.041 C 
ATOM      3  O   UNL     1      13.738 -31.917  22.264  1.00  0.00    -0.550 OA
ATOM      4  O   UNL     1      13.789 -32.639  24.437  1.00  0.00    -0.550 OA
ENDBRANCH   1   2
BRANCH   1   5
ATOM      5  C   UNL     1      12.414 -29.530  22.856  1.00  0.00     0.006 C 
BRANCH   5   6
ATOM      6  C   UNL     1      11.637 -28.344  23.441  1.00  0.00    -0.003 C 
ATOM      7  C   UNL     1      12.379 -27.729  24.624  1.00  0.00     0.004 C 
ENDBRANCH   5   6
ENDBRANCH   1   5
TORSDOF 3
ENDMDL
MODEL 8
REMARK VINA RESULT:    -3.149      2.778      3.812
REMARK INTER + INTRA:          -3.778
REMARK INTER:                  -3.669
REMARK INTRA:                  -0.110
REMARK UNBOUND:                -0.078
REMARK SMILES CCCCC(=O)[O-]
REMARK SMILES IDX 4 1 5 2 6 3 7 4 3 5 2 6 1 7
REMARK H PARENT
REMARK Flexibility Score: inf
ROOT
ATOM      1  C   UNL     1      12.699 -28.943  24.171  1.00  0.00     0.053 C 
ENDROOT
BRANCH   1   2
ATOM      2  C   UNL     1      11.593 -28.619  23.213  1.00  0.00     0.041 C 
ATOM      3  O   UNL     1      11.207 -29.477  22.377  1.00  0.00    -0.550 OA
ATOM      4  O   UNL     1      11.011 -27.358  23.223  1.00  0.00    -0.550 OA
ENDBRANCH   1   2
BRANCH   1   5
ATOM      5  C   UNL     1      13.446 -30.220  23.766  1.00  0.00     0.006 C 
BRANCH   5   6
ATOM      6  C   UNL     1      14.814 -29.918  23.140  1.00  0.00    -0.003 C 
ATOM      7  C   UNL     1      14.735 -29.916  21.616  1.00  0.00     0.004 C 
ENDBRANCH   5   6
ENDBRANCH   1   5
TORSDOF 3
ENDMDL
MODEL 9
REMARK VINA RESULT:    -3.137      2.713      3.741
REMARK INTER + INTRA:          -3.765
REMARK INTER:                  -3.690
REMARK INTRA:                  -0.075
REMARK UNBOUND:                -0.078
REMARK SMILES CCCCC(=O)[O-]
REMARK SMILES IDX 4 1 5 2 6 3 7 4 3 5 2 6 1 7
REMARK H PARENT
REMARK Flexibility Score: inf
ROOT
ATOM      1  C   UNL     1      13.069 -29.881  23.513  1.00  0.00     0.053 C 
ENDROOT
BRANCH   1   2
ATOM      2  C   UNL     1      12.336 -28.627  23.882  1.00  0.00     0.041 C 
ATOM      3  O   UNL     1      11.395 -28.206  23.160  1.00  0.00    -0.550 OA
ATOM      4  O   UNL     1      12.716 -27.905  25.007  1.00  0.00    -0.550 OA
ENDBRANCH   1   2
BRANCH   1   5
ATOM      5  C   UNL     1      12.351 -30.650  22.396  1.00  0.00     0.006 C 
BRANCH   5   6
ATOM      6  C   UNL     1      13.293 -31.005  21.238  1.00  0.00    -0.003 C 
ATOM      7  C   UNL     1      14.607 -30.236  21.341  1.00  0.00     0.004 C 
ENDBRANCH   5   6
ENDBRANCH   1   5
TORSDOF 3
ENDMDL
