MODEL 1
REMARK VINA RESULT:    -4.699      0.000      0.000
REMARK INTER + INTRA:          -6.827
REMARK INTER:                  -6.347
REMARK INTRA:                  -0.481
REMARK UNBOUND:                -0.481
REMARK SMILES [NH3+]CCCC[C@H]([NH3+])C(=O)[O-]
REMARK SMILES IDX 4 1 3 2 2 3 1 4 5 8 6 9 7 10 8 14 9 15 10 16
REMARK H PARENT 1 5 1 6 1 7 7 11 7 12 7 13
REMARK Flexibility Score: inf
ROOT
ATOM      1  C   UNL     1     -21.203  69.765   0.104  1.00  0.00     0.012 C 
ENDROOT
BRANCH   1   2
ATOM      2  C   UNL     1     -21.483  68.887   1.332  1.00  0.00     0.061 C 
BRANCH   2   3
ATOM      3  C   UNL     1     -22.736  68.027   1.121  1.00  0.00     0.258 C 
BRANCH   3   4
ATOM      4  N   UNL     1     -23.147  68.036  -0.283  1.00  0.00    -0.358 N 
ATOM      5  H   UNL     1     -24.110  68.435  -0.356  1.00  0.00     0.344 HD
ATOM      6  H   UNL     1     -23.154  67.061  -0.662  1.00  0.00     0.344 HD
ATOM      7  H   UNL     1     -22.492  68.629  -0.845  1.00  0.00     0.344 HD
ENDBRANCH   3   4
ENDBRANCH   2   3
ENDBRANCH   1   2
BRANCH   1   8
ATOM      8  C   UNL     1     -19.944  69.344  -0.680  1.00  0.00     0.072 C 
BRANCH   8   9
ATOM      9  C   UNL     1     -19.361  67.943  -0.355  1.00  0.00     0.227 C 
BRANCH   9  10
ATOM     10  N   UNL     1     -17.895  67.962  -0.260  1.00  0.00    -0.350 N 
ATOM     11  H   UNL     1     -17.593  67.456   0.605  1.00  0.00     0.345 HD
ATOM     12  H   UNL     1     -17.554  68.949  -0.194  1.00  0.00     0.345 HD
ATOM     13  H   UNL     1     -17.457  67.498  -1.089  1.00  0.00     0.345 HD
ENDBRANCH   9  10
BRANCH   9  14
ATOM     14  C   UNL     1     -19.845  66.881  -1.314  1.00  0.00     0.099 C 
ATOM     15  O   UNL     1     -19.214  65.796  -1.418  1.00  0.00    -0.544 OA
ATOM     16  O   UNL     1     -20.965  67.094  -2.110  1.00  0.00    -0.544 OA
ENDBRANCH   9  14
ENDBRANCH   8   9
ENDBRANCH   1   8
TORSDOF 7
ENDMDL
MODEL 2
REMARK VINA RESULT:    -4.569      2.359      4.191
REMARK INTER + INTRA:          -6.653
REMARK INTER:                  -6.309
REMARK INTRA:                  -0.343
REMARK UNBOUND:                -0.481
REMARK SMILES [NH3+]CCCC[C@H]([NH3+])C(=O)[O-]
REMARK SMILES IDX 4 1 3 2 2 3 1 4 5 8 6 9 7 10 8 14 9 15 10 16
REMARK H PARENT 1 5 1 6 1 7 7 11 7 12 7 13
REMARK Flexibility Score: inf
ROOT
ATOM      1  C   UNL     1     -20.378  67.553  -1.580  1.00  0.00     0.012 C 
ENDROOT
BRANCH   1   2
ATOM      2  C   UNL     1     -19.445  66.860  -0.578  1.00  0.00     0.061 C 
BRANCH   2   3
ATOM      3  C   UNL     1     -18.297  67.788  -0.159  1.00  0.00     0.258 C 
BRANCH   3   4
ATOM      4  N   UNL     1     -18.311  69.023  -0.943  1.00  0.00    -0.358 N 
ATOM      5  H   UNL     1     -19.176  69.048  -1.529  1.00  0.00     0.344 HD
ATOM      6  H   UNL     1     -17.475  69.060  -1.571  1.00  0.00     0.344 HD
ATOM      7  H   UNL     1     -18.311  69.853  -0.305  1.00  0.00     0.344 HD
ENDBRANCH   3   4
ENDBRANCH   2   3
ENDBRANCH   1   2
BRANCH   1   8
ATOM      8  C   UNL     1     -21.729  67.979  -0.970  1.00  0.00     0.072 C 
BRANCH   8   9
ATOM      9  C   UNL     1     -21.688  68.552   0.471  1.00  0.00     0.227 C 
BRANCH   9  10
ATOM     10  N   UNL     1     -22.895  68.210   1.237  1.00  0.00    -0.350 N 
ATOM     11  H   UNL     1     -23.664  67.944   0.579  1.00  0.00     0.345 HD
ATOM     12  H   UNL     1     -23.213  69.038   1.791  1.00  0.00     0.345 HD
ATOM     13  H   UNL     1     -22.717  67.408   1.885  1.00  0.00     0.345 HD
ENDBRANCH   9  10
BRANCH   9  14
ATOM     14  C   UNL     1     -21.414  70.037   0.493  1.00  0.00     0.099 C 
ATOM     15  O   UNL     1     -20.819  70.579  -0.476  1.00  0.00    -0.544 OA
ATOM     16  O   UNL     1     -21.783  70.815   1.584  1.00  0.00    -0.544 OA
ENDBRANCH   9  14
ENDBRANCH   8   9
ENDBRANCH   1   8
TORSDOF 7
ENDMDL
MODEL 3
REMARK VINA RESULT:    -4.509      2.437      3.729
REMARK INTER + INTRA:          -6.571
REMARK INTER:                  -6.329
REMARK INTRA:                  -0.243
REMARK UNBOUND:                -0.481
REMARK SMILES [NH3+]CCCC[C@H]([NH3+])C(=O)[O-]
REMARK SMILES IDX 4 1 3 2 2 3 1 4 5 8 6 9 7 10 8 14 9 15 10 16
REMARK H PARENT 1 5 1 6 1 7 7 11 7 12 7 13
REMARK Flexibility Score: inf
ROOT
ATOM      1  C   UNL     1     -19.029  68.469  -0.825  1.00  0.00     0.012 C 
ENDROOT
BRANCH   1   2
ATOM      2  C   UNL     1     -18.929  66.952  -0.609  1.00  0.00     0.061 C 
BRANCH   2   3
ATOM      3  C   UNL     1     -19.810  66.192  -1.608  1.00  0.00     0.258 C 
BRANCH   3   4
ATOM      4  N   UNL     1     -19.345  64.814  -1.774  1.00  0.00    -0.358 N 
ATOM      5  H   UNL     1     -19.968  64.322  -2.453  1.00  0.00     0.344 HD
ATOM      6  H   UNL     1     -19.378  64.312  -0.858  1.00  0.00     0.344 HD
ATOM      7  H   UNL     1     -18.367  64.808  -2.146  1.00  0.00     0.344 HD
ENDBRANCH   3   4
ENDBRANCH   2   3
ENDBRANCH   1   2
BRANCH   1   8
ATOM      8  C   UNL     1     -20.343  68.908  -1.501  1.00  0.00     0.072 C 
BRANCH   8   9
ATOM      9  C   UNL     1     -21.423  69.531  -0.577  1.00  0.00     0.227 C 
BRANCH   9  10
ATOM     10  N   UNL     1     -20.934  70.735   0.111  1.00  0.00    -0.350 N 
ATOM     11  H   UNL     1     -21.331  70.771   1.078  1.00  0.00     0.345 HD
ATOM     12  H   UNL     1     -21.250  71.591  -0.401  1.00  0.00     0.345 HD
ATOM     13  H   UNL     1     -19.890  70.736   0.176  1.00  0.00     0.345 HD
ENDBRANCH   9  10
BRANCH   9  14
ATOM     14  C   UNL     1     -21.998  68.528   0.395  1.00  0.00     0.099 C 
ATOM     15  O   UNL     1     -22.863  67.700   0.003  1.00  0.00    -0.544 OA
ATOM     16  O   UNL     1     -21.610  68.522   1.730  1.00  0.00    -0.544 OA
ENDBRANCH   9  14
ENDBRANCH   8   9
ENDBRANCH   1   8
TORSDOF 7
ENDMDL
MODEL 4
REMARK VINA RESULT:    -4.503      2.622      4.132
REMARK INTER + INTRA:          -6.563
REMARK INTER:                  -6.445
REMARK INTRA:                  -0.118
REMARK UNBOUND:                -0.481
REMARK SMILES [NH3+]CCCC[C@H]([NH3+])C(=O)[O-]
REMARK SMILES IDX 4 1 3 2 2 3 1 4 5 8 6 9 7 10 8 14 9 15 10 16
REMARK H PARENT 1 5 1 6 1 7 7 11 7 12 7 13
REMARK Flexibility Score: inf
ROOT
ATOM      1  C   UNL     1     -19.302  68.118  -1.157  1.00  0.00     0.012 C 
ENDROOT
BRANCH   1   2
ATOM      2  C   UNL     1     -19.026  66.628  -0.907  1.00  0.00     0.061 C 
BRANCH   2   3
ATOM      3  C   UNL     1     -19.762  65.752  -1.928  1.00  0.00     0.258 C 
BRANCH   3   4
ATOM      4  N   UNL     1     -19.250  64.381  -1.907  1.00  0.00    -0.358 N 
ATOM      5  H   UNL     1     -18.351  64.359  -1.374  1.00  0.00     0.344 HD
ATOM      6  H   UNL     1     -19.073  64.049  -2.883  1.00  0.00     0.344 HD
ATOM      7  H   UNL     1     -19.938  63.748  -1.436  1.00  0.00     0.344 HD
ENDBRANCH   3   4
ENDBRANCH   2   3
ENDBRANCH   1   2
BRANCH   1   8
ATOM      8  C   UNL     1     -20.797  68.444  -1.343  1.00  0.00     0.072 C 
BRANCH   8   9
ATOM      9  C   UNL     1     -21.738  68.073  -0.166  1.00  0.00     0.227 C 
BRANCH   9  10
ATOM     10  N   UNL     1     -23.151  68.052  -0.573  1.00  0.00    -0.350 N 
ATOM     11  H   UNL     1     -23.435  67.070  -0.797  1.00  0.00     0.345 HD
ATOM     12  H   UNL     1     -23.284  68.633  -1.432  1.00  0.00     0.345 HD
ATOM     13  H   UNL     1     -23.769  68.414   0.190  1.00  0.00     0.345 HD
ENDBRANCH   9  10
BRANCH   9  14
ATOM     14  C   UNL     1     -21.519  68.950   1.045  1.00  0.00     0.099 C 
ATOM     15  O   UNL     1     -21.218  68.427   2.151  1.00  0.00    -0.544 OA
ATOM     16  O   UNL     1     -21.675  70.329   0.966  1.00  0.00    -0.544 OA
ENDBRANCH   9  14
ENDBRANCH   8   9
ENDBRANCH   1   8
TORSDOF 7
ENDMDL
MODEL 5
REMARK VINA RESULT:    -4.491      2.175      2.465
REMARK INTER + INTRA:          -6.547
REMARK INTER:                  -6.177
REMARK INTRA:                  -0.370
REMARK UNBOUND:                -0.481
REMARK SMILES [NH3+]CCCC[C@H]([NH3+])C(=O)[O-]
REMARK SMILES IDX 4 1 3 2 2 3 1 4 5 8 6 9 7 10 8 14 9 15 10 16
REMARK H PARENT 1 5 1 6 1 7 7 11 7 12 7 13
REMARK Flexibility Score: inf
ROOT
ATOM      1  C   UNL     1     -21.898  67.792  -0.540  1.00  0.00     0.012 C 
ENDROOT
BRANCH   1   2
ATOM      2  C   UNL     1     -22.089  69.310  -0.411  1.00  0.00     0.061 C 
BRANCH   2   3
ATOM      3  C   UNL     1     -21.672  69.802   0.981  1.00  0.00     0.258 C 
BRANCH   3   4
ATOM      4  N   UNL     1     -21.351  68.677   1.859  1.00  0.00    -0.358 N 
ATOM      5  H   UNL     1     -20.628  68.078   1.399  1.00  0.00     0.344 HD
ATOM      6  H   UNL     1     -22.206  68.101   2.033  1.00  0.00     0.344 HD
ATOM      7  H   UNL     1     -20.970  69.028   2.768  1.00  0.00     0.344 HD
ENDBRANCH   3   4
ENDBRANCH   2   3
ENDBRANCH   1   2
BRANCH   1   8
ATOM      8  C   UNL     1     -21.130  67.374  -1.810  1.00  0.00     0.072 C 
BRANCH   8   9
ATOM      9  C   UNL     1     -19.678  66.867  -1.606  1.00  0.00     0.227 C 
BRANCH   9  10
ATOM     10  N   UNL     1     -19.596  65.400  -1.621  1.00  0.00    -0.350 N 
ATOM     11  H   UNL     1     -18.919  65.079  -0.891  1.00  0.00     0.345 HD
ATOM     12  H   UNL     1     -19.250  65.071  -2.552  1.00  0.00     0.345 HD
ATOM     13  H   UNL     1     -20.529  64.968  -1.426  1.00  0.00     0.345 HD
ENDBRANCH   9  10
BRANCH   9  14
ATOM     14  C   UNL     1     -19.033  67.449  -0.370  1.00  0.00     0.099 C 
ATOM     15  O   UNL     1     -19.017  66.785   0.701  1.00  0.00    -0.544 OA
ATOM     16  O   UNL     1     -18.482  68.725  -0.385  1.00  0.00    -0.544 OA
ENDBRANCH   9  14
ENDBRANCH   8   9
ENDBRANCH   1   8
TORSDOF 7
ENDMDL
MODEL 6
REMARK VINA RESULT:    -4.078      1.653      2.208
REMARK INTER + INTRA:          -5.990
REMARK INTER:                  -6.189
REMARK INTRA:                   0.199
REMARK UNBOUND:                -0.481
REMARK SMILES [NH3+]CCCC[C@H]([NH3+])C(=O)[O-]
REMARK SMILES IDX 4 1 3 2 2 3 1 4 5 8 6 9 7 10 8 14 9 15 10 16
REMARK H PARENT 1 5 1 6 1 7 7 11 7 12 7 13
REMARK Flexibility Score: inf
ROOT
ATOM      1  C   UNL     1     -21.384  68.039   0.437  1.00  0.00     0.012 C 
ENDROOT
BRANCH   1   2
ATOM      2  C   UNL     1     -21.949  69.340  -0.153  1.00  0.00     0.061 C 
BRANCH   2   3
ATOM      3  C   UNL     1     -21.070  70.541   0.217  1.00  0.00     0.258 C 
BRANCH   3   4
ATOM      4  N   UNL     1     -21.520  71.154   1.466  1.00  0.00    -0.358 N 
ATOM      5  H   UNL     1     -21.514  72.194   1.360  1.00  0.00     0.344 HD
ATOM      6  H   UNL     1     -20.878  70.890   2.248  1.00  0.00     0.344 HD
ATOM      7  H   UNL     1     -22.494  70.843   1.688  1.00  0.00     0.344 HD
ENDBRANCH   3   4
ENDBRANCH   2   3
ENDBRANCH   1   2
BRANCH   1   8
ATOM      8  C   UNL     1     -19.845  68.015   0.512  1.00  0.00     0.072 C 
BRANCH   8   9
ATOM      9  C   UNL     1     -19.094  67.590  -0.777  1.00  0.00     0.227 C 
BRANCH   9  10
ATOM     10  N   UNL     1     -18.747  68.743  -1.621  1.00  0.00    -0.350 N 
ATOM     11  H   UNL     1     -18.277  69.474  -1.039  1.00  0.00     0.345 HD
ATOM     12  H   UNL     1     -19.615  69.161  -2.029  1.00  0.00     0.345 HD
ATOM     13  H   UNL     1     -18.100  68.463  -2.395  1.00  0.00     0.345 HD
ENDBRANCH   9  10
BRANCH   9  14
ATOM     14  C   UNL     1     -19.841  66.533  -1.556  1.00  0.00     0.099 C 
ATOM     15  O   UNL     1     -20.872  66.846  -2.209  1.00  0.00    -0.544 OA
ATOM     16  O   UNL     1     -19.425  65.206  -1.539  1.00  0.00    -0.544 OA
ENDBRANCH   9  14
ENDBRANCH   8   9
ENDBRANCH   1   8
TORSDOF 7
ENDMDL
MODEL 7
REMARK VINA RESULT:    -4.021     11.606     12.473
REMARK INTER + INTRA:          -5.913
REMARK INTER:                  -5.847
REMARK INTRA:                  -0.066
REMARK UNBOUND:                -0.481
REMARK SMILES [NH3+]CCCC[C@H]([NH3+])C(=O)[O-]
REMARK SMILES IDX 4 1 3 2 2 3 1 4 5 8 6 9 7 10 8 14 9 15 10 16
REMARK H PARENT 1 5 1 6 1 7 7 11 7 12 7 13
REMARK Flexibility Score: inf
ROOT
ATOM      1  C   UNL     1     -17.888  61.028   7.902  1.00  0.00     0.012 C 
ENDROOT
BRANCH   1   2
ATOM      2  C   UNL     1     -17.119  61.239   6.590  1.00  0.00     0.061 C 
BRANCH   2   3
ATOM      3  C   UNL     1     -16.742  59.897   5.949  1.00  0.00     0.258 C 
BRANCH   3   4
ATOM      4  N   UNL     1     -15.482  60.005   5.212  1.00  0.00    -0.358 N 
ATOM      5  H   UNL     1     -15.453  60.925   4.717  1.00  0.00     0.344 HD
ATOM      6  H   UNL     1     -15.413  59.238   4.505  1.00  0.00     0.344 HD
ATOM      7  H   UNL     1     -14.673  59.951   5.874  1.00  0.00     0.344 HD
ENDBRANCH   3   4
ENDBRANCH   2   3
ENDBRANCH   1   2
BRANCH   1   8
ATOM      8  C   UNL     1     -17.867  62.257   8.833  1.00  0.00     0.072 C 
BRANCH   8   9
ATOM      9  C   UNL     1     -17.833  61.970  10.357  1.00  0.00     0.227 C 
BRANCH   9  10
ATOM     10  N   UNL     1     -19.098  61.399  10.841  1.00  0.00    -0.350 N 
ATOM     11  H   UNL     1     -18.904  60.519  11.372  1.00  0.00     0.345 HD
ATOM     12  H   UNL     1     -19.716  61.161  10.031  1.00  0.00     0.345 HD
ATOM     13  H   UNL     1     -19.597  62.068  11.472  1.00  0.00     0.345 HD
ENDBRANCH   9  10
BRANCH   9  14
ATOM     14  C   UNL     1     -17.423  63.182  11.162  1.00  0.00     0.099 C 
ATOM     15  O   UNL     1     -17.084  63.047  12.368  1.00  0.00    -0.544 OA
ATOM     16  O   UNL     1     -17.444  64.453  10.600  1.00  0.00    -0.544 OA
ENDBRANCH   9  14
ENDBRANCH   8   9
ENDBRANCH   1   8
TORSDOF 7
ENDMDL
MODEL 8
REMARK VINA RESULT:    -3.772      2.544      3.886
REMARK INTER + INTRA:          -5.576
REMARK INTER:                  -5.509
REMARK INTRA:                  -0.066
REMARK UNBOUND:                -0.481
REMARK SMILES [NH3+]CCCC[C@H]([NH3+])C(=O)[O-]
REMARK SMILES IDX 4 1 3 2 2 3 1 4 5 8 6 9 7 10 8 14 9 15 10 16
REMARK H PARENT 1 5 1 6 1 7 7 11 7 12 7 13
REMARK Flexibility Score: inf
ROOT
ATOM      1  C   UNL     1     -20.531  66.512  -1.794  1.00  0.00     0.012 C 
ENDROOT
BRANCH   1   2
ATOM      2  C   UNL     1     -19.319  65.625  -1.477  1.00  0.00     0.061 C 
BRANCH   2   3
ATOM      3  C   UNL     1     -19.250  64.423  -2.428  1.00  0.00     0.258 C 
BRANCH   3   4
ATOM      4  N   UNL     1     -19.194  63.166  -1.681  1.00  0.00    -0.358 N 
ATOM      5  H   UNL     1     -18.379  62.604  -2.017  1.00  0.00     0.344 HD
ATOM      6  H   UNL     1     -20.070  62.617  -1.836  1.00  0.00     0.344 HD
ATOM      7  H   UNL     1     -19.073  63.361  -0.660  1.00  0.00     0.344 HD
ENDBRANCH   3   4
ENDBRANCH   2   3
ENDBRANCH   1   2
BRANCH   1   8
ATOM      8  C   UNL     1     -20.171  67.997  -1.996  1.00  0.00     0.072 C 
BRANCH   8   9
ATOM      9  C   UNL     1     -19.777  68.793  -0.723  1.00  0.00     0.227 C 
BRANCH   9  10
ATOM     10  N   UNL     1     -18.325  68.783  -0.491  1.00  0.00    -0.350 N 
ATOM     11  H   UNL     1     -18.072  69.548   0.176  1.00  0.00     0.345 HD
ATOM     12  H   UNL     1     -17.819  68.954  -1.390  1.00  0.00     0.345 HD
ATOM     13  H   UNL     1     -18.014  67.869  -0.087  1.00  0.00     0.345 HD
ENDBRANCH   9  10
BRANCH   9  14
ATOM     14  C   UNL     1     -20.541  68.341   0.499  1.00  0.00     0.099 C 
ATOM     15  O   UNL     1     -19.971  67.627   1.366  1.00  0.00    -0.544 OA
ATOM     16  O   UNL     1     -21.880  68.675   0.668  1.00  0.00    -0.544 OA
ENDBRANCH   9  14
ENDBRANCH   8   9
ENDBRANCH   1   8
TORSDOF 7
ENDMDL
MODEL 9
REMARK VINA RESULT:    -3.715     11.451     12.090
REMARK INTER + INTRA:          -5.499
REMARK INTER:                  -5.434
REMARK INTRA:                  -0.065
REMARK UNBOUND:                -0.481
REMARK SMILES [NH3+]CCCC[C@H]([NH3+])C(=O)[O-]
REMARK SMILES IDX 4 1 3 2 2 3 1 4 5 8 6 9 7 10 8 14 9 15 10 16
REMARK H PARENT 1 5 1 6 1 7 7 11 7 12 7 13
REMARK Flexibility Score: inf
ROOT
ATOM      1  C   UNL     1     -17.890  66.540  10.677  1.00  0.00     0.012 C 
ENDROOT
BRANCH   1   2
ATOM      2  C   UNL     1     -19.054  67.298  10.022  1.00  0.00     0.061 C 
BRANCH   2   3
ATOM      3  C   UNL     1     -19.440  68.534  10.844  1.00  0.00     0.258 C 
BRANCH   3   4
ATOM      4  N   UNL     1     -20.878  68.791  10.758  1.00  0.00    -0.358 N 
ATOM      5  H   UNL     1     -21.331  68.025  10.211  1.00  0.00     0.344 HD
ATOM      6  H   UNL     1     -21.052  69.701  10.274  1.00  0.00     0.344 HD
ATOM      7  H   UNL     1     -21.296  68.815  11.717  1.00  0.00     0.344 HD
ENDBRANCH   3   4
ENDBRANCH   2   3
ENDBRANCH   1   2
BRANCH   1   8
ATOM      8  C   UNL     1     -17.868  65.036  10.339  1.00  0.00     0.072 C 
BRANCH   8   9
ATOM      9  C   UNL     1     -17.173  64.105  11.368  1.00  0.00     0.227 C 
BRANCH   9  10
ATOM     10  N   UNL     1     -15.731  64.372  11.471  1.00  0.00    -0.350 N 
ATOM     11  H   UNL     1     -15.531  64.875  12.366  1.00  0.00     0.345 HD
ATOM     12  H   UNL     1     -15.424  64.982  10.679  1.00  0.00     0.345 HD
ATOM     13  H   UNL     1     -15.181  63.482  11.456  1.00  0.00     0.345 HD
ENDBRANCH   9  10
BRANCH   9  14
ATOM     14  C   UNL     1     -17.454  62.645  11.105  1.00  0.00     0.099 C 
ATOM     15  O   UNL     1     -17.305  61.801  12.029  1.00  0.00    -0.544 OA
ATOM     16  O   UNL     1     -17.846  62.208   9.845  1.00  0.00    -0.544 OA
ENDBRANCH   9  14
ENDBRANCH   8   9
ENDBRANCH   1   8
TORSDOF 7
ENDMDL
