MODEL 1
REMARK VINA RESULT:    -5.137      0.000      0.000
REMARK INTER + INTRA:          -7.918
REMARK INTER:                  -6.938
REMARK INTRA:                  -0.980
REMARK UNBOUND:                -0.980
REMARK SMILES CC(=O)CCC=C(C)CCC=C(C)C
REMARK SMILES IDX 7 1 6 2 8 3 9 4 10 5 11 6 13 7 12 8 14 9 5 10 4 11 2 12 3 13
REMARK SMILES IDX 1 14
REMARK H PARENT
REMARK Flexibility Score: inf
ROOT
ATOM      1  C   UNL     1     -28.479  12.621 -29.680  1.00  0.00    -0.077 C 
ATOM      2  C   UNL     1     -27.176  12.778 -29.354  1.00  0.00    -0.028 C 
ATOM      3  C   UNL     1     -29.215  13.625 -30.537  1.00  0.00     0.039 C 
ENDROOT
BRANCH   1   4
ATOM      4  C   UNL     1     -29.217  11.395 -29.188  1.00  0.00     0.034 C 
BRANCH   4   5
ATOM      5  C   UNL     1     -28.642  10.124 -29.821  1.00  0.00     0.032 C 
BRANCH   5   6
ATOM      6  C   UNL     1     -28.987  10.054 -31.288  1.00  0.00    -0.028 C 
ATOM      7  C   UNL     1     -28.586  10.116 -33.711  1.00  0.00     0.039 C 
ATOM      8  C   UNL     1     -28.088  10.167 -32.290  1.00  0.00    -0.080 C 
ATOM      9  C   UNL     1     -26.608  10.322 -32.025  1.00  0.00     0.039 C 
ENDBRANCH   5   6
ENDBRANCH   4   5
ENDBRANCH   1   4
BRANCH   2  10
ATOM     10  C   UNL     1     -26.334  13.966 -29.747  1.00  0.00     0.035 C 
BRANCH  10  11
ATOM     11  C   UNL     1     -24.936  13.521 -30.187  1.00  0.00     0.079 C 
BRANCH  11  12
ATOM     12  C   UNL     1     -24.100  14.705 -30.587  1.00  0.00     0.130 C 
ATOM     13  O   UNL     1     -24.644  15.755 -30.896  1.00  0.00    -0.300 OA
ATOM     14  C   UNL     1     -22.604  14.614 -30.585  1.00  0.00     0.087 C 
ENDBRANCH  11  12
ENDBRANCH  10  11
ENDBRANCH   2  10
TORSDOF 6
ENDMDL
MODEL 2
REMARK VINA RESULT:    -4.977     10.106     13.167
REMARK INTER + INTRA:          -7.702
REMARK INTER:                  -6.405
REMARK INTRA:                  -1.297
REMARK UNBOUND:                -0.980
REMARK SMILES CC(=O)CCC=C(C)CCC=C(C)C
REMARK SMILES IDX 7 1 6 2 8 3 9 4 10 5 11 6 13 7 12 8 14 9 5 10 4 11 2 12 3 13
REMARK SMILES IDX 1 14
REMARK H PARENT
REMARK Flexibility Score: inf
ROOT
ATOM      1  C   UNL     1     -12.790  13.924 -29.643  1.00  0.00    -0.077 C 
ATOM      2  C   UNL     1     -13.981  14.331 -30.137  1.00  0.00    -0.028 C 
ATOM      3  C   UNL     1     -11.595  13.680 -30.536  1.00  0.00     0.039 C 
ENDROOT
BRANCH   1   4
ATOM      4  C   UNL     1     -12.643  13.725 -28.150  1.00  0.00     0.034 C 
BRANCH   4   5
ATOM      5  C   UNL     1     -12.830  12.250 -27.777  1.00  0.00     0.032 C 
BRANCH   5   6
ATOM      6  C   UNL     1     -14.263  11.972 -27.395  1.00  0.00    -0.028 C 
ATOM      7  C   UNL     1     -16.555  11.130 -27.671  1.00  0.00     0.039 C 
ATOM      8  C   UNL     1     -15.142  11.297 -28.169  1.00  0.00    -0.080 C 
ATOM      9  C   UNL     1     -14.743  10.696 -29.496  1.00  0.00     0.039 C 
ENDBRANCH   5   6
ENDBRANCH   4   5
ENDBRANCH   1   4
BRANCH   2  10
ATOM     10  C   UNL     1     -14.273  14.534 -31.602  1.00  0.00     0.035 C 
BRANCH  10  11
ATOM     11  C   UNL     1     -15.117  13.380 -32.154  1.00  0.00     0.079 C 
BRANCH  11  12
ATOM     12  C   UNL     1     -16.584  13.655 -31.969  1.00  0.00     0.130 C 
ATOM     13  O   UNL     1     -17.142  14.474 -32.684  1.00  0.00    -0.300 OA
ATOM     14  C   UNL     1     -17.370  12.915 -30.929  1.00  0.00     0.087 C 
ENDBRANCH  11  12
ENDBRANCH  10  11
ENDBRANCH   2  10
TORSDOF 6
ENDMDL
MODEL 3
REMARK VINA RESULT:    -4.955      1.627      3.487
REMARK INTER + INTRA:          -7.673
REMARK INTER:                  -6.461
REMARK INTRA:                  -1.212
REMARK UNBOUND:                -0.980
REMARK SMILES CC(=O)CCC=C(C)CCC=C(C)C
REMARK SMILES IDX 7 1 6 2 8 3 9 4 10 5 11 6 13 7 12 8 14 9 5 10 4 11 2 12 3 13
REMARK SMILES IDX 1 14
REMARK H PARENT
REMARK Flexibility Score: inf
ROOT
ATOM      1  C   UNL     1     -27.635  10.489 -31.902  1.00  0.00    -0.077 C 
ATOM      2  C   UNL     1     -26.908   9.998 -30.873  1.00  0.00    -0.028 C 
ATOM      3  C   UNL     1     -27.131  11.621 -32.767  1.00  0.00     0.039 C 
ENDROOT
BRANCH   1   4
ATOM      4  C   UNL     1     -28.983   9.875 -32.209  1.00  0.00     0.034 C 
BRANCH   4   5
ATOM      5  C   UNL     1     -30.113  10.701 -31.582  1.00  0.00     0.032 C 
BRANCH   5   6
ATOM      6  C   UNL     1     -29.811  11.008 -30.136  1.00  0.00    -0.028 C 
ATOM      7  C   UNL     1     -29.295  12.403 -28.180  1.00  0.00     0.039 C 
ATOM      8  C   UNL     1     -29.629  12.253 -29.642  1.00  0.00    -0.080 C 
ATOM      9  C   UNL     1     -29.769  13.486 -30.505  1.00  0.00     0.039 C 
ENDBRANCH   5   6
ENDBRANCH   4   5
ENDBRANCH   1   4
BRANCH   2  10
ATOM     10  C   UNL     1     -25.569  10.538 -30.438  1.00  0.00     0.035 C 
BRANCH  10  11
ATOM     11  C   UNL     1     -25.740  11.612 -29.359  1.00  0.00     0.079 C 
BRANCH  11  12
ATOM     12  C   UNL     1     -25.250  12.946 -29.851  1.00  0.00     0.130 C 
ATOM     13  O   UNL     1     -24.089  13.070 -30.214  1.00  0.00    -0.300 OA
ATOM     14  C   UNL     1     -26.181  14.118 -29.923  1.00  0.00     0.087 C 
ENDBRANCH  11  12
ENDBRANCH  10  11
ENDBRANCH   2  10
TORSDOF 6
ENDMDL
MODEL 4
REMARK VINA RESULT:    -4.865      2.187      3.541
REMARK INTER + INTRA:          -7.551
REMARK INTER:                  -6.202
REMARK INTRA:                  -1.349
REMARK UNBOUND:                -0.980
REMARK SMILES CC(=O)CCC=C(C)CCC=C(C)C
REMARK SMILES IDX 7 1 6 2 8 3 9 4 10 5 11 6 13 7 12 8 14 9 5 10 4 11 2 12 3 13
REMARK SMILES IDX 1 14
REMARK H PARENT
REMARK Flexibility Score: inf
ROOT
ATOM      1  C   UNL     1     -25.605  10.679 -28.936  1.00  0.00    -0.077 C 
ATOM      2  C   UNL     1     -25.482  12.022 -28.833  1.00  0.00    -0.028 C 
ATOM      3  C   UNL     1     -25.236   9.938 -30.201  1.00  0.00     0.039 C 
ENDROOT
BRANCH   1   4
ATOM      4  C   UNL     1     -26.108   9.893 -27.745  1.00  0.00     0.034 C 
BRANCH   4   5
ATOM      5  C   UNL     1     -27.586  10.200 -27.476  1.00  0.00     0.032 C 
BRANCH   5   6
ATOM      6  C   UNL     1     -28.376  10.191 -28.761  1.00  0.00    -0.028 C 
ATOM      7  C   UNL     1     -29.920  11.041 -30.474  1.00  0.00     0.039 C 
ATOM      8  C   UNL     1     -29.157  11.209 -29.185  1.00  0.00    -0.080 C 
ATOM      9  C   UNL     1     -29.269  12.506 -28.417  1.00  0.00     0.039 C 
ENDBRANCH   5   6
ENDBRANCH   4   5
ENDBRANCH   1   4
BRANCH   2  10
ATOM     10  C   UNL     1     -25.027  12.927 -29.950  1.00  0.00     0.035 C 
BRANCH  10  11
ATOM     11  C   UNL     1     -25.991  14.105 -30.122  1.00  0.00     0.079 C 
BRANCH  11  12
ATOM     12  C   UNL     1     -27.071  13.772 -31.115  1.00  0.00     0.130 C 
ATOM     13  O   UNL     1     -28.091  14.444 -31.148  1.00  0.00    -0.300 OA
ATOM     14  C   UNL     1     -26.893  12.638 -32.078  1.00  0.00     0.087 C 
ENDBRANCH  11  12
ENDBRANCH  10  11
ENDBRANCH   2  10
TORSDOF 6
ENDMDL
MODEL 5
REMARK VINA RESULT:    -4.799     10.760     13.291
REMARK INTER + INTRA:          -7.462
REMARK INTER:                  -6.048
REMARK INTRA:                  -1.414
REMARK UNBOUND:                -0.980
REMARK SMILES CC(=O)CCC=C(C)CCC=C(C)C
REMARK SMILES IDX 7 1 6 2 8 3 9 4 10 5 11 6 13 7 12 8 14 9 5 10 4 11 2 12 3 13
REMARK SMILES IDX 1 14
REMARK H PARENT
REMARK Flexibility Score: inf
ROOT
ATOM      1  C   UNL     1     -14.985  11.506 -28.882  1.00  0.00    -0.077 C 
ATOM      2  C   UNL     1     -15.637  12.682 -28.738  1.00  0.00    -0.028 C 
ATOM      3  C   UNL     1     -15.249  10.584 -30.050  1.00  0.00     0.039 C 
ENDROOT
BRANCH   1   4
ATOM      4  C   UNL     1     -13.947  11.111 -27.854  1.00  0.00     0.034 C 
BRANCH   4   5
ATOM      5  C   UNL     1     -12.752  12.069 -27.892  1.00  0.00     0.032 C 
BRANCH   5   6
ATOM      6  C   UNL     1     -12.061  12.009 -29.233  1.00  0.00    -0.028 C 
ATOM      7  C   UNL     1     -11.291  12.825 -31.419  1.00  0.00     0.039 C 
ATOM      8  C   UNL     1     -11.981  13.045 -30.096  1.00  0.00    -0.080 C 
ATOM      9  C   UNL     1     -12.542  14.409 -29.767  1.00  0.00     0.039 C 
ENDBRANCH   5   6
ENDBRANCH   4   5
ENDBRANCH   1   4
BRANCH   2  10
ATOM     10  C   UNL     1     -16.716  13.180 -29.667  1.00  0.00     0.035 C 
BRANCH  10  11
ATOM     11  C   UNL     1     -16.207  14.350 -30.515  1.00  0.00     0.079 C 
BRANCH  11  12
ATOM     12  C   UNL     1     -16.230  14.000 -31.977  1.00  0.00     0.130 C 
ATOM     13  O   UNL     1     -17.150  14.393 -32.680  1.00  0.00    -0.300 OA
ATOM     14  C   UNL     1     -15.122  13.192 -32.583  1.00  0.00     0.087 C 
ENDBRANCH  11  12
ENDBRANCH  10  11
ENDBRANCH   2  10
TORSDOF 6
ENDMDL
MODEL 6
REMARK VINA RESULT:    -4.760      1.542      3.201
REMARK INTER + INTRA:          -7.410
REMARK INTER:                  -6.039
REMARK INTRA:                  -1.371
REMARK UNBOUND:                -0.980
REMARK SMILES CC(=O)CCC=C(C)CCC=C(C)C
REMARK SMILES IDX 7 1 6 2 8 3 9 4 10 5 11 6 13 7 12 8 14 9 5 10 4 11 2 12 3 13
REMARK SMILES IDX 1 14
REMARK H PARENT
REMARK Flexibility Score: inf
ROOT
ATOM      1  C   UNL     1     -28.044  11.718 -31.669  1.00  0.00    -0.077 C 
ATOM      2  C   UNL     1     -28.075  12.947 -31.103  1.00  0.00    -0.028 C 
ATOM      3  C   UNL     1     -26.830  11.213 -32.414  1.00  0.00     0.039 C 
ENDROOT
BRANCH   1   4
ATOM      4  C   UNL     1     -29.251  10.816 -31.536  1.00  0.00     0.034 C 
BRANCH   4   5
ATOM      5  C   UNL     1     -29.703  10.724 -30.074  1.00  0.00     0.032 C 
BRANCH   5   6
ATOM      6  C   UNL     1     -28.643  10.061 -29.228  1.00  0.00    -0.028 C 
ATOM      7  C   UNL     1     -26.947   9.880 -27.460  1.00  0.00     0.039 C 
ATOM      8  C   UNL     1     -28.014  10.654 -28.190  1.00  0.00    -0.080 C 
ATOM      9  C   UNL     1     -28.363  12.053 -27.734  1.00  0.00     0.039 C 
ENDBRANCH   5   6
ENDBRANCH   4   5
ENDBRANCH   1   4
BRANCH   2  10
ATOM     10  C   UNL     1     -26.959  13.956 -31.189  1.00  0.00     0.035 C 
BRANCH  10  11
ATOM     11  C   UNL     1     -26.163  14.000 -29.881  1.00  0.00     0.079 C 
BRANCH  11  12
ATOM     12  C   UNL     1     -24.850  13.282 -30.031  1.00  0.00     0.130 C 
ATOM     13  O   UNL     1     -23.902  13.853 -30.551  1.00  0.00    -0.300 OA
ATOM     14  C   UNL     1     -24.688  11.881 -29.524  1.00  0.00     0.087 C 
ENDBRANCH  11  12
ENDBRANCH  10  11
ENDBRANCH   2  10
TORSDOF 6
ENDMDL
MODEL 7
REMARK VINA RESULT:    -4.758     10.535     14.313
REMARK INTER + INTRA:          -7.407
REMARK INTER:                  -6.303
REMARK INTRA:                  -1.104
REMARK UNBOUND:                -0.980
REMARK SMILES CC(=O)CCC=C(C)CCC=C(C)C
REMARK SMILES IDX 7 1 6 2 8 3 9 4 10 5 11 6 13 7 12 8 14 9 5 10 4 11 2 12 3 13
REMARK SMILES IDX 1 14
REMARK H PARENT
REMARK Flexibility Score: inf
ROOT
ATOM      1  C   UNL     1     -11.924  13.530 -31.207  1.00  0.00    -0.077 C 
ATOM      2  C   UNL     1     -13.260  13.622 -31.403  1.00  0.00    -0.028 C 
ATOM      3  C   UNL     1     -11.041  14.754 -31.139  1.00  0.00     0.039 C 
ENDROOT
BRANCH   1   4
ATOM      4  C   UNL     1     -11.299  12.163 -31.032  1.00  0.00     0.034 C 
BRANCH   4   5
ATOM      5  C   UNL     1     -12.117  11.312 -30.054  1.00  0.00     0.032 C 
BRANCH   5   6
ATOM      6  C   UNL     1     -11.902  11.775 -28.634  1.00  0.00    -0.028 C 
ATOM      7  C   UNL     1     -12.509  12.697 -26.439  1.00  0.00     0.039 C 
ATOM      8  C   UNL     1     -12.881  12.232 -27.823  1.00  0.00    -0.080 C 
ATOM      9  C   UNL     1     -14.329  12.269 -28.257  1.00  0.00     0.039 C 
ENDBRANCH   5   6
ENDBRANCH   4   5
ENDBRANCH   1   4
BRANCH   2  10
ATOM     10  C   UNL     1     -14.003  14.914 -31.627  1.00  0.00     0.035 C 
BRANCH  10  11
ATOM     11  C   UNL     1     -15.334  14.915 -30.868  1.00  0.00     0.079 C 
BRANCH  11  12
ATOM     12  C   UNL     1     -16.348  14.052 -31.568  1.00  0.00     0.130 C 
ATOM     13  O   UNL     1     -16.696  14.329 -32.707  1.00  0.00    -0.300 OA
ATOM     14  C   UNL     1     -16.916  12.844 -30.888  1.00  0.00     0.087 C 
ENDBRANCH  11  12
ENDBRANCH  10  11
ENDBRANCH   2  10
TORSDOF 6
ENDMDL
MODEL 8
REMARK VINA RESULT:    -4.734     10.474     13.179
REMARK INTER + INTRA:          -7.374
REMARK INTER:                  -6.405
REMARK INTRA:                  -0.968
REMARK UNBOUND:                -0.980
REMARK SMILES CC(=O)CCC=C(C)CCC=C(C)C
REMARK SMILES IDX 7 1 6 2 8 3 9 4 10 5 11 6 13 7 12 8 14 9 5 10 4 11 2 12 3 13
REMARK SMILES IDX 1 14
REMARK H PARENT
REMARK Flexibility Score: inf
ROOT
ATOM      1  C   UNL     1     -15.828  12.486 -30.746  1.00  0.00    -0.077 C 
ATOM      2  C   UNL     1     -16.984  12.560 -30.048  1.00  0.00    -0.028 C 
ATOM      3  C   UNL     1     -14.787  11.430 -30.458  1.00  0.00     0.039 C 
ENDROOT
BRANCH   1   4
ATOM      4  C   UNL     1     -15.579  13.477 -31.862  1.00  0.00     0.034 C 
BRANCH   4   5
ATOM      5  C   UNL     1     -14.884  14.734 -31.327  1.00  0.00     0.032 C 
BRANCH   5   6
ATOM      6  C   UNL     1     -13.426  14.746 -31.716  1.00  0.00    -0.028 C 
ATOM      7  C   UNL     1     -10.994  14.660 -31.377  1.00  0.00     0.039 C 
ATOM      8  C   UNL     1     -12.403  14.587 -30.848  1.00  0.00    -0.080 C 
ATOM      9  C   UNL     1     -12.633  14.322 -29.378  1.00  0.00     0.039 C 
ENDBRANCH   5   6
ENDBRANCH   4   5
ENDBRANCH   1   4
BRANCH   2  10
ATOM     10  C   UNL     1     -17.344  11.660 -28.893  1.00  0.00     0.035 C 
BRANCH  10  11
ATOM     11  C   UNL     1     -16.983  12.319 -27.557  1.00  0.00     0.079 C 
BRANCH  11  12
ATOM     12  C   UNL     1     -15.932  11.522 -26.835  1.00  0.00     0.130 C 
ATOM     13  O   UNL     1     -14.781  11.932 -26.796  1.00  0.00    -0.300 OA
ATOM     14  C   UNL     1     -16.291  10.242 -26.144  1.00  0.00     0.087 C 
ENDBRANCH  11  12
ENDBRANCH  10  11
ENDBRANCH   2  10
TORSDOF 6
ENDMDL
MODEL 9
REMARK VINA RESULT:    -4.722     10.823     13.772
REMARK INTER + INTRA:          -7.358
REMARK INTER:                  -6.099
REMARK INTRA:                  -1.259
REMARK UNBOUND:                -0.980
REMARK SMILES CC(=O)CCC=C(C)CCC=C(C)C
REMARK SMILES IDX 7 1 6 2 8 3 9 4 10 5 11 6 13 7 12 8 14 9 5 10 4 11 2 12 3 13
REMARK SMILES IDX 1 14
REMARK H PARENT
REMARK Flexibility Score: inf
ROOT
ATOM      1  C   UNL     1     -13.993  14.681 -31.552  1.00  0.00    -0.077 C 
ATOM      2  C   UNL     1     -14.852  13.710 -31.939  1.00  0.00    -0.028 C 
ATOM      3  C   UNL     1     -14.405  15.779 -30.598  1.00  0.00     0.039 C 
ENDROOT
BRANCH   1   4
ATOM      4  C   UNL     1     -12.573  14.657 -32.073  1.00  0.00     0.034 C 
BRANCH   4   5
ATOM      5  C   UNL     1     -11.581  14.381 -30.938  1.00  0.00     0.032 C 
BRANCH   5   6
ATOM      6  C   UNL     1     -11.557  12.912 -30.595  1.00  0.00    -0.028 C 
ATOM      7  C   UNL     1     -11.941  10.899 -29.239  1.00  0.00     0.039 C 
ATOM      8  C   UNL     1     -12.073  12.383 -29.463  1.00  0.00    -0.080 C 
ATOM      9  C   UNL     1     -12.790  13.231 -28.438  1.00  0.00     0.039 C 
ENDBRANCH   5   6
ENDBRANCH   4   5
ENDBRANCH   1   4
BRANCH   2  10
ATOM     10  C   UNL     1     -16.299  13.635 -31.523  1.00  0.00     0.035 C 
BRANCH  10  11
ATOM     11  C   UNL     1     -16.521  12.493 -30.527  1.00  0.00     0.079 C 
BRANCH  11  12
ATOM     12  C   UNL     1     -16.598  13.019 -29.120  1.00  0.00     0.130 C 
ATOM     13  O   UNL     1     -16.895  14.188 -28.925  1.00  0.00    -0.300 OA
ATOM     14  C   UNL     1     -16.336  12.112 -27.956  1.00  0.00     0.087 C 
ENDBRANCH  11  12
ENDBRANCH  10  11
ENDBRANCH   2  10
TORSDOF 6
ENDMDL
