MODEL 1
REMARK VINA RESULT:    -4.188      0.000      0.000
REMARK INTER + INTRA:          -8.900
REMARK INTER:                  -7.860
REMARK INTRA:                  -1.040
REMARK UNBOUND:                -1.040
REMARK SMILES O=C([O-])CCCCCCCCCCCCCCC(=O)[O-]
REMARK SMILES IDX 10 1 9 2 8 3 7 4 6 5 5 6 4 7 2 8 1 9 3 10 11 11 12 12 13 13
REMARK SMILES IDX 14 14 15 15 16 16 17 17 18 18 19 19 20 20
REMARK H PARENT
REMARK Flexibility Score: inf
ROOT
ATOM      1  C   UNL     1       4.772  29.523  54.243  1.00  0.00     0.000 C 
ENDROOT
BRANCH   1   2
ATOM      2  C   UNL     1       4.886  29.609  52.710  1.00  0.00     0.000 C 
BRANCH   2   3
ATOM      3  C   UNL     1       4.682  28.252  52.021  1.00  0.00     0.000 C 
BRANCH   3   4
ATOM      4  C   UNL     1       5.161  28.297  50.563  1.00  0.00     0.000 C 
BRANCH   4   5
ATOM      5  C   UNL     1       5.197  26.908  49.903  1.00  0.00     0.000 C 
BRANCH   5   6
ATOM      6  C   UNL     1       4.026  26.654  48.931  1.00  0.00     0.006 C 
BRANCH   6   7
ATOM      7  C   UNL     1       3.354  27.957  48.479  1.00  0.00     0.053 C 
BRANCH   7   8
ATOM      8  C   UNL     1       3.771  28.306  47.086  1.00  0.00     0.041 C 
ATOM      9  O   UNL     1       4.924  28.009  46.676  1.00  0.00    -0.550 OA
ATOM     10  O   UNL     1       2.904  29.003  46.254  1.00  0.00    -0.550 OA
ENDBRANCH   7   8
ENDBRANCH   6   7
ENDBRANCH   5   6
ENDBRANCH   4   5
ENDBRANCH   3   4
ENDBRANCH   2   3
ENDBRANCH   1   2
BRANCH   1  11
ATOM     11  C   UNL     1       4.008  28.293  54.776  1.00  0.00     0.000 C 
BRANCH  11  12
ATOM     12  C   UNL     1       4.621  27.628  56.021  1.00  0.00     0.000 C 
BRANCH  12  13
ATOM     13  C   UNL     1       3.950  28.080  57.330  1.00  0.00     0.000 C 
BRANCH  13  14
ATOM     14  C   UNL     1       2.684  28.918  57.086  1.00  0.00     0.000 C 
BRANCH  14  15
ATOM     15  C   UNL     1       1.470  28.401  57.871  1.00  0.00     0.000 C 
BRANCH  15  16
ATOM     16  C   UNL     1       0.206  28.413  56.997  1.00  0.00     0.006 C 
BRANCH  16  17
ATOM     17  C   UNL     1       0.529  28.265  55.505  1.00  0.00     0.053 C 
BRANCH  17  18
ATOM     18  C   UNL     1      -0.024  29.401  54.699  1.00  0.00     0.041 C 
ATOM     19  O   UNL     1      -1.191  29.336  54.230  1.00  0.00    -0.550 OA
ATOM     20  O   UNL     1       0.737  30.545  54.496  1.00  0.00    -0.550 OA
ENDBRANCH  17  18
ENDBRANCH  16  17
ENDBRANCH  15  16
ENDBRANCH  14  15
ENDBRANCH  13  14
ENDBRANCH  12  13
ENDBRANCH  11  12
ENDBRANCH   1  11
TORSDOF 15
ENDMDL
MODEL 2
REMARK VINA RESULT:    -4.103      0.995      7.695
REMARK INTER + INTRA:          -8.742
REMARK INTER:                  -7.650
REMARK INTRA:                  -1.092
REMARK UNBOUND:                -1.040
REMARK SMILES O=C([O-])CCCCCCCCCCCCCCC(=O)[O-]
REMARK SMILES IDX 10 1 9 2 8 3 7 4 6 5 5 6 4 7 2 8 1 9 3 10 11 11 12 12 13 13
REMARK SMILES IDX 14 14 15 15 16 16 17 17 18 18 19 19 20 20
REMARK H PARENT
REMARK Flexibility Score: inf
ROOT
ATOM      1  C   UNL     1       3.577  29.017  54.072  1.00  0.00     0.000 C 
ENDROOT
BRANCH   1   2
ATOM      2  C   UNL     1       4.276  28.102  55.094  1.00  0.00     0.000 C 
BRANCH   2   3
ATOM      3  C   UNL     1       4.213  28.653  56.526  1.00  0.00     0.000 C 
BRANCH   3   4
ATOM      4  C   UNL     1       3.058  28.016  57.311  1.00  0.00     0.000 C 
BRANCH   4   5
ATOM      5  C   UNL     1       1.868  28.972  57.502  1.00  0.00     0.000 C 
BRANCH   5   6
ATOM      6  C   UNL     1       0.527  28.402  56.994  1.00  0.00     0.006 C 
BRANCH   6   7
ATOM      7  C   UNL     1       0.545  28.139  55.482  1.00  0.00     0.053 C 
BRANCH   7   8
ATOM      8  C   UNL     1      -0.158  29.238  54.751  1.00  0.00     0.041 C 
ATOM      9  O   UNL     1       0.342  30.394  54.712  1.00  0.00    -0.550 OA
ATOM     10  O   UNL     1      -1.389  29.001  54.154  1.00  0.00    -0.550 OA
ENDBRANCH   7   8
ENDBRANCH   6   7
ENDBRANCH   5   6
ENDBRANCH   4   5
ENDBRANCH   3   4
ENDBRANCH   2   3
ENDBRANCH   1   2
BRANCH   1  11
ATOM     11  C   UNL     1       4.514  29.951  53.279  1.00  0.00     0.000 C 
BRANCH  11  12
ATOM     12  C   UNL     1       4.534  29.725  51.757  1.00  0.00     0.000 C 
BRANCH  12  13
ATOM     13  C   UNL     1       5.509  28.613  51.332  1.00  0.00     0.000 C 
BRANCH  13  14
ATOM     14  C   UNL     1       4.787  27.382  50.759  1.00  0.00     0.000 C 
BRANCH  14  15
ATOM     15  C   UNL     1       4.129  27.661  49.399  1.00  0.00     0.000 C 
BRANCH  15  16
ATOM     16  C   UNL     1       5.172  28.121  48.370  1.00  0.00     0.006 C 
BRANCH  16  17
ATOM     17  C   UNL     1       4.690  27.928  46.926  1.00  0.00     0.053 C 
BRANCH  17  18
ATOM     18  C   UNL     1       4.061  29.172  46.378  1.00  0.00     0.041 C 
ATOM     19  O   UNL     1       4.781  30.099  45.922  1.00  0.00    -0.550 OA
ATOM     20  O   UNL     1       2.677  29.294  46.341  1.00  0.00    -0.550 OA
ENDBRANCH  17  18
ENDBRANCH  16  17
ENDBRANCH  15  16
ENDBRANCH  14  15
ENDBRANCH  13  14
ENDBRANCH  12  13
ENDBRANCH  11  12
ENDBRANCH   1  11
TORSDOF 15
ENDMDL
MODEL 3
REMARK VINA RESULT:    -4.046     13.945     16.106
REMARK INTER + INTRA:          -8.634
REMARK INTER:                  -6.607
REMARK INTRA:                  -2.026
REMARK UNBOUND:                -1.040
REMARK SMILES O=C([O-])CCCCCCCCCCCCCCC(=O)[O-]
REMARK SMILES IDX 10 1 9 2 8 3 7 4 6 5 5 6 4 7 2 8 1 9 3 10 11 11 12 12 13 13
REMARK SMILES IDX 14 14 15 15 16 16 17 17 18 18 19 19 20 20
REMARK H PARENT
REMARK Flexibility Score: inf
ROOT
ATOM      1  C   UNL     1      -3.913  36.782  40.734  1.00  0.00     0.000 C 
ENDROOT
BRANCH   1   2
ATOM      2  C   UNL     1      -3.456  37.358  42.086  1.00  0.00     0.000 C 
BRANCH   2   3
ATOM      3  C   UNL     1      -4.454  38.368  42.670  1.00  0.00     0.000 C 
BRANCH   3   4
ATOM      4  C   UNL     1      -5.100  37.825  43.953  1.00  0.00     0.000 C 
BRANCH   4   5
ATOM      5  C   UNL     1      -6.558  37.378  43.745  1.00  0.00     0.000 C 
BRANCH   5   6
ATOM      6  C   UNL     1      -7.594  38.336  44.369  1.00  0.00     0.006 C 
BRANCH   6   7
ATOM      7  C   UNL     1      -8.580  37.604  45.290  1.00  0.00     0.053 C 
BRANCH   7   8
ATOM      8  C   UNL     1      -7.850  36.930  46.408  1.00  0.00     0.041 C 
ATOM      9  O   UNL     1      -7.936  35.682  46.560  1.00  0.00    -0.550 OA
ATOM     10  O   UNL     1      -7.114  37.684  47.313  1.00  0.00    -0.550 OA
ENDBRANCH   7   8
ENDBRANCH   6   7
ENDBRANCH   5   6
ENDBRANCH   4   5
ENDBRANCH   3   4
ENDBRANCH   2   3
ENDBRANCH   1   2
BRANCH   1  11
ATOM     11  C   UNL     1      -4.261  35.279  40.744  1.00  0.00     0.000 C 
BRANCH  11  12
ATOM     12  C   UNL     1      -3.214  34.367  41.407  1.00  0.00     0.000 C 
BRANCH  12  13
ATOM     13  C   UNL     1      -3.833  33.381  42.413  1.00  0.00     0.000 C 
BRANCH  13  14
ATOM     14  C   UNL     1      -4.290  34.069  43.709  1.00  0.00     0.000 C 
BRANCH  14  15
ATOM     15  C   UNL     1      -5.688  33.618  44.159  1.00  0.00     0.000 C 
BRANCH  15  16
ATOM     16  C   UNL     1      -6.711  33.794  43.026  1.00  0.00     0.006 C 
BRANCH  16  17
ATOM     17  C   UNL     1      -8.156  33.775  43.539  1.00  0.00     0.053 C 
BRANCH  17  18
ATOM     18  C   UNL     1      -8.997  32.778  42.800  1.00  0.00     0.041 C 
ATOM     19  O   UNL     1      -9.879  32.118  43.409  1.00  0.00    -0.550 OA
ATOM     20  O   UNL     1      -8.827  32.603  41.432  1.00  0.00    -0.550 OA
ENDBRANCH  17  18
ENDBRANCH  16  17
ENDBRANCH  15  16
ENDBRANCH  14  15
ENDBRANCH  13  14
ENDBRANCH  12  13
ENDBRANCH  11  12
ENDBRANCH   1  11
TORSDOF 15
ENDMDL
MODEL 4
REMARK VINA RESULT:    -3.963      2.096      7.870
REMARK INTER + INTRA:          -8.478
REMARK INTER:                  -7.233
REMARK INTRA:                  -1.245
REMARK UNBOUND:                -1.040
REMARK SMILES O=C([O-])CCCCCCCCCCCCCCC(=O)[O-]
REMARK SMILES IDX 10 1 9 2 8 3 7 4 6 5 5 6 4 7 2 8 1 9 3 10 11 11 12 12 13 13
REMARK SMILES IDX 14 14 15 15 16 16 17 17 18 18 19 19 20 20
REMARK H PARENT
REMARK Flexibility Score: inf
ROOT
ATOM      1  C   UNL     1       3.579  29.991  53.475  1.00  0.00     0.000 C 
ENDROOT
BRANCH   1   2
ATOM      2  C   UNL     1       4.503  28.828  53.879  1.00  0.00     0.000 C 
BRANCH   2   3
ATOM      3  C   UNL     1       4.898  28.870  55.362  1.00  0.00     0.000 C 
BRANCH   3   4
ATOM      4  C   UNL     1       4.220  27.737  56.145  1.00  0.00     0.000 C 
BRANCH   4   5
ATOM      5  C   UNL     1       3.203  28.250  57.179  1.00  0.00     0.000 C 
BRANCH   5   6
ATOM      6  C   UNL     1       1.914  28.817  56.550  1.00  0.00     0.006 C 
BRANCH   6   7
ATOM      7  C   UNL     1       0.799  29.011  57.587  1.00  0.00     0.053 C 
BRANCH   7   8
ATOM      8  C   UNL     1      -0.429  29.567  56.939  1.00  0.00     0.041 C 
ATOM      9  O   UNL     1      -0.648  29.361  55.716  1.00  0.00    -0.550 OA
ATOM     10  O   UNL     1      -1.307  30.353  57.673  1.00  0.00    -0.550 OA
ENDBRANCH   7   8
ENDBRANCH   6   7
ENDBRANCH   5   6
ENDBRANCH   4   5
ENDBRANCH   3   4
ENDBRANCH   2   3
ENDBRANCH   1   2
BRANCH   1  11
ATOM     11  C   UNL     1       4.253  31.110  52.655  1.00  0.00     0.000 C 
BRANCH  11  12
ATOM     12  C   UNL     1       3.537  31.488  51.346  1.00  0.00     0.000 C 
BRANCH  12  13
ATOM     13  C   UNL     1       4.452  32.236  50.360  1.00  0.00     0.000 C 
BRANCH  13  14
ATOM     14  C   UNL     1       5.180  31.287  49.394  1.00  0.00     0.000 C 
BRANCH  14  15
ATOM     15  C   UNL     1       4.487  29.922  49.269  1.00  0.00     0.000 C 
BRANCH  15  16
ATOM     16  C   UNL     1       5.437  28.785  49.676  1.00  0.00     0.006 C 
BRANCH  16  17
ATOM     17  C   UNL     1       4.702  27.636  50.378  1.00  0.00     0.053 C 
BRANCH  17  18
ATOM     18  C   UNL     1       4.507  26.461  49.469  1.00  0.00     0.041 C 
ATOM     19  O   UNL     1       4.699  26.580  48.230  1.00  0.00    -0.550 OA
ATOM     20  O   UNL     1       4.147  25.226  49.994  1.00  0.00    -0.550 OA
ENDBRANCH  17  18
ENDBRANCH  16  17
ENDBRANCH  15  16
ENDBRANCH  14  15
ENDBRANCH  13  14
ENDBRANCH  12  13
ENDBRANCH  11  12
ENDBRANCH   1  11
TORSDOF 15
ENDMDL
MODEL 5
REMARK VINA RESULT:    -3.945     14.508     16.524
REMARK INTER + INTRA:          -8.444
REMARK INTER:                  -6.619
REMARK INTRA:                  -1.825
REMARK UNBOUND:                -1.040
REMARK SMILES O=C([O-])CCCCCCCCCCCCCCC(=O)[O-]
REMARK SMILES IDX 10 1 9 2 8 3 7 4 6 5 5 6 4 7 2 8 1 9 3 10 11 11 12 12 13 13
REMARK SMILES IDX 14 14 15 15 16 16 17 17 18 18 19 19 20 20
REMARK H PARENT
REMARK Flexibility Score: inf
ROOT
ATOM      1  C   UNL     1      -3.257  38.836  42.831  1.00  0.00     0.000 C 
ENDROOT
BRANCH   1   2
ATOM      2  C   UNL     1      -4.600  38.412  43.454  1.00  0.00     0.000 C 
BRANCH   2   3
ATOM      3  C   UNL     1      -5.530  39.603  43.729  1.00  0.00     0.000 C 
BRANCH   3   4
ATOM      4  C   UNL     1      -7.002  39.171  43.695  1.00  0.00     0.000 C 
BRANCH   4   5
ATOM      5  C   UNL     1      -7.197  37.683  44.034  1.00  0.00     0.000 C 
BRANCH   5   6
ATOM      6  C   UNL     1      -8.267  37.429  45.116  1.00  0.00     0.006 C 
BRANCH   6   7
ATOM      7  C   UNL     1      -8.110  38.369  46.319  1.00  0.00     0.053 C 
BRANCH   7   8
ATOM      8  C   UNL     1      -6.922  37.976  47.138  1.00  0.00     0.041 C 
ATOM      9  O   UNL     1      -5.973  38.786  47.308  1.00  0.00    -0.550 OA
ATOM     10  O   UNL     1      -6.839  36.697  47.675  1.00  0.00    -0.550 OA
ENDBRANCH   7   8
ENDBRANCH   6   7
ENDBRANCH   5   6
ENDBRANCH   4   5
ENDBRANCH   3   4
ENDBRANCH   2   3
ENDBRANCH   1   2
BRANCH   1  11
ATOM     11  C   UNL     1      -2.875  38.099  41.531  1.00  0.00     0.000 C 
BRANCH  11  12
ATOM     12  C   UNL     1      -3.989  37.234  40.914  1.00  0.00     0.000 C 
BRANCH  12  13
ATOM     13  C   UNL     1      -3.536  35.792  40.629  1.00  0.00     0.000 C 
BRANCH  13  14
ATOM     14  C   UNL     1      -4.379  34.749  41.382  1.00  0.00     0.000 C 
BRANCH  14  15
ATOM     15  C   UNL     1      -4.377  34.971  42.902  1.00  0.00     0.000 C 
BRANCH  15  16
ATOM     16  C   UNL     1      -5.591  34.293  43.556  1.00  0.00     0.006 C 
BRANCH  16  17
ATOM     17  C   UNL     1      -6.442  33.519  42.541  1.00  0.00     0.053 C 
BRANCH  17  18
ATOM     18  C   UNL     1      -7.896  33.535  42.907  1.00  0.00     0.041 C 
ATOM     19  O   UNL     1      -8.261  33.964  44.033  1.00  0.00    -0.550 OA
ATOM     20  O   UNL     1      -8.848  33.108  41.990  1.00  0.00    -0.550 OA
ENDBRANCH  17  18
ENDBRANCH  16  17
ENDBRANCH  15  16
ENDBRANCH  14  15
ENDBRANCH  13  14
ENDBRANCH  12  13
ENDBRANCH  11  12
ENDBRANCH   1  11
TORSDOF 15
ENDMDL
MODEL 6
REMARK VINA RESULT:    -3.922     13.400     15.734
REMARK INTER + INTRA:          -8.401
REMARK INTER:                  -6.240
REMARK INTRA:                  -2.161
REMARK UNBOUND:                -1.040
REMARK SMILES O=C([O-])CCCCCCCCCCCCCCC(=O)[O-]
REMARK SMILES IDX 10 1 9 2 8 3 7 4 6 5 5 6 4 7 2 8 1 9 3 10 11 11 12 12 13 13
REMARK SMILES IDX 14 14 15 15 16 16 17 17 18 18 19 19 20 20
REMARK H PARENT
REMARK Flexibility Score: inf
ROOT
ATOM      1  C   UNL     1      -8.052  36.848  45.251  1.00  0.00     0.000 C 
ENDROOT
BRANCH   1   2
ATOM      2  C   UNL     1      -8.561  38.221  45.726  1.00  0.00     0.000 C 
BRANCH   2   3
ATOM      3  C   UNL     1      -7.684  39.382  45.236  1.00  0.00     0.000 C 
BRANCH   3   4
ATOM      4  C   UNL     1      -7.049  39.058  43.876  1.00  0.00     0.000 C 
BRANCH   4   5
ATOM      5  C   UNL     1      -5.576  39.490  43.787  1.00  0.00     0.000 C 
BRANCH   5   6
ATOM      6  C   UNL     1      -4.582  38.309  43.795  1.00  0.00     0.006 C 
BRANCH   6   7
ATOM      7  C   UNL     1      -5.097  37.113  42.984  1.00  0.00     0.053 C 
BRANCH   7   8
ATOM      8  C   UNL     1      -4.243  36.892  41.776  1.00  0.00     0.041 C 
ATOM      9  O   UNL     1      -4.037  35.725  41.350  1.00  0.00    -0.550 OA
ATOM     10  O   UNL     1      -3.635  37.971  41.148  1.00  0.00    -0.550 OA
ENDBRANCH   7   8
ENDBRANCH   6   7
ENDBRANCH   5   6
ENDBRANCH   4   5
ENDBRANCH   3   4
ENDBRANCH   2   3
ENDBRANCH   1   2
BRANCH   1  11
ATOM     11  C   UNL     1      -7.459  35.950  46.356  1.00  0.00     0.000 C 
BRANCH  11  12
ATOM     12  C   UNL     1      -5.923  35.859  46.377  1.00  0.00     0.000 C 
BRANCH  12  13
ATOM     13  C   UNL     1      -5.407  34.425  46.172  1.00  0.00     0.000 C 
BRANCH  13  14
ATOM     14  C   UNL     1      -4.793  34.211  44.779  1.00  0.00     0.000 C 
BRANCH  14  15
ATOM     15  C   UNL     1      -5.518  33.124  43.971  1.00  0.00     0.000 C 
BRANCH  15  16
ATOM     16  C   UNL     1      -6.646  33.731  43.124  1.00  0.00     0.006 C 
BRANCH  16  17
ATOM     17  C   UNL     1      -8.029  33.504  43.747  1.00  0.00     0.053 C 
BRANCH  17  18
ATOM     18  C   UNL     1      -8.970  32.840  42.789  1.00  0.00     0.041 C 
ATOM     19  O   UNL     1     -10.048  32.338  43.204  1.00  0.00    -0.550 OA
ATOM     20  O   UNL     1      -8.672  32.805  41.432  1.00  0.00    -0.550 OA
ENDBRANCH  17  18
ENDBRANCH  16  17
ENDBRANCH  15  16
ENDBRANCH  14  15
ENDBRANCH  13  14
ENDBRANCH  12  13
ENDBRANCH  11  12
ENDBRANCH   1  11
TORSDOF 15
ENDMDL
MODEL 7
REMARK VINA RESULT:    -3.912     13.745     15.803
REMARK INTER + INTRA:          -8.383
REMARK INTER:                  -5.834
REMARK INTRA:                  -2.549
REMARK UNBOUND:                -1.040
REMARK SMILES O=C([O-])CCCCCCCCCCCCCCC(=O)[O-]
REMARK SMILES IDX 10 1 9 2 8 3 7 4 6 5 5 6 4 7 2 8 1 9 3 10 11 11 12 12 13 13
REMARK SMILES IDX 14 14 15 15 16 16 17 17 18 18 19 19 20 20
REMARK H PARENT
REMARK Flexibility Score: inf
ROOT
ATOM      1  C   UNL     1      -5.411  37.920  47.766  1.00  0.00     0.000 C 
ENDROOT
BRANCH   1   2
ATOM      2  C   UNL     1      -4.581  37.047  46.808  1.00  0.00     0.000 C 
BRANCH   2   3
ATOM      3  C   UNL     1      -5.341  35.801  46.329  1.00  0.00     0.000 C 
BRANCH   3   4
ATOM      4  C   UNL     1      -6.687  35.665  47.054  1.00  0.00     0.000 C 
BRANCH   4   5
ATOM      5  C   UNL     1      -7.682  34.766  46.300  1.00  0.00     0.000 C 
BRANCH   5   6
ATOM      6  C   UNL     1      -7.108  34.158  45.003  1.00  0.00     0.006 C 
BRANCH   6   7
ATOM      7  C   UNL     1      -8.210  33.742  44.020  1.00  0.00     0.053 C 
BRANCH   7   8
ATOM      8  C   UNL     1      -7.618  33.367  42.698  1.00  0.00     0.041 C 
ATOM      9  O   UNL     1      -6.376  33.454  42.512  1.00  0.00    -0.550 OA
ATOM     10  O   UNL     1      -8.444  32.969  41.655  1.00  0.00    -0.550 OA
ENDBRANCH   7   8
ENDBRANCH   6   7
ENDBRANCH   5   6
ENDBRANCH   4   5
ENDBRANCH   3   4
ENDBRANCH   2   3
ENDBRANCH   1   2
BRANCH   1  11
ATOM     11  C   UNL     1      -5.910  39.253  47.172  1.00  0.00     0.000 C 
BRANCH  11  12
ATOM     12  C   UNL     1      -7.436  39.372  47.014  1.00  0.00     0.000 C 
BRANCH  12  13
ATOM     13  C   UNL     1      -7.871  39.583  45.553  1.00  0.00     0.000 C 
BRANCH  13  14
ATOM     14  C   UNL     1      -8.263  38.269  44.858  1.00  0.00     0.000 C 
BRANCH  14  15
ATOM     15  C   UNL     1      -7.161  37.738  43.929  1.00  0.00     0.000 C 
BRANCH  15  16
ATOM     16  C   UNL     1      -6.297  38.888  43.389  1.00  0.00     0.006 C 
BRANCH  16  17
ATOM     17  C   UNL     1      -4.802  38.547  43.398  1.00  0.00     0.053 C 
BRANCH  17  18
ATOM     18  C   UNL     1      -4.467  37.486  42.393  1.00  0.00     0.041 C 
ATOM     19  O   UNL     1      -4.353  37.781  41.175  1.00  0.00    -0.550 OA
ATOM     20  O   UNL     1      -4.249  36.178  42.809  1.00  0.00    -0.550 OA
ENDBRANCH  17  18
ENDBRANCH  16  17
ENDBRANCH  15  16
ENDBRANCH  14  15
ENDBRANCH  13  14
ENDBRANCH  12  13
ENDBRANCH  11  12
ENDBRANCH   1  11
TORSDOF 15
ENDMDL
MODEL 8
REMARK VINA RESULT:    -3.893     13.748     16.182
REMARK INTER + INTRA:          -8.346
REMARK INTER:                  -6.011
REMARK INTRA:                  -2.336
REMARK UNBOUND:                -1.040
REMARK SMILES O=C([O-])CCCCCCCCCCCCCCC(=O)[O-]
REMARK SMILES IDX 10 1 9 2 8 3 7 4 6 5 5 6 4 7 2 8 1 9 3 10 11 11 12 12 13 13
REMARK SMILES IDX 14 14 15 15 16 16 17 17 18 18 19 19 20 20
REMARK H PARENT
REMARK Flexibility Score: inf
ROOT
ATOM      1  C   UNL     1      -4.820  39.313  43.911  1.00  0.00     0.000 C 
ENDROOT
BRANCH   1   2
ATOM      2  C   UNL     1      -6.220  39.346  43.271  1.00  0.00     0.000 C 
BRANCH   2   3
ATOM      3  C   UNL     1      -7.344  39.504  44.305  1.00  0.00     0.000 C 
BRANCH   3   4
ATOM      4  C   UNL     1      -8.066  38.170  44.542  1.00  0.00     0.000 C 
BRANCH   4   5
ATOM      5  C   UNL     1      -8.313  37.881  46.033  1.00  0.00     0.000 C 
BRANCH   5   6
ATOM      6  C   UNL     1      -7.313  38.586  46.974  1.00  0.00     0.006 C 
BRANCH   6   7
ATOM      7  C   UNL     1      -6.450  37.586  47.756  1.00  0.00     0.053 C 
BRANCH   7   8
ATOM      8  C   UNL     1      -5.084  38.147  47.994  1.00  0.00     0.041 C 
ATOM      9  O   UNL     1      -4.678  39.133  47.324  1.00  0.00    -0.550 OA
ATOM     10  O   UNL     1      -4.239  37.551  48.922  1.00  0.00    -0.550 OA
ENDBRANCH   7   8
ENDBRANCH   6   7
ENDBRANCH   5   6
ENDBRANCH   4   5
ENDBRANCH   3   4
ENDBRANCH   2   3
ENDBRANCH   1   2
BRANCH   1  11
ATOM     11  C   UNL     1      -4.179  37.914  44.014  1.00  0.00     0.000 C 
BRANCH  11  12
ATOM     12  C   UNL     1      -4.481  36.964  42.841  1.00  0.00     0.000 C 
BRANCH  12  13
ATOM     13  C   UNL     1      -5.320  35.745  43.261  1.00  0.00     0.000 C 
BRANCH  13  14
ATOM     14  C   UNL     1      -5.360  35.554  44.786  1.00  0.00     0.000 C 
BRANCH  14  15
ATOM     15  C   UNL     1      -6.602  34.780  45.254  1.00  0.00     0.000 C 
BRANCH  15  16
ATOM     16  C   UNL     1      -7.587  34.571  44.094  1.00  0.00     0.006 C 
BRANCH  16  17
ATOM     17  C   UNL     1      -7.732  33.091  43.714  1.00  0.00     0.053 C 
BRANCH  17  18
ATOM     18  C   UNL     1      -8.935  32.853  42.853  1.00  0.00     0.041 C 
ATOM     19  O   UNL     1      -8.871  33.041  41.609  1.00  0.00    -0.550 OA
ATOM     20  O   UNL     1     -10.116  32.391  43.419  1.00  0.00    -0.550 OA
ENDBRANCH  17  18
ENDBRANCH  16  17
ENDBRANCH  15  16
ENDBRANCH  14  15
ENDBRANCH  13  14
ENDBRANCH  12  13
ENDBRANCH  11  12
ENDBRANCH   1  11
TORSDOF 15
ENDMDL
MODEL 9
REMARK VINA RESULT:    -3.857      9.446     12.083
REMARK INTER + INTRA:          -8.279
REMARK INTER:                  -5.732
REMARK INTRA:                  -2.547
REMARK UNBOUND:                -1.040
REMARK SMILES O=C([O-])CCCCCCCCCCCCCCC(=O)[O-]
REMARK SMILES IDX 10 1 9 2 8 3 7 4 6 5 5 6 4 7 2 8 1 9 3 10 11 11 12 12 13 13
REMARK SMILES IDX 14 14 15 15 16 16 17 17 18 18 19 19 20 20
REMARK H PARENT
REMARK Flexibility Score: inf
ROOT
ATOM      1  C   UNL     1       2.032  30.012  41.881  1.00  0.00     0.000 C 
ENDROOT
BRANCH   1   2
ATOM      2  C   UNL     1       0.996  29.172  41.113  1.00  0.00     0.000 C 
BRANCH   2   3
ATOM      3  C   UNL     1      -0.049  28.528  42.035  1.00  0.00     0.000 C 
BRANCH   3   4
ATOM      4  C   UNL     1      -1.403  29.240  41.916  1.00  0.00     0.000 C 
BRANCH   4   5
ATOM      5  C   UNL     1      -2.215  29.203  43.222  1.00  0.00     0.000 C 
BRANCH   5   6
ATOM      6  C   UNL     1      -1.544  28.385  44.345  1.00  0.00     0.006 C 
BRANCH   6   7
ATOM      7  C   UNL     1      -2.081  28.756  45.733  1.00  0.00     0.053 C 
BRANCH   7   8
ATOM      8  C   UNL     1      -2.963  27.669  46.262  1.00  0.00     0.041 C 
ATOM      9  O   UNL     1      -3.487  26.838  45.473  1.00  0.00    -0.550 OA
ATOM     10  O   UNL     1      -3.247  27.603  47.620  1.00  0.00    -0.550 OA
ENDBRANCH   7   8
ENDBRANCH   6   7
ENDBRANCH   5   6
ENDBRANCH   4   5
ENDBRANCH   3   4
ENDBRANCH   2   3
ENDBRANCH   1   2
BRANCH   1  11
ATOM     11  C   UNL     1       1.875  30.005  43.415  1.00  0.00     0.000 C 
BRANCH  11  12
ATOM     12  C   UNL     1       1.785  31.394  44.073  1.00  0.00     0.000 C 
BRANCH  12  13
ATOM     13  C   UNL     1       0.489  31.588  44.880  1.00  0.00     0.000 C 
BRANCH  13  14
ATOM     14  C   UNL     1      -0.610  32.295  44.070  1.00  0.00     0.000 C 
BRANCH  14  15
ATOM     15  C   UNL     1      -0.059  33.039  42.845  1.00  0.00     0.000 C 
BRANCH  15  16
ATOM     16  C   UNL     1      -1.026  32.931  41.656  1.00  0.00     0.006 C 
BRANCH  16  17
ATOM     17  C   UNL     1      -2.492  32.858  42.104  1.00  0.00     0.053 C 
BRANCH  17  18
ATOM     18  C   UNL     1      -3.326  33.920  41.453  1.00  0.00     0.041 C 
ATOM     19  O   UNL     1      -4.559  33.996  41.698  1.00  0.00    -0.550 OA
ATOM     20  O   UNL     1      -2.734  34.847  40.604  1.00  0.00    -0.550 OA
ENDBRANCH  17  18
ENDBRANCH  16  17
ENDBRANCH  15  16
ENDBRANCH  14  15
ENDBRANCH  13  14
ENDBRANCH  12  13
ENDBRANCH  11  12
ENDBRANCH   1  11
TORSDOF 15
ENDMDL
