MODEL 1
REMARK VINA RESULT:    -4.263      0.000      0.000
REMARK INTER + INTRA:         -12.465
REMARK INTER:                  -9.247
REMARK INTRA:                  -3.218
REMARK UNBOUND:                -3.218
REMARK SMILES CCCCCCCCCCCCCCCCCCCCCC(=O)[O-]
REMARK SMILES IDX 12 1 11 2 10 3 9 4 8 5 7 6 6 7 5 8 4 9 3 10 2 11 1 12 13 13
REMARK SMILES IDX 14 14 15 15 16 16 17 17 18 18 19 19 20 20 21 21 22 22 23 23
REMARK SMILES IDX 24 24
REMARK H PARENT
REMARK Flexibility Score: inf
ROOT
ATOM      1  C   UNL     1      -8.765  17.177  -2.267  1.00  0.00     0.000 C 
ENDROOT
BRANCH   1   2
ATOM      2  C   UNL     1      -8.759  16.115  -3.380  1.00  0.00     0.000 C 
BRANCH   2   3
ATOM      3  C   UNL     1      -7.636  15.082  -3.195  1.00  0.00     0.000 C 
BRANCH   3   4
ATOM      4  C   UNL     1      -8.166  13.639  -3.129  1.00  0.00    -0.000 C 
BRANCH   4   5
ATOM      5  C   UNL     1      -9.556  13.496  -3.772  1.00  0.00    -0.000 C 
BRANCH   5   6
ATOM      6  C   UNL     1      -9.589  12.395  -4.844  1.00  0.00    -0.000 C 
BRANCH   6   7
ATOM      7  C   UNL     1     -10.269  12.856  -6.143  1.00  0.00    -0.000 C 
BRANCH   7   8
ATOM      8  C   UNL     1     -10.026  14.344  -6.437  1.00  0.00    -0.000 C 
BRANCH   8   9
ATOM      9  C   UNL     1      -9.528  14.543  -7.877  1.00  0.00    -0.000 C 
BRANCH   9  10
ATOM     10  C   UNL     1      -8.025  14.248  -8.042  1.00  0.00    -0.000 C 
BRANCH  10  11
ATOM     11  C   UNL     1      -7.155  14.618  -6.826  1.00  0.00    -0.003 C 
ATOM     12  C   UNL     1      -6.256  13.475  -6.361  1.00  0.00     0.004 C 
ENDBRANCH  10  11
ENDBRANCH   9  10
ENDBRANCH   8   9
ENDBRANCH   7   8
ENDBRANCH   6   7
ENDBRANCH   5   6
ENDBRANCH   4   5
ENDBRANCH   3   4
ENDBRANCH   2   3
ENDBRANCH   1   2
BRANCH   1  13
ATOM     13  C   UNL     1      -9.882  16.945  -1.239  1.00  0.00     0.000 C 
BRANCH  13  14
ATOM     14  C   UNL     1      -9.338  16.454   0.114  1.00  0.00     0.000 C 
BRANCH  14  15
ATOM     15  C   UNL     1      -9.306  14.921   0.216  1.00  0.00     0.000 C 
BRANCH  15  16
ATOM     16  C   UNL     1      -7.917  14.383   0.606  1.00  0.00     0.000 C 
BRANCH  16  17
ATOM     17  C   UNL     1      -6.769  15.288   0.120  1.00  0.00     0.000 C 
BRANCH  17  18
ATOM     18  C   UNL     1      -5.816  15.770   1.231  1.00  0.00     0.000 C 
BRANCH  18  19
ATOM     19  C   UNL     1      -6.160  17.148   1.830  1.00  0.00     0.000 C 
BRANCH  19  20
ATOM     20  C   UNL     1      -6.789  17.078   3.238  1.00  0.00     0.006 C 
BRANCH  20  21
ATOM     21  C   UNL     1      -6.635  18.399   4.007  1.00  0.00     0.053 C 
BRANCH  21  22
ATOM     22  C   UNL     1      -7.828  19.281   3.804  1.00  0.00     0.041 C 
ATOM     23  O   UNL     1      -8.948  18.777   3.520  1.00  0.00    -0.550 OA
ATOM     24  O   UNL     1      -7.695  20.662   3.877  1.00  0.00    -0.550 OA
ENDBRANCH  21  22
ENDBRANCH  20  21
ENDBRANCH  19  20
ENDBRANCH  18  19
ENDBRANCH  17  18
ENDBRANCH  16  17
ENDBRANCH  15  16
ENDBRANCH  14  15
ENDBRANCH  13  14
ENDBRANCH   1  13
TORSDOF 20
ENDMDL
MODEL 2
REMARK VINA RESULT:    -4.234      3.793      8.663
REMARK INTER + INTRA:         -12.402
REMARK INTER:                  -9.278
REMARK INTRA:                  -3.124
REMARK UNBOUND:                -3.218
REMARK SMILES CCCCCCCCCCCCCCCCCCCCCC(=O)[O-]
REMARK SMILES IDX 12 1 11 2 10 3 9 4 8 5 7 6 6 7 5 8 4 9 3 10 2 11 1 12 13 13
REMARK SMILES IDX 14 14 15 15 16 16 17 17 18 18 19 19 20 20 21 21 22 22 23 23
REMARK SMILES IDX 24 24
REMARK H PARENT
REMARK Flexibility Score: inf
ROOT
ATOM      1  C   UNL     1      -9.522  16.902  -0.168  1.00  0.00     0.000 C 
ENDROOT
BRANCH   1   2
ATOM      2  C   UNL     1     -10.016  15.710   0.672  1.00  0.00     0.000 C 
BRANCH   2   3
ATOM      3  C   UNL     1     -10.001  16.011   2.178  1.00  0.00     0.000 C 
BRANCH   3   4
ATOM      4  C   UNL     1     -10.527  17.420   2.505  1.00  0.00    -0.000 C 
BRANCH   4   5
ATOM      5  C   UNL     1      -9.499  18.263   3.277  1.00  0.00    -0.000 C 
BRANCH   5   6
ATOM      6  C   UNL     1      -8.217  17.474   3.587  1.00  0.00    -0.000 C 
BRANCH   6   7
ATOM      7  C   UNL     1      -6.965  18.118   2.970  1.00  0.00    -0.000 C 
BRANCH   7   8
ATOM      8  C   UNL     1      -6.453  17.350   1.742  1.00  0.00    -0.000 C 
BRANCH   8   9
ATOM      9  C   UNL     1      -6.107  15.899   2.110  1.00  0.00    -0.000 C 
BRANCH   9  10
ATOM     10  C   UNL     1      -6.516  14.887   1.023  1.00  0.00    -0.000 C 
BRANCH  10  11
ATOM     11  C   UNL     1      -6.058  15.246  -0.402  1.00  0.00    -0.003 C 
ATOM     12  C   UNL     1      -6.359  14.150  -1.423  1.00  0.00     0.004 C 
ENDBRANCH  10  11
ENDBRANCH   9  10
ENDBRANCH   8   9
ENDBRANCH   7   8
ENDBRANCH   6   7
ENDBRANCH   5   6
ENDBRANCH   4   5
ENDBRANCH   3   4
ENDBRANCH   2   3
ENDBRANCH   1   2
BRANCH   1  13
ATOM     13  C   UNL     1      -9.343  16.542  -1.650  1.00  0.00     0.000 C 
BRANCH  13  14
ATOM     14  C   UNL     1     -10.111  15.266  -2.039  1.00  0.00     0.000 C 
BRANCH  14  15
ATOM     15  C   UNL     1      -9.517  14.575  -3.278  1.00  0.00     0.000 C 
BRANCH  15  16
ATOM     16  C   UNL     1      -8.722  15.545  -4.171  1.00  0.00     0.000 C 
BRANCH  16  17
ATOM     17  C   UNL     1      -7.487  14.886  -4.816  1.00  0.00     0.000 C 
BRANCH  17  18
ATOM     18  C   UNL     1      -7.242  15.281  -6.285  1.00  0.00     0.000 C 
BRANCH  18  19
ATOM     19  C   UNL     1      -7.537  14.172  -7.313  1.00  0.00     0.000 C 
BRANCH  19  20
ATOM     20  C   UNL     1      -8.510  14.600  -8.433  1.00  0.00     0.006 C 
BRANCH  20  21
ATOM     21  C   UNL     1      -9.947  14.768  -7.918  1.00  0.00     0.053 C 
BRANCH  21  22
ATOM     22  C   UNL     1     -10.460  13.490  -7.330  1.00  0.00     0.041 C 
ATOM     23  O   UNL     1     -10.964  13.482  -6.175  1.00  0.00    -0.550 OA
ATOM     24  O   UNL     1     -10.337  12.299  -8.033  1.00  0.00    -0.550 OA
ENDBRANCH  21  22
ENDBRANCH  20  21
ENDBRANCH  19  20
ENDBRANCH  18  19
ENDBRANCH  17  18
ENDBRANCH  16  17
ENDBRANCH  15  16
ENDBRANCH  14  15
ENDBRANCH  13  14
ENDBRANCH   1  13
TORSDOF 20
ENDMDL
MODEL 3
REMARK VINA RESULT:    -4.203      1.087      2.500
REMARK INTER + INTRA:         -12.336
REMARK INTER:                  -8.520
REMARK INTRA:                  -3.816
REMARK UNBOUND:                -3.218
REMARK SMILES CCCCCCCCCCCCCCCCCCCCCC(=O)[O-]
REMARK SMILES IDX 12 1 11 2 10 3 9 4 8 5 7 6 6 7 5 8 4 9 3 10 2 11 1 12 13 13
REMARK SMILES IDX 14 14 15 15 16 16 17 17 18 18 19 19 20 20 21 21 22 22 23 23
REMARK SMILES IDX 24 24
REMARK H PARENT
REMARK Flexibility Score: inf
ROOT
ATOM      1  C   UNL     1      -7.645  15.083  -2.952  1.00  0.00     0.000 C 
ENDROOT
BRANCH   1   2
ATOM      2  C   UNL     1      -8.313  13.704  -2.815  1.00  0.00     0.000 C 
BRANCH   2   3
ATOM      3  C   UNL     1      -9.774  13.714  -3.290  1.00  0.00     0.000 C 
BRANCH   3   4
ATOM      4  C   UNL     1     -10.032  12.711  -4.429  1.00  0.00    -0.000 C 
BRANCH   4   5
ATOM      5  C   UNL     1     -10.990  13.270  -5.495  1.00  0.00    -0.000 C 
BRANCH   5   6
ATOM      6  C   UNL     1     -10.366  13.255  -6.899  1.00  0.00    -0.000 C 
BRANCH   6   7
ATOM      7  C   UNL     1      -9.850  14.637  -7.331  1.00  0.00    -0.000 C 
BRANCH   7   8
ATOM      8  C   UNL     1      -8.442  14.933  -6.792  1.00  0.00    -0.000 C 
BRANCH   8   9
ATOM      9  C   UNL     1      -7.453  13.838  -7.218  1.00  0.00    -0.000 C 
BRANCH   9  10
ATOM     10  C   UNL     1      -6.480  13.432  -6.093  1.00  0.00    -0.000 C 
BRANCH  10  11
ATOM     11  C   UNL     1      -6.511  11.940  -5.716  1.00  0.00    -0.003 C 
ATOM     12  C   UNL     1      -7.425  11.112  -6.618  1.00  0.00     0.004 C 
ENDBRANCH  10  11
ENDBRANCH   9  10
ENDBRANCH   8   9
ENDBRANCH   7   8
ENDBRANCH   6   7
ENDBRANCH   5   6
ENDBRANCH   4   5
ENDBRANCH   3   4
ENDBRANCH   2   3
ENDBRANCH   1   2
BRANCH   1  13
ATOM     13  C   UNL     1      -8.654  16.197  -3.268  1.00  0.00     0.000 C 
BRANCH  13  14
ATOM     14  C   UNL     1      -8.766  17.225  -2.127  1.00  0.00     0.000 C 
BRANCH  14  15
ATOM     15  C   UNL     1     -10.013  17.005  -1.255  1.00  0.00     0.000 C 
BRANCH  15  16
ATOM     16  C   UNL     1      -9.660  16.638   0.198  1.00  0.00     0.000 C 
BRANCH  16  17
ATOM     17  C   UNL     1      -9.486  15.121   0.405  1.00  0.00     0.000 C 
BRANCH  17  18
ATOM     18  C   UNL     1      -8.192  14.718   1.138  1.00  0.00     0.000 C 
BRANCH  18  19
ATOM     19  C   UNL     1      -6.900  15.329   0.561  1.00  0.00     0.000 C 
BRANCH  19  20
ATOM     20  C   UNL     1      -6.017  16.033   1.614  1.00  0.00     0.006 C 
BRANCH  20  21
ATOM     21  C   UNL     1      -6.347  17.527   1.742  1.00  0.00     0.053 C 
BRANCH  21  22
ATOM     22  C   UNL     1      -6.874  17.847   3.107  1.00  0.00     0.041 C 
ATOM     23  O   UNL     1      -6.079  18.151   4.037  1.00  0.00    -0.550 OA
ATOM     24  O   UNL     1      -8.235  17.760   3.368  1.00  0.00    -0.550 OA
ENDBRANCH  21  22
ENDBRANCH  20  21
ENDBRANCH  19  20
ENDBRANCH  18  19
ENDBRANCH  17  18
ENDBRANCH  16  17
ENDBRANCH  15  16
ENDBRANCH  14  15
ENDBRANCH  13  14
ENDBRANCH   1  13
TORSDOF 20
ENDMDL
MODEL 4
REMARK VINA RESULT:    -4.185      3.564      7.790
REMARK INTER + INTRA:         -12.296
REMARK INTER:                  -8.234
REMARK INTRA:                  -4.063
REMARK UNBOUND:                -3.218
REMARK SMILES CCCCCCCCCCCCCCCCCCCCCC(=O)[O-]
REMARK SMILES IDX 12 1 11 2 10 3 9 4 8 5 7 6 6 7 5 8 4 9 3 10 2 11 1 12 13 13
REMARK SMILES IDX 14 14 15 15 16 16 17 17 18 18 19 19 20 20 21 21 22 22 23 23
REMARK SMILES IDX 24 24
REMARK H PARENT
REMARK Flexibility Score: inf
ROOT
ATOM      1  C   UNL     1      -9.645  16.653   0.379  1.00  0.00     0.000 C 
ENDROOT
BRANCH   1   2
ATOM      2  C   UNL     1      -9.898  16.883  -1.121  1.00  0.00     0.000 C 
BRANCH   2   3
ATOM      3  C   UNL     1      -8.593  17.013  -1.921  1.00  0.00     0.000 C 
BRANCH   3   4
ATOM      4  C   UNL     1      -8.589  16.145  -3.192  1.00  0.00    -0.000 C 
BRANCH   4   5
ATOM      5  C   UNL     1      -7.511  15.049  -3.147  1.00  0.00    -0.000 C 
BRANCH   5   6
ATOM      6  C   UNL     1      -6.589  15.191  -1.926  1.00  0.00    -0.000 C 
BRANCH   6   7
ATOM      7  C   UNL     1      -6.574  13.931  -1.047  1.00  0.00    -0.000 C 
BRANCH   7   8
ATOM      8  C   UNL     1      -6.243  14.241   0.420  1.00  0.00    -0.000 C 
BRANCH   8   9
ATOM      9  C   UNL     1      -5.903  15.728   0.601  1.00  0.00    -0.000 C 
BRANCH   9  10
ATOM     10  C   UNL     1      -6.160  16.237   2.032  1.00  0.00    -0.000 C 
BRANCH  10  11
ATOM     11  C   UNL     1      -6.513  17.733   2.134  1.00  0.00    -0.003 C 
ATOM     12  C   UNL     1      -6.518  18.252   3.570  1.00  0.00     0.004 C 
ENDBRANCH  10  11
ENDBRANCH   9  10
ENDBRANCH   8   9
ENDBRANCH   7   8
ENDBRANCH   6   7
ENDBRANCH   5   6
ENDBRANCH   4   5
ENDBRANCH   3   4
ENDBRANCH   2   3
ENDBRANCH   1   2
BRANCH   1  13
ATOM     13  C   UNL     1      -9.688  15.166   0.761  1.00  0.00     0.000 C 
BRANCH  13  14
ATOM     14  C   UNL     1     -10.639  14.358  -0.140  1.00  0.00     0.000 C 
BRANCH  14  15
ATOM     15  C   UNL     1     -10.102  12.951  -0.451  1.00  0.00     0.000 C 
BRANCH  15  16
ATOM     16  C   UNL     1      -9.983  12.685  -1.963  1.00  0.00     0.000 C 
BRANCH  16  17
ATOM     17  C   UNL     1     -10.980  13.514  -2.796  1.00  0.00     0.000 C 
BRANCH  17  18
ATOM     18  C   UNL     1     -10.779  13.419  -4.320  1.00  0.00     0.000 C 
BRANCH  18  19
ATOM     19  C   UNL     1      -9.574  12.567  -4.765  1.00  0.00     0.000 C 
BRANCH  19  20
ATOM     20  C   UNL     1      -9.197  12.745  -6.252  1.00  0.00     0.006 C 
BRANCH  20  21
ATOM     21  C   UNL     1      -7.760  13.256  -6.428  1.00  0.00     0.053 C 
BRANCH  21  22
ATOM     22  C   UNL     1      -7.737  14.548  -7.184  1.00  0.00     0.041 C 
ATOM     23  O   UNL     1      -8.083  14.579  -8.396  1.00  0.00    -0.550 OA
ATOM     24  O   UNL     1      -7.285  15.709  -6.569  1.00  0.00    -0.550 OA
ENDBRANCH  21  22
ENDBRANCH  20  21
ENDBRANCH  19  20
ENDBRANCH  18  19
ENDBRANCH  17  18
ENDBRANCH  16  17
ENDBRANCH  15  16
ENDBRANCH  14  15
ENDBRANCH  13  14
ENDBRANCH   1  13
TORSDOF 20
ENDMDL
MODEL 5
REMARK VINA RESULT:    -4.135      3.404      8.381
REMARK INTER + INTRA:         -12.189
REMARK INTER:                  -8.485
REMARK INTRA:                  -3.704
REMARK UNBOUND:                -3.218
REMARK SMILES CCCCCCCCCCCCCCCCCCCCCC(=O)[O-]
REMARK SMILES IDX 12 1 11 2 10 3 9 4 8 5 7 6 6 7 5 8 4 9 3 10 2 11 1 12 13 13
REMARK SMILES IDX 14 14 15 15 16 16 17 17 18 18 19 19 20 20 21 21 22 22 23 23
REMARK SMILES IDX 24 24
REMARK H PARENT
REMARK Flexibility Score: inf
ROOT
ATOM      1  C   UNL     1      -8.765  17.052  -2.038  1.00  0.00     0.000 C 
ENDROOT
BRANCH   1   2
ATOM      2  C   UNL     1     -10.043  16.878  -1.200  1.00  0.00     0.000 C 
BRANCH   2   3
ATOM      3  C   UNL     1      -9.749  16.798   0.306  1.00  0.00     0.000 C 
BRANCH   3   4
ATOM      4  C   UNL     1     -10.014  15.397   0.886  1.00  0.00    -0.000 C 
BRANCH   4   5
ATOM      5  C   UNL     1      -9.048  14.340   0.328  1.00  0.00    -0.000 C 
BRANCH   5   6
ATOM      6  C   UNL     1      -7.701  14.337   1.067  1.00  0.00    -0.000 C 
BRANCH   6   7
ATOM      7  C   UNL     1      -6.574  14.984   0.245  1.00  0.00    -0.000 C 
BRANCH   7   8
ATOM      8  C   UNL     1      -5.682  15.904   1.092  1.00  0.00    -0.000 C 
BRANCH   8   9
ATOM      9  C   UNL     1      -6.439  17.177   1.498  1.00  0.00    -0.000 C 
BRANCH   9  10
ATOM     10  C   UNL     1      -6.481  17.394   3.023  1.00  0.00    -0.000 C 
BRANCH  10  11
ATOM     11  C   UNL     1      -7.893  17.390   3.639  1.00  0.00    -0.003 C 
ATOM     12  C   UNL     1      -8.335  16.009   4.119  1.00  0.00     0.004 C 
ENDBRANCH  10  11
ENDBRANCH   9  10
ENDBRANCH   8   9
ENDBRANCH   7   8
ENDBRANCH   6   7
ENDBRANCH   5   6
ENDBRANCH   4   5
ENDBRANCH   3   4
ENDBRANCH   2   3
ENDBRANCH   1   2
BRANCH   1  13
ATOM     13  C   UNL     1      -8.761  16.169  -3.295  1.00  0.00     0.000 C 
BRANCH  13  14
ATOM     14  C   UNL     1      -7.820  14.959  -3.157  1.00  0.00     0.000 C 
BRANCH  14  15
ATOM     15  C   UNL     1      -8.560  13.618  -3.291  1.00  0.00     0.000 C 
BRANCH  15  16
ATOM     16  C   UNL     1     -10.083  13.764  -3.120  1.00  0.00     0.000 C 
BRANCH  16  17
ATOM     17  C   UNL     1     -10.871  13.286  -4.354  1.00  0.00     0.000 C 
BRANCH  17  18
ATOM     18  C   UNL     1     -10.005  12.978  -5.591  1.00  0.00     0.000 C 
BRANCH  18  19
ATOM     19  C   UNL     1     -10.017  14.066  -6.681  1.00  0.00     0.000 C 
BRANCH  19  20
ATOM     20  C   UNL     1      -8.678  14.822  -6.825  1.00  0.00     0.006 C 
BRANCH  20  21
ATOM     21  C   UNL     1      -7.593  13.957  -7.482  1.00  0.00     0.053 C 
BRANCH  21  22
ATOM     22  C   UNL     1      -6.603  13.474  -6.468  1.00  0.00     0.041 C 
ATOM     23  O   UNL     1      -5.813  14.287  -5.916  1.00  0.00    -0.550 OA
ATOM     24  O   UNL     1      -6.515  12.121  -6.168  1.00  0.00    -0.550 OA
ENDBRANCH  21  22
ENDBRANCH  20  21
ENDBRANCH  19  20
ENDBRANCH  18  19
ENDBRANCH  17  18
ENDBRANCH  16  17
ENDBRANCH  15  16
ENDBRANCH  14  15
ENDBRANCH  13  14
ENDBRANCH   1  13
TORSDOF 20
ENDMDL
MODEL 6
REMARK VINA RESULT:    -4.091      3.995      8.299
REMARK INTER + INTRA:         -12.092
REMARK INTER:                  -8.706
REMARK INTRA:                  -3.386
REMARK UNBOUND:                -3.218
REMARK SMILES CCCCCCCCCCCCCCCCCCCCCC(=O)[O-]
REMARK SMILES IDX 12 1 11 2 10 3 9 4 8 5 7 6 6 7 5 8 4 9 3 10 2 11 1 12 13 13
REMARK SMILES IDX 14 14 15 15 16 16 17 17 18 18 19 19 20 20 21 21 22 22 23 23
REMARK SMILES IDX 24 24
REMARK H PARENT
REMARK Flexibility Score: inf
ROOT
ATOM      1  C   UNL     1      -8.758  17.183  -2.264  1.00  0.00     0.000 C 
ENDROOT
BRANCH   1   2
ATOM      2  C   UNL     1      -8.379  15.882  -2.993  1.00  0.00     0.000 C 
BRANCH   2   3
ATOM      3  C   UNL     1      -7.090  15.256  -2.440  1.00  0.00     0.000 C 
BRANCH   3   4
ATOM      4  C   UNL     1      -7.345  13.919  -1.720  1.00  0.00    -0.000 C 
BRANCH   4   5
ATOM      5  C   UNL     1      -7.112  14.018  -0.203  1.00  0.00    -0.000 C 
BRANCH   5   6
ATOM      6  C   UNL     1      -6.171  15.176   0.165  1.00  0.00    -0.000 C 
BRANCH   6   7
ATOM      7  C   UNL     1      -6.456  15.746   1.563  1.00  0.00    -0.000 C 
BRANCH   7   8
ATOM      8  C   UNL     1      -7.377  16.975   1.522  1.00  0.00    -0.000 C 
BRANCH   8   9
ATOM      9  C   UNL     1      -8.740  16.658   2.156  1.00  0.00    -0.000 C 
BRANCH   9  10
ATOM     10  C   UNL     1      -9.392  17.881   2.828  1.00  0.00    -0.000 C 
BRANCH  10  11
ATOM     11  C   UNL     1     -10.825  17.651   3.342  1.00  0.00    -0.003 C 
ATOM     12  C   UNL     1     -11.685  18.912   3.308  1.00  0.00     0.004 C 
ENDBRANCH  10  11
ENDBRANCH   9  10
ENDBRANCH   8   9
ENDBRANCH   7   8
ENDBRANCH   6   7
ENDBRANCH   5   6
ENDBRANCH   4   5
ENDBRANCH   3   4
ENDBRANCH   2   3
ENDBRANCH   1   2
BRANCH   1  13
ATOM     13  C   UNL     1      -9.798  16.954  -1.157  1.00  0.00     0.000 C 
BRANCH  13  14
ATOM     14  C   UNL     1     -10.740  15.779  -1.474  1.00  0.00     0.000 C 
BRANCH  14  15
ATOM     15  C   UNL     1     -10.749  14.715  -0.364  1.00  0.00     0.000 C 
BRANCH  15  16
ATOM     16  C   UNL     1     -10.839  13.282  -0.920  1.00  0.00     0.000 C 
BRANCH  16  17
ATOM     17  C   UNL     1     -11.405  13.231  -2.352  1.00  0.00     0.000 C 
BRANCH  17  18
ATOM     18  C   UNL     1     -10.443  12.646  -3.404  1.00  0.00     0.000 C 
BRANCH  18  19
ATOM     19  C   UNL     1     -10.533  13.293  -4.799  1.00  0.00     0.000 C 
BRANCH  19  20
ATOM     20  C   UNL     1      -9.162  13.532  -5.468  1.00  0.00     0.006 C 
BRANCH  20  21
ATOM     21  C   UNL     1      -9.243  14.561  -6.605  1.00  0.00     0.053 C 
BRANCH  21  22
ATOM     22  C   UNL     1      -8.149  14.346  -7.604  1.00  0.00     0.041 C 
ATOM     23  O   UNL     1      -7.017  13.942  -7.226  1.00  0.00    -0.550 OA
ATOM     24  O   UNL     1      -8.361  14.639  -8.945  1.00  0.00    -0.550 OA
ENDBRANCH  21  22
ENDBRANCH  20  21
ENDBRANCH  19  20
ENDBRANCH  18  19
ENDBRANCH  17  18
ENDBRANCH  16  17
ENDBRANCH  15  16
ENDBRANCH  14  15
ENDBRANCH  13  14
ENDBRANCH   1  13
TORSDOF 20
ENDMDL
MODEL 7
REMARK VINA RESULT:    -4.065      1.101      3.066
REMARK INTER + INTRA:         -12.036
REMARK INTER:                  -8.735
REMARK INTRA:                  -3.301
REMARK UNBOUND:                -3.218
REMARK SMILES CCCCCCCCCCCCCCCCCCCCCC(=O)[O-]
REMARK SMILES IDX 12 1 11 2 10 3 9 4 8 5 7 6 6 7 5 8 4 9 3 10 2 11 1 12 13 13
REMARK SMILES IDX 14 14 15 15 16 16 17 17 18 18 19 19 20 20 21 21 22 22 23 23
REMARK SMILES IDX 24 24
REMARK H PARENT
REMARK Flexibility Score: inf
ROOT
ATOM      1  C   UNL     1      -8.289  13.950  -3.223  1.00  0.00     0.000 C 
ENDROOT
BRANCH   1   2
ATOM      2  C   UNL     1      -6.840  14.404  -3.468  1.00  0.00     0.000 C 
BRANCH   2   3
ATOM      3  C   UNL     1      -6.387  14.161  -4.915  1.00  0.00     0.000 C 
BRANCH   3   4
ATOM      4  C   UNL     1      -6.885  12.815  -5.472  1.00  0.00    -0.000 C 
BRANCH   4   5
ATOM      5  C   UNL     1      -7.216  12.890  -6.972  1.00  0.00    -0.000 C 
BRANCH   5   6
ATOM      6  C   UNL     1      -7.497  14.329  -7.433  1.00  0.00    -0.000 C 
BRANCH   6   7
ATOM      7  C   UNL     1      -8.843  14.463  -8.163  1.00  0.00    -0.000 C 
BRANCH   7   8
ATOM      8  C   UNL     1      -9.966  14.961  -7.240  1.00  0.00    -0.000 C 
BRANCH   8   9
ATOM      9  C   UNL     1     -11.112  13.941  -7.174  1.00  0.00    -0.000 C 
BRANCH   9  10
ATOM     10  C   UNL     1     -11.131  13.138  -5.859  1.00  0.00    -0.000 C 
BRANCH  10  11
ATOM     11  C   UNL     1     -10.573  11.708  -5.964  1.00  0.00    -0.003 C 
ATOM     12  C   UNL     1     -10.144  11.130  -4.617  1.00  0.00     0.004 C 
ENDBRANCH  10  11
ENDBRANCH   9  10
ENDBRANCH   8   9
ENDBRANCH   7   8
ENDBRANCH   6   7
ENDBRANCH   5   6
ENDBRANCH   4   5
ENDBRANCH   3   4
ENDBRANCH   2   3
ENDBRANCH   1   2
BRANCH   1  13
ATOM     13  C   UNL     1      -9.290  15.113  -3.296  1.00  0.00     0.000 C 
BRANCH  13  14
ATOM     14  C   UNL     1      -8.593  16.485  -3.282  1.00  0.00     0.000 C 
BRANCH  14  15
ATOM     15  C   UNL     1      -9.034  17.358  -2.095  1.00  0.00     0.000 C 
BRANCH  15  16
ATOM     16  C   UNL     1      -9.927  16.595  -1.100  1.00  0.00     0.000 C 
BRANCH  16  17
ATOM     17  C   UNL     1      -9.300  16.485   0.303  1.00  0.00     0.000 C 
BRANCH  17  18
ATOM     18  C   UNL     1      -8.265  15.354   0.457  1.00  0.00     0.000 C 
BRANCH  18  19
ATOM     19  C   UNL     1      -6.794  15.802   0.362  1.00  0.00     0.000 C 
BRANCH  19  20
ATOM     20  C   UNL     1      -6.174  16.203   1.718  1.00  0.00     0.006 C 
BRANCH  20  21
ATOM     21  C   UNL     1      -6.231  17.719   1.956  1.00  0.00     0.053 C 
BRANCH  21  22
ATOM     22  C   UNL     1      -6.859  18.033   3.278  1.00  0.00     0.041 C 
ATOM     23  O   UNL     1      -6.140  18.376   4.255  1.00  0.00    -0.550 OA
ATOM     24  O   UNL     1      -8.231  17.899   3.449  1.00  0.00    -0.550 OA
ENDBRANCH  21  22
ENDBRANCH  20  21
ENDBRANCH  19  20
ENDBRANCH  18  19
ENDBRANCH  17  18
ENDBRANCH  16  17
ENDBRANCH  15  16
ENDBRANCH  14  15
ENDBRANCH  13  14
ENDBRANCH   1  13
TORSDOF 20
ENDMDL
MODEL 8
REMARK VINA RESULT:    -4.060      1.257      2.244
REMARK INTER + INTRA:         -12.025
REMARK INTER:                  -8.262
REMARK INTRA:                  -3.762
REMARK UNBOUND:                -3.218
REMARK SMILES CCCCCCCCCCCCCCCCCCCCCC(=O)[O-]
REMARK SMILES IDX 12 1 11 2 10 3 9 4 8 5 7 6 6 7 5 8 4 9 3 10 2 11 1 12 13 13
REMARK SMILES IDX 14 14 15 15 16 16 17 17 18 18 19 19 20 20 21 21 22 22 23 23
REMARK SMILES IDX 24 24
REMARK H PARENT
REMARK Flexibility Score: inf
ROOT
ATOM      1  C   UNL     1      -8.831  17.133  -2.211  1.00  0.00     0.000 C 
ENDROOT
BRANCH   1   2
ATOM      2  C   UNL     1      -9.709  16.780  -0.998  1.00  0.00     0.000 C 
BRANCH   2   3
ATOM      3  C   UNL     1     -10.864  15.836  -1.367  1.00  0.00     0.000 C 
BRANCH   3   4
ATOM      4  C   UNL     1     -10.867  14.549  -0.524  1.00  0.00    -0.000 C 
BRANCH   4   5
ATOM      5  C   UNL     1     -10.892  13.281  -1.394  1.00  0.00    -0.000 C 
BRANCH   5   6
ATOM      6  C   UNL     1     -11.313  13.579  -2.842  1.00  0.00    -0.000 C 
BRANCH   6   7
ATOM      7  C   UNL     1     -10.574  12.701  -3.864  1.00  0.00    -0.000 C 
BRANCH   7   8
ATOM      8  C   UNL     1     -10.876  13.108  -5.315  1.00  0.00    -0.000 C 
BRANCH   8   9
ATOM      9  C   UNL     1      -9.769  14.017  -5.869  1.00  0.00    -0.000 C 
BRANCH   9  10
ATOM     10  C   UNL     1      -8.383  13.344  -5.879  1.00  0.00    -0.000 C 
BRANCH  10  11
ATOM     11  C   UNL     1      -7.207  14.286  -6.199  1.00  0.00    -0.003 C 
ATOM     12  C   UNL     1      -5.844  13.671  -5.887  1.00  0.00     0.004 C 
ENDBRANCH  10  11
ENDBRANCH   9  10
ENDBRANCH   8   9
ENDBRANCH   7   8
ENDBRANCH   6   7
ENDBRANCH   5   6
ENDBRANCH   4   5
ENDBRANCH   3   4
ENDBRANCH   2   3
ENDBRANCH   1   2
BRANCH   1  13
ATOM     13  C   UNL     1      -8.412  15.892  -3.014  1.00  0.00     0.000 C 
BRANCH  13  14
ATOM     14  C   UNL     1      -7.162  15.211  -2.427  1.00  0.00     0.000 C 
BRANCH  14  15
ATOM     15  C   UNL     1      -7.314  13.684  -2.329  1.00  0.00     0.000 C 
BRANCH  15  16
ATOM     16  C   UNL     1      -7.013  13.150  -0.916  1.00  0.00     0.000 C 
BRANCH  16  17
ATOM     17  C   UNL     1      -7.369  14.160   0.192  1.00  0.00     0.000 C 
BRANCH  17  18
ATOM     18  C   UNL     1      -6.186  14.575   1.088  1.00  0.00     0.000 C 
BRANCH  18  19
ATOM     19  C   UNL     1      -5.769  16.053   0.971  1.00  0.00     0.000 C 
BRANCH  19  20
ATOM     20  C   UNL     1      -6.823  17.045   1.509  1.00  0.00     0.006 C 
BRANCH  20  21
ATOM     21  C   UNL     1      -6.462  17.572   2.905  1.00  0.00     0.053 C 
BRANCH  21  22
ATOM     22  C   UNL     1      -7.579  18.389   3.477  1.00  0.00     0.041 C 
ATOM     23  O   UNL     1      -8.773  18.003   3.354  1.00  0.00    -0.550 OA
ATOM     24  O   UNL     1      -7.310  19.601   4.100  1.00  0.00    -0.550 OA
ENDBRANCH  21  22
ENDBRANCH  20  21
ENDBRANCH  19  20
ENDBRANCH  18  19
ENDBRANCH  17  18
ENDBRANCH  16  17
ENDBRANCH  15  16
ENDBRANCH  14  15
ENDBRANCH  13  14
ENDBRANCH   1  13
TORSDOF 20
ENDMDL
MODEL 9
REMARK VINA RESULT:    -4.048      1.289      2.481
REMARK INTER + INTRA:         -11.999
REMARK INTER:                  -8.364
REMARK INTRA:                  -3.635
REMARK UNBOUND:                -3.218
REMARK SMILES CCCCCCCCCCCCCCCCCCCCCC(=O)[O-]
REMARK SMILES IDX 12 1 11 2 10 3 9 4 8 5 7 6 6 7 5 8 4 9 3 10 2 11 1 12 13 13
REMARK SMILES IDX 14 14 15 15 16 16 17 17 18 18 19 19 20 20 21 21 22 22 23 23
REMARK SMILES IDX 24 24
REMARK H PARENT
REMARK Flexibility Score: inf
ROOT
ATOM      1  C   UNL     1     -10.082  16.767  -1.198  1.00  0.00     0.000 C 
ENDROOT
BRANCH   1   2
ATOM      2  C   UNL     1      -8.765  17.077  -1.929  1.00  0.00     0.000 C 
BRANCH   2   3
ATOM      3  C   UNL     1      -8.670  16.369  -3.289  1.00  0.00     0.000 C 
BRANCH   3   4
ATOM      4  C   UNL     1      -8.385  14.863  -3.152  1.00  0.00    -0.000 C 
BRANCH   4   5
ATOM      5  C   UNL     1      -9.554  13.999  -3.656  1.00  0.00    -0.000 C 
BRANCH   5   6
ATOM      6  C   UNL     1      -9.069  12.724  -4.363  1.00  0.00    -0.000 C 
BRANCH   6   7
ATOM      7  C   UNL     1      -7.537  12.623  -4.415  1.00  0.00    -0.000 C 
BRANCH   7   8
ATOM      8  C   UNL     1      -7.001  12.536  -5.852  1.00  0.00    -0.000 C 
BRANCH   8   9
ATOM      9  C   UNL     1      -6.291  13.839  -6.250  1.00  0.00    -0.000 C 
BRANCH   9  10
ATOM     10  C   UNL     1      -7.266  14.947  -6.692  1.00  0.00    -0.000 C 
BRANCH  10  11
ATOM     11  C   UNL     1      -8.147  14.589  -7.904  1.00  0.00    -0.003 C 
ATOM     12  C   UNL     1      -9.640  14.606  -7.585  1.00  0.00     0.004 C 
ENDBRANCH  10  11
ENDBRANCH   9  10
ENDBRANCH   8   9
ENDBRANCH   7   8
ENDBRANCH   6   7
ENDBRANCH   5   6
ENDBRANCH   4   5
ENDBRANCH   3   4
ENDBRANCH   2   3
ENDBRANCH   1   2
BRANCH   1  13
ATOM     13  C   UNL     1      -9.950  16.885   0.328  1.00  0.00     0.000 C 
BRANCH  13  14
ATOM     14  C   UNL     1      -9.935  15.511   1.022  1.00  0.00     0.000 C 
BRANCH  14  15
ATOM     15  C   UNL     1     -10.222  14.355   0.049  1.00  0.00     0.000 C 
BRANCH  15  16
ATOM     16  C   UNL     1      -9.084  13.319   0.009  1.00  0.00     0.000 C 
BRANCH  16  17
ATOM     17  C   UNL     1      -8.191  13.364   1.264  1.00  0.00     0.000 C 
BRANCH  17  18
ATOM     18  C   UNL     1      -6.703  13.646   0.984  1.00  0.00     0.000 C 
BRANCH  18  19
ATOM     19  C   UNL     1      -6.423  14.936   0.190  1.00  0.00     0.000 C 
BRANCH  19  20
ATOM     20  C   UNL     1      -5.660  16.011   0.992  1.00  0.00     0.006 C 
BRANCH  20  21
ATOM     21  C   UNL     1      -6.588  17.124   1.499  1.00  0.00     0.053 C 
BRANCH  21  22
ATOM     22  C   UNL     1      -6.639  17.143   2.995  1.00  0.00     0.041 C 
ATOM     23  O   UNL     1      -6.210  18.144   3.631  1.00  0.00    -0.550 OA
ATOM     24  O   UNL     1      -7.111  16.038   3.692  1.00  0.00    -0.550 OA
ENDBRANCH  21  22
ENDBRANCH  20  21
ENDBRANCH  19  20
ENDBRANCH  18  19
ENDBRANCH  17  18
ENDBRANCH  16  17
ENDBRANCH  15  16
ENDBRANCH  14  15
ENDBRANCH  13  14
ENDBRANCH   1  13
TORSDOF 20
ENDMDL
