MODEL 1
REMARK VINA RESULT:    -3.599      0.000      0.000
REMARK INTER + INTRA:          -5.658
REMARK INTER:                  -5.283
REMARK INTRA:                  -0.375
REMARK UNBOUND:                -0.375
REMARK SMILES CCCCCCCCCC=O
REMARK SMILES IDX 6 1 5 2 4 3 3 4 2 5 1 6 7 7 8 8 9 9 10 10 11 11
REMARK H PARENT
REMARK Flexibility Score: inf
ROOT
ATOM      1  C   UNL     1     164.848 168.133 168.255  1.00  0.00     0.000 C 
ENDROOT
BRANCH   1   2
ATOM      2  C   UNL     1     165.137 167.634 166.829  1.00  0.00     0.000 C 
BRANCH   2   3
ATOM      3  C   UNL     1     165.476 166.133 166.778  1.00  0.00    -0.000 C 
BRANCH   3   4
ATOM      4  C   UNL     1     166.981 165.801 166.723  1.00  0.00    -0.000 C 
BRANCH   4   5
ATOM      5  C   UNL     1     167.764 166.111 168.011  1.00  0.00    -0.003 C 
ATOM      6  C   UNL     1     169.204 166.546 167.741  1.00  0.00     0.004 C 
ENDBRANCH   4   5
ENDBRANCH   3   4
ENDBRANCH   2   3
ENDBRANCH   1   2
BRANCH   1   7
ATOM      7  C   UNL     1     164.453 169.619 168.289  1.00  0.00     0.000 C 
BRANCH   7   8
ATOM      8  C   UNL     1     164.513 170.280 166.901  1.00  0.00     0.008 C 
BRANCH   8   9
ATOM      9  C   UNL     1     164.939 171.753 166.982  1.00  0.00     0.072 C 
BRANCH   9  10
ATOM     10  C   UNL     1     164.656 172.356 168.327  1.00  0.00     0.224 C 
ATOM     11  O   UNL     1     165.495 173.058 168.868  1.00  0.00    -0.303 OA
ENDBRANCH   9  10
ENDBRANCH   8   9
ENDBRANCH   7   8
ENDBRANCH   1   7
TORSDOF 8
ENDMDL
MODEL 2
REMARK VINA RESULT:    -3.589      4.860      6.025
REMARK INTER + INTRA:          -5.643
REMARK INTER:                  -5.312
REMARK INTRA:                  -0.331
REMARK UNBOUND:                -0.375
REMARK SMILES CCCCCCCCCC=O
REMARK SMILES IDX 6 1 5 2 4 3 3 4 2 5 1 6 7 7 8 8 9 9 10 10 11 11
REMARK H PARENT
REMARK Flexibility Score: inf
ROOT
ATOM      1  C   UNL     1     163.068 164.912 167.368  1.00  0.00     0.000 C 
ENDROOT
BRANCH   1   2
ATOM      2  C   UNL     1     163.990 165.356 168.517  1.00  0.00     0.000 C 
BRANCH   2   3
ATOM      3  C   UNL     1     164.750 166.658 168.204  1.00  0.00    -0.000 C 
BRANCH   3   4
ATOM      4  C   UNL     1     165.395 166.723 166.806  1.00  0.00    -0.000 C 
BRANCH   4   5
ATOM      5  C   UNL     1     166.780 166.059 166.696  1.00  0.00    -0.003 C 
ATOM      6  C   UNL     1     167.598 166.173 167.983  1.00  0.00     0.004 C 
ENDBRANCH   4   5
ENDBRANCH   3   4
ENDBRANCH   2   3
ENDBRANCH   1   2
BRANCH   1   7
ATOM      7  C   UNL     1     161.654 164.554 167.855  1.00  0.00     0.000 C 
BRANCH   7   8
ATOM      8  C   UNL     1     160.645 164.422 166.700  1.00  0.00     0.008 C 
BRANCH   8   9
ATOM      9  C   UNL     1     159.275 165.013 167.061  1.00  0.00     0.072 C 
BRANCH   9  10
ATOM     10  C   UNL     1     158.902 164.754 168.493  1.00  0.00     0.224 C 
ATOM     11  O   UNL     1     158.084 165.471 169.047  1.00  0.00    -0.303 OA
ENDBRANCH   9  10
ENDBRANCH   8   9
ENDBRANCH   7   8
ENDBRANCH   1   7
TORSDOF 8
ENDMDL
MODEL 3
REMARK VINA RESULT:    -3.548      4.216      6.397
REMARK INTER + INTRA:          -5.582
REMARK INTER:                  -5.245
REMARK INTRA:                  -0.337
REMARK UNBOUND:                -0.375
REMARK SMILES CCCCCCCCCC=O
REMARK SMILES IDX 6 1 5 2 4 3 3 4 2 5 1 6 7 7 8 8 9 9 10 10 11 11
REMARK H PARENT
REMARK Flexibility Score: inf
ROOT
ATOM      1  C   UNL     1     168.221 166.212 167.254  1.00  0.00     0.000 C 
ENDROOT
BRANCH   1   2
ATOM      2  C   UNL     1     167.207 165.967 168.385  1.00  0.00     0.000 C 
BRANCH   2   3
ATOM      3  C   UNL     1     165.970 166.879 168.286  1.00  0.00    -0.000 C 
BRANCH   3   4
ATOM      4  C   UNL     1     165.219 166.824 166.941  1.00  0.00    -0.000 C 
BRANCH   4   5
ATOM      5  C   UNL     1     164.485 165.501 166.659  1.00  0.00    -0.003 C 
ATOM      6  C   UNL     1     163.577 165.067 167.810  1.00  0.00     0.004 C 
ENDBRANCH   4   5
ENDBRANCH   3   4
ENDBRANCH   2   3
ENDBRANCH   1   2
BRANCH   1   7
ATOM      7  C   UNL     1     169.596 166.654 167.783  1.00  0.00     0.000 C 
BRANCH   7   8
ATOM      8  C   UNL     1     170.668 166.702 166.680  1.00  0.00     0.008 C 
BRANCH   8   9
ATOM      9  C   UNL     1     172.048 166.270 167.197  1.00  0.00     0.072 C 
BRANCH   9  10
ATOM     10  C   UNL     1     172.108 166.232 168.697  1.00  0.00     0.224 C 
ATOM     11  O   UNL     1     173.118 165.834 169.254  1.00  0.00    -0.303 OA
ENDBRANCH   9  10
ENDBRANCH   8   9
ENDBRANCH   7   8
ENDBRANCH   1   7
TORSDOF 8
ENDMDL
MODEL 4
REMARK VINA RESULT:    -3.536      4.863      6.212
REMARK INTER + INTRA:          -5.564
REMARK INTER:                  -5.106
REMARK INTRA:                  -0.458
REMARK UNBOUND:                -0.375
REMARK SMILES CCCCCCCCCC=O
REMARK SMILES IDX 6 1 5 2 4 3 3 4 2 5 1 6 7 7 8 8 9 9 10 10 11 11
REMARK H PARENT
REMARK Flexibility Score: inf
ROOT
ATOM      1  C   UNL     1     163.038 164.852 168.145  1.00  0.00     0.000 C 
ENDROOT
BRANCH   1   2
ATOM      2  C   UNL     1     163.475 165.181 166.707  1.00  0.00     0.000 C 
BRANCH   2   3
ATOM      3  C   UNL     1     164.995 165.386 166.576  1.00  0.00    -0.000 C 
BRANCH   3   4
ATOM      4  C   UNL     1     165.630 166.297 167.645  1.00  0.00    -0.000 C 
BRANCH   4   5
ATOM      5  C   UNL     1     165.080 167.734 167.684  1.00  0.00    -0.003 C 
ATOM      6  C   UNL     1     164.796 168.224 169.105  1.00  0.00     0.004 C 
ENDBRANCH   4   5
ENDBRANCH   3   4
ENDBRANCH   2   3
ENDBRANCH   1   2
BRANCH   1   7
ATOM      7  C   UNL     1     161.547 164.488 168.237  1.00  0.00     0.000 C 
BRANCH   7   8
ATOM      8  C   UNL     1     160.849 164.491 166.865  1.00  0.00     0.008 C 
BRANCH   8   9
ATOM      9  C   UNL     1     159.386 164.948 166.963  1.00  0.00     0.072 C 
BRANCH   9  10
ATOM     10  C   UNL     1     158.782 164.640 168.302  1.00  0.00     0.224 C 
ATOM     11  O   UNL     1     158.159 165.502 168.901  1.00  0.00    -0.303 OA
ENDBRANCH   9  10
ENDBRANCH   8   9
ENDBRANCH   7   8
ENDBRANCH   1   7
TORSDOF 8
ENDMDL
MODEL 5
REMARK VINA RESULT:    -3.530      5.968      8.589
REMARK INTER + INTRA:          -5.557
REMARK INTER:                  -5.131
REMARK INTRA:                  -0.426
REMARK UNBOUND:                -0.375
REMARK SMILES CCCCCCCCCC=O
REMARK SMILES IDX 6 1 5 2 4 3 3 4 2 5 1 6 7 7 8 8 9 9 10 10 11 11
REMARK H PARENT
REMARK Flexibility Score: inf
ROOT
ATOM      1  C   UNL     1     166.412 162.950 168.330  1.00  0.00     0.000 C 
ENDROOT
BRANCH   1   2
ATOM      2  C   UNL     1     166.126 163.402 166.888  1.00  0.00     0.000 C 
BRANCH   2   3
ATOM      3  C   UNL     1     166.112 164.933 166.732  1.00  0.00    -0.000 C 
BRANCH   3   4
ATOM      4  C   UNL     1     166.970 165.706 167.753  1.00  0.00    -0.000 C 
BRANCH   4   5
ATOM      5  C   UNL     1     166.222 166.801 168.535  1.00  0.00    -0.003 C 
ATOM      6  C   UNL     1     165.144 167.495 167.704  1.00  0.00     0.004 C 
ENDBRANCH   4   5
ENDBRANCH   3   4
ENDBRANCH   2   3
ENDBRANCH   1   2
BRANCH   1   7
ATOM      7  C   UNL     1     166.747 161.452 168.422  1.00  0.00     0.000 C 
BRANCH   7   8
ATOM      8  C   UNL     1     166.821 160.776 167.042  1.00  0.00     0.008 C 
BRANCH   8   9
ATOM      9  C   UNL     1     166.140 159.399 167.037  1.00  0.00     0.072 C 
BRANCH   9  10
ATOM     10  C   UNL     1     166.547 158.558 168.212  1.00  0.00     0.224 C 
ATOM     11  O   UNL     1     165.694 158.088 168.947  1.00  0.00    -0.303 OA
ENDBRANCH   9  10
ENDBRANCH   8   9
ENDBRANCH   7   8
ENDBRANCH   1   7
TORSDOF 8
ENDMDL
MODEL 6
REMARK VINA RESULT:    -3.450      1.724      2.624
REMARK INTER + INTRA:          -5.439
REMARK INTER:                  -4.953
REMARK INTRA:                  -0.486
REMARK UNBOUND:                -0.375
REMARK SMILES CCCCCCCCCC=O
REMARK SMILES IDX 6 1 5 2 4 3 3 4 2 5 1 6 7 7 8 8 9 9 10 10 11 11
REMARK H PARENT
REMARK Flexibility Score: inf
ROOT
ATOM      1  C   UNL     1     164.582 168.812 168.364  1.00  0.00     0.000 C 
ENDROOT
BRANCH   1   2
ATOM      2  C   UNL     1     165.322 167.471 168.215  1.00  0.00     0.000 C 
BRANCH   2   3
ATOM      3  C   UNL     1     165.366 166.972 166.759  1.00  0.00    -0.000 C 
BRANCH   3   4
ATOM      4  C   UNL     1     164.618 165.650 166.495  1.00  0.00    -0.000 C 
BRANCH   4   5
ATOM      5  C   UNL     1     164.242 164.852 167.757  1.00  0.00    -0.003 C 
ATOM      6  C   UNL     1     162.735 164.823 168.015  1.00  0.00     0.004 C 
ENDBRANCH   4   5
ENDBRANCH   3   4
ENDBRANCH   2   3
ENDBRANCH   1   2
BRANCH   1   7
ATOM      7  C   UNL     1     164.615 169.648 167.074  1.00  0.00     0.000 C 
BRANCH   7   8
ATOM      8  C   UNL     1     164.204 171.113 167.306  1.00  0.00     0.008 C 
BRANCH   8   9
ATOM      9  C   UNL     1     163.953 171.413 168.791  1.00  0.00     0.072 C 
BRANCH   9  10
ATOM     10  C   UNL     1     164.711 172.619 169.265  1.00  0.00     0.224 C 
ATOM     11  O   UNL     1     165.573 173.113 168.555  1.00  0.00    -0.303 OA
ENDBRANCH   9  10
ENDBRANCH   8   9
ENDBRANCH   7   8
ENDBRANCH   1   7
TORSDOF 8
ENDMDL
MODEL 7
REMARK VINA RESULT:    -3.439      4.551      6.197
REMARK INTER + INTRA:          -5.423
REMARK INTER:                  -4.956
REMARK INTRA:                  -0.467
REMARK UNBOUND:                -0.375
REMARK SMILES CCCCCCCCCC=O
REMARK SMILES IDX 6 1 5 2 4 3 3 4 2 5 1 6 7 7 8 8 9 9 10 10 11 11
REMARK H PARENT
REMARK Flexibility Score: inf
ROOT
ATOM      1  C   UNL     1     168.257 166.343 168.376  1.00  0.00     0.000 C 
ENDROOT
BRANCH   1   2
ATOM      2  C   UNL     1     166.773 166.586 168.049  1.00  0.00     0.000 C 
BRANCH   2   3
ATOM      3  C   UNL     1     166.400 166.161 166.617  1.00  0.00    -0.000 C 
BRANCH   3   4
ATOM      4  C   UNL     1     165.985 164.685 166.458  1.00  0.00    -0.000 C 
BRANCH   4   5
ATOM      5  C   UNL     1     165.499 164.002 167.749  1.00  0.00    -0.003 C 
ATOM      6  C   UNL     1     166.408 162.856 168.194  1.00  0.00     0.004 C 
ENDBRANCH   4   5
ENDBRANCH   3   4
ENDBRANCH   2   3
ENDBRANCH   1   2
BRANCH   1   7
ATOM      7  C   UNL     1     169.149 166.382 167.124  1.00  0.00     0.000 C 
BRANCH   7   8
ATOM      8  C   UNL     1     170.468 167.139 167.358  1.00  0.00     0.008 C 
BRANCH   8   9
ATOM      9  C   UNL     1     171.695 166.257 167.087  1.00  0.00     0.072 C 
BRANCH   9  10
ATOM     10  C   UNL     1     172.802 166.503 168.071  1.00  0.00     0.224 C 
ATOM     11  O   UNL     1     173.061 165.662 168.917  1.00  0.00    -0.303 OA
ENDBRANCH   9  10
ENDBRANCH   8   9
ENDBRANCH   7   8
ENDBRANCH   1   7
TORSDOF 8
ENDMDL
MODEL 8
REMARK VINA RESULT:    -3.346      3.776      6.131
REMARK INTER + INTRA:          -5.286
REMARK INTER:                  -4.808
REMARK INTRA:                  -0.478
REMARK UNBOUND:                -0.375
REMARK SMILES CCCCCCCCCC=O
REMARK SMILES IDX 6 1 5 2 4 3 3 4 2 5 1 6 7 7 8 8 9 9 10 10 11 11
REMARK H PARENT
REMARK Flexibility Score: inf
ROOT
ATOM      1  C   UNL     1     168.504 166.321 167.545  1.00  0.00     0.000 C 
ENDROOT
BRANCH   1   2
ATOM      2  C   UNL     1     167.186 165.529 167.496  1.00  0.00     0.000 C 
BRANCH   2   3
ATOM      3  C   UNL     1     166.140 166.167 166.564  1.00  0.00    -0.000 C 
BRANCH   3   4
ATOM      4  C   UNL     1     164.851 166.652 167.256  1.00  0.00    -0.000 C 
BRANCH   4   5
ATOM      5  C   UNL     1     164.962 168.018 167.956  1.00  0.00    -0.003 C 
ATOM      6  C   UNL     1     164.939 167.910 169.481  1.00  0.00     0.004 C 
ENDBRANCH   4   5
ENDBRANCH   3   4
ENDBRANCH   2   3
ENDBRANCH   1   2
BRANCH   1   7
ATOM      7  C   UNL     1     168.928 166.667 168.982  1.00  0.00     0.000 C 
BRANCH   7   8
ATOM      8  C   UNL     1     170.452 166.823 169.130  1.00  0.00     0.008 C 
BRANCH   8   9
ATOM      9  C   UNL     1     171.129 167.167 167.796  1.00  0.00     0.072 C 
BRANCH   9  10
ATOM     10  C   UNL     1     172.162 166.151 167.402  1.00  0.00     0.224 C 
ATOM     11  O   UNL     1     172.973 165.759 168.224  1.00  0.00    -0.303 OA
ENDBRANCH   9  10
ENDBRANCH   8   9
ENDBRANCH   7   8
ENDBRANCH   1   7
TORSDOF 8
ENDMDL
MODEL 9
REMARK VINA RESULT:    -3.336      6.048      8.834
REMARK INTER + INTRA:          -5.271
REMARK INTER:                  -4.948
REMARK INTRA:                  -0.323
REMARK UNBOUND:                -0.375
REMARK SMILES CCCCCCCCCC=O
REMARK SMILES IDX 6 1 5 2 4 3 3 4 2 5 1 6 7 7 8 8 9 9 10 10 11 11
REMARK H PARENT
REMARK Flexibility Score: inf
ROOT
ATOM      1  C   UNL     1     166.386 163.318 168.437  1.00  0.00     0.000 C 
ENDROOT
BRANCH   1   2
ATOM      2  C   UNL     1     166.381 164.632 167.637  1.00  0.00     0.000 C 
BRANCH   2   3
ATOM      3  C   UNL     1     165.044 164.887 166.917  1.00  0.00    -0.000 C 
BRANCH   3   4
ATOM      4  C   UNL     1     164.018 165.718 167.711  1.00  0.00    -0.000 C 
BRANCH   4   5
ATOM      5  C   UNL     1     163.037 164.896 168.566  1.00  0.00    -0.003 C 
ATOM      6  C   UNL     1     161.740 164.563 167.829  1.00  0.00     0.004 C 
ENDBRANCH   4   5
ENDBRANCH   3   4
ENDBRANCH   2   3
ENDBRANCH   1   2
BRANCH   1   7
ATOM      7  C   UNL     1     166.404 162.077 167.529  1.00  0.00     0.000 C 
BRANCH   7   8
ATOM      8  C   UNL     1     166.770 160.790 168.290  1.00  0.00     0.008 C 
BRANCH   8   9
ATOM      9  C   UNL     1     167.077 159.625 167.339  1.00  0.00     0.072 C 
BRANCH   9  10
ATOM     10  C   UNL     1     166.074 158.514 167.456  1.00  0.00     0.224 C 
ATOM     11  O   UNL     1     165.674 158.170 168.556  1.00  0.00    -0.303 OA
ENDBRANCH   9  10
ENDBRANCH   8   9
ENDBRANCH   7   8
ENDBRANCH   1   7
TORSDOF 8
ENDMDL
