MODEL 1
REMARK VINA RESULT:    -5.240      0.000      0.000
REMARK INTER + INTRA:          -5.963
REMARK INTER:                  -5.546
REMARK INTRA:                  -0.416
REMARK UNBOUND:                -0.416
REMARK SMILES CC1=CC[C@@H]2[C@H]3[C@H](C(C)C)CC[C@]2(C)[C@@H]13
REMARK SMILES IDX 1 1 2 2 3 3 4 4 5 5 6 6 15 7 13 8 12 9 11 10 7 11 14 12 8 13
REMARK SMILES IDX 9 14 10 15
REMARK H PARENT
REMARK Flexibility Score: inf
ROOT
ATOM      1  C   UNL     1     139.984 142.080 131.052  1.00  0.00     0.039 C 
ATOM      2  C   UNL     1     141.321 142.694 131.342  1.00  0.00    -0.073 C 
ATOM      3  C   UNL     1     141.919 143.532 130.455  1.00  0.00    -0.027 C 
ATOM      4  C   UNL     1     143.277 144.142 130.813  1.00  0.00     0.031 C 
ATOM      5  C   UNL     1     143.759 143.620 132.207  1.00  0.00     0.003 C 
ATOM      6  C   UNL     1     143.549 142.087 132.228  1.00  0.00     0.004 C 
ATOM      7  C   UNL     1     142.083 142.390 132.635  1.00  0.00     0.024 C 
ATOM      8  C   UNL     1     142.629 143.695 133.263  1.00  0.00    -0.022 C 
ATOM      9  C   UNL     1     143.233 143.414 134.674  1.00  0.00     0.008 C 
ATOM     10  C   UNL     1     143.875 142.005 134.777  1.00  0.00     0.005 C 
ATOM     11  C   UNL     1     144.373 141.469 133.400  1.00  0.00    -0.005 C 
ATOM     12  C   UNL     1     141.720 144.947 133.290  1.00  0.00     0.012 C 
ENDROOT
BRANCH  11  13
ATOM     13  C   UNL     1     144.449 139.911 133.366  1.00  0.00    -0.014 C 
ATOM     14  C   UNL     1     143.623 139.223 134.467  1.00  0.00     0.007 C 
ATOM     15  C   UNL     1     144.043 139.360 131.989  1.00  0.00     0.007 C 
ENDBRANCH  11  13
TORSDOF 1
ENDMDL
MODEL 2
REMARK VINA RESULT:    -5.232      2.389      4.278
REMARK INTER + INTRA:          -5.954
REMARK INTER:                  -5.541
REMARK INTRA:                  -0.413
REMARK UNBOUND:                -0.416
REMARK SMILES CC1=CC[C@@H]2[C@H]3[C@H](C(C)C)CC[C@]2(C)[C@@H]13
REMARK SMILES IDX 1 1 2 2 3 3 4 4 5 5 6 6 15 7 13 8 12 9 11 10 7 11 14 12 8 13
REMARK SMILES IDX 9 14 10 15
REMARK H PARENT
REMARK Flexibility Score: inf
ROOT
ATOM      1  C   UNL     1     140.093 140.023 130.988  1.00  0.00     0.039 C 
ATOM      2  C   UNL     1     139.479 141.356 131.294  1.00  0.00    -0.073 C 
ATOM      3  C   UNL     1     138.637 141.963 130.416  1.00  0.00    -0.027 C 
ATOM      4  C   UNL     1     138.027 143.317 130.791  1.00  0.00     0.031 C 
ATOM      5  C   UNL     1     138.553 143.784 132.188  1.00  0.00     0.003 C 
ATOM      6  C   UNL     1     140.087 143.576 132.201  1.00  0.00     0.004 C 
ATOM      7  C   UNL     1     139.787 142.105 132.594  1.00  0.00     0.024 C 
ATOM      8  C   UNL     1     138.483 142.643 133.232  1.00  0.00    -0.022 C 
ATOM      9  C   UNL     1     138.769 143.232 134.648  1.00  0.00     0.008 C 
ATOM     10  C   UNL     1     140.178 143.874 134.753  1.00  0.00     0.005 C 
ATOM     11  C   UNL     1     140.709 144.388 133.380  1.00  0.00    -0.005 C 
ATOM     12  C   UNL     1     137.233 141.733 133.254  1.00  0.00     0.012 C 
ENDROOT
BRANCH  11  13
ATOM     13  C   UNL     1     142.266 144.466 133.341  1.00  0.00    -0.014 C 
ATOM     14  C   UNL     1     142.958 143.655 134.452  1.00  0.00     0.007 C 
ATOM     15  C   UNL     1     142.814 144.043 131.968  1.00  0.00     0.007 C 
ENDBRANCH  11  13
TORSDOF 1
ENDMDL
MODEL 3
REMARK VINA RESULT:    -5.223      3.608      6.023
REMARK INTER + INTRA:          -5.945
REMARK INTER:                  -5.534
REMARK INTRA:                  -0.410
REMARK UNBOUND:                -0.416
REMARK SMILES CC1=CC[C@@H]2[C@H]3[C@H](C(C)C)CC[C@]2(C)[C@@H]13
REMARK SMILES IDX 1 1 2 2 3 3 4 4 5 5 6 6 15 7 13 8 12 9 11 10 7 11 14 12 8 13
REMARK SMILES IDX 9 14 10 15
REMARK H PARENT
REMARK Flexibility Score: inf
ROOT
ATOM      1  C   UNL     1     142.126 140.228 131.063  1.00  0.00     0.039 C 
ATOM      2  C   UNL     1     140.817 139.573 131.387  1.00  0.00    -0.073 C 
ATOM      3  C   UNL     1     140.203 138.747 130.499  1.00  0.00    -0.027 C 
ATOM      4  C   UNL     1     138.875 138.093 130.894  1.00  0.00     0.031 C 
ATOM      5  C   UNL     1     138.440 138.560 132.321  1.00  0.00     0.003 C 
ATOM      6  C   UNL     1     138.613 140.097 132.381  1.00  0.00     0.004 C 
ATOM      7  C   UNL     1     140.102 139.819 132.718  1.00  0.00     0.024 C 
ATOM      8  C   UNL     1     139.613 138.482 133.328  1.00  0.00    -0.022 C 
ATOM      9  C   UNL     1     139.061 138.706 134.769  1.00  0.00     0.008 C 
ATOM     10  C   UNL     1     138.391 140.095 134.942  1.00  0.00     0.005 C 
ATOM     11  C   UNL     1     137.824 140.660 133.604  1.00  0.00    -0.005 C 
ATOM     12  C   UNL     1     140.552 137.253 133.279  1.00  0.00     0.012 C 
ENDROOT
BRANCH  11  13
ATOM     13  C   UNL     1     137.710 142.215 133.621  1.00  0.00    -0.014 C 
ATOM     14  C   UNL     1     138.526 142.887 134.740  1.00  0.00     0.007 C 
ATOM     15  C   UNL     1     138.093 142.820 132.261  1.00  0.00     0.007 C 
ENDBRANCH  11  13
TORSDOF 1
ENDMDL
MODEL 4
REMARK VINA RESULT:    -5.195      3.677      5.323
REMARK INTER + INTRA:          -5.915
REMARK INTER:                  -5.671
REMARK INTRA:                  -0.244
REMARK UNBOUND:                -0.416
REMARK SMILES CC1=CC[C@@H]2[C@H]3[C@H](C(C)C)CC[C@]2(C)[C@@H]13
REMARK SMILES IDX 1 1 2 2 3 3 4 4 5 5 6 6 15 7 13 8 12 9 11 10 7 11 14 12 8 13
REMARK SMILES IDX 9 14 10 15
REMARK H PARENT
REMARK Flexibility Score: inf
ROOT
ATOM      1  C   UNL     1     139.511 138.551 134.923  1.00  0.00     0.039 C 
ATOM      2  C   UNL     1     138.896 139.879 134.593  1.00  0.00    -0.073 C 
ATOM      3  C   UNL     1     137.822 139.972 133.766  1.00  0.00    -0.027 C 
ATOM      4  C   UNL     1     137.227 141.354 133.480  1.00  0.00     0.031 C 
ATOM      5  C   UNL     1     138.047 142.464 134.215  1.00  0.00     0.003 C 
ATOM      6  C   UNL     1     139.547 142.180 133.961  1.00  0.00     0.004 C 
ATOM      7  C   UNL     1     139.461 141.188 135.151  1.00  0.00     0.024 C 
ATOM      8  C   UNL     1     138.320 142.085 135.691  1.00  0.00    -0.022 C 
ATOM      9  C   UNL     1     138.903 143.326 136.434  1.00  0.00     0.008 C 
ATOM     10  C   UNL     1     140.244 143.812 135.822  1.00  0.00     0.005 C 
ATOM     11  C   UNL     1     140.380 143.452 134.311  1.00  0.00    -0.005 C 
ATOM     12  C   UNL     1     137.183 141.431 136.512  1.00  0.00     0.012 C 
ENDROOT
BRANCH  11  13
ATOM     13  C   UNL     1     141.869 143.377 133.853  1.00  0.00    -0.014 C 
ATOM     14  C   UNL     1     142.219 144.347 132.710  1.00  0.00     0.007 C 
ATOM     15  C   UNL     1     142.830 143.595 135.033  1.00  0.00     0.007 C 
ENDBRANCH  11  13
TORSDOF 1
ENDMDL
MODEL 5
REMARK VINA RESULT:    -5.183      2.593      4.560
REMARK INTER + INTRA:          -5.903
REMARK INTER:                  -5.661
REMARK INTRA:                  -0.241
REMARK UNBOUND:                -0.416
REMARK SMILES CC1=CC[C@@H]2[C@H]3[C@H](C(C)C)CC[C@]2(C)[C@@H]13
REMARK SMILES IDX 1 1 2 2 3 3 4 4 5 5 6 6 15 7 13 8 12 9 11 10 7 11 14 12 8 13
REMARK SMILES IDX 9 14 10 15
REMARK H PARENT
REMARK Flexibility Score: inf
ROOT
ATOM      1  C   UNL     1     142.806 143.624 135.040  1.00  0.00     0.039 C 
ATOM      2  C   UNL     1     143.371 142.278 134.697  1.00  0.00    -0.073 C 
ATOM      3  C   UNL     1     144.404 142.149 133.824  1.00  0.00    -0.027 C 
ATOM      4  C   UNL     1     144.950 140.750 133.525  1.00  0.00     0.031 C 
ATOM      5  C   UNL     1     144.136 139.669 134.308  1.00  0.00     0.003 C 
ATOM      6  C   UNL     1     142.633 139.989 134.119  1.00  0.00     0.004 C 
ATOM      7  C   UNL     1     142.798 140.990 135.294  1.00  0.00     0.024 C 
ATOM      8  C   UNL     1     143.939 140.068 135.791  1.00  0.00    -0.022 C 
ATOM      9  C   UNL     1     143.359 138.850 136.573  1.00  0.00     0.008 C 
ATOM     10  C   UNL     1     141.979 138.394 136.026  1.00  0.00     0.005 C 
ATOM     11  C   UNL     1     141.784 138.742 134.519  1.00  0.00    -0.005 C 
ATOM     12  C   UNL     1     145.129 140.699 136.553  1.00  0.00     0.012 C 
ENDROOT
BRANCH  11  13
ATOM     13  C   UNL     1     140.278 138.852 134.129  1.00  0.00    -0.014 C 
ATOM     14  C   UNL     1     139.864 137.919 132.976  1.00  0.00     0.007 C 
ATOM     15  C   UNL     1     139.366 138.617 135.343  1.00  0.00     0.007 C 
ENDBRANCH  11  13
TORSDOF 1
ENDMDL
MODEL 6
REMARK VINA RESULT:    -5.177      2.328      4.193
REMARK INTER + INTRA:          -5.896
REMARK INTER:                  -5.477
REMARK INTRA:                  -0.418
REMARK UNBOUND:                -0.416
REMARK SMILES CC1=CC[C@@H]2[C@H]3[C@H](C(C)C)CC[C@]2(C)[C@@H]13
REMARK SMILES IDX 1 1 2 2 3 3 4 4 5 5 6 6 15 7 13 8 12 9 11 10 7 11 14 12 8 13
REMARK SMILES IDX 9 14 10 15
REMARK H PARENT
REMARK Flexibility Score: inf
ROOT
ATOM      1  C   UNL     1     142.003 142.427 131.659  1.00  0.00     0.039 C 
ATOM      2  C   UNL     1     142.626 141.075 131.837  1.00  0.00    -0.073 C 
ATOM      3  C   UNL     1     143.426 140.537 130.879  1.00  0.00    -0.027 C 
ATOM      4  C   UNL     1     144.049 139.159 131.124  1.00  0.00     0.031 C 
ATOM      5  C   UNL     1     143.585 138.589 132.504  1.00  0.00     0.003 C 
ATOM      6  C   UNL     1     142.054 138.794 132.602  1.00  0.00     0.004 C 
ATOM      7  C   UNL     1     142.374 140.232 133.089  1.00  0.00     0.024 C 
ATOM      8  C   UNL     1     143.704 139.648 133.627  1.00  0.00    -0.022 C 
ATOM      9  C   UNL     1     143.481 138.954 135.006  1.00  0.00     0.008 C 
ATOM     10  C   UNL     1     142.076 138.305 135.125  1.00  0.00     0.005 C 
ATOM     11  C   UNL     1     141.483 137.896 133.743  1.00  0.00    -0.005 C 
ATOM     12  C   UNL     1     144.957 140.555 133.660  1.00  0.00     0.012 C 
ENDROOT
BRANCH  11  13
ATOM     13  C   UNL     1     139.925 137.820 133.768  1.00  0.00    -0.014 C 
ATOM     14  C   UNL     1     139.283 138.591 134.935  1.00  0.00     0.007 C 
ATOM     15  C   UNL     1     139.320 138.291 132.436  1.00  0.00     0.007 C 
ENDBRANCH  11  13
TORSDOF 1
ENDMDL
MODEL 7
REMARK VINA RESULT:    -5.169      3.925      6.522
REMARK INTER + INTRA:          -5.888
REMARK INTER:                  -5.635
REMARK INTRA:                  -0.253
REMARK UNBOUND:                -0.416
REMARK SMILES CC1=CC[C@@H]2[C@H]3[C@H](C(C)C)CC[C@]2(C)[C@@H]13
REMARK SMILES IDX 1 1 2 2 3 3 4 4 5 5 6 6 15 7 13 8 12 9 11 10 7 11 14 12 8 13
REMARK SMILES IDX 9 14 10 15
REMARK H PARENT
REMARK Flexibility Score: inf
ROOT
ATOM      1  C   UNL     1     143.577 139.623 135.210  1.00  0.00     0.039 C 
ATOM      2  C   UNL     1     142.292 138.941 134.846  1.00  0.00    -0.073 C 
ATOM      3  C   UNL     1     142.271 137.891 133.984  1.00  0.00    -0.027 C 
ATOM      4  C   UNL     1     140.930 137.224 133.663  1.00  0.00     0.031 C 
ATOM      5  C   UNL     1     139.766 137.951 134.414  1.00  0.00     0.003 C 
ATOM      6  C   UNL     1     139.961 139.473 134.212  1.00  0.00     0.004 C 
ATOM      7  C   UNL     1     140.947 139.407 135.408  1.00  0.00     0.024 C 
ATOM      8  C   UNL     1     140.116 138.197 135.901  1.00  0.00    -0.022 C 
ATOM      9  C   UNL     1     138.836 138.680 136.651  1.00  0.00     0.008 C 
ATOM     10  C   UNL     1     138.275 140.009 136.077  1.00  0.00     0.005 C 
ATOM     11  C   UNL     1     138.638 140.216 134.575  1.00  0.00    -0.005 C 
ATOM     12  C   UNL     1     140.829 137.075 136.692  1.00  0.00     0.012 C 
ENDROOT
BRANCH  11  13
ATOM     13  C   UNL     1     138.627 141.722 134.167  1.00  0.00    -0.014 C 
ATOM     14  C   UNL     1     137.521 142.086 133.161  1.00  0.00     0.007 C 
ATOM     15  C   UNL     1     138.533 142.635 135.400  1.00  0.00     0.007 C 
ENDBRANCH  11  13
TORSDOF 1
ENDMDL
MODEL 8
REMARK VINA RESULT:    -5.120      1.549      4.635
REMARK INTER + INTRA:          -5.836
REMARK INTER:                  -5.426
REMARK INTRA:                  -0.410
REMARK UNBOUND:                -0.416
REMARK SMILES CC1=CC[C@@H]2[C@H]3[C@H](C(C)C)CC[C@]2(C)[C@@H]13
REMARK SMILES IDX 1 1 2 2 3 3 4 4 5 5 6 6 15 7 13 8 12 9 11 10 7 11 14 12 8 13
REMARK SMILES IDX 9 14 10 15
REMARK H PARENT
REMARK Flexibility Score: inf
ROOT
ATOM      1  C   UNL     1     141.429 139.404 134.681  1.00  0.00     0.039 C 
ATOM      2  C   UNL     1     142.318 140.589 134.909  1.00  0.00    -0.073 C 
ATOM      3  C   UNL     1     142.994 140.749 136.078  1.00  0.00    -0.027 C 
ATOM      4  C   UNL     1     143.900 141.972 136.247  1.00  0.00     0.031 C 
ATOM      5  C   UNL     1     143.841 142.875 134.971  1.00  0.00     0.003 C 
ATOM      6  C   UNL     1     142.351 143.041 134.587  1.00  0.00     0.004 C 
ATOM      7  C   UNL     1     142.489 141.683 133.851  1.00  0.00     0.024 C 
ATOM      8  C   UNL     1     143.986 142.040 133.676  1.00  0.00    -0.022 C 
ATOM      9  C   UNL     1     144.181 143.006 132.467  1.00  0.00     0.008 C 
ATOM     10  C   UNL     1     142.977 143.966 132.271  1.00  0.00     0.005 C 
ATOM     11  C   UNL     1     142.203 144.239 133.597  1.00  0.00    -0.005 C 
ATOM     12  C   UNL     1     145.026 140.896 133.643  1.00  0.00     0.012 C 
ENDROOT
BRANCH  11  13
ATOM     13  C   UNL     1     140.725 144.667 133.340  1.00  0.00    -0.014 C 
ATOM     14  C   UNL     1     140.228 144.364 131.915  1.00  0.00     0.007 C 
ATOM     15  C   UNL     1     139.772 144.038 134.370  1.00  0.00     0.007 C 
ENDBRANCH  11  13
TORSDOF 1
ENDMDL
MODEL 9
REMARK VINA RESULT:    -5.106      3.750      5.503
REMARK INTER + INTRA:          -5.821
REMARK INTER:                  -5.415
REMARK INTRA:                  -0.406
REMARK UNBOUND:                -0.416
REMARK SMILES CC1=CC[C@@H]2[C@H]3[C@H](C(C)C)CC[C@]2(C)[C@@H]13
REMARK SMILES IDX 1 1 2 2 3 3 4 4 5 5 6 6 15 7 13 8 12 9 11 10 7 11 14 12 8 13
REMARK SMILES IDX 9 14 10 15
REMARK H PARENT
REMARK Flexibility Score: inf
ROOT
ATOM      1  C   UNL     1     140.766 142.929 134.649  1.00  0.00     0.039 C 
ATOM      2  C   UNL     1     139.872 141.756 134.921  1.00  0.00    -0.073 C 
ATOM      3  C   UNL     1     139.168 141.660 136.079  1.00  0.00    -0.027 C 
ATOM      4  C   UNL     1     138.258 140.447 136.293  1.00  0.00     0.031 C 
ATOM      5  C   UNL     1     138.347 139.476 135.071  1.00  0.00     0.003 C 
ATOM      6  C   UNL     1     139.846 139.290 134.733  1.00  0.00     0.004 C 
ATOM      7  C   UNL     1     139.727 140.606 133.920  1.00  0.00     0.024 C 
ATOM      8  C   UNL     1     138.235 140.238 133.729  1.00  0.00    -0.022 C 
ATOM      9  C   UNL     1     138.068 139.207 132.571  1.00  0.00     0.008 C 
ATOM     10  C   UNL     1     139.277 138.239 132.457  1.00  0.00     0.005 C 
ATOM     11  C   UNL     1     140.018 138.041 133.814  1.00  0.00    -0.005 C 
ATOM     12  C   UNL     1     137.195 141.378 133.608  1.00  0.00     0.012 C 
ENDROOT
BRANCH  11  13
ATOM     13  C   UNL     1     141.502 137.600 133.617  1.00  0.00    -0.014 C 
ATOM     14  C   UNL     1     142.026 137.802 132.184  1.00  0.00     0.007 C 
ATOM     15  C   UNL     1     142.432 138.305 134.617  1.00  0.00     0.007 C 
ENDBRANCH  11  13
TORSDOF 1
ENDMDL
