MODEL 1
REMARK VINA RESULT:    -4.124      0.000      0.000
REMARK INTER + INTRA:          -4.124
REMARK INTER:                  -4.124
REMARK INTRA:                   0.000
REMARK UNBOUND:                 0.000
REMARK SMILES CC(C)=C1CC[C@@H](C)CC1=O
REMARK SMILES IDX 8 1 7 2 6 3 5 4 4 5 2 6 1 7 3 8 10 9 11 10 9 11
REMARK H PARENT
REMARK Flexibility Score: inf
ROOT
ATOM      1  C   UNL     1    -121.168-102.315  -0.034  1.00  0.00     0.008 C 
ATOM      2  C   UNL     1    -121.722-101.212   0.874  1.00  0.00    -0.006 C 
ATOM      3  C   UNL     1    -120.773-100.954   2.055  1.00  0.00     0.008 C 
ATOM      4  C   UNL     1    -121.261 -99.783   2.918  1.00  0.00     0.039 C 
ATOM      5  C   UNL     1    -122.711 -99.947   3.357  1.00  0.00    -0.006 C 
ATOM      6  C   UNL     1    -123.149 -99.455   4.554  1.00  0.00    -0.070 C 
ATOM      7  C   UNL     1    -122.218 -98.710   5.483  1.00  0.00     0.039 C 
ATOM      8  C   UNL     1    -124.570 -99.660   5.026  1.00  0.00     0.039 C 
ATOM      9  C   UNL     1    -123.632-100.567   2.360  1.00  0.00     0.159 C 
ATOM     10  O   UNL     1    -124.848-100.241   2.301  1.00  0.00    -0.295 OA
ATOM     11  C   UNL     1    -123.116-101.595   1.395  1.00  0.00     0.084 C 
ENDROOT
TORSDOF 0
ENDMDL
MODEL 2
REMARK VINA RESULT:    -4.062      3.684      5.804
REMARK INTER + INTRA:          -4.062
REMARK INTER:                  -4.062
REMARK INTRA:                   0.000
REMARK UNBOUND:                 0.000
REMARK SMILES CC(C)=C1CC[C@@H](C)CC1=O
REMARK SMILES IDX 8 1 7 2 6 3 5 4 4 5 2 6 1 7 3 8 10 9 11 10 9 11
REMARK H PARENT
REMARK Flexibility Score: inf
ROOT
ATOM      1  C   UNL     1    -122.210-100.519   2.551  1.00  0.00     0.008 C 
ATOM      2  C   UNL     1    -120.696-100.519   2.314  1.00  0.00    -0.006 C 
ATOM      3  C   UNL     1    -120.275 -99.282   1.506  1.00  0.00     0.008 C 
ATOM      4  C   UNL     1    -118.750 -99.212   1.347  1.00  0.00     0.039 C 
ATOM      5  C   UNL     1    -118.161-100.502   0.792  1.00  0.00    -0.006 C 
ATOM      6  C   UNL     1    -117.048-100.491   0.000  1.00  0.00    -0.070 C 
ATOM      7  C   UNL     1    -116.344 -99.198  -0.342  1.00  0.00     0.039 C 
ATOM      8  C   UNL     1    -116.488-101.759  -0.603  1.00  0.00     0.039 C 
ATOM      9  C   UNL     1    -118.800-101.768   1.258  1.00  0.00     0.159 C 
ATOM     10  O   UNL     1    -118.131-102.827   1.396  1.00  0.00    -0.295 OA
ATOM     11  C   UNL     1    -120.267-101.798   1.579  1.00  0.00     0.084 C 
ENDROOT
TORSDOF 0
ENDMDL
MODEL 3
REMARK VINA RESULT:    -3.987      3.181      5.149
REMARK INTER + INTRA:          -3.987
REMARK INTER:                  -3.987
REMARK INTRA:                   0.000
REMARK UNBOUND:                 0.000
REMARK SMILES CC(C)=C1CC[C@@H](C)CC1=O
REMARK SMILES IDX 8 1 7 2 6 3 5 4 4 5 2 6 1 7 3 8 10 9 11 10 9 11
REMARK H PARENT
REMARK Flexibility Score: inf
ROOT
ATOM      1  C   UNL     1    -122.854-100.635   2.810  1.00  0.00     0.008 C 
ATOM      2  C   UNL     1    -121.638-100.302   1.939  1.00  0.00    -0.006 C 
ATOM      3  C   UNL     1    -120.590-101.422   2.022  1.00  0.00     0.008 C 
ATOM      4  C   UNL     1    -119.410-101.154   1.077  1.00  0.00     0.039 C 
ATOM      5  C   UNL     1    -118.806 -99.770   1.277  1.00  0.00    -0.006 C 
ATOM      6  C   UNL     1    -117.475 -99.542   1.074  1.00  0.00    -0.070 C 
ATOM      7  C   UNL     1    -116.550-100.649   0.622  1.00  0.00     0.039 C 
ATOM      8  C   UNL     1    -116.853 -98.187   1.323  1.00  0.00     0.039 C 
ATOM      9  C   UNL     1    -119.768 -98.673   1.591  1.00  0.00     0.159 C 
ATOM     10  O   UNL     1    -119.562 -97.491   1.206  1.00  0.00    -0.295 OA
ATOM     11  C   UNL     1    -121.016 -98.966   2.375  1.00  0.00     0.084 C 
ENDROOT
TORSDOF 0
ENDMDL
MODEL 4
REMARK VINA RESULT:    -3.856      1.615      4.357
REMARK INTER + INTRA:          -3.856
REMARK INTER:                  -3.856
REMARK INTRA:                   0.000
REMARK UNBOUND:                 0.000
REMARK SMILES CC(C)=C1CC[C@@H](C)CC1=O
REMARK SMILES IDX 8 1 7 2 6 3 5 4 4 5 2 6 1 7 3 8 10 9 11 10 9 11
REMARK H PARENT
REMARK Flexibility Score: inf
ROOT
ATOM      1  C   UNL     1    -122.105 -98.708   5.721  1.00  0.00     0.008 C 
ATOM      2  C   UNL     1    -122.761 -99.116   4.397  1.00  0.00    -0.006 C 
ATOM      3  C   UNL     1    -124.134 -99.758   4.648  1.00  0.00     0.008 C 
ATOM      4  C   UNL     1    -124.850-100.079   3.329  1.00  0.00     0.039 C 
ATOM      5  C   UNL     1    -123.984-100.899   2.381  1.00  0.00    -0.006 C 
ATOM      6  C   UNL     1    -124.538-101.803   1.519  1.00  0.00    -0.070 C 
ATOM      7  C   UNL     1    -126.033-102.012   1.457  1.00  0.00     0.039 C 
ATOM      8  C   UNL     1    -123.686-102.663   0.614  1.00  0.00     0.039 C 
ATOM      9  C   UNL     1    -122.528-100.572   2.374  1.00  0.00     0.159 C 
ATOM     10  O   UNL     1    -121.837-100.685   1.325  1.00  0.00    -0.295 OA
ATOM     11  C   UNL     1    -121.857-100.092   3.629  1.00  0.00     0.084 C 
ENDROOT
TORSDOF 0
ENDMDL
MODEL 5
REMARK VINA RESULT:    -3.825      4.148      5.514
REMARK INTER + INTRA:          -3.825
REMARK INTER:                  -3.825
REMARK INTRA:                   0.000
REMARK UNBOUND:                 0.000
REMARK SMILES CC(C)=C1CC[C@@H](C)CC1=O
REMARK SMILES IDX 8 1 7 2 6 3 5 4 4 5 2 6 1 7 3 8 10 9 11 10 9 11
REMARK H PARENT
REMARK Flexibility Score: inf
ROOT
ATOM      1  C   UNL     1    -115.038 -98.249   0.595  1.00  0.00     0.008 C 
ATOM      2  C   UNL     1    -116.456 -98.804   0.422  1.00  0.00    -0.006 C 
ATOM      3  C   UNL     1    -117.465 -97.974   1.232  1.00  0.00     0.008 C 
ATOM      4  C   UNL     1    -118.903 -98.453   0.991  1.00  0.00     0.039 C 
ATOM      5  C   UNL     1    -119.064 -99.951   1.214  1.00  0.00    -0.006 C 
ATOM      6  C   UNL     1    -120.235-100.476   1.681  1.00  0.00    -0.070 C 
ATOM      7  C   UNL     1    -121.427 -99.594   1.976  1.00  0.00     0.039 C 
ATOM      8  C   UNL     1    -120.389-101.954   1.960  1.00  0.00     0.039 C 
ATOM      9  C   UNL     1    -117.917-100.805   0.786  1.00  0.00     0.159 C 
ATOM     10  O   UNL     1    -118.098-101.974   0.352  1.00  0.00    -0.295 OA
ATOM     11  C   UNL     1    -116.514-100.275   0.861  1.00  0.00     0.084 C 
ENDROOT
TORSDOF 0
ENDMDL
MODEL 6
REMARK VINA RESULT:    -3.758     13.777     14.998
REMARK INTER + INTRA:          -3.758
REMARK INTER:                  -3.758
REMARK INTRA:                   0.000
REMARK UNBOUND:                 0.000
REMARK SMILES CC(C)=C1CC[C@@H](C)CC1=O
REMARK SMILES IDX 8 1 7 2 6 3 5 4 4 5 2 6 1 7 3 8 10 9 11 10 9 11
REMARK H PARENT
REMARK Flexibility Score: inf
ROOT
ATOM      1  C   UNL     1    -113.555-100.440  14.967  1.00  0.00     0.008 C 
ATOM      2  C   UNL     1    -114.587 -99.342  15.248  1.00  0.00    -0.006 C 
ATOM      3  C   UNL     1    -115.320 -98.944  13.958  1.00  0.00     0.008 C 
ATOM      4  C   UNL     1    -116.427 -97.918  14.238  1.00  0.00     0.039 C 
ATOM      5  C   UNL     1    -115.920 -96.713  15.019  1.00  0.00    -0.006 C 
ATOM      6  C   UNL     1    -116.464 -95.472  14.840  1.00  0.00    -0.070 C 
ATOM      7  C   UNL     1    -117.604 -95.249  13.873  1.00  0.00     0.039 C 
ATOM      8  C   UNL     1    -115.933 -94.258  15.567  1.00  0.00     0.039 C 
ATOM      9  C   UNL     1    -114.888 -96.992  16.060  1.00  0.00     0.159 C 
ATOM     10  O   UNL     1    -114.822 -96.308  17.117  1.00  0.00    -0.295 OA
ATOM     11  C   UNL     1    -113.905 -98.111  15.866  1.00  0.00     0.084 C 
ENDROOT
TORSDOF 0
ENDMDL
MODEL 7
REMARK VINA RESULT:    -3.737     14.046     16.105
REMARK INTER + INTRA:          -3.737
REMARK INTER:                  -3.737
REMARK INTRA:                   0.000
REMARK UNBOUND:                 0.000
REMARK SMILES CC(C)=C1CC[C@@H](C)CC1=O
REMARK SMILES IDX 8 1 7 2 6 3 5 4 4 5 2 6 1 7 3 8 10 9 11 10 9 11
REMARK H PARENT
REMARK Flexibility Score: inf
ROOT
ATOM      1  C   UNL     1    -116.798 -91.976  16.352  1.00  0.00     0.008 C 
ATOM      2  C   UNL     1    -116.161 -93.196  15.678  1.00  0.00    -0.006 C 
ATOM      3  C   UNL     1    -117.238 -94.216  15.275  1.00  0.00     0.008 C 
ATOM      4  C   UNL     1    -116.628 -95.397  14.508  1.00  0.00     0.039 C 
ATOM      5  C   UNL     1    -115.464 -96.038  15.252  1.00  0.00    -0.006 C 
ATOM      6  C   UNL     1    -115.200 -97.373  15.141  1.00  0.00    -0.070 C 
ATOM      7  C   UNL     1    -116.042 -98.267  14.259  1.00  0.00     0.039 C 
ATOM      8  C   UNL     1    -114.083 -98.031  15.918  1.00  0.00     0.039 C 
ATOM      9  C   UNL     1    -114.575 -95.105  16.005  1.00  0.00     0.159 C 
ATOM     10  O   UNL     1    -113.343 -95.340  16.139  1.00  0.00    -0.295 OA
ATOM     11  C   UNL     1    -115.138 -93.855  16.616  1.00  0.00     0.084 C 
ENDROOT
TORSDOF 0
ENDMDL
MODEL 8
REMARK VINA RESULT:    -3.680      1.918      3.978
REMARK INTER + INTRA:          -3.680
REMARK INTER:                  -3.680
REMARK INTRA:                   0.000
REMARK UNBOUND:                 0.000
REMARK SMILES CC(C)=C1CC[C@@H](C)CC1=O
REMARK SMILES IDX 8 1 7 2 6 3 5 4 4 5 2 6 1 7 3 8 10 9 11 10 9 11
REMARK H PARENT
REMARK Flexibility Score: inf
ROOT
ATOM      1  C   UNL     1    -128.038-100.256   2.885  1.00  0.00     0.008 C 
ATOM      2  C   UNL     1    -126.606-100.453   3.394  1.00  0.00    -0.006 C 
ATOM      3  C   UNL     1    -126.259 -99.398   4.456  1.00  0.00     0.008 C 
ATOM      4  C   UNL     1    -124.865 -99.641   5.050  1.00  0.00     0.039 C 
ATOM      5  C   UNL     1    -123.789 -99.770   3.979  1.00  0.00    -0.006 C 
ATOM      6  C   UNL     1    -122.507 -99.359   4.210  1.00  0.00    -0.070 C 
ATOM      7  C   UNL     1    -122.099 -98.776   5.543  1.00  0.00     0.039 C 
ATOM      8  C   UNL     1    -121.444 -99.430   3.137  1.00  0.00     0.039 C 
ATOM      9  C   UNL     1    -124.193-100.471   2.725  1.00  0.00     0.159 C 
ATOM     10  O   UNL     1    -123.367-101.158   2.064  1.00  0.00    -0.295 OA
ATOM     11  C   UNL     1    -125.607-100.374   2.229  1.00  0.00     0.084 C 
ENDROOT
TORSDOF 0
ENDMDL
MODEL 9
REMARK VINA RESULT:    -3.572      1.593      2.726
REMARK INTER + INTRA:          -3.572
REMARK INTER:                  -3.572
REMARK INTRA:                   0.000
REMARK UNBOUND:                 0.000
REMARK SMILES CC(C)=C1CC[C@@H](C)CC1=O
REMARK SMILES IDX 8 1 7 2 6 3 5 4 4 5 2 6 1 7 3 8 10 9 11 10 9 11
REMARK H PARENT
REMARK Flexibility Score: inf
ROOT
ATOM      1  C   UNL     1    -119.899-100.601   1.193  1.00  0.00     0.008 C 
ATOM      2  C   UNL     1    -121.200-100.893   1.950  1.00  0.00    -0.006 C 
ATOM      3  C   UNL     1    -122.410-100.783   1.009  1.00  0.00     0.008 C 
ATOM      4  C   UNL     1    -123.710-101.171   1.724  1.00  0.00     0.039 C 
ATOM      5  C   UNL     1    -123.910-100.407   3.027  1.00  0.00    -0.006 C 
ATOM      6  C   UNL     1    -125.159-100.088   3.477  1.00  0.00    -0.070 C 
ATOM      7  C   UNL     1    -126.396-100.497   2.711  1.00  0.00     0.039 C 
ATOM      8  C   UNL     1    -125.368 -99.282   4.739  1.00  0.00     0.039 C 
ATOM      9  C   UNL     1    -122.678-100.138   3.824  1.00  0.00     0.159 C 
ATOM     10  O   UNL     1    -122.710-100.089   5.084  1.00  0.00    -0.295 OA
ATOM     11  C   UNL     1    -121.363 -99.924   3.131  1.00  0.00     0.084 C 
ENDROOT
TORSDOF 0
ENDMDL
