MODEL 1
REMARK VINA RESULT:    -6.463      0.000      0.000
REMARK INTER + INTRA:         -10.590
REMARK INTER:                  -9.675
REMARK INTRA:                  -0.915
REMARK UNBOUND:                -0.915
REMARK SMILES COC(=O)C1=CO[C@H](O[C@@H]2O[C@H](CO)[C@@H](O)[C@@H](O)[C@@H]2O)[C@@H]2C(CO)=CC[C@@H]12
REMARK SMILES IDX 9 1 8 2 5 3 6 4 27 5 7 6 21 7 26 8 22 9 25 10 3 11 4 12 2 13
REMARK SMILES IDX 1 14 23 15 24 16 10 18 19 19 11 20 17 21 12 22 15 23 20 24
REMARK SMILES IDX 18 26 13 28 14 29 16 31
REMARK H PARENT 24 17 20 25 18 27 14 30 16 32
REMARK Flexibility Score: inf
ROOT
ATOM      1  O   UNL     1      41.983  48.894 134.129  1.00  0.00    -0.310 OA
ENDROOT
BRANCH   1   2
ATOM      2  C   UNL     1      41.800  49.122 135.516  1.00  0.00     0.316 C 
ATOM      3  C   UNL     1      43.760  47.394 136.826  1.00  0.00     0.076 C 
ATOM      4  C   UNL     1      42.452  47.061 136.826  1.00  0.00     0.202 C 
ATOM      5  C   UNL     1      44.163  48.565 135.985  1.00  0.00     0.047 C 
ATOM      6  O   UNL     1      41.488  47.880 136.185  1.00  0.00    -0.471 OA
ATOM      7  C   UNL     1      43.108  49.656 136.110  1.00  0.00     0.094 C 
ATOM      8  C   UNL     1      45.461  49.315 136.267  1.00  0.00     0.037 C 
ATOM      9  C   UNL     1      43.823  50.823 135.514  1.00  0.00    -0.039 C 
ATOM     10  C   UNL     1      45.145  50.657 135.668  1.00  0.00    -0.024 C 
BRANCH   3  11
ATOM     11  C   UNL     1      44.767  46.485 137.394  1.00  0.00     0.337 C 
ATOM     12  O   UNL     1      45.561  45.890 136.616  1.00  0.00    -0.246 OA
BRANCH  11  13
ATOM     13  O   UNL     1      44.883  46.274 138.772  1.00  0.00    -0.466 OA
ATOM     14  C   UNL     1      45.892  45.456 139.359  1.00  0.00     0.282 C 
ENDBRANCH  11  13
ENDBRANCH   3  11
BRANCH   9  15
ATOM     15  C   UNL     1      43.196  51.940 134.726  1.00  0.00     0.187 C 
BRANCH  15  16
ATOM     16  O   UNL     1      42.359  52.706 135.556  1.00  0.00    -0.392 OA
ATOM     17  H   UNL     1      42.794  53.591 135.677  1.00  0.00     0.211 HD
ENDBRANCH  15  16
ENDBRANCH   9  15
ENDBRANCH   1   2
BRANCH   1  18
ATOM     18  C   UNL     1      41.156  49.731 133.341  1.00  0.00     0.286 C 
ATOM     19  C   UNL     1      40.987  49.073 131.960  1.00  0.00     0.202 C 
ATOM     20  O   UNL     1      39.911  49.978 133.996  1.00  0.00    -0.341 OA
ATOM     21  C   UNL     1      40.309  47.689 132.110  1.00  0.00     0.179 C 
ATOM     22  C   UNL     1      38.854  49.083 133.657  1.00  0.00     0.178 C 
ATOM     23  C   UNL     1      39.359  47.652 133.337  1.00  0.00     0.177 C 
BRANCH  19  24
ATOM     24  O   UNL     1      42.244  48.938 131.348  1.00  0.00    -0.385 OA
ATOM     25  H   UNL     1      42.188  49.408 130.475  1.00  0.00     0.211 HD
ENDBRANCH  19  24
BRANCH  21  26
ATOM     26  O   UNL     1      39.597  47.394 130.934  1.00  0.00    -0.387 OA
ATOM     27  H   UNL     1      39.751  46.436 130.733  1.00  0.00     0.211 HD
ENDBRANCH  21  26
BRANCH  22  28
ATOM     28  C   UNL     1      37.839  49.081 134.802  1.00  0.00     0.191 C 
BRANCH  28  29
ATOM     29  O   UNL     1      36.626  48.541 134.355  1.00  0.00    -0.394 OA
ATOM     30  H   UNL     1      36.140  49.287 133.909  1.00  0.00     0.210 HD
ENDBRANCH  28  29
ENDBRANCH  22  28
BRANCH  23  31
ATOM     31  O   UNL     1      38.283  46.784 133.076  1.00  0.00    -0.387 OA
ATOM     32  H   UNL     1      38.056  46.879 132.116  1.00  0.00     0.211 HD
ENDBRANCH  23  31
ENDBRANCH   1  18
TORSDOF 11
ENDMDL
MODEL 2
REMARK VINA RESULT:    -6.314      1.245      1.600
REMARK INTER + INTRA:         -10.366
REMARK INTER:                  -8.954
REMARK INTRA:                  -1.412
REMARK UNBOUND:                -0.915
REMARK SMILES COC(=O)C1=CO[C@H](O[C@@H]2O[C@H](CO)[C@@H](O)[C@@H](O)[C@@H]2O)[C@@H]2C(CO)=CC[C@@H]12
REMARK SMILES IDX 9 1 8 2 5 3 6 4 27 5 7 6 21 7 26 8 22 9 25 10 3 11 4 12 2 13
REMARK SMILES IDX 1 14 23 15 24 16 10 18 19 19 11 20 17 21 12 22 15 23 20 24
REMARK SMILES IDX 18 26 13 28 14 29 16 31
REMARK H PARENT 24 17 20 25 18 27 14 30 16 32
REMARK Flexibility Score: inf
ROOT
ATOM      1  O   UNL     1      41.886  49.663 134.411  1.00  0.00    -0.310 OA
ENDROOT
BRANCH   1   2
ATOM      2  C   UNL     1      42.042  49.479 135.808  1.00  0.00     0.316 C 
ATOM      3  C   UNL     1      44.562  48.027 136.098  1.00  0.00     0.076 C 
ATOM      4  C   UNL     1      43.385  47.387 136.262  1.00  0.00     0.202 C 
ATOM      5  C   UNL     1      44.505  49.436 135.593  1.00  0.00     0.047 C 
ATOM      6  O   UNL     1      42.152  48.071 136.113  1.00  0.00    -0.471 OA
ATOM      7  C   UNL     1      43.341  50.157 136.258  1.00  0.00     0.094 C 
ATOM      8  C   UNL     1      45.672  50.392 135.821  1.00  0.00     0.037 C 
ATOM      9  C   UNL     1      43.645  51.578 135.916  1.00  0.00    -0.039 C 
ATOM     10  C   UNL     1      44.967  51.717 135.739  1.00  0.00    -0.024 C 
BRANCH   3  11
ATOM     11  C   UNL     1      45.833  47.288 136.142  1.00  0.00     0.337 C 
ATOM     12  O   UNL     1      46.393  46.968 135.060  1.00  0.00    -0.246 OA
BRANCH  11  13
ATOM     13  O   UNL     1      46.449  46.944 137.351  1.00  0.00    -0.466 OA
ATOM     14  C   UNL     1      46.113  45.778 138.099  1.00  0.00     0.282 C 
ENDBRANCH  11  13
ENDBRANCH   3  11
BRANCH   9  15
ATOM     15  C   UNL     1      42.638  52.663 135.653  1.00  0.00     0.187 C 
BRANCH  15  16
ATOM     16  O   UNL     1      42.933  53.315 134.443  1.00  0.00    -0.392 OA
ATOM     17  H   UNL     1      42.613  54.252 134.527  1.00  0.00     0.211 HD
ENDBRANCH  15  16
ENDBRANCH   9  15
ENDBRANCH   1   2
BRANCH   1  18
ATOM     18  C   UNL     1      40.655  50.286 134.092  1.00  0.00     0.286 C 
ATOM     19  C   UNL     1      40.713  50.737 132.622  1.00  0.00     0.202 C 
ATOM     20  O   UNL     1      39.558  49.413 134.365  1.00  0.00    -0.341 OA
ATOM     21  C   UNL     1      40.913  49.510 131.698  1.00  0.00     0.179 C 
ATOM     22  C   UNL     1      39.122  48.619 133.264  1.00  0.00     0.178 C 
ATOM     23  C   UNL     1      40.280  48.231 132.308  1.00  0.00     0.177 C 
BRANCH  19  24
ATOM     24  O   UNL     1      41.764  51.653 132.453  1.00  0.00    -0.385 OA
ATOM     25  H   UNL     1      41.613  52.383 133.108  1.00  0.00     0.211 HD
ENDBRANCH  19  24
BRANCH  21  26
ATOM     26  O   UNL     1      40.345  49.781 130.441  1.00  0.00    -0.387 OA
ATOM     27  H   UNL     1      40.484  50.745 130.261  1.00  0.00     0.211 HD
ENDBRANCH  21  26
BRANCH  22  28
ATOM     28  C   UNL     1      38.407  47.383 133.816  1.00  0.00     0.191 C 
BRANCH  28  29
ATOM     29  O   UNL     1      37.427  46.962 132.907  1.00  0.00    -0.394 OA
ATOM     30  H   UNL     1      36.699  47.639 132.954  1.00  0.00     0.210 HD
ENDBRANCH  28  29
ENDBRANCH  22  28
BRANCH  23  31
ATOM     31  O   UNL     1      39.822  47.391 131.276  1.00  0.00    -0.387 OA
ATOM     32  H   UNL     1      38.844  47.531 131.196  1.00  0.00     0.211 HD
ENDBRANCH  23  31
ENDBRANCH   1  18
TORSDOF 11
ENDMDL
MODEL 3
REMARK VINA RESULT:    -6.145      2.188      4.974
REMARK INTER + INTRA:         -10.114
REMARK INTER:                  -8.162
REMARK INTRA:                  -1.952
REMARK UNBOUND:                -0.915
REMARK SMILES COC(=O)C1=CO[C@H](O[C@@H]2O[C@H](CO)[C@@H](O)[C@@H](O)[C@@H]2O)[C@@H]2C(CO)=CC[C@@H]12
REMARK SMILES IDX 9 1 8 2 5 3 6 4 27 5 7 6 21 7 26 8 22 9 25 10 3 11 4 12 2 13
REMARK SMILES IDX 1 14 23 15 24 16 10 18 19 19 11 20 17 21 12 22 15 23 20 24
REMARK SMILES IDX 18 26 13 28 14 29 16 31
REMARK H PARENT 24 17 20 25 18 27 14 30 16 32
REMARK Flexibility Score: inf
ROOT
ATOM      1  O   UNL     1      43.071  49.343 134.432  1.00  0.00    -0.310 OA
ENDROOT
BRANCH   1   2
ATOM      2  C   UNL     1      43.968  50.158 133.698  1.00  0.00     0.316 C 
ATOM      3  C   UNL     1      43.978  52.721 135.103  1.00  0.00     0.076 C 
ATOM      4  C   UNL     1      43.321  52.590 133.932  1.00  0.00     0.202 C 
ATOM      5  C   UNL     1      44.530  51.472 135.717  1.00  0.00     0.047 C 
ATOM      6  O   UNL     1      43.294  51.352 133.242  1.00  0.00    -0.471 OA
ATOM      7  C   UNL     1      45.114  50.593 134.619  1.00  0.00     0.094 C 
ATOM      8  C   UNL     1      45.662  51.540 136.736  1.00  0.00     0.037 C 
ATOM      9  C   UNL     1      45.895  49.605 135.421  1.00  0.00    -0.039 C 
ATOM     10  C   UNL     1      46.260  50.169 136.582  1.00  0.00    -0.024 C 
BRANCH   3  11
ATOM     11  C   UNL     1      43.907  53.975 135.869  1.00  0.00     0.337 C 
ATOM     12  O   UNL     1      43.145  54.038 136.870  1.00  0.00    -0.246 OA
BRANCH  11  13
ATOM     13  O   UNL     1      44.674  55.095 135.530  1.00  0.00    -0.466 OA
ATOM     14  C   UNL     1      46.093  55.063 135.393  1.00  0.00     0.282 C 
ENDBRANCH  11  13
ENDBRANCH   3  11
BRANCH   9  15
ATOM     15  C   UNL     1      46.119  48.160 135.075  1.00  0.00     0.187 C 
BRANCH  15  16
ATOM     16  O   UNL     1      45.122  47.362 135.663  1.00  0.00    -0.392 OA
ATOM     17  H   UNL     1      45.564  46.540 136.004  1.00  0.00     0.211 HD
ENDBRANCH  15  16
ENDBRANCH   9  15
ENDBRANCH   1   2
BRANCH   1  18
ATOM     18  C   UNL     1      42.636  48.224 133.682  1.00  0.00     0.286 C 
ATOM     19  C   UNL     1      41.492  47.544 134.456  1.00  0.00     0.202 C 
ATOM     20  O   UNL     1      42.261  48.612 132.359  1.00  0.00    -0.341 OA
ATOM     21  C   UNL     1      40.309  48.528 134.626  1.00  0.00     0.179 C 
ATOM     22  C   UNL     1      40.880  48.916 132.182  1.00  0.00     0.178 C 
ATOM     23  C   UNL     1      40.234  49.535 133.448  1.00  0.00     0.177 C 
BRANCH  19  24
ATOM     24  O   UNL     1      41.961  47.120 135.710  1.00  0.00    -0.385 OA
ATOM     25  H   UNL     1      41.967  47.920 136.297  1.00  0.00     0.211 HD
ENDBRANCH  19  24
BRANCH  21  26
ATOM     26  O   UNL     1      39.111  47.798 134.719  1.00  0.00    -0.387 OA
ATOM     27  H   UNL     1      39.250  46.948 134.228  1.00  0.00     0.211 HD
ENDBRANCH  21  26
BRANCH  22  28
ATOM     28  C   UNL     1      40.743  49.839 130.969  1.00  0.00     0.191 C 
BRANCH  28  29
ATOM     29  O   UNL     1      40.910  51.172 131.370  1.00  0.00    -0.394 OA
ATOM     30  H   UNL     1      40.117  51.664 131.025  1.00  0.00     0.210 HD
ENDBRANCH  28  29
ENDBRANCH  22  28
BRANCH  23  31
ATOM     31  O   UNL     1      38.892  49.885 133.210  1.00  0.00    -0.387 OA
ATOM     32  H   UNL     1      38.887  50.818 132.874  1.00  0.00     0.211 HD
ENDBRANCH  23  31
ENDBRANCH   1  18
TORSDOF 11
ENDMDL
MODEL 4
REMARK VINA RESULT:    -6.092      2.339      5.348
REMARK INTER + INTRA:         -10.033
REMARK INTER:                  -8.344
REMARK INTRA:                  -1.689
REMARK UNBOUND:                -0.915
REMARK SMILES COC(=O)C1=CO[C@H](O[C@@H]2O[C@H](CO)[C@@H](O)[C@@H](O)[C@@H]2O)[C@@H]2C(CO)=CC[C@@H]12
REMARK SMILES IDX 9 1 8 2 5 3 6 4 27 5 7 6 21 7 26 8 22 9 25 10 3 11 4 12 2 13
REMARK SMILES IDX 1 14 23 15 24 16 10 18 19 19 11 20 17 21 12 22 15 23 20 24
REMARK SMILES IDX 18 26 13 28 14 29 16 31
REMARK H PARENT 24 17 20 25 18 27 14 30 16 32
REMARK Flexibility Score: inf
ROOT
ATOM      1  O   UNL     1      42.897  49.854 132.986  1.00  0.00    -0.310 OA
ENDROOT
BRANCH   1   2
ATOM      2  C   UNL     1      41.839  50.428 133.732  1.00  0.00     0.316 C 
ATOM      3  C   UNL     1      39.701  48.437 133.657  1.00  0.00     0.076 C 
ATOM      4  C   UNL     1      39.618  49.552 132.902  1.00  0.00     0.202 C 
ATOM      5  C   UNL     1      40.993  48.194 134.373  1.00  0.00     0.047 C 
ATOM      6  O   UNL     1      40.651  50.523 132.916  1.00  0.00    -0.471 OA
ATOM      7  C   UNL     1      41.515  49.516 134.921  1.00  0.00     0.094 C 
ATOM      8  C   UNL     1      41.049  47.276 135.590  1.00  0.00     0.037 C 
ATOM      9  C   UNL     1      42.575  49.043 135.860  1.00  0.00    -0.039 C 
ATOM     10  C   UNL     1      42.270  47.808 136.286  1.00  0.00    -0.024 C 
BRANCH   3  11
ATOM     11  C   UNL     1      38.681  47.381 133.553  1.00  0.00     0.337 C 
ATOM     12  O   UNL     1      38.952  46.330 132.912  1.00  0.00    -0.246 OA
BRANCH  11  13
ATOM     13  O   UNL     1      37.426  47.500 134.160  1.00  0.00    -0.466 OA
ATOM     14  C   UNL     1      36.990  48.675 134.839  1.00  0.00     0.282 C 
ENDBRANCH  11  13
ENDBRANCH   3  11
BRANCH   9  15
ATOM     15  C   UNL     1      43.864  49.752 136.173  1.00  0.00     0.187 C 
BRANCH  15  16
ATOM     16  O   UNL     1      44.867  49.350 135.275  1.00  0.00    -0.392 OA
ATOM     17  H   UNL     1      44.590  48.476 134.894  1.00  0.00     0.211 HD
ENDBRANCH  15  16
ENDBRANCH   9  15
ENDBRANCH   1   2
BRANCH   1  18
ATOM     18  C   UNL     1      43.645  50.833 132.287  1.00  0.00     0.286 C 
ATOM     19  C   UNL     1      44.811  50.126 131.573  1.00  0.00     0.202 C 
ATOM     20  O   UNL     1      42.808  51.569 131.393  1.00  0.00    -0.341 OA
ATOM     21  C   UNL     1      44.264  49.090 130.561  1.00  0.00     0.179 C 
ATOM     22  C   UNL     1      42.747  51.065 130.060  1.00  0.00     0.178 C 
ATOM     23  C   UNL     1      42.885  49.522 129.995  1.00  0.00     0.177 C 
BRANCH  19  24
ATOM     24  O   UNL     1      45.630  49.496 132.525  1.00  0.00    -0.385 OA
ATOM     25  H   UNL     1      45.428  49.920 133.399  1.00  0.00     0.211 HD
ENDBRANCH  19  24
BRANCH  21  26
ATOM     26  O   UNL     1      45.191  48.933 129.515  1.00  0.00    -0.387 OA
ATOM     27  H   UNL     1      45.887  48.304 129.835  1.00  0.00     0.211 HD
ENDBRANCH  21  26
BRANCH  22  28
ATOM     28  C   UNL     1      41.440  51.544 129.425  1.00  0.00     0.191 C 
BRANCH  28  29
ATOM     29  O   UNL     1      40.406  50.654 129.747  1.00  0.00    -0.394 OA
ATOM     30  H   UNL     1      39.569  51.070 129.406  1.00  0.00     0.210 HD
ENDBRANCH  28  29
ENDBRANCH  22  28
BRANCH  23  31
ATOM     31  O   UNL     1      42.750  49.059 128.673  1.00  0.00    -0.387 OA
ATOM     32  H   UNL     1      41.943  49.490 128.292  1.00  0.00     0.211 HD
ENDBRANCH  23  31
ENDBRANCH   1  18
TORSDOF 11
ENDMDL
MODEL 5
REMARK VINA RESULT:    -6.029      1.829      2.462
REMARK INTER + INTRA:          -9.940
REMARK INTER:                  -8.472
REMARK INTRA:                  -1.468
REMARK UNBOUND:                -0.915
REMARK SMILES COC(=O)C1=CO[C@H](O[C@@H]2O[C@H](CO)[C@@H](O)[C@@H](O)[C@@H]2O)[C@@H]2C(CO)=CC[C@@H]12
REMARK SMILES IDX 9 1 8 2 5 3 6 4 27 5 7 6 21 7 26 8 22 9 25 10 3 11 4 12 2 13
REMARK SMILES IDX 1 14 23 15 24 16 10 18 19 19 11 20 17 21 12 22 15 23 20 24
REMARK SMILES IDX 18 26 13 28 14 29 16 31
REMARK H PARENT 24 17 20 25 18 27 14 30 16 32
REMARK Flexibility Score: inf
ROOT
ATOM      1  O   UNL     1      42.705  49.684 133.924  1.00  0.00    -0.310 OA
ENDROOT
BRANCH   1   2
ATOM      2  C   UNL     1      43.617  50.250 134.849  1.00  0.00     0.316 C 
ATOM      3  C   UNL     1      44.604  47.987 136.412  1.00  0.00     0.076 C 
ATOM      4  C   UNL     1      43.710  48.844 136.947  1.00  0.00     0.202 C 
ATOM      5  C   UNL     1      44.914  48.147 134.956  1.00  0.00     0.047 C 
ATOM      6  O   UNL     1      43.210  49.940 136.200  1.00  0.00    -0.471 OA
ATOM      7  C   UNL     1      45.002  49.631 134.626  1.00  0.00     0.094 C 
ATOM      8  C   UNL     1      46.208  47.591 134.370  1.00  0.00     0.037 C 
ATOM      9  C   UNL     1      45.637  49.591 133.275  1.00  0.00    -0.039 C 
ATOM     10  C   UNL     1      46.370  48.473 133.163  1.00  0.00    -0.024 C 
BRANCH   3  11
ATOM     11  C   UNL     1      45.033  46.789 137.151  1.00  0.00     0.337 C 
ATOM     12  O   UNL     1      46.220  46.720 137.569  1.00  0.00    -0.246 OA
BRANCH  11  13
ATOM     13  O   UNL     1      44.158  45.731 137.421  1.00  0.00    -0.466 OA
ATOM     14  C   UNL     1      44.396  44.752 138.429  1.00  0.00     0.282 C 
ENDBRANCH  11  13
ENDBRANCH   3  11
BRANCH   9  15
ATOM     15  C   UNL     1      45.387  50.555 132.148  1.00  0.00     0.187 C 
BRANCH  15  16
ATOM     16  O   UNL     1      44.337  50.090 131.337  1.00  0.00    -0.392 OA
ATOM     17  H   UNL     1      44.570  49.167 131.054  1.00  0.00     0.211 HD
ENDBRANCH  15  16
ENDBRANCH   9  15
ENDBRANCH   1   2
BRANCH   1  18
ATOM     18  C   UNL     1      41.425  50.284 134.006  1.00  0.00     0.286 C 
ATOM     19  C   UNL     1      41.122  50.953 132.654  1.00  0.00     0.202 C 
ATOM     20  O   UNL     1      40.437  49.325 134.388  1.00  0.00    -0.341 OA
ATOM     21  C   UNL     1      41.110  49.891 131.527  1.00  0.00     0.179 C 
ATOM     22  C   UNL     1      39.761  48.685 133.309  1.00  0.00     0.178 C 
ATOM     23  C   UNL     1      40.660  48.504 132.058  1.00  0.00     0.177 C 
BRANCH  19  24
ATOM     24  O   UNL     1      42.090  51.937 132.390  1.00  0.00    -0.385 OA
ATOM     25  H   UNL     1      42.485  51.717 131.507  1.00  0.00     0.211 HD
ENDBRANCH  19  24
BRANCH  21  26
ATOM     26  O   UNL     1      40.253  50.320 130.498  1.00  0.00    -0.387 OA
ATOM     27  H   UNL     1      40.077  49.534 129.921  1.00  0.00     0.211 HD
ENDBRANCH  21  26
BRANCH  22  28
ATOM     28  C   UNL     1      39.215  47.346 133.810  1.00  0.00     0.191 C 
BRANCH  28  29
ATOM     29  O   UNL     1      38.163  46.927 132.985  1.00  0.00    -0.394 OA
ATOM     30  H   UNL     1      37.363  47.442 133.277  1.00  0.00     0.210 HD
ENDBRANCH  28  29
ENDBRANCH  22  28
BRANCH  23  31
ATOM     31  O   UNL     1      39.979  47.808 131.043  1.00  0.00    -0.387 OA
ATOM     32  H   UNL     1      40.416  46.924 130.950  1.00  0.00     0.211 HD
ENDBRANCH  23  31
ENDBRANCH   1  18
TORSDOF 11
ENDMDL
MODEL 6
REMARK VINA RESULT:    -5.953      2.843      5.226
REMARK INTER + INTRA:          -9.826
REMARK INTER:                  -8.064
REMARK INTRA:                  -1.761
REMARK UNBOUND:                -0.915
REMARK SMILES COC(=O)C1=CO[C@H](O[C@@H]2O[C@H](CO)[C@@H](O)[C@@H](O)[C@@H]2O)[C@@H]2C(CO)=CC[C@@H]12
REMARK SMILES IDX 9 1 8 2 5 3 6 4 27 5 7 6 21 7 26 8 22 9 25 10 3 11 4 12 2 13
REMARK SMILES IDX 1 14 23 15 24 16 10 18 19 19 11 20 17 21 12 22 15 23 20 24
REMARK SMILES IDX 18 26 13 28 14 29 16 31
REMARK H PARENT 24 17 20 25 18 27 14 30 16 32
REMARK Flexibility Score: inf
ROOT
ATOM      1  O   UNL     1      42.060  49.868 132.822  1.00  0.00    -0.310 OA
ENDROOT
BRANCH   1   2
ATOM      2  C   UNL     1      42.591  51.006 132.165  1.00  0.00     0.316 C 
ATOM      3  C   UNL     1      45.449  50.452 131.897  1.00  0.00     0.076 C 
ATOM      4  C   UNL     1      45.010  51.333 132.820  1.00  0.00     0.202 C 
ATOM      5  C   UNL     1      44.410  49.660 131.166  1.00  0.00     0.047 C 
ATOM      6  O   UNL     1      43.628  51.606 132.974  1.00  0.00    -0.471 OA
ATOM      7  C   UNL     1      43.229  50.565 130.842  1.00  0.00     0.094 C 
ATOM      8  C   UNL     1      44.726  49.019 129.818  1.00  0.00     0.037 C 
ATOM      9  C   UNL     1      42.486  49.732 129.851  1.00  0.00    -0.039 C 
ATOM     10  C   UNL     1      43.347  48.912 129.229  1.00  0.00    -0.024 C 
BRANCH   3  11
ATOM     11  C   UNL     1      46.872  50.090 131.820  1.00  0.00     0.337 C 
ATOM     12  O   UNL     1      47.687  50.917 131.329  1.00  0.00    -0.246 OA
BRANCH  11  13
ATOM     13  O   UNL     1      47.353  48.863 132.290  1.00  0.00    -0.466 OA
ATOM     14  C   UNL     1      46.972  48.299 133.543  1.00  0.00     0.282 C 
ENDBRANCH  11  13
ENDBRANCH   3  11
BRANCH   9  15
ATOM     15  C   UNL     1      40.994  49.688 129.669  1.00  0.00     0.187 C 
BRANCH  15  16
ATOM     16  O   UNL     1      40.448  48.624 130.408  1.00  0.00    -0.392 OA
ATOM     17  H   UNL     1      41.033  48.483 131.198  1.00  0.00     0.211 HD
ENDBRANCH  15  16
ENDBRANCH   9  15
ENDBRANCH   1   2
BRANCH   1  18
ATOM     18  C   UNL     1      41.330  50.219 133.983  1.00  0.00     0.286 C 
ATOM     19  C   UNL     1      39.953  49.534 133.909  1.00  0.00     0.202 C 
ATOM     20  O   UNL     1      42.059  49.879 135.164  1.00  0.00    -0.341 OA
ATOM     21  C   UNL     1      40.127  47.996 133.867  1.00  0.00     0.179 C 
ATOM     22  C   UNL     1      41.771  48.593 135.709  1.00  0.00     0.178 C 
ATOM     23  C   UNL     1      41.406  47.548 134.623  1.00  0.00     0.177 C 
BRANCH  19  24
ATOM     24  O   UNL     1      39.269  49.981 132.767  1.00  0.00    -0.385 OA
ATOM     25  H   UNL     1      38.407  49.490 132.741  1.00  0.00     0.211 HD
ENDBRANCH  19  24
BRANCH  21  26
ATOM     26  O   UNL     1      38.991  47.388 134.430  1.00  0.00    -0.387 OA
ATOM     27  H   UNL     1      38.713  47.946 135.200  1.00  0.00     0.211 HD
ENDBRANCH  21  26
BRANCH  22  28
ATOM     28  C   UNL     1      42.972  48.145 136.544  1.00  0.00     0.191 C 
BRANCH  28  29
ATOM     29  O   UNL     1      42.531  47.378 137.630  1.00  0.00    -0.394 OA
ATOM     30  H   UNL     1      41.626  47.045 137.383  1.00  0.00     0.210 HD
ENDBRANCH  28  29
ENDBRANCH  22  28
BRANCH  23  31
ATOM     31  O   UNL     1      41.198  46.279 135.194  1.00  0.00    -0.387 OA
ATOM     32  H   UNL     1      40.226  46.193 135.371  1.00  0.00     0.211 HD
ENDBRANCH  23  31
ENDBRANCH   1  18
TORSDOF 11
ENDMDL
MODEL 7
REMARK VINA RESULT:    -5.916      1.938      3.488
REMARK INTER + INTRA:          -9.771
REMARK INTER:                  -8.893
REMARK INTRA:                  -0.878
REMARK UNBOUND:                -0.915
REMARK SMILES COC(=O)C1=CO[C@H](O[C@@H]2O[C@H](CO)[C@@H](O)[C@@H](O)[C@@H]2O)[C@@H]2C(CO)=CC[C@@H]12
REMARK SMILES IDX 9 1 8 2 5 3 6 4 27 5 7 6 21 7 26 8 22 9 25 10 3 11 4 12 2 13
REMARK SMILES IDX 1 14 23 15 24 16 10 18 19 19 11 20 17 21 12 22 15 23 20 24
REMARK SMILES IDX 18 26 13 28 14 29 16 31
REMARK H PARENT 24 17 20 25 18 27 14 30 16 32
REMARK Flexibility Score: inf
ROOT
ATOM      1  O   UNL     1      42.741  49.586 134.855  1.00  0.00    -0.310 OA
ENDROOT
BRANCH   1   2
ATOM      2  C   UNL     1      43.005  49.167 136.183  1.00  0.00     0.316 C 
ATOM      3  C   UNL     1      45.808  48.338 136.167  1.00  0.00     0.076 C 
ATOM      4  C   UNL     1      44.826  47.413 136.194  1.00  0.00     0.202 C 
ATOM      5  C   UNL     1      45.395  49.763 135.966  1.00  0.00     0.047 C 
ATOM      6  O   UNL     1      43.460  47.795 136.189  1.00  0.00    -0.471 OA
ATOM      7  C   UNL     1      44.127  50.033 136.765  1.00  0.00     0.094 C 
ATOM      8  C   UNL     1      46.312  50.906 136.388  1.00  0.00     0.037 C 
ATOM      9  C   UNL     1      44.069  51.524 136.726  1.00  0.00    -0.039 C 
ATOM     10  C   UNL     1      45.311  52.011 136.583  1.00  0.00    -0.024 C 
BRANCH   3  11
ATOM     11  C   UNL     1      47.218  47.935 136.058  1.00  0.00     0.337 C 
ATOM     12  O   UNL     1      47.733  47.255 136.986  1.00  0.00    -0.246 OA
BRANCH  11  13
ATOM     13  O   UNL     1      48.001  48.267 134.948  1.00  0.00    -0.466 OA
ATOM     14  C   UNL     1      47.732  47.799 133.628  1.00  0.00     0.282 C 
ENDBRANCH  11  13
ENDBRANCH   3  11
BRANCH   9  15
ATOM     15  C   UNL     1      42.823  52.364 136.693  1.00  0.00     0.187 C 
BRANCH  15  16
ATOM     16  O   UNL     1      42.445  52.617 135.363  1.00  0.00    -0.392 OA
ATOM     17  H   UNL     1      41.697  52.000 135.147  1.00  0.00     0.211 HD
ENDBRANCH  15  16
ENDBRANCH   9  15
ENDBRANCH   1   2
BRANCH   1  18
ATOM     18  C   UNL     1      42.345  48.507 134.028  1.00  0.00     0.286 C 
ATOM     19  C   UNL     1      40.822  48.330 134.169  1.00  0.00     0.202 C 
ATOM     20  O   UNL     1      42.758  48.723 132.677  1.00  0.00    -0.341 OA
ATOM     21  C   UNL     1      40.093  49.615 133.707  1.00  0.00     0.179 C 
ATOM     22  C   UNL     1      41.794  49.357 131.839  1.00  0.00     0.178 C 
ATOM     23  C   UNL     1      40.896  50.360 132.607  1.00  0.00     0.177 C 
BRANCH  19  24
ATOM     24  O   UNL     1      40.506  48.041 135.507  1.00  0.00    -0.385 OA
ATOM     25  H   UNL     1      39.702  48.577 135.731  1.00  0.00     0.211 HD
ENDBRANCH  19  24
BRANCH  21  26
ATOM     26  O   UNL     1      38.815  49.275 133.229  1.00  0.00    -0.387 OA
ATOM     27  H   UNL     1      38.162  49.561 133.918  1.00  0.00     0.211 HD
ENDBRANCH  21  26
BRANCH  22  28
ATOM     28  C   UNL     1      42.534  50.032 130.682  1.00  0.00     0.191 C 
BRANCH  28  29
ATOM     29  O   UNL     1      43.335  49.091 130.022  1.00  0.00    -0.394 OA
ATOM     30  H   UNL     1      43.919  48.688 130.720  1.00  0.00     0.210 HD
ENDBRANCH  28  29
ENDBRANCH  22  28
BRANCH  23  31
ATOM     31  O   UNL     1      40.008  51.014 131.734  1.00  0.00    -0.387 OA
ATOM     32  H   UNL     1      40.087  51.986 131.910  1.00  0.00     0.211 HD
ENDBRANCH  23  31
ENDBRANCH   1  18
TORSDOF 11
ENDMDL
MODEL 8
REMARK VINA RESULT:    -5.893      2.240      6.197
REMARK INTER + INTRA:          -9.737
REMARK INTER:                  -7.858
REMARK INTRA:                  -1.878
REMARK UNBOUND:                -0.915
REMARK SMILES COC(=O)C1=CO[C@H](O[C@@H]2O[C@H](CO)[C@@H](O)[C@@H](O)[C@@H]2O)[C@@H]2C(CO)=CC[C@@H]12
REMARK SMILES IDX 9 1 8 2 5 3 6 4 27 5 7 6 21 7 26 8 22 9 25 10 3 11 4 12 2 13
REMARK SMILES IDX 1 14 23 15 24 16 10 18 19 19 11 20 17 21 12 22 15 23 20 24
REMARK SMILES IDX 18 26 13 28 14 29 16 31
REMARK H PARENT 24 17 20 25 18 27 14 30 16 32
REMARK Flexibility Score: inf
ROOT
ATOM      1  O   UNL     1      43.510  50.848 133.315  1.00  0.00    -0.310 OA
ENDROOT
BRANCH   1   2
ATOM      2  C   UNL     1      43.616  49.463 133.033  1.00  0.00     0.316 C 
ATOM      3  C   UNL     1      40.873  48.462 133.134  1.00  0.00     0.076 C 
ATOM      4  C   UNL     1      41.728  48.203 134.145  1.00  0.00     0.202 C 
ATOM      5  C   UNL     1      41.336  49.416 132.077  1.00  0.00     0.047 C 
ATOM      6  O   UNL     1      43.059  48.691 134.119  1.00  0.00    -0.471 OA
ATOM      7  C   UNL     1      42.804  49.147 131.772  1.00  0.00     0.094 C 
ATOM      8  C   UNL     1      40.696  49.415 130.693  1.00  0.00     0.037 C 
ATOM      9  C   UNL     1      42.984  49.919 130.507  1.00  0.00    -0.039 C 
ATOM     10  C   UNL     1      41.806  50.006 129.870  1.00  0.00    -0.024 C 
BRANCH   3  11
ATOM     11  C   UNL     1      39.463  48.050 133.218  1.00  0.00     0.337 C 
ATOM     12  O   UNL     1      39.164  46.845 132.999  1.00  0.00    -0.246 OA
BRANCH  11  13
ATOM     13  O   UNL     1      38.445  48.950 133.551  1.00  0.00    -0.466 OA
ATOM     14  C   UNL     1      37.613  48.806 134.699  1.00  0.00     0.282 C 
ENDBRANCH  11  13
ENDBRANCH   3  11
BRANCH   9  15
ATOM     15  C   UNL     1      44.236  50.627 130.070  1.00  0.00     0.187 C 
BRANCH  15  16
ATOM     16  O   UNL     1      44.235  51.950 130.546  1.00  0.00    -0.392 OA
ATOM     17  H   UNL     1      44.389  52.544 129.766  1.00  0.00     0.211 HD
ENDBRANCH  15  16
ENDBRANCH   9  15
ENDBRANCH   1   2
BRANCH   1  18
ATOM     18  C   UNL     1      44.664  51.347 133.965  1.00  0.00     0.286 C 
ATOM     19  C   UNL     1      44.420  52.828 134.305  1.00  0.00     0.202 C 
ATOM     20  O   UNL     1      44.983  50.557 135.112  1.00  0.00    -0.341 OA
ATOM     21  C   UNL     1      43.206  52.961 135.257  1.00  0.00     0.179 C 
ATOM     22  C   UNL     1      44.430  51.019 136.343  1.00  0.00     0.178 C 
ATOM     23  C   UNL     1      43.054  51.709 136.162  1.00  0.00     0.177 C 
BRANCH  19  24
ATOM     24  O   UNL     1      44.195  53.549 133.120  1.00  0.00    -0.385 OA
ATOM     25  H   UNL     1      43.816  54.426 133.389  1.00  0.00     0.211 HD
ENDBRANCH  19  24
BRANCH  21  26
ATOM     26  O   UNL     1      43.362  54.115 136.045  1.00  0.00    -0.387 OA
ATOM     27  H   UNL     1      42.511  54.619 135.994  1.00  0.00     0.211 HD
ENDBRANCH  21  26
BRANCH  22  28
ATOM     28  C   UNL     1      44.345  49.832 137.306  1.00  0.00     0.191 C 
BRANCH  28  29
ATOM     29  O   UNL     1      43.150  49.134 137.088  1.00  0.00    -0.394 OA
ATOM     30  H   UNL     1      42.473  49.552 137.686  1.00  0.00     0.210 HD
ENDBRANCH  28  29
ENDBRANCH  22  28
BRANCH  23  31
ATOM     31  O   UNL     1      42.511  52.087 137.403  1.00  0.00    -0.387 OA
ATOM     32  H   UNL     1      42.980  51.561 138.100  1.00  0.00     0.211 HD
ENDBRANCH  23  31
ENDBRANCH   1  18
TORSDOF 11
ENDMDL
MODEL 9
REMARK VINA RESULT:    -5.827      1.873      2.989
REMARK INTER + INTRA:          -9.637
REMARK INTER:                  -8.005
REMARK INTRA:                  -1.631
REMARK UNBOUND:                -0.915
REMARK SMILES COC(=O)C1=CO[C@H](O[C@@H]2O[C@H](CO)[C@@H](O)[C@@H](O)[C@@H]2O)[C@@H]2C(CO)=CC[C@@H]12
REMARK SMILES IDX 9 1 8 2 5 3 6 4 27 5 7 6 21 7 26 8 22 9 25 10 3 11 4 12 2 13
REMARK SMILES IDX 1 14 23 15 24 16 10 18 19 19 11 20 17 21 12 22 15 23 20 24
REMARK SMILES IDX 18 26 13 28 14 29 16 31
REMARK H PARENT 24 17 20 25 18 27 14 30 16 32
REMARK Flexibility Score: inf
ROOT
ATOM      1  O   UNL     1      42.799  51.042 134.274  1.00  0.00    -0.310 OA
ENDROOT
BRANCH   1   2
ATOM      2  C   UNL     1      42.623  50.378 135.513  1.00  0.00     0.316 C 
ATOM      3  C   UNL     1      44.997  48.700 135.811  1.00  0.00     0.076 C 
ATOM      4  C   UNL     1      43.812  48.148 135.479  1.00  0.00     0.202 C 
ATOM      5  C   UNL     1      45.068  50.195 135.838  1.00  0.00     0.047 C 
ATOM      6  O   UNL     1      42.652  48.947 135.317  1.00  0.00    -0.471 OA
ATOM      7  C   UNL     1      43.783  50.744 136.445  1.00  0.00     0.094 C 
ATOM      8  C   UNL     1      46.153  50.910 136.637  1.00  0.00     0.037 C 
ATOM      9  C   UNL     1      44.166  52.164 136.702  1.00  0.00    -0.039 C 
ATOM     10  C   UNL     1      45.494  52.239 136.878  1.00  0.00    -0.024 C 
BRANCH   3  11
ATOM     11  C   UNL     1      46.219  47.882 135.867  1.00  0.00     0.337 C 
ATOM     12  O   UNL     1      46.866  47.677 134.806  1.00  0.00    -0.246 OA
BRANCH  11  13
ATOM     13  O   UNL     1      46.694  47.340 137.066  1.00  0.00    -0.466 OA
ATOM     14  C   UNL     1      46.031  46.295 137.773  1.00  0.00     0.282 C 
ENDBRANCH  11  13
ENDBRANCH   3  11
BRANCH   9  15
ATOM     15  C   UNL     1      43.253  53.357 136.628  1.00  0.00     0.187 C 
BRANCH  15  16
ATOM     16  O   UNL     1      43.350  53.961 135.362  1.00  0.00    -0.392 OA
ATOM     17  H   UNL     1      44.122  53.546 134.896  1.00  0.00     0.211 HD
ENDBRANCH  15  16
ENDBRANCH   9  15
ENDBRANCH   1   2
BRANCH   1  18
ATOM     18  C   UNL     1      41.565  51.433 133.701  1.00  0.00     0.286 C 
ATOM     19  C   UNL     1      41.863  52.224 132.414  1.00  0.00     0.202 C 
ATOM     20  O   UNL     1      40.727  50.298 133.475  1.00  0.00    -0.341 OA
ATOM     21  C   UNL     1      42.628  51.331 131.407  1.00  0.00     0.179 C 
ATOM     22  C   UNL     1      40.827  49.714 132.178  1.00  0.00     0.178 C 
ATOM     23  C   UNL     1      42.249  49.835 131.573  1.00  0.00     0.177 C 
BRANCH  19  24
ATOM     24  O   UNL     1      42.620  53.365 132.731  1.00  0.00    -0.385 OA
ATOM     25  H   UNL     1      42.093  53.881 133.394  1.00  0.00     0.211 HD
ENDBRANCH  19  24
BRANCH  21  26
ATOM     26  O   UNL     1      42.343  51.762 130.099  1.00  0.00    -0.387 OA
ATOM     27  H   UNL     1      41.445  52.180 130.120  1.00  0.00     0.211 HD
ENDBRANCH  21  26
BRANCH  22  28
ATOM     28  C   UNL     1      40.374  48.255 132.271  1.00  0.00     0.191 C 
BRANCH  28  29
ATOM     29  O   UNL     1      39.989  47.800 131.003  1.00  0.00    -0.394 OA
ATOM     30  H   UNL     1      39.063  48.138 130.859  1.00  0.00     0.210 HD
ENDBRANCH  28  29
ENDBRANCH  22  28
BRANCH  23  31
ATOM     31  O   UNL     1      42.324  49.187 130.326  1.00  0.00    -0.387 OA
ATOM     32  H   UNL     1      41.679  48.435 130.347  1.00  0.00     0.211 HD
ENDBRANCH  23  31
ENDBRANCH   1  18
TORSDOF 11
ENDMDL
