MODEL 1
REMARK VINA RESULT:    -7.803      0.000      0.000
REMARK INTER + INTRA:          -9.175
REMARK INTER:                  -9.172
REMARK INTRA:                  -0.003
REMARK UNBOUND:                -0.003
REMARK SMILES O=c1c(O)c(-c2ccc(O)cc2)oc2cc(O)cc(O)c12
REMARK SMILES IDX 5 1 3 2 2 3 1 4 21 5 19 6 18 7 16 8 15 9 14 10 13 11 6 12
REMARK SMILES IDX 7 13 8 14 9 15 12 16 11 17 10 18 4 20 20 22 17 24
REMARK H PARENT 10 19 4 21 20 23 17 25
REMARK Flexibility Score: inf
ROOT
ATOM      1  C   UNL     1     168.739 146.049 152.384  1.00  0.00     0.180 A 
ATOM      2  C   UNL     1     169.603 145.069 151.858  1.00  0.00     0.208 A 
ATOM      3  C   UNL     1     170.686 144.631 152.637  1.00  0.00     0.238 A 
ATOM      4  O   UNL     1     171.472 143.762 152.171  1.00  0.00    -0.285 OA
ATOM      5  C   UNL     1     170.876 145.162 153.928  1.00  0.00     0.111 A 
ATOM      6  C   UNL     1     171.939 144.772 154.778  1.00  0.00     0.134 A 
ATOM      7  C   UNL     1     172.055 145.339 156.055  1.00  0.00     0.093 A 
ATOM      8  C   UNL     1     171.130 146.288 156.499  1.00  0.00     0.123 A 
ATOM      9  C   UNL     1     170.077 146.678 155.665  1.00  0.00     0.094 A 
ATOM     10  C   UNL     1     169.946 146.125 154.388  1.00  0.00     0.146 A 
ATOM     11  O   UNL     1     168.941 146.516 153.614  1.00  0.00    -0.452 OA
ENDROOT
BRANCH   1  12
ATOM     12  C   UNL     1     167.586 146.576 151.619  1.00  0.00     0.021 A 
ATOM     13  C   UNL     1     166.326 146.653 152.233  1.00  0.00     0.016 A 
ATOM     14  C   UNL     1     165.229 147.167 151.536  1.00  0.00     0.047 A 
ATOM     15  C   UNL     1     165.380 147.626 150.224  1.00  0.00     0.115 A 
ATOM     16  C   UNL     1     167.738 147.057 150.305  1.00  0.00     0.016 A 
ATOM     17  C   UNL     1     166.638 147.572 149.611  1.00  0.00     0.047 A 
BRANCH  15  18
ATOM     18  O   UNL     1     164.278 148.135 149.542  1.00  0.00    -0.508 OA
ATOM     19  H   UNL     1     164.054 149.124 149.560  1.00  0.00     0.293 HD
ENDBRANCH  15  18
ENDBRANCH   1  12
BRANCH   2  20
ATOM     20  O   UNL     1     169.364 144.523 150.594  1.00  0.00    -0.502 OA
ATOM     21  H   UNL     1     169.999 144.657 149.817  1.00  0.00     0.293 HD
ENDBRANCH   2  20
BRANCH   6  22
ATOM     22  O   UNL     1     172.879 143.826 154.363  1.00  0.00    -0.507 OA
ATOM     23  H   UNL     1     172.891 142.886 154.742  1.00  0.00     0.293 HD
ENDBRANCH   6  22
BRANCH   8  24
ATOM     24  O   UNL     1     171.267 146.836 157.772  1.00  0.00    -0.508 OA
ATOM     25  H   UNL     1     170.528 146.763 158.462  1.00  0.00     0.293 HD
ENDBRANCH   8  24
TORSDOF 5
ENDMDL
MODEL 2
REMARK VINA RESULT:    -7.689      0.053      1.058
REMARK INTER + INTRA:          -9.041
REMARK INTER:                  -9.091
REMARK INTRA:                   0.051
REMARK UNBOUND:                -0.003
REMARK SMILES O=c1c(O)c(-c2ccc(O)cc2)oc2cc(O)cc(O)c12
REMARK SMILES IDX 5 1 3 2 2 3 1 4 21 5 19 6 18 7 16 8 15 9 14 10 13 11 6 12
REMARK SMILES IDX 7 13 8 14 9 15 12 16 11 17 10 18 4 20 20 22 17 24
REMARK H PARENT 10 19 4 21 20 23 17 25
REMARK Flexibility Score: inf
ROOT
ATOM      1  C   UNL     1     168.744 146.083 152.406  1.00  0.00     0.180 A 
ATOM      2  C   UNL     1     169.588 145.093 151.867  1.00  0.00     0.208 A 
ATOM      3  C   UNL     1     170.675 144.640 152.631  1.00  0.00     0.238 A 
ATOM      4  O   UNL     1     171.444 143.762 152.152  1.00  0.00    -0.285 OA
ATOM      5  C   UNL     1     170.888 145.164 153.921  1.00  0.00     0.111 A 
ATOM      6  C   UNL     1     171.956 144.758 154.756  1.00  0.00     0.134 A 
ATOM      7  C   UNL     1     172.095 145.320 156.034  1.00  0.00     0.093 A 
ATOM      8  C   UNL     1     171.187 146.279 156.492  1.00  0.00     0.123 A 
ATOM      9  C   UNL     1     170.130 146.685 155.672  1.00  0.00     0.094 A 
ATOM     10  C   UNL     1     169.976 146.137 154.395  1.00  0.00     0.146 A 
ATOM     11  O   UNL     1     168.966 146.543 153.635  1.00  0.00    -0.452 OA
ENDROOT
BRANCH   1  12
ATOM     12  C   UNL     1     167.588 146.626 151.657  1.00  0.00     0.021 A 
ATOM     13  C   UNL     1     167.765 147.066 150.335  1.00  0.00     0.016 A 
ATOM     14  C   UNL     1     166.683 147.563 149.602  1.00  0.00     0.047 A 
ATOM     15  C   UNL     1     165.409 147.610 150.174  1.00  0.00     0.115 A 
ATOM     16  C   UNL     1     166.299 146.658 152.221  1.00  0.00     0.016 A 
ATOM     17  C   UNL     1     165.218 147.154 151.485  1.00  0.00     0.047 A 
BRANCH  15  18
ATOM     18  O   UNL     1     164.340 148.107 149.432  1.00  0.00    -0.508 OA
ATOM     19  H   UNL     1     163.990 149.048 149.573  1.00  0.00     0.293 HD
ENDBRANCH  15  18
ENDBRANCH   1  12
BRANCH   2  20
ATOM     20  O   UNL     1     169.327 144.554 150.604  1.00  0.00    -0.502 OA
ATOM     21  H   UNL     1     170.066 144.263 149.976  1.00  0.00     0.293 HD
ENDBRANCH   2  20
BRANCH   6  22
ATOM     22  O   UNL     1     172.878 143.801 154.328  1.00  0.00    -0.507 OA
ATOM     23  H   UNL     1     172.868 143.437 153.382  1.00  0.00     0.293 HD
ENDBRANCH   6  22
BRANCH   8  24
ATOM     24  O   UNL     1     171.347 146.821 157.765  1.00  0.00    -0.508 OA
ATOM     25  H   UNL     1     170.962 146.368 158.586  1.00  0.00     0.293 HD
ENDBRANCH   8  24
TORSDOF 5
ENDMDL
MODEL 3
REMARK VINA RESULT:    -7.518      1.821      3.922
REMARK INTER + INTRA:          -8.840
REMARK INTER:                  -8.677
REMARK INTRA:                  -0.164
REMARK UNBOUND:                -0.003
REMARK SMILES O=c1c(O)c(-c2ccc(O)cc2)oc2cc(O)cc(O)c12
REMARK SMILES IDX 5 1 3 2 2 3 1 4 21 5 19 6 18 7 16 8 15 9 14 10 13 11 6 12
REMARK SMILES IDX 7 13 8 14 9 15 12 16 11 17 10 18 4 20 20 22 17 24
REMARK H PARENT 10 19 4 21 20 23 17 25
REMARK Flexibility Score: inf
ROOT
ATOM      1  C   UNL     1     169.252 145.518 151.972  1.00  0.00     0.180 A 
ATOM      2  C   UNL     1     170.011 145.773 153.130  1.00  0.00     0.208 A 
ATOM      3  C   UNL     1     171.147 144.988 153.384  1.00  0.00     0.238 A 
ATOM      4  O   UNL     1     171.827 145.202 154.424  1.00  0.00    -0.285 OA
ATOM      5  C   UNL     1     171.516 143.980 152.471  1.00  0.00     0.111 A 
ATOM      6  C   UNL     1     172.647 143.149 152.650  1.00  0.00     0.134 A 
ATOM      7  C   UNL     1     172.954 142.173 151.690  1.00  0.00     0.093 A 
ATOM      8  C   UNL     1     172.154 142.013 150.557  1.00  0.00     0.123 A 
ATOM      9  C   UNL     1     171.034 142.831 150.373  1.00  0.00     0.094 A 
ATOM     10  C   UNL     1     170.711 143.808 151.320  1.00  0.00     0.146 A 
ATOM     11  O   UNL     1     169.640 144.568 151.124  1.00  0.00    -0.452 OA
ENDROOT
BRANCH   1  12
ATOM     12  C   UNL     1     168.031 146.289 151.643  1.00  0.00     0.021 A 
ATOM     13  C   UNL     1     167.992 147.054 150.466  1.00  0.00     0.016 A 
ATOM     14  C   UNL     1     166.842 147.772 150.126  1.00  0.00     0.047 A 
ATOM     15  C   UNL     1     165.712 147.721 150.947  1.00  0.00     0.115 A 
ATOM     16  C   UNL     1     166.884 146.225 152.456  1.00  0.00     0.016 A 
ATOM     17  C   UNL     1     165.735 146.944 152.113  1.00  0.00     0.047 A 
BRANCH  15  18
ATOM     18  O   UNL     1     164.573 148.442 150.596  1.00  0.00    -0.508 OA
ATOM     19  H   UNL     1     163.691 148.304 151.075  1.00  0.00     0.293 HD
ENDBRANCH  15  18
ENDBRANCH   1  12
BRANCH   2  20
ATOM     20  O   UNL     1     169.652 146.811 153.994  1.00  0.00    -0.502 OA
ATOM     21  H   UNL     1     170.308 147.525 154.286  1.00  0.00     0.293 HD
ENDBRANCH   2  20
BRANCH   6  22
ATOM     22  O   UNL     1     173.467 143.285 153.772  1.00  0.00    -0.507 OA
ATOM     23  H   UNL     1     174.071 144.090 153.897  1.00  0.00     0.293 HD
ENDBRANCH   6  22
BRANCH   8  24
ATOM     24  O   UNL     1     172.481 141.037 149.618  1.00  0.00    -0.508 OA
ATOM     25  H   UNL     1     173.445 140.815 149.399  1.00  0.00     0.293 HD
ENDBRANCH   8  24
TORSDOF 5
ENDMDL
MODEL 4
REMARK VINA RESULT:    -7.298      1.916      6.469
REMARK INTER + INTRA:          -8.581
REMARK INTER:                  -8.672
REMARK INTRA:                   0.091
REMARK UNBOUND:                -0.003
REMARK SMILES O=c1c(O)c(-c2ccc(O)cc2)oc2cc(O)cc(O)c12
REMARK SMILES IDX 5 1 3 2 2 3 1 4 21 5 19 6 18 7 16 8 15 9 14 10 13 11 6 12
REMARK SMILES IDX 7 13 8 14 9 15 12 16 11 17 10 18 4 20 20 22 17 24
REMARK H PARENT 10 19 4 21 20 23 17 25
REMARK Flexibility Score: inf
ROOT
ATOM      1  C   UNL     1     168.779 145.617 153.674  1.00  0.00     0.180 A 
ATOM      2  C   UNL     1     169.737 145.702 152.646  1.00  0.00     0.208 A 
ATOM      3  C   UNL     1     169.341 146.184 151.388  1.00  0.00     0.238 A 
ATOM      4  O   UNL     1     170.189 146.253 150.457  1.00  0.00    -0.285 OA
ATOM      5  C   UNL     1     168.007 146.592 151.186  1.00  0.00     0.111 A 
ATOM      6  C   UNL     1     167.529 147.094 149.952  1.00  0.00     0.134 A 
ATOM      7  C   UNL     1     166.189 147.489 149.832  1.00  0.00     0.093 A 
ATOM      8  C   UNL     1     165.319 147.392 150.921  1.00  0.00     0.123 A 
ATOM      9  C   UNL     1     165.784 146.897 152.143  1.00  0.00     0.094 A 
ATOM     10  C   UNL     1     167.117 146.497 152.281  1.00  0.00     0.146 A 
ATOM     11  O   UNL     1     167.532 146.026 153.451  1.00  0.00    -0.452 OA
ENDROOT
BRANCH   1  12
ATOM     12  C   UNL     1     169.112 145.101 155.022  1.00  0.00     0.021 A 
ATOM     13  C   UNL     1     168.296 144.121 155.609  1.00  0.00     0.016 A 
ATOM     14  C   UNL     1     168.605 143.605 156.871  1.00  0.00     0.047 A 
ATOM     15  C   UNL     1     169.741 144.049 157.554  1.00  0.00     0.115 A 
ATOM     16  C   UNL     1     170.266 145.530 155.705  1.00  0.00     0.016 A 
ATOM     17  C   UNL     1     170.573 145.011 156.966  1.00  0.00     0.047 A 
BRANCH  15  18
ATOM     18  O   UNL     1     170.037 143.526 158.811  1.00  0.00    -0.508 OA
ATOM     19  H   UNL     1     169.662 143.939 159.657  1.00  0.00     0.293 HD
ENDBRANCH  15  18
ENDBRANCH   1  12
BRANCH   2  20
ATOM     20  O   UNL     1     171.064 145.337 152.886  1.00  0.00    -0.502 OA
ATOM     21  H   UNL     1     171.845 145.827 152.467  1.00  0.00     0.293 HD
ENDBRANCH   2  20
BRANCH   6  22
ATOM     22  O   UNL     1     168.374 147.203 148.846  1.00  0.00    -0.507 OA
ATOM     23  H   UNL     1     168.597 148.101 148.432  1.00  0.00     0.293 HD
ENDBRANCH   6  22
BRANCH   8  24
ATOM     24  O   UNL     1     163.992 147.792 150.777  1.00  0.00    -0.508 OA
ATOM     25  H   UNL     1     163.479 147.627 149.918  1.00  0.00     0.293 HD
ENDBRANCH   8  24
TORSDOF 5
ENDMDL
MODEL 5
REMARK VINA RESULT:    -7.257      2.140      2.890
REMARK INTER + INTRA:          -8.533
REMARK INTER:                  -8.406
REMARK INTRA:                  -0.127
REMARK UNBOUND:                -0.003
REMARK SMILES O=c1c(O)c(-c2ccc(O)cc2)oc2cc(O)cc(O)c12
REMARK SMILES IDX 5 1 3 2 2 3 1 4 21 5 19 6 18 7 16 8 15 9 14 10 13 11 6 12
REMARK SMILES IDX 7 13 8 14 9 15 12 16 11 17 10 18 4 20 20 22 17 24
REMARK H PARENT 10 19 4 21 20 23 17 25
REMARK Flexibility Score: inf
ROOT
ATOM      1  C   UNL     1     168.653 145.675 154.261  1.00  0.00     0.180 A 
ATOM      2  C   UNL     1     168.272 144.506 154.946  1.00  0.00     0.208 A 
ATOM      3  C   UNL     1     168.977 144.137 156.102  1.00  0.00     0.238 A 
ATOM      4  O   UNL     1     168.651 143.085 156.718  1.00  0.00    -0.285 OA
ATOM      5  C   UNL     1     170.032 144.949 156.565  1.00  0.00     0.111 A 
ATOM      6  C   UNL     1     170.789 144.651 157.723  1.00  0.00     0.134 A 
ATOM      7  C   UNL     1     171.818 145.515 158.124  1.00  0.00     0.093 A 
ATOM      8  C   UNL     1     172.105 146.670 157.391  1.00  0.00     0.123 A 
ATOM      9  C   UNL     1     171.361 146.970 156.246  1.00  0.00     0.094 A 
ATOM     10  C   UNL     1     170.332 146.120 155.829  1.00  0.00     0.146 A 
ATOM     11  O   UNL     1     169.644 146.426 154.735  1.00  0.00    -0.452 OA
ENDROOT
BRANCH   1  12
ATOM     12  C   UNL     1     167.972 146.122 153.024  1.00  0.00     0.021 A 
ATOM     13  C   UNL     1     168.673 146.117 151.808  1.00  0.00     0.016 A 
ATOM     14  C   UNL     1     168.043 146.513 150.625  1.00  0.00     0.047 A 
ATOM     15  C   UNL     1     166.700 146.903 150.639  1.00  0.00     0.115 A 
ATOM     16  C   UNL     1     166.615 146.496 153.030  1.00  0.00     0.016 A 
ATOM     17  C   UNL     1     165.987 146.891 151.845  1.00  0.00     0.047 A 
BRANCH  15  18
ATOM     18  O   UNL     1     166.085 147.296 149.453  1.00  0.00    -0.508 OA
ATOM     19  H   UNL     1     166.621 147.470 148.611  1.00  0.00     0.293 HD
ENDBRANCH  15  18
ENDBRANCH   1  12
BRANCH   2  20
ATOM     20  O   UNL     1     167.190 143.744 154.495  1.00  0.00    -0.502 OA
ATOM     21  H   UNL     1     166.688 143.966 153.645  1.00  0.00     0.293 HD
ENDBRANCH   2  20
BRANCH   6  22
ATOM     22  O   UNL     1     170.527 143.505 158.477  1.00  0.00    -0.507 OA
ATOM     23  H   UNL     1     171.159 142.713 158.479  1.00  0.00     0.293 HD
ENDBRANCH   6  22
BRANCH   8  24
ATOM     24  O   UNL     1     173.131 147.512 157.812  1.00  0.00    -0.508 OA
ATOM     25  H   UNL     1     172.942 148.352 158.346  1.00  0.00     0.293 HD
ENDBRANCH   8  24
TORSDOF 5
ENDMDL
MODEL 6
REMARK VINA RESULT:    -7.122      1.392      3.303
REMARK INTER + INTRA:          -8.374
REMARK INTER:                  -8.581
REMARK INTRA:                   0.207
REMARK UNBOUND:                -0.003
REMARK SMILES O=c1c(O)c(-c2ccc(O)cc2)oc2cc(O)cc(O)c12
REMARK SMILES IDX 5 1 3 2 2 3 1 4 21 5 19 6 18 7 16 8 15 9 14 10 13 11 6 12
REMARK SMILES IDX 7 13 8 14 9 15 12 16 11 17 10 18 4 20 20 22 17 24
REMARK H PARENT 10 19 4 21 20 23 17 25
REMARK Flexibility Score: inf
ROOT
ATOM      1  C   UNL     1     168.721 145.755 152.729  1.00  0.00     0.180 A 
ATOM      2  C   UNL     1     168.869 145.808 154.129  1.00  0.00     0.208 A 
ATOM      3  C   UNL     1     169.964 145.158 154.720  1.00  0.00     0.238 A 
ATOM      4  O   UNL     1     170.100 145.189 155.974  1.00  0.00    -0.285 OA
ATOM      5  C   UNL     1     170.901 144.489 153.906  1.00  0.00     0.111 A 
ATOM      6  C   UNL     1     172.033 143.815 154.422  1.00  0.00     0.134 A 
ATOM      7  C   UNL     1     172.925 143.180 153.546  1.00  0.00     0.093 A 
ATOM      8  C   UNL     1     172.708 143.206 152.166  1.00  0.00     0.123 A 
ATOM      9  C   UNL     1     171.590 143.871 151.650  1.00  0.00     0.094 A 
ATOM     10  C   UNL     1     170.689 144.508 152.507  1.00  0.00     0.146 A 
ATOM     11  O   UNL     1     169.634 145.127 151.992  1.00  0.00    -0.452 OA
ENDROOT
BRANCH   1  12
ATOM     12  C   UNL     1     167.584 146.398 152.032  1.00  0.00     0.021 A 
ATOM     13  C   UNL     1     167.771 146.924 150.744  1.00  0.00     0.016 A 
ATOM     14  C   UNL     1     166.705 147.516 150.059  1.00  0.00     0.047 A 
ATOM     15  C   UNL     1     165.438 147.575 150.645  1.00  0.00     0.115 A 
ATOM     16  C   UNL     1     166.301 146.442 152.610  1.00  0.00     0.016 A 
ATOM     17  C   UNL     1     165.237 147.034 151.922  1.00  0.00     0.047 A 
BRANCH  15  18
ATOM     18  O   UNL     1     164.385 148.167 149.952  1.00  0.00    -0.508 OA
ATOM     19  H   UNL     1     164.550 148.774 149.156  1.00  0.00     0.293 HD
ENDBRANCH  15  18
ENDBRANCH   1  12
BRANCH   2  20
ATOM     20  O   UNL     1     167.954 146.519 154.909  1.00  0.00    -0.502 OA
ATOM     21  H   UNL     1     167.519 146.122 155.733  1.00  0.00     0.293 HD
ENDBRANCH   2  20
BRANCH   6  22
ATOM     22  O   UNL     1     172.279 143.771 155.796  1.00  0.00    -0.507 OA
ATOM     23  H   UNL     1     172.157 142.920 156.332  1.00  0.00     0.293 HD
ENDBRANCH   6  22
BRANCH   8  24
ATOM     24  O   UNL     1     173.609 142.569 151.317  1.00  0.00    -0.508 OA
ATOM     25  H   UNL     1     173.349 141.740 150.794  1.00  0.00     0.293 HD
ENDBRANCH   8  24
TORSDOF 5
ENDMDL
MODEL 7
REMARK VINA RESULT:    -7.055      1.706      2.492
REMARK INTER + INTRA:          -8.295
REMARK INTER:                  -8.630
REMARK INTRA:                   0.334
REMARK UNBOUND:                -0.003
REMARK SMILES O=c1c(O)c(-c2ccc(O)cc2)oc2cc(O)cc(O)c12
REMARK SMILES IDX 5 1 3 2 2 3 1 4 21 5 19 6 18 7 16 8 15 9 14 10 13 11 6 12
REMARK SMILES IDX 7 13 8 14 9 15 12 16 11 17 10 18 4 20 20 22 17 24
REMARK H PARENT 10 19 4 21 20 23 17 25
REMARK Flexibility Score: inf
ROOT
ATOM      1  C   UNL     1     169.327 145.399 151.251  1.00  0.00     0.180 A 
ATOM      2  C   UNL     1     169.970 144.708 150.205  1.00  0.00     0.208 A 
ATOM      3  C   UNL     1     171.140 143.987 150.488  1.00  0.00     0.238 A 
ATOM      4  O   UNL     1     171.730 143.374 149.557  1.00  0.00    -0.285 OA
ATOM      5  C   UNL     1     171.636 143.950 151.807  1.00  0.00     0.111 A 
ATOM      6  C   UNL     1     172.805 143.244 152.176  1.00  0.00     0.134 A 
ATOM      7  C   UNL     1     173.229 143.247 153.513  1.00  0.00     0.093 A 
ATOM      8  C   UNL     1     172.507 143.942 154.487  1.00  0.00     0.123 A 
ATOM      9  C   UNL     1     171.350 144.642 154.129  1.00  0.00     0.094 A 
ATOM     10  C   UNL     1     170.913 144.652 152.801  1.00  0.00     0.146 A 
ATOM     11  O   UNL     1     169.815 145.328 152.487  1.00  0.00    -0.452 OA
ENDROOT
BRANCH   1  12
ATOM     12  C   UNL     1     168.099 146.197 151.030  1.00  0.00     0.021 A 
ATOM     13  C   UNL     1     167.883 146.804 149.783  1.00  0.00     0.016 A 
ATOM     14  C   UNL     1     166.721 147.543 149.546  1.00  0.00     0.047 A 
ATOM     15  C   UNL     1     165.753 147.672 150.546  1.00  0.00     0.115 A 
ATOM     16  C   UNL     1     167.112 146.312 152.027  1.00  0.00     0.016 A 
ATOM     17  C   UNL     1     165.950 147.052 151.787  1.00  0.00     0.047 A 
BRANCH  15  18
ATOM     18  O   UNL     1     164.599 148.412 150.297  1.00  0.00    -0.508 OA
ATOM     19  H   UNL     1     164.041 148.257 149.465  1.00  0.00     0.293 HD
ENDBRANCH  15  18
ENDBRANCH   1  12
BRANCH   2  20
ATOM     20  O   UNL     1     169.431 144.720 148.916  1.00  0.00    -0.502 OA
ATOM     21  H   UNL     1     169.824 144.173 148.159  1.00  0.00     0.293 HD
ENDBRANCH   2  20
BRANCH   6  22
ATOM     22  O   UNL     1     173.548 142.539 151.227  1.00  0.00    -0.507 OA
ATOM     23  H   UNL     1     174.156 141.772 151.488  1.00  0.00     0.293 HD
ENDBRANCH   6  22
BRANCH   8  24
ATOM     24  O   UNL     1     172.948 143.929 155.808  1.00  0.00    -0.508 OA
ATOM     25  H   UNL     1     173.760 143.392 156.090  1.00  0.00     0.293 HD
ENDBRANCH   8  24
TORSDOF 5
ENDMDL
MODEL 8
REMARK VINA RESULT:    -7.033      1.867      6.804
REMARK INTER + INTRA:          -8.270
REMARK INTER:                  -8.000
REMARK INTRA:                  -0.270
REMARK UNBOUND:                -0.003
REMARK SMILES O=c1c(O)c(-c2ccc(O)cc2)oc2cc(O)cc(O)c12
REMARK SMILES IDX 5 1 3 2 2 3 1 4 21 5 19 6 18 7 16 8 15 9 14 10 13 11 6 12
REMARK SMILES IDX 7 13 8 14 9 15 12 16 11 17 10 18 4 20 20 22 17 24
REMARK H PARENT 10 19 4 21 20 23 17 25
REMARK Flexibility Score: inf
ROOT
ATOM      1  C   UNL     1     169.639 145.867 153.529  1.00  0.00     0.180 A 
ATOM      2  C   UNL     1     168.257 146.134 153.493  1.00  0.00     0.208 A 
ATOM      3  C   UNL     1     167.648 146.389 152.254  1.00  0.00     0.238 A 
ATOM      4  O   UNL     1     166.412 146.641 152.211  1.00  0.00    -0.285 OA
ATOM      5  C   UNL     1     168.420 146.351 151.076  1.00  0.00     0.111 A 
ATOM      6  C   UNL     1     167.883 146.591 149.789  1.00  0.00     0.134 A 
ATOM      7  C   UNL     1     168.716 146.525 148.662  1.00  0.00     0.093 A 
ATOM      8  C   UNL     1     170.073 146.224 148.797  1.00  0.00     0.123 A 
ATOM      9  C   UNL     1     170.611 145.987 150.067  1.00  0.00     0.094 A 
ATOM     10  C   UNL     1     169.797 146.049 151.201  1.00  0.00     0.146 A 
ATOM     11  O   UNL     1     170.333 145.824 152.395  1.00  0.00    -0.452 OA
ENDROOT
BRANCH   1  12
ATOM     12  C   UNL     1     170.358 145.608 154.797  1.00  0.00     0.021 A 
ATOM     13  C   UNL     1     170.747 146.688 155.605  1.00  0.00     0.016 A 
ATOM     14  C   UNL     1     171.407 146.465 156.817  1.00  0.00     0.047 A 
ATOM     15  C   UNL     1     171.673 145.161 157.243  1.00  0.00     0.115 A 
ATOM     16  C   UNL     1     170.610 144.296 155.241  1.00  0.00     0.016 A 
ATOM     17  C   UNL     1     171.271 144.076 156.454  1.00  0.00     0.047 A 
BRANCH  15  18
ATOM     18  O   UNL     1     172.333 144.953 158.453  1.00  0.00    -0.508 OA
ATOM     19  H   UNL     1     171.886 144.468 159.223  1.00  0.00     0.293 HD
ENDBRANCH  15  18
ENDBRANCH   1  12
BRANCH   2  20
ATOM     20  O   UNL     1     167.503 146.118 154.669  1.00  0.00    -0.502 OA
ATOM     21  H   UNL     1     166.491 146.085 154.665  1.00  0.00     0.293 HD
ENDBRANCH   2  20
BRANCH   6  22
ATOM     22  O   UNL     1     166.530 146.893 149.620  1.00  0.00    -0.507 OA
ATOM     23  H   UNL     1     165.963 146.428 148.920  1.00  0.00     0.293 HD
ENDBRANCH   6  22
BRANCH   8  24
ATOM     24  O   UNL     1     170.879 146.164 147.663  1.00  0.00    -0.508 OA
ATOM     25  H   UNL     1     171.527 145.399 147.513  1.00  0.00     0.293 HD
ENDBRANCH   8  24
TORSDOF 5
ENDMDL
MODEL 9
REMARK VINA RESULT:    -6.947      2.634      4.638
REMARK INTER + INTRA:          -8.168
REMARK INTER:                  -7.980
REMARK INTRA:                  -0.189
REMARK UNBOUND:                -0.003
REMARK SMILES O=c1c(O)c(-c2ccc(O)cc2)oc2cc(O)cc(O)c12
REMARK SMILES IDX 5 1 3 2 2 3 1 4 21 5 19 6 18 7 16 8 15 9 14 10 13 11 6 12
REMARK SMILES IDX 7 13 8 14 9 15 12 16 11 17 10 18 4 20 20 22 17 24
REMARK H PARENT 10 19 4 21 20 23 17 25
REMARK Flexibility Score: inf
ROOT
ATOM      1  C   UNL     1     170.599 144.957 151.774  1.00  0.00     0.180 A 
ATOM      2  C   UNL     1     171.250 144.940 153.023  1.00  0.00     0.208 A 
ATOM      3  C   UNL     1     172.330 144.064 153.212  1.00  0.00     0.238 A 
ATOM      4  O   UNL     1     172.913 144.032 154.330  1.00  0.00    -0.285 OA
ATOM      5  C   UNL     1     172.754 143.239 152.151  1.00  0.00     0.111 A 
ATOM      6  C   UNL     1     173.836 142.333 152.258  1.00  0.00     0.134 A 
ATOM      7  C   UNL     1     174.203 141.553 151.152  1.00  0.00     0.093 A 
ATOM      8  C   UNL     1     173.511 141.661 149.943  1.00  0.00     0.123 A 
ATOM      9  C   UNL     1     172.441 142.554 149.830  1.00  0.00     0.094 A 
ATOM     10  C   UNL     1     172.059 143.339 150.922  1.00  0.00     0.146 A 
ATOM     11  O   UNL     1     171.036 144.176 150.790  1.00  0.00    -0.452 OA
ENDROOT
BRANCH   1  12
ATOM     12  C   UNL     1     169.440 145.839 151.501  1.00  0.00     0.021 A 
ATOM     13  C   UNL     1     169.557 146.856 150.540  1.00  0.00     0.016 A 
ATOM     14  C   UNL     1     168.469 147.685 150.252  1.00  0.00     0.047 A 
ATOM     15  C   UNL     1     167.248 147.498 150.907  1.00  0.00     0.115 A 
ATOM     16  C   UNL     1     168.204 145.642 152.144  1.00  0.00     0.016 A 
ATOM     17  C   UNL     1     167.117 146.473 151.852  1.00  0.00     0.047 A 
BRANCH  15  18
ATOM     18  O   UNL     1     166.173 148.333 150.609  1.00  0.00    -0.508 OA
ATOM     19  H   UNL     1     165.354 148.374 151.205  1.00  0.00     0.293 HD
ENDBRANCH  15  18
ENDBRANCH   1  12
BRANCH   2  20
ATOM     20  O   UNL     1     170.842 145.803 154.043  1.00  0.00    -0.502 OA
ATOM     21  H   UNL     1     171.499 146.242 154.677  1.00  0.00     0.293 HD
ENDBRANCH   2  20
BRANCH   6  22
ATOM     22  O   UNL     1     174.547 142.202 153.452  1.00  0.00    -0.507 OA
ATOM     23  H   UNL     1     174.637 142.972 154.105  1.00  0.00     0.293 HD
ENDBRANCH   6  22
BRANCH   8  24
ATOM     24  O   UNL     1     173.897 140.875 148.859  1.00  0.00    -0.508 OA
ATOM     25  H   UNL     1     174.061 139.880 148.958  1.00  0.00     0.293 HD
ENDBRANCH   8  24
TORSDOF 5
ENDMDL
