MODEL 1
REMARK VINA RESULT:    -6.049      0.000      0.000
REMARK INTER + INTRA:          -6.961
REMARK INTER:                  -6.757
REMARK INTRA:                  -0.204
REMARK UNBOUND:                -0.204
REMARK SMILES CC(C)c1ccc(C(=O)[O-])cc1
REMARK SMILES IDX 7 1 6 2 11 3 5 4 12 5 4 6 8 7 9 8 10 9 2 10 1 11 3 12
REMARK H PARENT
REMARK Flexibility Score: inf
ROOT
ATOM      1  C   UNL     1       9.316  22.827  -8.452  1.00  0.00    -0.003 A 
ATOM      2  C   UNL     1       8.263  23.300  -7.651  1.00  0.00     0.010 A 
ATOM      3  C   UNL     1       9.035  22.393  -9.759  1.00  0.00     0.010 A 
ATOM      4  C   UNL     1       6.957  23.340  -8.146  1.00  0.00     0.004 A 
ATOM      5  C   UNL     1       7.728  22.433 -10.254  1.00  0.00     0.004 A 
ATOM      6  C   UNL     1       6.675  22.906  -9.454  1.00  0.00    -0.045 A 
ENDROOT
BRANCH   1   7
ATOM      7  C   UNL     1      10.701  22.784  -7.932  1.00  0.00     0.071 C 
ATOM      8  O   UNL     1      11.628  23.393  -8.529  1.00  0.00    -0.545 OA
ATOM      9  O   UNL     1      10.997  22.072  -6.777  1.00  0.00    -0.545 OA
ENDBRANCH   1   7
BRANCH   6  10
ATOM     10  C   UNL     1       5.260  22.943 -10.005  1.00  0.00     0.013 C 
ATOM     11  C   UNL     1       4.978  24.274 -10.712  1.00  0.00     0.012 C 
ATOM     12  C   UNL     1       4.231  22.675  -8.901  1.00  0.00     0.012 C 
ENDBRANCH   6  10
TORSDOF 2
ENDMDL
MODEL 2
REMARK VINA RESULT:    -6.042      0.037      1.398
REMARK INTER + INTRA:          -6.952
REMARK INTER:                  -6.747
REMARK INTRA:                  -0.206
REMARK UNBOUND:                -0.204
REMARK SMILES CC(C)c1ccc(C(=O)[O-])cc1
REMARK SMILES IDX 7 1 6 2 11 3 5 4 12 5 4 6 8 7 9 8 10 9 2 10 1 11 3 12
REMARK H PARENT
REMARK Flexibility Score: inf
ROOT
ATOM      1  C   UNL     1       9.305  22.839  -8.470  1.00  0.00    -0.003 A 
ATOM      2  C   UNL     1       9.034  22.386  -9.772  1.00  0.00     0.010 A 
ATOM      3  C   UNL     1       8.244  23.315  -7.681  1.00  0.00     0.010 A 
ATOM      4  C   UNL     1       7.730  22.408 -10.275  1.00  0.00     0.004 A 
ATOM      5  C   UNL     1       6.940  23.337  -8.184  1.00  0.00     0.004 A 
ATOM      6  C   UNL     1       6.668  22.885  -9.486  1.00  0.00    -0.045 A 
ENDROOT
BRANCH   1   7
ATOM      7  C   UNL     1      10.684  22.816  -7.933  1.00  0.00     0.071 C 
ATOM      8  O   UNL     1      11.612  23.426  -8.527  1.00  0.00    -0.545 OA
ATOM      9  O   UNL     1      10.973  22.122  -6.765  1.00  0.00    -0.545 OA
ENDBRANCH   1   7
BRANCH   6  10
ATOM     10  C   UNL     1       5.247  22.915 -10.019  1.00  0.00     0.013 C 
ATOM     11  C   UNL     1       4.955  24.238 -10.738  1.00  0.00     0.012 C 
ATOM     12  C   UNL     1       4.232  22.660  -8.898  1.00  0.00     0.012 C 
ENDBRANCH   6  10
TORSDOF 2
ENDMDL
MODEL 3
REMARK VINA RESULT:    -5.969      1.685      2.859
REMARK INTER + INTRA:          -6.871
REMARK INTER:                  -6.661
REMARK INTRA:                  -0.209
REMARK UNBOUND:                -0.204
REMARK SMILES CC(C)c1ccc(C(=O)[O-])cc1
REMARK SMILES IDX 7 1 6 2 11 3 5 4 12 5 4 6 8 7 9 8 10 9 2 10 1 11 3 12
REMARK H PARENT
REMARK Flexibility Score: inf
ROOT
ATOM      1  C   UNL     1      10.651  21.540  -7.923  1.00  0.00    -0.003 A 
ATOM      2  C   UNL     1      10.279  22.204  -9.105  1.00  0.00     0.010 A 
ATOM      3  C   UNL     1       9.846  21.684  -6.780  1.00  0.00     0.010 A 
ATOM      4  C   UNL     1       9.127  22.994  -9.143  1.00  0.00     0.004 A 
ATOM      5  C   UNL     1       8.694  22.475  -6.819  1.00  0.00     0.004 A 
ATOM      6  C   UNL     1       8.321  23.138  -8.000  1.00  0.00    -0.045 A 
ENDROOT
BRANCH   1   7
ATOM      7  C   UNL     1      11.869  20.702  -7.879  1.00  0.00     0.071 C 
ATOM      8  O   UNL     1      13.006  21.231  -7.761  1.00  0.00    -0.545 OA
ATOM      9  O   UNL     1      11.776  19.318  -7.965  1.00  0.00    -0.545 OA
ENDBRANCH   1   7
BRANCH   6  10
ATOM     10  C   UNL     1       7.067  23.993  -8.026  1.00  0.00     0.013 C 
ATOM     11  C   UNL     1       6.373  23.998  -6.659  1.00  0.00     0.012 C 
ATOM     12  C   UNL     1       6.108  23.533  -9.131  1.00  0.00     0.012 C 
ENDBRANCH   6  10
TORSDOF 2
ENDMDL
MODEL 4
REMARK VINA RESULT:    -5.953      1.689      2.651
REMARK INTER + INTRA:          -6.853
REMARK INTER:                  -6.647
REMARK INTRA:                  -0.207
REMARK UNBOUND:                -0.204
REMARK SMILES CC(C)c1ccc(C(=O)[O-])cc1
REMARK SMILES IDX 7 1 6 2 11 3 5 4 12 5 4 6 8 7 9 8 10 9 2 10 1 11 3 12
REMARK H PARENT
REMARK Flexibility Score: inf
ROOT
ATOM      1  C   UNL     1      10.643  21.529  -7.918  1.00  0.00    -0.003 A 
ATOM      2  C   UNL     1       9.847  21.682  -6.770  1.00  0.00     0.010 A 
ATOM      3  C   UNL     1      10.264  22.188  -9.100  1.00  0.00     0.010 A 
ATOM      4  C   UNL     1       8.698  22.477  -6.803  1.00  0.00     0.004 A 
ATOM      5  C   UNL     1       9.115  22.983  -9.133  1.00  0.00     0.004 A 
ATOM      6  C   UNL     1       8.319  23.137  -7.986  1.00  0.00    -0.045 A 
ENDROOT
BRANCH   1   7
ATOM      7  C   UNL     1      11.860  20.689  -7.888  1.00  0.00     0.071 C 
ATOM      8  O   UNL     1      11.777  19.436  -7.991  1.00  0.00    -0.545 OA
ATOM      9  O   UNL     1      13.114  21.271  -7.745  1.00  0.00    -0.545 OA
ENDBRANCH   1   7
BRANCH   6  10
ATOM     10  C   UNL     1       7.073  24.003  -8.037  1.00  0.00     0.013 C 
ATOM     11  C   UNL     1       6.463  24.174  -6.640  1.00  0.00     0.012 C 
ATOM     12  C   UNL     1       6.046  23.435  -9.023  1.00  0.00     0.012 C 
ENDBRANCH   6  10
TORSDOF 2
ENDMDL
MODEL 5
REMARK VINA RESULT:    -5.834      3.224      4.929
REMARK INTER + INTRA:          -6.720
REMARK INTER:                  -6.509
REMARK INTRA:                  -0.211
REMARK UNBOUND:                -0.204
REMARK SMILES CC(C)c1ccc(C(=O)[O-])cc1
REMARK SMILES IDX 7 1 6 2 11 3 5 4 12 5 4 6 8 7 9 8 10 9 2 10 1 11 3 12
REMARK H PARENT
REMARK Flexibility Score: inf
ROOT
ATOM      1  C   UNL     1       7.066  23.607  -6.807  1.00  0.00    -0.003 A 
ATOM      2  C   UNL     1       7.120  23.964  -8.165  1.00  0.00     0.010 A 
ATOM      3  C   UNL     1       8.091  22.809  -6.272  1.00  0.00     0.010 A 
ATOM      4  C   UNL     1       8.178  23.534  -8.971  1.00  0.00     0.004 A 
ATOM      5  C   UNL     1       9.149  22.379  -7.078  1.00  0.00     0.004 A 
ATOM      6  C   UNL     1       9.205  22.736  -8.436  1.00  0.00    -0.045 A 
ENDROOT
BRANCH   1   7
ATOM      7  C   UNL     1       5.948  24.061  -5.951  1.00  0.00     0.071 C 
ATOM      8  O   UNL     1       4.915  23.353  -5.816  1.00  0.00    -0.545 OA
ATOM      9  O   UNL     1       6.023  25.277  -5.281  1.00  0.00    -0.545 OA
ENDBRANCH   1   7
BRANCH   6  10
ATOM     10  C   UNL     1      10.360  22.260  -9.299  1.00  0.00     0.013 C 
ATOM     11  C   UNL     1      11.436  21.572  -8.450  1.00  0.00     0.012 C 
ATOM     12  C   UNL     1      10.953  23.416 -10.112  1.00  0.00     0.012 C 
ENDBRANCH   6  10
TORSDOF 2
ENDMDL
MODEL 6
REMARK VINA RESULT:    -5.827      2.125      3.159
REMARK INTER + INTRA:          -6.713
REMARK INTER:                  -6.504
REMARK INTRA:                  -0.208
REMARK UNBOUND:                -0.204
REMARK SMILES CC(C)c1ccc(C(=O)[O-])cc1
REMARK SMILES IDX 7 1 6 2 11 3 5 4 12 5 4 6 8 7 9 8 10 9 2 10 1 11 3 12
REMARK H PARENT
REMARK Flexibility Score: inf
ROOT
ATOM      1  C   UNL     1       9.622  22.545  -8.174  1.00  0.00    -0.003 A 
ATOM      2  C   UNL     1       8.614  23.384  -8.677  1.00  0.00     0.010 A 
ATOM      3  C   UNL     1       9.519  22.073  -6.854  1.00  0.00     0.010 A 
ATOM      4  C   UNL     1       7.524  23.743  -7.879  1.00  0.00     0.004 A 
ATOM      5  C   UNL     1       8.429  22.432  -6.056  1.00  0.00     0.004 A 
ATOM      6  C   UNL     1       7.420  23.271  -6.558  1.00  0.00    -0.045 A 
ENDROOT
BRANCH   1   7
ATOM      7  C   UNL     1      10.777  22.162  -9.016  1.00  0.00     0.071 C 
ATOM      8  O   UNL     1      11.623  21.326  -8.601  1.00  0.00    -0.545 OA
ATOM      9  O   UNL     1      10.944  22.720 -10.278  1.00  0.00    -0.545 OA
ENDBRANCH   1   7
BRANCH   6  10
ATOM     10  C   UNL     1       6.243  23.653  -5.679  1.00  0.00     0.013 C 
ATOM     11  C   UNL     1       4.920  23.174  -6.289  1.00  0.00     0.012 C 
ATOM     12  C   UNL     1       6.216  25.163  -5.417  1.00  0.00     0.012 C 
ENDBRANCH   6  10
TORSDOF 2
ENDMDL
MODEL 7
REMARK VINA RESULT:    -5.744      3.117      5.148
REMARK INTER + INTRA:          -6.620
REMARK INTER:                  -6.419
REMARK INTRA:                  -0.201
REMARK UNBOUND:                -0.204
REMARK SMILES CC(C)c1ccc(C(=O)[O-])cc1
REMARK SMILES IDX 7 1 6 2 11 3 5 4 12 5 4 6 8 7 9 8 10 9 2 10 1 11 3 12
REMARK H PARENT
REMARK Flexibility Score: inf
ROOT
ATOM      1  C   UNL     1       6.308  23.133  -9.282  1.00  0.00    -0.003 A 
ATOM      2  C   UNL     1       7.249  22.497 -10.110  1.00  0.00     0.010 A 
ATOM      3  C   UNL     1       6.704  23.552  -8.001  1.00  0.00     0.010 A 
ATOM      4  C   UNL     1       8.558  22.287  -9.668  1.00  0.00     0.004 A 
ATOM      5  C   UNL     1       8.013  23.342  -7.558  1.00  0.00     0.004 A 
ATOM      6  C   UNL     1       8.955  22.707  -8.385  1.00  0.00    -0.045 A 
ENDROOT
BRANCH   1   7
ATOM      7  C   UNL     1       4.922  23.358  -9.747  1.00  0.00     0.071 C 
ATOM      8  O   UNL     1       4.696  24.049 -10.776  1.00  0.00    -0.545 OA
ATOM      9  O   UNL     1       3.849  22.810  -9.055  1.00  0.00    -0.545 OA
ENDBRANCH   1   7
BRANCH   6  10
ATOM     10  C   UNL     1      10.373  22.485  -7.891  1.00  0.00     0.013 C 
ATOM     11  C   UNL     1      11.385  23.236  -8.763  1.00  0.00     0.012 C 
ATOM     12  C   UNL     1      10.705  20.990  -7.822  1.00  0.00     0.012 C 
ENDBRANCH   6  10
TORSDOF 2
ENDMDL
MODEL 8
REMARK VINA RESULT:    -5.733      3.137      5.041
REMARK INTER + INTRA:          -6.608
REMARK INTER:                  -6.405
REMARK INTRA:                  -0.203
REMARK UNBOUND:                -0.204
REMARK SMILES CC(C)c1ccc(C(=O)[O-])cc1
REMARK SMILES IDX 7 1 6 2 11 3 5 4 12 5 4 6 8 7 9 8 10 9 2 10 1 11 3 12
REMARK H PARENT
REMARK Flexibility Score: inf
ROOT
ATOM      1  C   UNL     1       6.267  23.172  -9.291  1.00  0.00    -0.003 A 
ATOM      2  C   UNL     1       6.681  23.614  -8.022  1.00  0.00     0.010 A 
ATOM      3  C   UNL     1       7.198  22.526 -10.122  1.00  0.00     0.010 A 
ATOM      4  C   UNL     1       7.996  23.413  -7.594  1.00  0.00     0.004 A 
ATOM      5  C   UNL     1       8.513  22.325  -9.694  1.00  0.00     0.004 A 
ATOM      6  C   UNL     1       8.928  22.766  -8.426  1.00  0.00    -0.045 A 
ENDROOT
BRANCH   1   7
ATOM      7  C   UNL     1       4.876  23.381  -9.748  1.00  0.00     0.071 C 
ATOM      8  O   UNL     1       3.915  22.832  -9.147  1.00  0.00    -0.545 OA
ATOM      9  O   UNL     1       4.610  24.189 -10.847  1.00  0.00    -0.545 OA
ENDBRANCH   1   7
BRANCH   6  10
ATOM     10  C   UNL     1      10.359  22.542  -7.974  1.00  0.00     0.013 C 
ATOM     11  C   UNL     1      11.350  23.248  -8.908  1.00  0.00     0.012 C 
ATOM     12  C   UNL     1      10.675  21.045  -7.864  1.00  0.00     0.012 C 
ENDBRANCH   6  10
TORSDOF 2
ENDMDL
MODEL 9
REMARK VINA RESULT:    -5.651      1.989      3.141
REMARK INTER + INTRA:          -6.516
REMARK INTER:                  -6.312
REMARK INTRA:                  -0.204
REMARK UNBOUND:                -0.204
REMARK SMILES CC(C)c1ccc(C(=O)[O-])cc1
REMARK SMILES IDX 7 1 6 2 11 3 5 4 12 5 4 6 8 7 9 8 10 9 2 10 1 11 3 12
REMARK H PARENT
REMARK Flexibility Score: inf
ROOT
ATOM      1  C   UNL     1      11.885  22.952  -7.803  1.00  0.00    -0.003 A 
ATOM      2  C   UNL     1      11.428  23.646  -8.936  1.00  0.00     0.010 A 
ATOM      3  C   UNL     1      10.956  22.249  -7.016  1.00  0.00     0.010 A 
ATOM      4  C   UNL     1      10.072  23.638  -9.275  1.00  0.00     0.004 A 
ATOM      5  C   UNL     1       9.601  22.241  -7.355  1.00  0.00     0.004 A 
ATOM      6  C   UNL     1       9.143  22.934  -8.488  1.00  0.00    -0.045 A 
ENDROOT
BRANCH   1   7
ATOM      7  C   UNL     1      13.319  22.958  -7.440  1.00  0.00     0.071 C 
ATOM      8  O   UNL     1      13.884  21.904  -7.045  1.00  0.00    -0.545 OA
ATOM      9  O   UNL     1      14.063  24.128  -7.531  1.00  0.00    -0.545 OA
ENDBRANCH   1   7
BRANCH   6  10
ATOM     10  C   UNL     1       7.667  22.916  -8.845  1.00  0.00     0.013 C 
ATOM     11  C   UNL     1       7.452  22.420 -10.280  1.00  0.00     0.012 C 
ATOM     12  C   UNL     1       7.032  24.296  -8.636  1.00  0.00     0.012 C 
ENDBRANCH   6  10
TORSDOF 2
ENDMDL
