MODEL 1
REMARK VINA RESULT:    -5.412      0.000      0.000
REMARK INTER + INTRA:          -6.607
REMARK INTER:                  -6.361
REMARK INTRA:                  -0.246
REMARK UNBOUND:                -0.246
REMARK SMILES O=c1c(O)c(-c2ccc(O)c(O)c2)oc2cc(O)ccc12
REMARK SMILES IDX 5 1 3 2 2 3 1 4 21 5 15 6 14 7 16 8 17 9 19 10 20 11 6 12
REMARK SMILES IDX 7 13 8 14 9 15 13 16 11 17 10 18 12 20 4 22 18 24
REMARK H PARENT 10 19 12 21 4 23 18 25
REMARK Flexibility Score: inf
ROOT
ATOM      1  C   UNL     1      19.027  22.234  15.350  1.00  0.00     0.180 A 
ATOM      2  C   UNL     1      17.753  21.648  15.497  1.00  0.00     0.208 A 
ATOM      3  C   UNL     1      17.383  21.140  16.753  1.00  0.00     0.235 A 
ATOM      4  O   UNL     1      16.244  20.621  16.911  1.00  0.00    -0.285 OA
ATOM      5  C   UNL     1      18.290  21.210  17.820  1.00  0.00     0.069 A 
ATOM      6  C   UNL     1      19.556  21.790  17.587  1.00  0.00     0.142 A 
ATOM      7  O   UNL     1      19.865  22.267  16.386  1.00  0.00    -0.452 OA
ATOM      8  C   UNL     1      20.493  21.869  18.623  1.00  0.00     0.094 A 
ATOM      9  C   UNL     1      20.181  21.376  19.894  1.00  0.00     0.119 A 
ATOM     10  C   UNL     1      18.925  20.800  20.130  1.00  0.00     0.047 A 
ATOM     11  C   UNL     1      17.983  20.715  19.101  1.00  0.00     0.020 A 
ENDROOT
BRANCH   1  12
ATOM     12  C   UNL     1      19.485  22.808  14.065  1.00  0.00     0.025 A 
ATOM     13  C   UNL     1      19.883  21.949  13.028  1.00  0.00     0.016 A 
ATOM     14  C   UNL     1      20.337  22.468  11.814  1.00  0.00     0.051 A 
ATOM     15  C   UNL     1      20.418  23.851  11.622  1.00  0.00     0.157 A 
ATOM     16  C   UNL     1      19.586  24.198  13.877  1.00  0.00     0.062 A 
ATOM     17  C   UNL     1      20.045  24.721  12.659  1.00  0.00     0.158 A 
BRANCH  15  18
ATOM     18  O   UNL     1      20.873  24.340  10.398  1.00  0.00    -0.504 OA
ATOM     19  H   UNL     1      21.840  24.253  10.109  1.00  0.00     0.293 HD
ENDBRANCH  15  18
BRANCH  17  20
ATOM     20  O   UNL     1      20.136  26.101  12.479  1.00  0.00    -0.504 OA
ATOM     21  H   UNL     1      20.753  26.670  13.047  1.00  0.00     0.293 HD
ENDBRANCH  17  20
ENDBRANCH   1  12
BRANCH   2  22
ATOM     22  O   UNL     1      16.889  21.549  14.404  1.00  0.00    -0.502 OA
ATOM     23  H   UNL     1      16.414  20.687  14.165  1.00  0.00     0.293 HD
ENDBRANCH   2  22
BRANCH   9  24
ATOM     24  O   UNL     1      21.125  21.463  20.915  1.00  0.00    -0.508 OA
ATOM     25  H   UNL     1      22.092  21.697  20.724  1.00  0.00     0.293 HD
ENDBRANCH   9  24
TORSDOF 5
ENDMDL
MODEL 2
REMARK VINA RESULT:    -5.201     16.095     17.786
REMARK INTER + INTRA:          -6.359
REMARK INTER:                  -6.036
REMARK INTRA:                  -0.323
REMARK UNBOUND:                -0.246
REMARK SMILES O=c1c(O)c(-c2ccc(O)c(O)c2)oc2cc(O)ccc12
REMARK SMILES IDX 5 1 3 2 2 3 1 4 21 5 15 6 14 7 16 8 17 9 19 10 20 11 6 12
REMARK SMILES IDX 7 13 8 14 9 15 13 16 11 17 10 18 12 20 4 22 18 24
REMARK H PARENT 10 19 12 21 4 23 18 25
REMARK Flexibility Score: inf
ROOT
ATOM      1  C   UNL     1      10.451  14.098   3.110  1.00  0.00     0.180 A 
ATOM      2  C   UNL     1      10.089  12.837   2.589  1.00  0.00     0.208 A 
ATOM      3  C   UNL     1      11.098  11.892   2.344  1.00  0.00     0.235 A 
ATOM      4  O   UNL     1      10.798  10.754   1.890  1.00  0.00    -0.285 OA
ATOM      5  C   UNL     1      12.435  12.227   2.604  1.00  0.00     0.069 A 
ATOM      6  C   UNL     1      12.718  13.517   3.102  1.00  0.00     0.142 A 
ATOM      7  O   UNL     1      11.734  14.381   3.328  1.00  0.00    -0.452 OA
ATOM      8  C   UNL     1      14.040  13.894   3.363  1.00  0.00     0.094 A 
ATOM      9  C   UNL     1      15.088  12.995   3.135  1.00  0.00     0.119 A 
ATOM     10  C   UNL     1      14.811  11.713   2.642  1.00  0.00     0.047 A 
ATOM     11  C   UNL     1      13.493  11.327   2.376  1.00  0.00     0.020 A 
ENDROOT
BRANCH   1  12
ATOM     12  C   UNL     1       9.445  15.141   3.411  1.00  0.00     0.025 A 
ATOM     13  C   UNL     1       9.118  16.090   2.429  1.00  0.00     0.016 A 
ATOM     14  C   UNL     1       8.187  17.095   2.698  1.00  0.00     0.051 A 
ATOM     15  C   UNL     1       7.581  17.180   3.955  1.00  0.00     0.157 A 
ATOM     16  C   UNL     1       8.850  15.241   4.681  1.00  0.00     0.062 A 
ATOM     17  C   UNL     1       7.917  16.252   4.954  1.00  0.00     0.158 A 
BRANCH  15  18
ATOM     18  O   UNL     1       6.654  18.194   4.194  1.00  0.00    -0.504 OA
ATOM     19  H   UNL     1       5.683  18.110   3.920  1.00  0.00     0.293 HD
ENDBRANCH  15  18
BRANCH  17  20
ATOM     20  O   UNL     1       7.328  16.339   6.215  1.00  0.00    -0.504 OA
ATOM     21  H   UNL     1       7.217  17.228   6.689  1.00  0.00     0.293 HD
ENDBRANCH  17  20
ENDBRANCH   1  12
BRANCH   2  22
ATOM     22  O   UNL     1       8.755  12.549   2.295  1.00  0.00    -0.502 OA
ATOM     23  H   UNL     1       8.019  13.240   2.380  1.00  0.00     0.293 HD
ENDBRANCH   2  22
BRANCH   9  24
ATOM     24  O   UNL     1      16.397  13.385   3.401  1.00  0.00    -0.508 OA
ATOM     25  H   UNL     1      16.788  13.329   4.334  1.00  0.00     0.293 HD
ENDBRANCH   9  24
TORSDOF 5
ENDMDL
MODEL 3
REMARK VINA RESULT:    -5.171      1.896      7.207
REMARK INTER + INTRA:          -6.324
REMARK INTER:                  -6.069
REMARK INTRA:                  -0.255
REMARK UNBOUND:                -0.246
REMARK SMILES O=c1c(O)c(-c2ccc(O)c(O)c2)oc2cc(O)ccc12
REMARK SMILES IDX 5 1 3 2 2 3 1 4 21 5 15 6 14 7 16 8 17 9 19 10 20 11 6 12
REMARK SMILES IDX 7 13 8 14 9 15 13 16 11 17 10 18 12 20 4 22 18 24
REMARK H PARENT 10 19 12 21 4 23 18 25
REMARK Flexibility Score: inf
ROOT
ATOM      1  C   UNL     1      19.274  22.317  13.833  1.00  0.00     0.180 A 
ATOM      2  C   UNL     1      19.733  23.632  13.607  1.00  0.00     0.208 A 
ATOM      3  C   UNL     1      20.295  23.947  12.360  1.00  0.00     0.235 A 
ATOM      4  O   UNL     1      20.701  25.119  12.130  1.00  0.00    -0.285 OA
ATOM      5  C   UNL     1      20.404  22.949  11.380  1.00  0.00     0.069 A 
ATOM      6  C   UNL     1      19.944  21.651  11.692  1.00  0.00     0.142 A 
ATOM      7  O   UNL     1      19.410  21.395  12.882  1.00  0.00    -0.452 OA
ATOM      8  C   UNL     1      20.045  20.625  10.746  1.00  0.00     0.094 A 
ATOM      9  C   UNL     1      20.600  20.879   9.487  1.00  0.00     0.119 A 
ATOM     10  C   UNL     1      21.057  22.167   9.173  1.00  0.00     0.047 A 
ATOM     11  C   UNL     1      20.962  23.198  10.112  1.00  0.00     0.020 A 
ENDROOT
BRANCH   1  12
ATOM     12  C   UNL     1      18.654  21.911  15.114  1.00  0.00     0.025 A 
ATOM     13  C   UNL     1      19.469  21.682  16.234  1.00  0.00     0.016 A 
ATOM     14  C   UNL     1      18.908  21.279  17.448  1.00  0.00     0.051 A 
ATOM     15  C   UNL     1      17.528  21.081  17.558  1.00  0.00     0.157 A 
ATOM     16  C   UNL     1      17.269  21.691  15.221  1.00  0.00     0.062 A 
ATOM     17  C   UNL     1      16.704  21.283  16.438  1.00  0.00     0.158 A 
BRANCH  15  18
ATOM     18  O   UNL     1      16.995  20.679  18.783  1.00  0.00    -0.504 OA
ATOM     19  H   UNL     1      17.463  20.008  19.379  1.00  0.00     0.293 HD
ENDBRANCH  15  18
BRANCH  17  20
ATOM     20  O   UNL     1      15.329  21.074  16.537  1.00  0.00    -0.504 OA
ATOM     21  H   UNL     1      14.775  20.799  15.734  1.00  0.00     0.293 HD
ENDBRANCH  17  20
ENDBRANCH   1  12
BRANCH   2  22
ATOM     22  O   UNL     1      19.655  24.593  14.618  1.00  0.00    -0.502 OA
ATOM     23  H   UNL     1      18.781  25.028  14.885  1.00  0.00     0.293 HD
ENDBRANCH   2  22
BRANCH   9  24
ATOM     24  O   UNL     1      20.693  19.847   8.557  1.00  0.00    -0.508 OA
ATOM     25  H   UNL     1      21.281  19.038   8.720  1.00  0.00     0.293 HD
ENDBRANCH   9  24
TORSDOF 5
ENDMDL
MODEL 4
REMARK VINA RESULT:    -5.105      1.267      2.799
REMARK INTER + INTRA:          -6.247
REMARK INTER:                  -6.135
REMARK INTRA:                  -0.112
REMARK UNBOUND:                -0.246
REMARK SMILES O=c1c(O)c(-c2ccc(O)c(O)c2)oc2cc(O)ccc12
REMARK SMILES IDX 5 1 3 2 2 3 1 4 21 5 15 6 14 7 16 8 17 9 19 10 20 11 6 12
REMARK SMILES IDX 7 13 8 14 9 15 13 16 11 17 10 18 12 20 4 22 18 24
REMARK H PARENT 10 19 12 21 4 23 18 25
REMARK Flexibility Score: inf
ROOT
ATOM      1  C   UNL     1      19.395  22.617  15.355  1.00  0.00     0.180 A 
ATOM      2  C   UNL     1      20.113  23.151  16.446  1.00  0.00     0.208 A 
ATOM      3  C   UNL     1      19.770  22.744  17.745  1.00  0.00     0.235 A 
ATOM      4  O   UNL     1      20.405  23.199  18.736  1.00  0.00    -0.285 OA
ATOM      5  C   UNL     1      18.716  21.836  17.929  1.00  0.00     0.069 A 
ATOM      6  C   UNL     1      18.031  21.366  16.788  1.00  0.00     0.142 A 
ATOM      7  O   UNL     1      18.391  21.769  15.574  1.00  0.00    -0.452 OA
ATOM      8  C   UNL     1      16.967  20.468  16.930  1.00  0.00     0.094 A 
ATOM      9  C   UNL     1      16.578  20.031  18.200  1.00  0.00     0.119 A 
ATOM     10  C   UNL     1      17.257  20.494  19.335  1.00  0.00     0.047 A 
ATOM     11  C   UNL     1      18.320  21.393  19.204  1.00  0.00     0.020 A 
ENDROOT
BRANCH   1  12
ATOM     12  C   UNL     1      19.707  22.981  13.955  1.00  0.00     0.025 A 
ATOM     13  C   UNL     1      20.157  21.992  13.067  1.00  0.00     0.016 A 
ATOM     14  C   UNL     1      20.476  22.317  11.747  1.00  0.00     0.051 A 
ATOM     15  C   UNL     1      20.369  23.637  11.298  1.00  0.00     0.157 A 
ATOM     16  C   UNL     1      19.619  24.312  13.507  1.00  0.00     0.062 A 
ATOM     17  C   UNL     1      19.943  24.641  12.183  1.00  0.00     0.158 A 
BRANCH  15  18
ATOM     18  O   UNL     1      20.693  23.932   9.974  1.00  0.00    -0.504 OA
ATOM     19  H   UNL     1      20.050  24.411   9.357  1.00  0.00     0.293 HD
ENDBRANCH  15  18
BRANCH  17  20
ATOM     20  O   UNL     1      19.847  25.961  11.746  1.00  0.00    -0.504 OA
ATOM     21  H   UNL     1      20.324  26.280  10.910  1.00  0.00     0.293 HD
ENDBRANCH  17  20
ENDBRANCH   1  12
BRANCH   2  22
ATOM     22  O   UNL     1      21.125  24.089  16.235  1.00  0.00    -0.502 OA
ATOM     23  H   UNL     1      21.996  24.072  16.752  1.00  0.00     0.293 HD
ENDBRANCH   2  22
BRANCH   9  24
ATOM     24  O   UNL     1      15.518  19.136  18.324  1.00  0.00    -0.508 OA
ATOM     25  H   UNL     1      14.998  19.046  19.189  1.00  0.00     0.293 HD
ENDBRANCH   9  24
TORSDOF 5
ENDMDL
MODEL 5
REMARK VINA RESULT:    -5.083      1.834      7.008
REMARK INTER + INTRA:          -6.221
REMARK INTER:                  -6.019
REMARK INTRA:                  -0.202
REMARK UNBOUND:                -0.246
REMARK SMILES O=c1c(O)c(-c2ccc(O)c(O)c2)oc2cc(O)ccc12
REMARK SMILES IDX 5 1 3 2 2 3 1 4 21 5 15 6 14 7 16 8 17 9 19 10 20 11 6 12
REMARK SMILES IDX 7 13 8 14 9 15 13 16 11 17 10 18 12 20 4 22 18 24
REMARK H PARENT 10 19 12 21 4 23 18 25
REMARK Flexibility Score: inf
ROOT
ATOM      1  C   UNL     1      19.747  22.369  16.574  1.00  0.00     0.180 A 
ATOM      2  C   UNL     1      20.218  23.677  16.333  1.00  0.00     0.208 A 
ATOM      3  C   UNL     1      20.456  24.076  15.008  1.00  0.00     0.235 A 
ATOM      4  O   UNL     1      20.866  25.244  14.766  1.00  0.00    -0.285 OA
ATOM      5  C   UNL     1      20.238  23.166  13.963  1.00  0.00     0.069 A 
ATOM      6  C   UNL     1      19.789  21.868  14.289  1.00  0.00     0.142 A 
ATOM      7  O   UNL     1      19.568  21.531  15.555  1.00  0.00    -0.452 OA
ATOM      8  C   UNL     1      19.570  20.927  13.276  1.00  0.00     0.094 A 
ATOM      9  C   UNL     1      19.794  21.267  11.938  1.00  0.00     0.119 A 
ATOM     10  C   UNL     1      20.239  22.555  11.610  1.00  0.00     0.047 A 
ATOM     11  C   UNL     1      20.461  23.501  12.615  1.00  0.00     0.020 A 
ENDROOT
BRANCH   1  12
ATOM     12  C   UNL     1      19.456  21.879  17.940  1.00  0.00     0.025 A 
ATOM     13  C   UNL     1      20.517  21.629  18.825  1.00  0.00     0.016 A 
ATOM     14  C   UNL     1      20.268  21.147  20.111  1.00  0.00     0.051 A 
ATOM     15  C   UNL     1      18.958  20.890  20.529  1.00  0.00     0.157 A 
ATOM     16  C   UNL     1      18.142  21.601  18.355  1.00  0.00     0.062 A 
ATOM     17  C   UNL     1      17.889  21.114  19.646  1.00  0.00     0.158 A 
BRANCH  15  18
ATOM     18  O   UNL     1      18.739  20.411  21.820  1.00  0.00    -0.504 OA
ATOM     19  H   UNL     1      17.905  20.640  22.345  1.00  0.00     0.293 HD
ENDBRANCH  15  18
BRANCH  17  20
ATOM     20  O   UNL     1      16.582  20.847  20.051  1.00  0.00    -0.504 OA
ATOM     21  H   UNL     1      15.932  21.593  20.273  1.00  0.00     0.293 HD
ENDBRANCH  17  20
ENDBRANCH   1  12
BRANCH   2  22
ATOM     22  O   UNL     1      20.472  24.546  17.396  1.00  0.00    -0.502 OA
ATOM     23  H   UNL     1      19.773  24.764  18.096  1.00  0.00     0.293 HD
ENDBRANCH   2  22
BRANCH   9  24
ATOM     24  O   UNL     1      19.571  20.319  10.942  1.00  0.00    -0.508 OA
ATOM     25  H   UNL     1      20.032  19.416  10.957  1.00  0.00     0.293 HD
ENDBRANCH   9  24
TORSDOF 5
ENDMDL
MODEL 6
REMARK VINA RESULT:    -4.904      8.545     10.905
REMARK INTER + INTRA:          -6.010
REMARK INTER:                  -5.975
REMARK INTRA:                  -0.035
REMARK UNBOUND:                -0.246
REMARK SMILES O=c1c(O)c(-c2ccc(O)c(O)c2)oc2cc(O)ccc12
REMARK SMILES IDX 5 1 3 2 2 3 1 4 21 5 15 6 14 7 16 8 17 9 19 10 20 11 6 12
REMARK SMILES IDX 7 13 8 14 9 15 13 16 11 17 10 18 12 20 4 22 18 24
REMARK H PARENT 10 19 12 21 4 23 18 25
REMARK Flexibility Score: inf
ROOT
ATOM      1  C   UNL     1      16.651  19.272   6.510  1.00  0.00     0.180 A 
ATOM      2  C   UNL     1      17.065  19.631   7.810  1.00  0.00     0.208 A 
ATOM      3  C   UNL     1      17.560  18.631   8.662  1.00  0.00     0.235 A 
ATOM      4  O   UNL     1      17.947  18.929   9.825  1.00  0.00    -0.285 OA
ATOM      5  C   UNL     1      17.613  17.303   8.210  1.00  0.00     0.069 A 
ATOM      6  C   UNL     1      17.158  17.022   6.904  1.00  0.00     0.142 A 
ATOM      7  O   UNL     1      16.705  17.998   6.125  1.00  0.00    -0.452 OA
ATOM      8  C   UNL     1      17.185  15.709   6.420  1.00  0.00     0.094 A 
ATOM      9  C   UNL     1      17.663  14.670   7.226  1.00  0.00     0.119 A 
ATOM     10  C   UNL     1      18.117  14.946   8.523  1.00  0.00     0.047 A 
ATOM     11  C   UNL     1      18.093  16.254   9.016  1.00  0.00     0.020 A 
ENDROOT
BRANCH   1  12
ATOM     12  C   UNL     1      16.135  20.270   5.547  1.00  0.00     0.025 A 
ATOM     13  C   UNL     1      16.905  21.406   5.249  1.00  0.00     0.016 A 
ATOM     14  C   UNL     1      16.429  22.371   4.359  1.00  0.00     0.051 A 
ATOM     15  C   UNL     1      15.171  22.227   3.766  1.00  0.00     0.157 A 
ATOM     16  C   UNL     1      14.862  20.138   4.965  1.00  0.00     0.062 A 
ATOM     17  C   UNL     1      14.380  21.108   4.073  1.00  0.00     0.158 A 
BRANCH  15  18
ATOM     18  O   UNL     1      14.723  23.206   2.879  1.00  0.00    -0.504 OA
ATOM     19  H   UNL     1      13.739  23.402   2.747  1.00  0.00     0.293 HD
ENDBRANCH  15  18
BRANCH  17  20
ATOM     20  O   UNL     1      13.119  20.965   3.496  1.00  0.00    -0.504 OA
ATOM     21  H   UNL     1      12.633  20.075   3.497  1.00  0.00     0.293 HD
ENDBRANCH  17  20
ENDBRANCH   1  12
BRANCH   2  22
ATOM     22  O   UNL     1      16.955  20.952   8.249  1.00  0.00    -0.502 OA
ATOM     23  H   UNL     1      17.401  21.280   9.097  1.00  0.00     0.293 HD
ENDBRANCH   2  22
BRANCH   9  24
ATOM     24  O   UNL     1      17.684  13.370   6.729  1.00  0.00    -0.508 OA
ATOM     25  H   UNL     1      18.244  12.645   7.162  1.00  0.00     0.293 HD
ENDBRANCH   9  24
TORSDOF 5
ENDMDL
MODEL 7
REMARK VINA RESULT:    -4.782     10.066     12.173
REMARK INTER + INTRA:          -5.866
REMARK INTER:                  -5.621
REMARK INTRA:                  -0.246
REMARK UNBOUND:                -0.246
REMARK SMILES O=c1c(O)c(-c2ccc(O)c(O)c2)oc2cc(O)ccc12
REMARK SMILES IDX 5 1 3 2 2 3 1 4 21 5 15 6 14 7 16 8 17 9 19 10 20 11 6 12
REMARK SMILES IDX 7 13 8 14 9 15 13 16 11 17 10 18 12 20 4 22 18 24
REMARK H PARENT 10 19 12 21 4 23 18 25
REMARK Flexibility Score: inf
ROOT
ATOM      1  C   UNL     1      15.270  18.968   4.723  1.00  0.00     0.180 A 
ATOM      2  C   UNL     1      14.881  17.815   4.009  1.00  0.00     0.208 A 
ATOM      3  C   UNL     1      15.219  16.554   4.526  1.00  0.00     0.235 A 
ATOM      4  O   UNL     1      14.872  15.508   3.912  1.00  0.00    -0.285 OA
ATOM      5  C   UNL     1      15.947  16.470   5.723  1.00  0.00     0.069 A 
ATOM      6  C   UNL     1      16.320  17.671   6.365  1.00  0.00     0.142 A 
ATOM      7  O   UNL     1      15.974  18.845   5.847  1.00  0.00    -0.452 OA
ATOM      8  C   UNL     1      17.056  17.630   7.554  1.00  0.00     0.094 A 
ATOM      9  C   UNL     1      17.425  16.402   8.114  1.00  0.00     0.119 A 
ATOM     10  C   UNL     1      17.055  15.208   7.480  1.00  0.00     0.047 A 
ATOM     11  C   UNL     1      16.321  15.238   6.290  1.00  0.00     0.020 A 
ENDROOT
BRANCH   1  12
ATOM     12  C   UNL     1      14.937  20.331   4.254  1.00  0.00     0.025 A 
ATOM     13  C   UNL     1      15.963  21.176   3.800  1.00  0.00     0.016 A 
ATOM     14  C   UNL     1      15.675  22.473   3.372  1.00  0.00     0.051 A 
ATOM     15  C   UNL     1      14.362  22.954   3.406  1.00  0.00     0.157 A 
ATOM     16  C   UNL     1      13.621  20.824   4.307  1.00  0.00     0.062 A 
ATOM     17  C   UNL     1      13.330  22.128   3.881  1.00  0.00     0.158 A 
BRANCH  15  18
ATOM     18  O   UNL     1      14.104  24.253   2.971  1.00  0.00    -0.504 OA
ATOM     19  H   UNL     1      13.173  24.650   2.983  1.00  0.00     0.293 HD
ENDBRANCH  15  18
BRANCH  17  20
ATOM     20  O   UNL     1      12.021  22.606   3.931  1.00  0.00    -0.504 OA
ATOM     21  H   UNL     1      11.231  21.979   4.031  1.00  0.00     0.293 HD
ENDBRANCH  17  20
ENDBRANCH   1  12
BRANCH   2  22
ATOM     22  O   UNL     1      14.199  17.929   2.797  1.00  0.00    -0.502 OA
ATOM     23  H   UNL     1      13.551  17.223   2.470  1.00  0.00     0.293 HD
ENDBRANCH   2  22
BRANCH   9  24
ATOM     24  O   UNL     1      18.157  16.380   9.298  1.00  0.00    -0.508 OA
ATOM     25  H   UNL     1      18.377  17.231   9.802  1.00  0.00     0.293 HD
ENDBRANCH   9  24
TORSDOF 5
ENDMDL
MODEL 8
REMARK VINA RESULT:    -4.595      2.048      7.330
REMARK INTER + INTRA:          -5.647
REMARK INTER:                  -5.330
REMARK INTRA:                  -0.317
REMARK UNBOUND:                -0.246
REMARK SMILES O=c1c(O)c(-c2ccc(O)c(O)c2)oc2cc(O)ccc12
REMARK SMILES IDX 5 1 3 2 2 3 1 4 21 5 15 6 14 7 16 8 17 9 19 10 20 11 6 12
REMARK SMILES IDX 7 13 8 14 9 15 13 16 11 17 10 18 12 20 4 22 18 24
REMARK H PARENT 10 19 12 21 4 23 18 25
REMARK Flexibility Score: inf
ROOT
ATOM      1  C   UNL     1      19.645  22.507  13.084  1.00  0.00     0.180 A 
ATOM      2  C   UNL     1      20.079  21.432  12.280  1.00  0.00     0.208 A 
ATOM      3  C   UNL     1      20.582  21.707  10.998  1.00  0.00     0.235 A 
ATOM      4  O   UNL     1      20.987  20.763  10.265  1.00  0.00    -0.285 OA
ATOM      5  C   UNL     1      20.624  23.033  10.543  1.00  0.00     0.069 A 
ATOM      6  C   UNL     1      20.150  24.051  11.399  1.00  0.00     0.142 A 
ATOM      7  O   UNL     1      19.688  23.750  12.608  1.00  0.00    -0.452 OA
ATOM      8  C   UNL     1      20.165  25.385  10.977  1.00  0.00     0.094 A 
ATOM      9  C   UNL     1      20.651  25.718   9.708  1.00  0.00     0.119 A 
ATOM     10  C   UNL     1      21.125  24.711   8.857  1.00  0.00     0.047 A 
ATOM     11  C   UNL     1      21.112  23.375   9.268  1.00  0.00     0.020 A 
ENDROOT
BRANCH   1  12
ATOM     12  C   UNL     1      19.119  22.302  14.452  1.00  0.00     0.025 A 
ATOM     13  C   UNL     1      20.008  22.279  15.538  1.00  0.00     0.016 A 
ATOM     14  C   UNL     1      19.535  22.067  16.835  1.00  0.00     0.051 A 
ATOM     15  C   UNL     1      18.173  21.857  17.066  1.00  0.00     0.157 A 
ATOM     16  C   UNL     1      17.751  22.070  14.684  1.00  0.00     0.062 A 
ATOM     17  C   UNL     1      17.275  21.854  15.986  1.00  0.00     0.158 A 
BRANCH  15  18
ATOM     18  O   UNL     1      17.730  21.650  18.373  1.00  0.00    -0.504 OA
ATOM     19  H   UNL     1      18.274  21.128  19.048  1.00  0.00     0.293 HD
ENDBRANCH  15  18
BRANCH  17  20
ATOM     20  O   UNL     1      15.917  21.631  16.208  1.00  0.00    -0.504 OA
ATOM     21  H   UNL     1      15.561  21.394  17.126  1.00  0.00     0.293 HD
ENDBRANCH  17  20
ENDBRANCH   1  12
BRANCH   2  22
ATOM     22  O   UNL     1      19.980  20.118  12.741  1.00  0.00    -0.502 OA
ATOM     23  H   UNL     1      19.222  19.808  13.337  1.00  0.00     0.293 HD
ENDBRANCH   2  22
BRANCH   9  24
ATOM     24  O   UNL     1      20.660  27.051   9.305  1.00  0.00    -0.508 OA
ATOM     25  H   UNL     1      21.304  27.722   9.707  1.00  0.00     0.293 HD
ENDBRANCH   9  24
TORSDOF 5
ENDMDL
MODEL 9
REMARK VINA RESULT:    -4.590      8.678     12.265
REMARK INTER + INTRA:          -5.642
REMARK INTER:                  -5.324
REMARK INTRA:                  -0.317
REMARK UNBOUND:                -0.246
REMARK SMILES O=c1c(O)c(-c2ccc(O)c(O)c2)oc2cc(O)ccc12
REMARK SMILES IDX 5 1 3 2 2 3 1 4 21 5 15 6 14 7 16 8 17 9 19 10 20 11 6 12
REMARK SMILES IDX 7 13 8 14 9 15 13 16 11 17 10 18 12 20 4 22 18 24
REMARK H PARENT 10 19 12 21 4 23 18 25
REMARK Flexibility Score: inf
ROOT
ATOM      1  C   UNL     1      16.182  19.036   6.297  1.00  0.00     0.180 A 
ATOM      2  C   UNL     1      16.087  17.695   5.870  1.00  0.00     0.208 A 
ATOM      3  C   UNL     1      15.341  17.404   4.716  1.00  0.00     0.235 A 
ATOM      4  O   UNL     1      15.251  16.214   4.308  1.00  0.00    -0.285 OA
ATOM      5  C   UNL     1      14.696  18.445   4.031  1.00  0.00     0.069 A 
ATOM      6  C   UNL     1      14.819  19.757   4.536  1.00  0.00     0.142 A 
ATOM      7  O   UNL     1      15.542  19.992   5.626  1.00  0.00    -0.452 OA
ATOM      8  C   UNL     1      14.182  20.820   3.887  1.00  0.00     0.094 A 
ATOM      9  C   UNL     1      13.421  20.590   2.736  1.00  0.00     0.119 A 
ATOM     10  C   UNL     1      13.298  19.289   2.231  1.00  0.00     0.047 A 
ATOM     11  C   UNL     1      13.929  18.219   2.873  1.00  0.00     0.020 A 
ENDROOT
BRANCH   1  12
ATOM     12  C   UNL     1      16.963  19.427   7.492  1.00  0.00     0.025 A 
ATOM     13  C   UNL     1      18.326  19.734   7.356  1.00  0.00     0.016 A 
ATOM     14  C   UNL     1      19.088  20.085   8.472  1.00  0.00     0.051 A 
ATOM     15  C   UNL     1      18.506  20.118   9.743  1.00  0.00     0.157 A 
ATOM     16  C   UNL     1      16.385  19.440   8.774  1.00  0.00     0.062 A 
ATOM     17  C   UNL     1      17.149  19.789   9.897  1.00  0.00     0.158 A 
BRANCH  15  18
ATOM     18  O   UNL     1      19.291  20.474  10.840  1.00  0.00    -0.504 OA
ATOM     19  H   UNL     1      19.929  19.822  11.279  1.00  0.00     0.293 HD
ENDBRANCH  15  18
BRANCH  17  20
ATOM     20  O   UNL     1      16.566  19.806  11.163  1.00  0.00    -0.504 OA
ATOM     21  H   UNL     1      15.969  19.052  11.483  1.00  0.00     0.293 HD
ENDBRANCH  17  20
ENDBRANCH   1  12
BRANCH   2  22
ATOM     22  O   UNL     1      16.700  16.675   6.600  1.00  0.00    -0.502 OA
ATOM     23  H   UNL     1      16.648  15.703   6.321  1.00  0.00     0.293 HD
ENDBRANCH   2  22
BRANCH   9  24
ATOM     24  O   UNL     1      12.794  21.660   2.102  1.00  0.00    -0.508 OA
ATOM     25  H   UNL     1      12.566  22.512   2.600  1.00  0.00     0.293 HD
ENDBRANCH   9  24
TORSDOF 5
ENDMDL
