MODEL 1
REMARK VINA RESULT:    -4.760      0.000      0.000
REMARK INTER + INTRA:          -7.732
REMARK INTER:                  -6.986
REMARK INTRA:                  -0.746
REMARK UNBOUND:                -0.746
REMARK SMILES O=C([O-])CCCCCCCC(=O)[O-]
REMARK SMILES IDX 7 1 6 2 5 3 4 4 2 5 1 6 3 7 8 8 9 9 10 10 11 11 12 12 13 13
REMARK H PARENT
REMARK Flexibility Score: inf
ROOT
ATOM      1  C   UNL     1     -28.306  65.215  82.222  1.00  0.00     0.000 C 
ENDROOT
BRANCH   1   2
ATOM      2  C   UNL     1     -28.356  66.752  82.229  1.00  0.00     0.000 C 
BRANCH   2   3
ATOM      3  C   UNL     1     -28.658  67.328  83.623  1.00  0.00     0.006 C 
BRANCH   3   4
ATOM      4  C   UNL     1     -27.478  67.159  84.588  1.00  0.00     0.053 C 
BRANCH   4   5
ATOM      5  C   UNL     1     -27.494  68.196  85.669  1.00  0.00     0.041 C 
ATOM      6  O   UNL     1     -26.430  68.782  86.003  1.00  0.00    -0.550 OA
ATOM      7  O   UNL     1     -28.691  68.539  86.286  1.00  0.00    -0.550 OA
ENDBRANCH   4   5
ENDBRANCH   3   4
ENDBRANCH   2   3
ENDBRANCH   1   2
BRANCH   1   8
ATOM      8  C   UNL     1     -29.513  64.581  82.930  1.00  0.00     0.000 C 
BRANCH   8   9
ATOM      9  C   UNL     1     -29.067  63.742  84.131  1.00  0.00     0.006 C 
BRANCH   9  10
ATOM     10  C   UNL     1     -30.143  63.721  85.220  1.00  0.00     0.053 C 
BRANCH  10  11
ATOM     11  C   UNL     1     -30.130  65.000  85.995  1.00  0.00     0.041 C 
ATOM     12  O   UNL     1     -29.256  65.196  86.881  1.00  0.00    -0.550 OA
ATOM     13  O   UNL     1     -31.112  65.957  85.773  1.00  0.00    -0.550 OA
ENDBRANCH  10  11
ENDBRANCH   9  10
ENDBRANCH   8   9
ENDBRANCH   1   8
TORSDOF 8
ENDMDL
MODEL 2
REMARK VINA RESULT:    -4.754      0.084      3.759
REMARK INTER + INTRA:          -7.724
REMARK INTER:                  -6.966
REMARK INTRA:                  -0.758
REMARK UNBOUND:                -0.746
REMARK SMILES O=C([O-])CCCCCCCC(=O)[O-]
REMARK SMILES IDX 7 1 6 2 5 3 4 4 2 5 1 6 3 7 8 8 9 9 10 10 11 11 12 12 13 13
REMARK H PARENT
REMARK Flexibility Score: inf
ROOT
ATOM      1  C   UNL     1     -28.263  65.248  82.341  1.00  0.00     0.000 C 
ENDROOT
BRANCH   1   2
ATOM      2  C   UNL     1     -29.478  64.545  82.969  1.00  0.00     0.000 C 
BRANCH   2   3
ATOM      3  C   UNL     1     -29.094  63.650  84.160  1.00  0.00     0.006 C 
BRANCH   3   4
ATOM      4  C   UNL     1     -30.167  63.653  85.256  1.00  0.00     0.053 C 
BRANCH   4   5
ATOM      5  C   UNL     1     -30.170  64.938  86.026  1.00  0.00     0.041 C 
ATOM      6  O   UNL     1     -29.251  65.186  86.851  1.00  0.00    -0.550 OA
ATOM      7  O   UNL     1     -31.170  65.878  85.806  1.00  0.00    -0.550 OA
ENDBRANCH   4   5
ENDBRANCH   3   4
ENDBRANCH   2   3
ENDBRANCH   1   2
BRANCH   1   8
ATOM      8  C   UNL     1     -28.415  66.777  82.312  1.00  0.00     0.000 C 
BRANCH   8   9
ATOM      9  C   UNL     1     -28.706  67.327  83.712  1.00  0.00     0.006 C 
BRANCH   9  10
ATOM     10  C   UNL     1     -27.490  67.171  84.629  1.00  0.00     0.053 C 
BRANCH  10  11
ATOM     11  C   UNL     1     -27.512  68.205  85.709  1.00  0.00     0.041 C 
ATOM     12  O   UNL     1     -26.446  68.778  86.060  1.00  0.00    -0.550 OA
ATOM     13  O   UNL     1     -28.701  68.503  86.363  1.00  0.00    -0.550 OA
ENDBRANCH  10  11
ENDBRANCH   9  10
ENDBRANCH   8   9
ENDBRANCH   1   8
TORSDOF 8
ENDMDL
MODEL 3
REMARK VINA RESULT:    -4.754      2.490      3.996
REMARK INTER + INTRA:          -7.723
REMARK INTER:                  -7.231
REMARK INTRA:                  -0.492
REMARK UNBOUND:                -0.746
REMARK SMILES O=C([O-])CCCCCCCC(=O)[O-]
REMARK SMILES IDX 7 1 6 2 5 3 4 4 2 5 1 6 3 7 8 8 9 9 10 10 11 11 12 12 13 13
REMARK H PARENT
REMARK Flexibility Score: inf
ROOT
ATOM      1  C   UNL     1     -29.068  65.570  86.484  1.00  0.00     0.000 C 
ENDROOT
BRANCH   1   2
ATOM      2  C   UNL     1     -28.078  65.184  85.372  1.00  0.00     0.000 C 
BRANCH   2   3
ATOM      3  C   UNL     1     -27.500  66.409  84.642  1.00  0.00     0.006 C 
BRANCH   3   4
ATOM      4  C   UNL     1     -28.361  66.828  83.444  1.00  0.00     0.053 C 
BRANCH   4   5
ATOM      5  C   UNL     1     -28.637  65.674  82.529  1.00  0.00     0.041 C 
ATOM      6  O   UNL     1     -27.830  65.390  81.605  1.00  0.00    -0.550 OA
ATOM      7  O   UNL     1     -29.769  64.891  82.718  1.00  0.00    -0.550 OA
ENDBRANCH   4   5
ENDBRANCH   3   4
ENDBRANCH   2   3
ENDBRANCH   1   2
BRANCH   1   8
ATOM      8  C   UNL     1     -30.533  65.380  86.062  1.00  0.00     0.000 C 
BRANCH   8   9
ATOM      9  C   UNL     1     -31.136  66.696  85.561  1.00  0.00     0.006 C 
BRANCH   9  10
ATOM     10  C   UNL     1     -31.264  67.713  86.699  1.00  0.00     0.053 C 
BRANCH  10  11
ATOM     11  C   UNL     1     -30.462  68.939  86.399  1.00  0.00     0.041 C 
ATOM     12  O   UNL     1     -29.203  68.889  86.399  1.00  0.00    -0.550 OA
ATOM     13  O   UNL     1     -31.103  70.150  86.169  1.00  0.00    -0.550 OA
ENDBRANCH  10  11
ENDBRANCH   9  10
ENDBRANCH   8   9
ENDBRANCH   1   8
TORSDOF 8
ENDMDL
MODEL 4
REMARK VINA RESULT:    -4.733      2.514      3.806
REMARK INTER + INTRA:          -7.693
REMARK INTER:                  -7.203
REMARK INTRA:                  -0.490
REMARK UNBOUND:                -0.746
REMARK SMILES O=C([O-])CCCCCCCC(=O)[O-]
REMARK SMILES IDX 7 1 6 2 5 3 4 4 2 5 1 6 3 7 8 8 9 9 10 10 11 11 12 12 13 13
REMARK H PARENT
REMARK Flexibility Score: inf
ROOT
ATOM      1  C   UNL     1     -29.074  65.581  86.453  1.00  0.00     0.000 C 
ENDROOT
BRANCH   1   2
ATOM      2  C   UNL     1     -30.548  65.376  86.065  1.00  0.00     0.000 C 
BRANCH   2   3
ATOM      3  C   UNL     1     -31.211  66.669  85.558  1.00  0.00     0.006 C 
BRANCH   3   4
ATOM      4  C   UNL     1     -31.349  67.721  86.665  1.00  0.00     0.053 C 
BRANCH   4   5
ATOM      5  C   UNL     1     -30.519  68.936  86.381  1.00  0.00     0.041 C 
ATOM      6  O   UNL     1     -29.264  68.848  86.323  1.00  0.00    -0.550 OA
ATOM      7  O   UNL     1     -31.134  70.159  86.146  1.00  0.00    -0.550 OA
ENDBRANCH   4   5
ENDBRANCH   3   4
ENDBRANCH   2   3
ENDBRANCH   1   2
BRANCH   1   8
ATOM      8  C   UNL     1     -28.105  65.141  85.346  1.00  0.00     0.000 C 
BRANCH   8   9
ATOM      9  C   UNL     1     -27.517  66.354  84.617  1.00  0.00     0.006 C 
BRANCH   9  10
ATOM     10  C   UNL     1     -28.411  66.782  83.449  1.00  0.00     0.053 C 
BRANCH  10  11
ATOM     11  C   UNL     1     -28.631  65.639  82.511  1.00  0.00     0.041 C 
ATOM     12  O   UNL     1     -27.812  65.417  81.579  1.00  0.00    -0.550 OA
ATOM     13  O   UNL     1     -29.765  64.846  82.634  1.00  0.00    -0.550 OA
ENDBRANCH  10  11
ENDBRANCH   9  10
ENDBRANCH   8   9
ENDBRANCH   1   8
TORSDOF 8
ENDMDL
MODEL 5
REMARK VINA RESULT:    -4.699      2.354      4.261
REMARK INTER + INTRA:          -7.642
REMARK INTER:                  -6.955
REMARK INTRA:                  -0.687
REMARK UNBOUND:                -0.746
REMARK SMILES O=C([O-])CCCCCCCC(=O)[O-]
REMARK SMILES IDX 7 1 6 2 5 3 4 4 2 5 1 6 3 7 8 8 9 9 10 10 11 11 12 12 13 13
REMARK H PARENT
REMARK Flexibility Score: inf
ROOT
ATOM      1  C   UNL     1     -27.274  68.282  85.718  1.00  0.00     0.000 C 
ENDROOT
BRANCH   1   2
ATOM      2  C   UNL     1     -26.755  67.030  84.992  1.00  0.00     0.000 C 
BRANCH   2   3
ATOM      3  C   UNL     1     -27.824  65.930  84.873  1.00  0.00     0.006 C 
BRANCH   3   4
ATOM      4  C   UNL     1     -28.424  65.856  83.463  1.00  0.00     0.053 C 
BRANCH   4   5
ATOM      5  C   UNL     1     -29.116  64.550  83.223  1.00  0.00     0.041 C 
ATOM      6  O   UNL     1     -29.796  64.373  82.177  1.00  0.00    -0.550 OA
ATOM      7  O   UNL     1     -28.983  63.513  84.139  1.00  0.00    -0.550 OA
ENDBRANCH   4   5
ENDBRANCH   3   4
ENDBRANCH   2   3
ENDBRANCH   1   2
BRANCH   1   8
ATOM      8  C   UNL     1     -28.326  67.953  86.787  1.00  0.00     0.000 C 
BRANCH   8   9
ATOM      9  C   UNL     1     -29.587  68.802  86.597  1.00  0.00     0.006 C 
BRANCH   9  10
ATOM     10  C   UNL     1     -30.476  68.229  85.489  1.00  0.00     0.053 C 
BRANCH  10  11
ATOM     11  C   UNL     1     -31.363  67.155  86.032  1.00  0.00     0.041 C 
ATOM     12  O   UNL     1     -31.252  65.970  85.617  1.00  0.00    -0.550 OA
ATOM     13  O   UNL     1     -32.347  67.469  86.961  1.00  0.00    -0.550 OA
ENDBRANCH  10  11
ENDBRANCH   9  10
ENDBRANCH   8   9
ENDBRANCH   1   8
TORSDOF 8
ENDMDL
MODEL 6
REMARK VINA RESULT:    -4.694      1.676      4.125
REMARK INTER + INTRA:          -7.635
REMARK INTER:                  -6.905
REMARK INTRA:                  -0.730
REMARK UNBOUND:                -0.746
REMARK SMILES O=C([O-])CCCCCCCC(=O)[O-]
REMARK SMILES IDX 7 1 6 2 5 3 4 4 2 5 1 6 3 7 8 8 9 9 10 10 11 11 12 12 13 13
REMARK H PARENT
REMARK Flexibility Score: inf
ROOT
ATOM      1  C   UNL     1     -27.725  66.381  83.892  1.00  0.00     0.000 C 
ENDROOT
BRANCH   1   2
ATOM      2  C   UNL     1     -29.125  66.918  83.549  1.00  0.00     0.000 C 
BRANCH   2   3
ATOM      3  C   UNL     1     -30.247  65.949  83.961  1.00  0.00     0.006 C 
BRANCH   3   4
ATOM      4  C   UNL     1     -29.726  64.527  84.202  1.00  0.00     0.053 C 
BRANCH   4   5
ATOM      5  C   UNL     1     -29.973  64.078  85.610  1.00  0.00     0.041 C 
ATOM      6  O   UNL     1     -30.442  62.932  85.838  1.00  0.00    -0.550 OA
ATOM      7  O   UNL     1     -29.652  64.914  86.673  1.00  0.00    -0.550 OA
ENDBRANCH   4   5
ENDBRANCH   3   4
ENDBRANCH   2   3
ENDBRANCH   1   2
BRANCH   1   8
ATOM      8  C   UNL     1     -27.189  66.937  85.220  1.00  0.00     0.000 C 
BRANCH   8   9
ATOM      9  C   UNL     1     -27.793  68.311  85.525  1.00  0.00     0.006 C 
BRANCH   9  10
ATOM     10  C   UNL     1     -28.572  68.291  86.843  1.00  0.00     0.053 C 
BRANCH  10  11
ATOM     11  C   UNL     1     -29.972  68.773  86.632  1.00  0.00     0.041 C 
ATOM     12  O   UNL     1     -30.198  69.995  86.426  1.00  0.00    -0.550 OA
ATOM     13  O   UNL     1     -31.034  67.880  86.712  1.00  0.00    -0.550 OA
ENDBRANCH  10  11
ENDBRANCH   9  10
ENDBRANCH   8   9
ENDBRANCH   1   8
TORSDOF 8
ENDMDL
MODEL 7
REMARK VINA RESULT:    -4.668      2.443      4.261
REMARK INTER + INTRA:          -7.598
REMARK INTER:                  -6.961
REMARK INTRA:                  -0.636
REMARK UNBOUND:                -0.746
REMARK SMILES O=C([O-])CCCCCCCC(=O)[O-]
REMARK SMILES IDX 7 1 6 2 5 3 4 4 2 5 1 6 3 7 8 8 9 9 10 10 11 11 12 12 13 13
REMARK H PARENT
REMARK Flexibility Score: inf
ROOT
ATOM      1  C   UNL     1     -27.271  68.287  85.741  1.00  0.00     0.000 C 
ENDROOT
BRANCH   1   2
ATOM      2  C   UNL     1     -28.286  67.909  86.833  1.00  0.00     0.000 C 
BRANCH   2   3
ATOM      3  C   UNL     1     -29.578  68.741  86.754  1.00  0.00     0.006 C 
BRANCH   3   4
ATOM      4  C   UNL     1     -30.490  68.289  85.607  1.00  0.00     0.053 C 
BRANCH   4   5
ATOM      5  C   UNL     1     -31.375  67.152  86.018  1.00  0.00     0.041 C 
ATOM      6  O   UNL     1     -31.162  65.991  85.580  1.00  0.00    -0.550 OA
ATOM      7  O   UNL     1     -32.415  67.370  86.914  1.00  0.00    -0.550 OA
ENDBRANCH   4   5
ENDBRANCH   3   4
ENDBRANCH   2   3
ENDBRANCH   1   2
BRANCH   1   8
ATOM      8  C   UNL     1     -26.703  67.059  85.013  1.00  0.00     0.000 C 
BRANCH   8   9
ATOM      9  C   UNL     1     -27.823  66.105  84.587  1.00  0.00     0.006 C 
BRANCH   9  10
ATOM     10  C   UNL     1     -28.424  66.527  83.243  1.00  0.00     0.053 C 
BRANCH  10  11
ATOM     11  C   UNL     1     -28.617  65.336  82.359  1.00  0.00     0.041 C 
ATOM     12  O   UNL     1     -28.095  65.306  81.212  1.00  0.00    -0.550 OA
ATOM     13  O   UNL     1     -29.413  64.278  82.780  1.00  0.00    -0.550 OA
ENDBRANCH  10  11
ENDBRANCH   9  10
ENDBRANCH   8   9
ENDBRANCH   1   8
TORSDOF 8
ENDMDL
MODEL 8
REMARK VINA RESULT:    -4.656      2.323      3.414
REMARK INTER + INTRA:          -7.580
REMARK INTER:                  -6.857
REMARK INTRA:                  -0.724
REMARK UNBOUND:                -0.746
REMARK SMILES O=C([O-])CCCCCCCC(=O)[O-]
REMARK SMILES IDX 7 1 6 2 5 3 4 4 2 5 1 6 3 7 8 8 9 9 10 10 11 11 12 12 13 13
REMARK H PARENT
REMARK Flexibility Score: inf
ROOT
ATOM      1  C   UNL     1     -28.262  65.290  86.147  1.00  0.00     0.000 C 
ENDROOT
BRANCH   1   2
ATOM      2  C   UNL     1     -28.276  66.813  86.358  1.00  0.00     0.000 C 
BRANCH   2   3
ATOM      3  C   UNL     1     -28.587  67.587  85.065  1.00  0.00     0.006 C 
BRANCH   3   4
ATOM      4  C   UNL     1     -30.091  67.822  84.879  1.00  0.00     0.053 C 
BRANCH   4   5
ATOM      5  C   UNL     1     -30.709  68.447  86.092  1.00  0.00     0.041 C 
ATOM      6  O   UNL     1     -30.448  69.642  86.393  1.00  0.00    -0.550 OA
ATOM      7  O   UNL     1     -31.600  67.721  86.872  1.00  0.00    -0.550 OA
ENDBRANCH   4   5
ENDBRANCH   3   4
ENDBRANCH   2   3
ENDBRANCH   1   2
BRANCH   1   8
ATOM      8  C   UNL     1     -29.641  64.650  86.371  1.00  0.00     0.000 C 
BRANCH   8   9
ATOM      9  C   UNL     1     -30.131  63.943  85.103  1.00  0.00     0.006 C 
BRANCH   9  10
ATOM     10  C   UNL     1     -28.971  63.671  84.141  1.00  0.00     0.053 C 
BRANCH  10  11
ATOM     11  C   UNL     1     -29.218  64.331  82.822  1.00  0.00     0.041 C 
ATOM     12  O   UNL     1     -30.129  63.909  82.061  1.00  0.00    -0.550 OA
ATOM     13  O   UNL     1     -28.410  65.384  82.410  1.00  0.00    -0.550 OA
ENDBRANCH  10  11
ENDBRANCH   9  10
ENDBRANCH   8   9
ENDBRANCH   1   8
TORSDOF 8
ENDMDL
MODEL 9
REMARK VINA RESULT:    -4.631      2.396      3.435
REMARK INTER + INTRA:          -7.543
REMARK INTER:                  -6.798
REMARK INTRA:                  -0.745
REMARK UNBOUND:                -0.746
REMARK SMILES O=C([O-])CCCCCCCC(=O)[O-]
REMARK SMILES IDX 7 1 6 2 5 3 4 4 2 5 1 6 3 7 8 8 9 9 10 10 11 11 12 12 13 13
REMARK H PARENT
REMARK Flexibility Score: inf
ROOT
ATOM      1  C   UNL     1     -30.834  65.495  85.610  1.00  0.00     0.000 C 
ENDROOT
BRANCH   1   2
ATOM      2  C   UNL     1     -31.271  66.873  86.132  1.00  0.00     0.000 C 
BRANCH   2   3
ATOM      3  C   UNL     1     -30.497  68.028  85.472  1.00  0.00     0.006 C 
BRANCH   3   4
ATOM      4  C   UNL     1     -29.903  68.992  86.507  1.00  0.00     0.053 C 
BRANCH   4   5
ATOM      5  C   UNL     1     -28.488  68.635  86.847  1.00  0.00     0.041 C 
ATOM      6  O   UNL     1     -28.101  68.647  88.046  1.00  0.00    -0.550 OA
ATOM      7  O   UNL     1     -27.605  68.256  85.844  1.00  0.00    -0.550 OA
ENDBRANCH   4   5
ENDBRANCH   3   4
ENDBRANCH   2   3
ENDBRANCH   1   2
BRANCH   1   8
ATOM      8  C   UNL     1     -29.472  65.056  86.167  1.00  0.00     0.000 C 
BRANCH   8   9
ATOM      9  C   UNL     1     -28.428  64.956  85.049  1.00  0.00     0.006 C 
BRANCH   9  10
ATOM     10  C   UNL     1     -29.099  64.816  83.680  1.00  0.00     0.053 C 
BRANCH  10  11
ATOM     11  C   UNL     1     -28.499  65.776  82.702  1.00  0.00     0.041 C 
ATOM     12  O   UNL     1     -28.576  67.018  82.903  1.00  0.00    -0.550 OA
ATOM     13  O   UNL     1     -27.897  65.303  81.543  1.00  0.00    -0.550 OA
ENDBRANCH  10  11
ENDBRANCH   9  10
ENDBRANCH   8   9
ENDBRANCH   1   8
TORSDOF 8
ENDMDL
