MODEL 1
REMARK VINA RESULT:    11.596      0.000      0.000
REMARK INTER + INTRA:          20.978
REMARK INTER:                  21.765
REMARK INTRA:                  -0.787
REMARK UNBOUND:                -0.787
REMARK SMILES O=C([O-])CCCCCCCCCCCCCCC(=O)[O-]
REMARK SMILES IDX 10 1 9 2 8 3 7 4 6 5 5 6 4 7 2 8 1 9 3 10 11 11 12 12 13 13
REMARK SMILES IDX 14 14 15 15 16 16 17 17 18 18 19 19 20 20
REMARK H PARENT
REMARK Flexibility Score: inf
ROOT
ATOM      1  C   UNL     1      16.031  -9.460   2.116  1.00  0.00     0.000 C 
ENDROOT
BRANCH   1   2
ATOM      2  C   UNL     1      14.885 -10.398   2.538  1.00  0.00     0.000 C 
BRANCH   2   3
ATOM      3  C   UNL     1      13.973  -9.857   3.658  1.00  0.00     0.000 C 
BRANCH   3   4
ATOM      4  C   UNL     1      12.850 -10.811   4.105  1.00  0.00     0.000 C 
BRANCH   4   5
ATOM      5  C   UNL     1      11.769 -10.110   4.940  1.00  0.00     0.000 C 
BRANCH   5   6
ATOM      6  C   UNL     1      11.127 -11.085   5.937  1.00  0.00     0.006 C 
BRANCH   6   7
ATOM      7  C   UNL     1      11.281 -12.548   5.501  1.00  0.00     0.053 C 
BRANCH   7   8
ATOM      8  C   UNL     1       9.952 -13.211   5.307  1.00  0.00     0.041 C 
ATOM      9  O   UNL     1       9.865 -14.468   5.295  1.00  0.00    -0.550 OA
ATOM     10  O   UNL     1       8.813 -12.441   5.108  1.00  0.00    -0.550 OA
ENDBRANCH   7   8
ENDBRANCH   6   7
ENDBRANCH   5   6
ENDBRANCH   4   5
ENDBRANCH   3   4
ENDBRANCH   2   3
ENDBRANCH   1   2
BRANCH   1  11
ATOM     11  C   UNL     1      15.559  -8.016   1.875  1.00  0.00     0.000 C 
BRANCH  11  12
ATOM     12  C   UNL     1      16.724  -7.011   1.876  1.00  0.00     0.000 C 
BRANCH  12  13
ATOM     13  C   UNL     1      17.257  -6.730   3.291  1.00  0.00     0.000 C 
BRANCH  13  14
ATOM     14  C   UNL     1      16.144  -6.694   4.353  1.00  0.00     0.000 C 
BRANCH  14  15
ATOM     15  C   UNL     1      16.610  -6.149   5.719  1.00  0.00     0.000 C 
BRANCH  15  16
ATOM     16  C   UNL     1      15.536  -5.276   6.392  1.00  0.00     0.006 C 
BRANCH  16  17
ATOM     17  C   UNL     1      16.144  -4.092   7.155  1.00  0.00     0.053 C 
BRANCH  17  18
ATOM     18  C   UNL     1      15.411  -2.816   6.873  1.00  0.00     0.041 C 
ATOM     19  O   UNL     1      14.297  -2.843   6.286  1.00  0.00    -0.550 OA
ATOM     20  O   UNL     1      15.943  -1.601   7.282  1.00  0.00    -0.550 OA
ENDBRANCH  17  18
ENDBRANCH  16  17
ENDBRANCH  15  16
ENDBRANCH  14  15
ENDBRANCH  13  14
ENDBRANCH  12  13
ENDBRANCH  11  12
ENDBRANCH   1  11
TORSDOF 15
ENDMDL
MODEL 2
REMARK VINA RESULT:    11.730      5.800     10.193
REMARK INTER + INTRA:          21.228
REMARK INTER:                  21.870
REMARK INTRA:                  -0.642
REMARK UNBOUND:                -0.787
REMARK SMILES O=C([O-])CCCCCCCCCCCCCCC(=O)[O-]
REMARK SMILES IDX 10 1 9 2 8 3 7 4 6 5 5 6 4 7 2 8 1 9 3 10 11 11 12 12 13 13
REMARK SMILES IDX 14 14 15 15 16 16 17 17 18 18 19 19 20 20
REMARK H PARENT
REMARK Flexibility Score: inf
ROOT
ATOM      1  C   UNL     1      11.082 -18.381   5.673  1.00  0.00     0.000 C 
ENDROOT
BRANCH   1   2
ATOM      2  C   UNL     1      11.210 -17.206   4.687  1.00  0.00     0.000 C 
BRANCH   2   3
ATOM      3  C   UNL     1      10.075 -16.165   4.757  1.00  0.00     0.000 C 
BRANCH   3   4
ATOM      4  C   UNL     1      10.511 -14.747   5.168  1.00  0.00     0.000 C 
BRANCH   4   5
ATOM      5  C   UNL     1       9.373 -13.721   5.073  1.00  0.00     0.000 C 
BRANCH   5   6
ATOM      6  C   UNL     1       9.805 -12.367   5.654  1.00  0.00     0.006 C 
BRANCH   6   7
ATOM      7  C   UNL     1      11.331 -12.215   5.703  1.00  0.00     0.053 C 
BRANCH   7   8
ATOM      8  C   UNL     1      11.773 -10.889   5.166  1.00  0.00     0.041 C 
ATOM      9  O   UNL     1      11.188  -9.832   5.524  1.00  0.00    -0.550 OA
ATOM     10  O   UNL     1      12.810 -10.822   4.244  1.00  0.00    -0.550 OA
ENDBRANCH   7   8
ENDBRANCH   6   7
ENDBRANCH   5   6
ENDBRANCH   4   5
ENDBRANCH   3   4
ENDBRANCH   2   3
ENDBRANCH   1   2
BRANCH   1  11
ATOM     11  C   UNL     1      12.300 -19.322   5.640  1.00  0.00     0.000 C 
BRANCH  11  12
ATOM     12  C   UNL     1      12.697 -19.816   7.042  1.00  0.00     0.000 C 
BRANCH  12  13
ATOM     13  C   UNL     1      14.101 -19.346   7.455  1.00  0.00     0.000 C 
BRANCH  13  14
ATOM     14  C   UNL     1      14.408 -17.909   6.998  1.00  0.00     0.000 C 
BRANCH  14  15
ATOM     15  C   UNL     1      15.802 -17.406   7.432  1.00  0.00     0.000 C 
BRANCH  15  16
ATOM     16  C   UNL     1      16.193 -16.098   6.722  1.00  0.00     0.006 C 
BRANCH  16  17
ATOM     17  C   UNL     1      17.675 -15.755   6.913  1.00  0.00     0.053 C 
BRANCH  17  18
ATOM     18  C   UNL     1      18.557 -16.608   6.053  1.00  0.00     0.041 C 
ATOM     19  O   UNL     1      18.958 -16.180   4.938  1.00  0.00    -0.550 OA
ATOM     20  O   UNL     1      18.958 -17.862   6.493  1.00  0.00    -0.550 OA
ENDBRANCH  17  18
ENDBRANCH  16  17
ENDBRANCH  15  16
ENDBRANCH  14  15
ENDBRANCH  13  14
ENDBRANCH  12  13
ENDBRANCH  11  12
ENDBRANCH   1  11
TORSDOF 15
ENDMDL
MODEL 3
REMARK VINA RESULT:    11.945      6.742      9.756
REMARK INTER + INTRA:          21.632
REMARK INTER:                  20.510
REMARK INTRA:                   1.122
REMARK UNBOUND:                -0.787
REMARK SMILES O=C([O-])CCCCCCCCCCCCCCC(=O)[O-]
REMARK SMILES IDX 10 1 9 2 8 3 7 4 6 5 5 6 4 7 2 8 1 9 3 10 11 11 12 12 13 13
REMARK SMILES IDX 14 14 15 15 16 16 17 17 18 18 19 19 20 20
REMARK H PARENT
REMARK Flexibility Score: inf
ROOT
ATOM      1  C   UNL     1      16.620 -15.940   6.927  1.00  0.00     0.000 C 
ENDROOT
BRANCH   1   2
ATOM      2  C   UNL     1      15.683 -14.779   7.306  1.00  0.00     0.000 C 
BRANCH   2   3
ATOM      3  C   UNL     1      14.272 -14.846   6.686  1.00  0.00     0.000 C 
BRANCH   3   4
ATOM      4  C   UNL     1      13.462 -13.539   6.760  1.00  0.00     0.000 C 
BRANCH   4   5
ATOM      5  C   UNL     1      12.316 -13.489   5.740  1.00  0.00     0.000 C 
BRANCH   5   6
ATOM      6  C   UNL     1      11.735 -12.071   5.637  1.00  0.00     0.006 C 
BRANCH   6   7
ATOM      7  C   UNL     1      10.354 -11.960   6.298  1.00  0.00     0.053 C 
BRANCH   7   8
ATOM      8  C   UNL     1       9.275 -12.521   5.424  1.00  0.00     0.041 C 
ATOM      9  O   UNL     1       8.188 -11.900   5.279  1.00  0.00    -0.550 OA
ATOM     10  O   UNL     1       9.455 -13.746   4.794  1.00  0.00    -0.550 OA
ENDBRANCH   7   8
ENDBRANCH   6   7
ENDBRANCH   5   6
ENDBRANCH   4   5
ENDBRANCH   3   4
ENDBRANCH   2   3
ENDBRANCH   1   2
BRANCH   1  11
ATOM     11  C   UNL     1      18.056 -15.473   6.628  1.00  0.00     0.000 C 
BRANCH  11  12
ATOM     12  C   UNL     1      19.111 -16.311   7.369  1.00  0.00     0.000 C 
BRANCH  12  13
ATOM     13  C   UNL     1      18.801 -17.817   7.330  1.00  0.00     0.000 C 
BRANCH  13  14
ATOM     14  C   UNL     1      18.115 -18.251   6.022  1.00  0.00     0.000 C 
BRANCH  14  15
ATOM     15  C   UNL     1      19.031 -18.160   4.783  1.00  0.00     0.000 C 
BRANCH  15  16
ATOM     16  C   UNL     1      19.028 -16.752   4.162  1.00  0.00     0.006 C 
BRANCH  16  17
ATOM     17  C   UNL     1      18.998 -16.793   2.630  1.00  0.00     0.053 C 
BRANCH  17  18
ATOM     18  C   UNL     1      17.630 -17.118   2.111  1.00  0.00     0.041 C 
ATOM     19  O   UNL     1      17.298 -18.316   1.909  1.00  0.00    -0.550 OA
ATOM     20  O   UNL     1      16.714 -16.102   1.878  1.00  0.00    -0.550 OA
ENDBRANCH  17  18
ENDBRANCH  16  17
ENDBRANCH  15  16
ENDBRANCH  14  15
ENDBRANCH  13  14
ENDBRANCH  12  13
ENDBRANCH  11  12
ENDBRANCH   1  11
TORSDOF 15
ENDMDL
MODEL 4
REMARK VINA RESULT:    12.168      5.766      9.802
REMARK INTER + INTRA:          22.051
REMARK INTER:                  22.697
REMARK INTRA:                  -0.646
REMARK UNBOUND:                -0.787
REMARK SMILES O=C([O-])CCCCCCCCCCCCCCC(=O)[O-]
REMARK SMILES IDX 10 1 9 2 8 3 7 4 6 5 5 6 4 7 2 8 1 9 3 10 11 11 12 12 13 13
REMARK SMILES IDX 14 14 15 15 16 16 17 17 18 18 19 19 20 20
REMARK H PARENT
REMARK Flexibility Score: inf
ROOT
ATOM      1  C   UNL     1      11.881 -19.444   5.695  1.00  0.00     0.000 C 
ENDROOT
BRANCH   1   2
ATOM      2  C   UNL     1      12.477 -19.772   7.076  1.00  0.00     0.000 C 
BRANCH   2   3
ATOM      3  C   UNL     1      14.003 -19.580   7.193  1.00  0.00     0.000 C 
BRANCH   3   4
ATOM      4  C   UNL     1      14.449 -18.228   7.779  1.00  0.00     0.000 C 
BRANCH   4   5
ATOM      5  C   UNL     1      15.746 -17.702   7.148  1.00  0.00     0.000 C 
BRANCH   5   6
ATOM      6  C   UNL     1      15.614 -16.218   6.778  1.00  0.00     0.006 C 
BRANCH   6   7
ATOM      7  C   UNL     1      16.902 -15.432   7.059  1.00  0.00     0.053 C 
BRANCH   7   8
ATOM      8  C   UNL     1      18.090 -16.061   6.397  1.00  0.00     0.041 C 
ATOM      9  O   UNL     1      18.353 -15.806   5.192  1.00  0.00    -0.550 OA
ATOM     10  O   UNL     1      18.887 -16.954   7.101  1.00  0.00    -0.550 OA
ENDBRANCH   7   8
ENDBRANCH   6   7
ENDBRANCH   5   6
ENDBRANCH   4   5
ENDBRANCH   3   4
ENDBRANCH   2   3
ENDBRANCH   1   2
BRANCH   1  11
ATOM     11  C   UNL     1      10.805 -18.346   5.757  1.00  0.00     0.000 C 
BRANCH  11  12
ATOM     12  C   UNL     1      11.160 -17.128   4.887  1.00  0.00     0.000 C 
BRANCH  12  13
ATOM     13  C   UNL     1      10.007 -16.115   4.794  1.00  0.00     0.000 C 
BRANCH  13  14
ATOM     14  C   UNL     1      10.459 -14.669   5.062  1.00  0.00     0.000 C 
BRANCH  14  15
ATOM     15  C   UNL     1       9.298 -13.652   5.086  1.00  0.00     0.000 C 
BRANCH  15  16
ATOM     16  C   UNL     1       9.714 -12.313   5.720  1.00  0.00     0.006 C 
BRANCH  16  17
ATOM     17  C   UNL     1      11.236 -12.184   5.860  1.00  0.00     0.053 C 
BRANCH  17  18
ATOM     18  C   UNL     1      11.744 -10.917   5.241  1.00  0.00     0.041 C 
ATOM     19  O   UNL     1      12.664 -10.958   4.382  1.00  0.00    -0.550 OA
ATOM     20  O   UNL     1      11.183  -9.697   5.591  1.00  0.00    -0.550 OA
ENDBRANCH  17  18
ENDBRANCH  16  17
ENDBRANCH  15  16
ENDBRANCH  14  15
ENDBRANCH  13  14
ENDBRANCH  12  13
ENDBRANCH  11  12
ENDBRANCH   1  11
TORSDOF 15
ENDMDL
MODEL 5
REMARK VINA RESULT:    12.235      4.670      9.266
REMARK INTER + INTRA:          22.177
REMARK INTER:                  22.737
REMARK INTRA:                  -0.560
REMARK UNBOUND:                -0.787
REMARK SMILES O=C([O-])CCCCCCCCCCCCCCC(=O)[O-]
REMARK SMILES IDX 10 1 9 2 8 3 7 4 6 5 5 6 4 7 2 8 1 9 3 10 11 11 12 12 13 13
REMARK SMILES IDX 14 14 15 15 16 16 17 17 18 18 19 19 20 20
REMARK H PARENT
REMARK Flexibility Score: inf
ROOT
ATOM      1  C   UNL     1      10.958 -11.833   6.197  1.00  0.00     0.000 C 
ENDROOT
BRANCH   1   2
ATOM      2  C   UNL     1      11.394 -10.720   5.227  1.00  0.00     0.000 C 
BRANCH   2   3
ATOM      3  C   UNL     1      12.623 -11.053   4.356  1.00  0.00     0.000 C 
BRANCH   3   4
ATOM      4  C   UNL     1      13.467  -9.840   3.925  1.00  0.00     0.000 C 
BRANCH   4   5
ATOM      5  C   UNL     1      14.880 -10.228   3.467  1.00  0.00     0.000 C 
BRANCH   5   6
ATOM      6  C   UNL     1      15.144  -9.749   2.033  1.00  0.00     0.006 C 
BRANCH   6   7
ATOM      7  C   UNL     1      16.538  -9.127   1.875  1.00  0.00     0.053 C 
BRANCH   7   8
ATOM      8  C   UNL     1      16.495  -7.634   1.998  1.00  0.00     0.041 C 
ATOM      9  O   UNL     1      17.551  -6.957   1.875  1.00  0.00    -0.550 OA
ATOM     10  O   UNL     1      15.296  -6.993   2.281  1.00  0.00    -0.550 OA
ENDBRANCH   7   8
ENDBRANCH   6   7
ENDBRANCH   5   6
ENDBRANCH   4   5
ENDBRANCH   3   4
ENDBRANCH   2   3
ENDBRANCH   1   2
BRANCH   1  11
ATOM     11  C   UNL     1      10.977 -13.228   5.549  1.00  0.00     0.000 C 
BRANCH  11  12
ATOM     12  C   UNL     1      12.223 -14.040   5.941  1.00  0.00     0.000 C 
BRANCH  12  13
ATOM     13  C   UNL     1      13.199 -13.234   6.814  1.00  0.00     0.000 C 
BRANCH  13  14
ATOM     14  C   UNL     1      14.529 -13.970   7.058  1.00  0.00     0.000 C 
BRANCH  14  15
ATOM     15  C   UNL     1      14.670 -15.277   6.249  1.00  0.00     0.000 C 
BRANCH  15  16
ATOM     16  C   UNL     1      15.683 -16.245   6.884  1.00  0.00     0.006 C 
BRANCH  16  17
ATOM     17  C   UNL     1      17.050 -15.588   7.113  1.00  0.00     0.053 C 
BRANCH  17  18
ATOM     18  C   UNL     1      18.133 -16.279   6.342  1.00  0.00     0.041 C 
ATOM     19  O   UNL     1      18.317 -16.006   5.126  1.00  0.00    -0.550 OA
ATOM     20  O   UNL     1      18.956 -17.203   6.972  1.00  0.00    -0.550 OA
ENDBRANCH  17  18
ENDBRANCH  16  17
ENDBRANCH  15  16
ENDBRANCH  14  15
ENDBRANCH  13  14
ENDBRANCH  12  13
ENDBRANCH  11  12
ENDBRANCH   1  11
TORSDOF 15
ENDMDL
MODEL 6
REMARK VINA RESULT:    12.259      0.957      8.417
REMARK INTER + INTRA:          22.221
REMARK INTER:                  22.280
REMARK INTRA:                  -0.059
REMARK UNBOUND:                -0.787
REMARK SMILES O=C([O-])CCCCCCCCCCCCCCC(=O)[O-]
REMARK SMILES IDX 10 1 9 2 8 3 7 4 6 5 5 6 4 7 2 8 1 9 3 10 11 11 12 12 13 13
REMARK SMILES IDX 14 14 15 15 16 16 17 17 18 18 19 19 20 20
REMARK H PARENT
REMARK Flexibility Score: inf
ROOT
ATOM      1  C   UNL     1      16.674  -7.668   1.875  1.00  0.00     0.000 C 
ENDROOT
BRANCH   1   2
ATOM      2  C   UNL     1      16.937  -6.518   2.865  1.00  0.00     0.000 C 
BRANCH   2   3
ATOM      3  C   UNL     1      16.146  -6.596   4.186  1.00  0.00     0.000 C 
BRANCH   3   4
ATOM      4  C   UNL     1      16.785  -5.858   5.377  1.00  0.00     0.000 C 
BRANCH   4   5
ATOM      5  C   UNL     1      15.819  -5.678   6.556  1.00  0.00     0.000 C 
BRANCH   5   6
ATOM      6  C   UNL     1      15.813  -4.223   7.045  1.00  0.00     0.006 C 
BRANCH   6   7
ATOM      7  C   UNL     1      14.534  -3.478   6.638  1.00  0.00     0.053 C 
BRANCH   7   8
ATOM      8  C   UNL     1      14.796  -2.024   6.390  1.00  0.00     0.041 C 
ATOM      9  O   UNL     1      14.055  -1.370   5.609  1.00  0.00    -0.550 OA
ATOM     10  O   UNL     1      15.877  -1.398   6.997  1.00  0.00    -0.550 OA
ENDBRANCH   7   8
ENDBRANCH   6   7
ENDBRANCH   5   6
ENDBRANCH   4   5
ENDBRANCH   3   4
ENDBRANCH   2   3
ENDBRANCH   1   2
BRANCH   1  11
ATOM     11  C   UNL     1      15.453  -8.520   2.264  1.00  0.00     0.000 C 
BRANCH  11  12
ATOM     12  C   UNL     1      15.761 -10.027   2.247  1.00  0.00     0.000 C 
BRANCH  12  13
ATOM     13  C   UNL     1      14.534 -10.882   2.604  1.00  0.00     0.000 C 
BRANCH  13  14
ATOM     14  C   UNL     1      13.538 -10.145   3.517  1.00  0.00     0.000 C 
BRANCH  14  15
ATOM     15  C   UNL     1      12.732 -11.085   4.439  1.00  0.00     0.000 C 
BRANCH  15  16
ATOM     16  C   UNL     1      11.691 -10.321   5.277  1.00  0.00     0.006 C 
BRANCH  16  17
ATOM     17  C   UNL     1      10.598 -11.246   5.828  1.00  0.00     0.053 C 
BRANCH  17  18
ATOM     18  C   UNL     1      10.989 -12.689   5.723  1.00  0.00     0.041 C 
ATOM     19  O   UNL     1      10.201 -13.521   5.202  1.00  0.00    -0.550 OA
ATOM     20  O   UNL     1      12.233 -13.109   6.175  1.00  0.00    -0.550 OA
ENDBRANCH  17  18
ENDBRANCH  16  17
ENDBRANCH  15  16
ENDBRANCH  14  15
ENDBRANCH  13  14
ENDBRANCH  12  13
ENDBRANCH  11  12
ENDBRANCH   1  11
TORSDOF 15
ENDMDL
MODEL 7
REMARK VINA RESULT:    12.285      5.698      9.409
REMARK INTER + INTRA:          22.270
REMARK INTER:                  21.213
REMARK INTRA:                   1.057
REMARK UNBOUND:                -0.787
REMARK SMILES O=C([O-])CCCCCCCCCCCCCCC(=O)[O-]
REMARK SMILES IDX 10 1 9 2 8 3 7 4 6 5 5 6 4 7 2 8 1 9 3 10 11 11 12 12 13 13
REMARK SMILES IDX 14 14 15 15 16 16 17 17 18 18 19 19 20 20
REMARK H PARENT
REMARK Flexibility Score: inf
ROOT
ATOM      1  C   UNL     1      13.401 -14.580   5.699  1.00  0.00     0.000 C 
ENDROOT
BRANCH   1   2
ATOM      2  C   UNL     1      12.128 -13.741   5.918  1.00  0.00     0.000 C 
BRANCH   2   3
ATOM      3  C   UNL     1      10.958 -14.064   4.967  1.00  0.00     0.000 C 
BRANCH   3   4
ATOM      4  C   UNL     1       9.555 -13.939   5.589  1.00  0.00     0.000 C 
BRANCH   4   5
ATOM      5  C   UNL     1       8.691 -12.872   4.903  1.00  0.00     0.000 C 
BRANCH   5   6
ATOM      6  C   UNL     1       9.138 -11.460   5.307  1.00  0.00     0.006 C 
BRANCH   6   7
ATOM      7  C   UNL     1      10.546 -11.449   5.919  1.00  0.00     0.053 C 
BRANCH   7   8
ATOM      8  C   UNL     1      11.411 -10.394   5.300  1.00  0.00     0.041 C 
ATOM      9  O   UNL     1      11.041  -9.189   5.300  1.00  0.00    -0.550 OA
ATOM     10  O   UNL     1      12.610 -10.745   4.693  1.00  0.00    -0.550 OA
ENDBRANCH   7   8
ENDBRANCH   6   7
ENDBRANCH   5   6
ENDBRANCH   4   5
ENDBRANCH   3   4
ENDBRANCH   2   3
ENDBRANCH   1   2
BRANCH   1  11
ATOM     11  C   UNL     1      14.397 -14.466   6.865  1.00  0.00     0.000 C 
BRANCH  11  12
ATOM     12  C   UNL     1      15.707 -15.225   6.593  1.00  0.00     0.000 C 
BRANCH  12  13
ATOM     13  C   UNL     1      15.866 -16.464   7.489  1.00  0.00     0.000 C 
BRANCH  13  14
ATOM     14  C   UNL     1      17.075 -17.333   7.098  1.00  0.00     0.000 C 
BRANCH  14  15
ATOM     15  C   UNL     1      18.415 -16.567   7.106  1.00  0.00     0.000 C 
BRANCH  15  16
ATOM     16  C   UNL     1      19.124 -16.627   5.741  1.00  0.00     0.006 C 
BRANCH  16  17
ATOM     17  C   UNL     1      18.183 -16.276   4.582  1.00  0.00     0.053 C 
BRANCH  17  18
ATOM     18  C   UNL     1      18.432 -17.143   3.385  1.00  0.00     0.041 C 
ATOM     19  O   UNL     1      18.910 -18.299   3.530  1.00  0.00    -0.550 OA
ATOM     20  O   UNL     1      18.109 -16.686   2.114  1.00  0.00    -0.550 OA
ENDBRANCH  17  18
ENDBRANCH  16  17
ENDBRANCH  15  16
ENDBRANCH  14  15
ENDBRANCH  13  14
ENDBRANCH  12  13
ENDBRANCH  11  12
ENDBRANCH   1  11
TORSDOF 15
ENDMDL
MODEL 8
REMARK VINA RESULT:    13.026      7.248     10.921
REMARK INTER + INTRA:          23.661
REMARK INTER:                  24.523
REMARK INTRA:                  -0.862
REMARK UNBOUND:                -0.787
REMARK SMILES O=C([O-])CCCCCCCCCCCCCCC(=O)[O-]
REMARK SMILES IDX 10 1 9 2 8 3 7 4 6 5 5 6 4 7 2 8 1 9 3 10 11 11 12 12 13 13
REMARK SMILES IDX 14 14 15 15 16 16 17 17 18 18 19 19 20 20
REMARK H PARENT
REMARK Flexibility Score: inf
ROOT
ATOM      1  C   UNL     1      12.722 -19.662   7.502  1.00  0.00     0.000 C 
ENDROOT
BRANCH   1   2
ATOM      2  C   UNL     1      14.193 -19.251   7.698  1.00  0.00     0.000 C 
BRANCH   2   3
ATOM      3  C   UNL     1      14.544 -17.825   7.227  1.00  0.00     0.000 C 
BRANCH   3   4
ATOM      4  C   UNL     1      15.998 -17.389   7.484  1.00  0.00     0.000 C 
BRANCH   4   5
ATOM      5  C   UNL     1      16.483 -16.317   6.499  1.00  0.00     0.000 C 
BRANCH   5   6
ATOM      6  C   UNL     1      17.890 -15.827   6.870  1.00  0.00     0.006 C 
BRANCH   6   7
ATOM      7  C   UNL     1      18.967 -16.885   6.592  1.00  0.00     0.053 C 
BRANCH   7   8
ATOM      8  C   UNL     1      19.070 -17.197   5.130  1.00  0.00     0.041 C 
ATOM      9  O   UNL     1      19.125 -16.266   4.284  1.00  0.00    -0.550 OA
ATOM     10  O   UNL     1      19.073 -18.518   4.700  1.00  0.00    -0.550 OA
ENDBRANCH   7   8
ENDBRANCH   6   7
ENDBRANCH   5   6
ENDBRANCH   4   5
ENDBRANCH   3   4
ENDBRANCH   2   3
ENDBRANCH   1   2
BRANCH   1  11
ATOM     11  C   UNL     1      12.474 -20.359   6.153  1.00  0.00     0.000 C 
BRANCH  11  12
ATOM     12  C   UNL     1      12.095 -19.367   5.041  1.00  0.00     0.000 C 
BRANCH  12  13
ATOM     13  C   UNL     1      11.032 -18.353   5.494  1.00  0.00     0.000 C 
BRANCH  13  14
ATOM     14  C   UNL     1      11.211 -16.970   4.844  1.00  0.00     0.000 C 
BRANCH  14  15
ATOM     15  C   UNL     1       9.878 -16.260   4.523  1.00  0.00     0.000 C 
BRANCH  15  16
ATOM     16  C   UNL     1       9.701 -14.965   5.335  1.00  0.00     0.006 C 
BRANCH  16  17
ATOM     17  C   UNL     1      10.775 -13.921   5.006  1.00  0.00     0.053 C 
BRANCH  17  18
ATOM     18  C   UNL     1      10.475 -12.597   5.640  1.00  0.00     0.041 C 
ATOM     19  O   UNL     1      11.369 -11.986   6.281  1.00  0.00    -0.550 OA
ATOM     20  O   UNL     1       9.217 -12.026   5.499  1.00  0.00    -0.550 OA
ENDBRANCH  17  18
ENDBRANCH  16  17
ENDBRANCH  15  16
ENDBRANCH  14  15
ENDBRANCH  13  14
ENDBRANCH  12  13
ENDBRANCH  11  12
ENDBRANCH   1  11
TORSDOF 15
ENDMDL
