MODEL 1
REMARK VINA RESULT:    -4.052      0.000      0.000
REMARK INTER + INTRA:          -9.318
REMARK INTER:                  -7.132
REMARK INTRA:                  -2.186
REMARK UNBOUND:                -2.186
REMARK SMILES CCCCCCCCCCCCCCC(=O)[O-]
REMARK SMILES IDX 9 1 10 2 11 3 12 4 13 5 14 6 15 7 16 8 17 9 8 10 7 11 6 12
REMARK SMILES IDX 5 13 4 14 3 15 2 16 1 17
REMARK H PARENT
REMARK Flexibility Score: inf
ROOT
ATOM      1  C   UNL     1       7.077 -20.878  21.620  1.00  0.00     0.000 C 
ENDROOT
BRANCH   1   2
ATOM      2  C   UNL     1       7.112 -21.067  23.141  1.00  0.00     0.000 C 
BRANCH   2   3
ATOM      3  C   UNL     1       7.894 -19.936  23.820  1.00  0.00     0.000 C 
BRANCH   3   4
ATOM      4  C   UNL     1       8.618 -19.067  22.779  1.00  0.00     0.000 C 
BRANCH   4   5
ATOM      5  C   UNL     1       8.087 -17.625  22.741  1.00  0.00     0.006 C 
BRANCH   5   6
ATOM      6  C   UNL     1       7.391 -17.217  24.046  1.00  0.00     0.053 C 
BRANCH   6   7
ATOM      7  C   UNL     1       8.290 -16.345  24.865  1.00  0.00     0.041 C 
ATOM      8  O   UNL     1       8.420 -16.554  26.100  1.00  0.00    -0.550 OA
ATOM      9  O   UNL     1       8.946 -15.273  24.275  1.00  0.00    -0.550 OA
ENDBRANCH   6   7
ENDBRANCH   5   6
ENDBRANCH   4   5
ENDBRANCH   3   4
ENDBRANCH   2   3
ENDBRANCH   1   2
BRANCH   1  10
ATOM     10  C   UNL     1       7.365 -22.201  20.895  1.00  0.00     0.000 C 
BRANCH  10  11
ATOM     11  C   UNL     1       8.254 -23.153  21.714  1.00  0.00    -0.000 C 
BRANCH  11  12
ATOM     12  C   UNL     1       9.746 -23.160  21.319  1.00  0.00    -0.000 C 
BRANCH  12  13
ATOM     13  C   UNL     1      10.657 -22.266  22.181  1.00  0.00    -0.000 C 
BRANCH  13  14
ATOM     14  C   UNL     1      11.406 -21.172  21.398  1.00  0.00    -0.000 C 
BRANCH  14  15
ATOM     15  C   UNL     1      11.007 -21.094  19.907  1.00  0.00    -0.000 C 
BRANCH  15  16
ATOM     16  C   UNL     1      10.146 -19.868  19.558  1.00  0.00    -0.003 C 
ATOM     17  C   UNL     1       9.135 -20.156  18.448  1.00  0.00     0.004 C 
ENDBRANCH  15  16
ENDBRANCH  14  15
ENDBRANCH  13  14
ENDBRANCH  12  13
ENDBRANCH  11  12
ENDBRANCH  10  11
ENDBRANCH   1  10
TORSDOF 13
ENDMDL
MODEL 2
REMARK VINA RESULT:    -4.030      3.151      6.183
REMARK INTER + INTRA:          -9.278
REMARK INTER:                  -7.617
REMARK INTRA:                  -1.661
REMARK UNBOUND:                -2.186
REMARK SMILES CCCCCCCCCCCCCCC(=O)[O-]
REMARK SMILES IDX 9 1 10 2 11 3 12 4 13 5 14 6 15 7 16 8 17 9 8 10 7 11 6 12
REMARK SMILES IDX 5 13 4 14 3 15 2 16 1 17
REMARK H PARENT
REMARK Flexibility Score: inf
ROOT
ATOM      1  C   UNL     1       7.892 -18.655  21.613  1.00  0.00     0.000 C 
ENDROOT
BRANCH   1   2
ATOM      2  C   UNL     1       7.385 -19.274  22.921  1.00  0.00     0.000 C 
BRANCH   2   3
ATOM      3  C   UNL     1       7.379 -20.805  22.841  1.00  0.00     0.000 C 
BRANCH   3   4
ATOM      4  C   UNL     1       6.838 -21.282  21.483  1.00  0.00     0.000 C 
BRANCH   4   5
ATOM      5  C   UNL     1       7.766 -22.299  20.801  1.00  0.00     0.006 C 
BRANCH   5   6
ATOM      6  C   UNL     1       8.686 -23.020  21.795  1.00  0.00     0.053 C 
BRANCH   6   7
ATOM      7  C   UNL     1      10.118 -22.694  21.511  1.00  0.00     0.041 C 
ATOM      8  O   UNL     1      10.436 -22.117  20.438  1.00  0.00    -0.550 OA
ATOM      9  O   UNL     1      11.109 -23.070  22.410  1.00  0.00    -0.550 OA
ENDBRANCH   6   7
ENDBRANCH   5   6
ENDBRANCH   4   5
ENDBRANCH   3   4
ENDBRANCH   2   3
ENDBRANCH   1   2
BRANCH   1  10
ATOM     10  C   UNL     1       8.091 -17.140  21.762  1.00  0.00     0.000 C 
BRANCH  10  11
ATOM     11  C   UNL     1       7.344 -16.554  22.972  1.00  0.00    -0.000 C 
BRANCH  11  12
ATOM     12  C   UNL     1       7.947 -15.255  23.551  1.00  0.00    -0.000 C 
BRANCH  12  13
ATOM     13  C   UNL     1       9.021 -15.458  24.635  1.00  0.00    -0.000 C 
BRANCH  13  14
ATOM     14  C   UNL     1       8.583 -16.353  25.811  1.00  0.00    -0.000 C 
BRANCH  14  15
ATOM     15  C   UNL     1       9.317 -17.712  25.861  1.00  0.00    -0.000 C 
BRANCH  15  16
ATOM     16  C   UNL     1      10.701 -17.695  25.189  1.00  0.00    -0.003 C 
ATOM     17  C   UNL     1      10.823 -18.731  24.071  1.00  0.00     0.004 C 
ENDBRANCH  15  16
ENDBRANCH  14  15
ENDBRANCH  13  14
ENDBRANCH  12  13
ENDBRANCH  11  12
ENDBRANCH  10  11
ENDBRANCH   1  10
TORSDOF 13
ENDMDL
MODEL 3
REMARK VINA RESULT:    -4.015      2.650      4.070
REMARK INTER + INTRA:          -9.253
REMARK INTER:                  -7.481
REMARK INTRA:                  -1.772
REMARK UNBOUND:                -2.186
REMARK SMILES CCCCCCCCCCCCCCC(=O)[O-]
REMARK SMILES IDX 9 1 10 2 11 3 12 4 13 5 14 6 15 7 16 8 17 9 8 10 7 11 6 12
REMARK SMILES IDX 5 13 4 14 3 15 2 16 1 17
REMARK H PARENT
REMARK Flexibility Score: inf
ROOT
ATOM      1  C   UNL     1       6.797 -20.416  25.024  1.00  0.00     0.000 C 
ENDROOT
BRANCH   1   2
ATOM      2  C   UNL     1       7.124 -19.232  25.942  1.00  0.00     0.000 C 
BRANCH   2   3
ATOM      3  C   UNL     1       7.280 -17.936  25.136  1.00  0.00     0.000 C 
BRANCH   3   4
ATOM      4  C   UNL     1       8.257 -16.973  25.829  1.00  0.00     0.000 C 
BRANCH   4   5
ATOM      5  C   UNL     1       9.686 -17.078  25.273  1.00  0.00     0.006 C 
BRANCH   5   6
ATOM      6  C   UNL     1      10.090 -15.852  24.444  1.00  0.00     0.053 C 
BRANCH   6   7
ATOM      7  C   UNL     1      11.340 -16.133  23.673  1.00  0.00     0.041 C 
ATOM      8  O   UNL     1      11.933 -15.202  23.066  1.00  0.00    -0.550 OA
ATOM      9  O   UNL     1      11.826 -17.431  23.584  1.00  0.00    -0.550 OA
ENDBRANCH   6   7
ENDBRANCH   5   6
ENDBRANCH   4   5
ENDBRANCH   3   4
ENDBRANCH   2   3
ENDBRANCH   1   2
BRANCH   1  10
ATOM     10  C   UNL     1       6.420 -19.932  23.616  1.00  0.00     0.000 C 
BRANCH  10  11
ATOM     11  C   UNL     1       7.088 -20.755  22.500  1.00  0.00    -0.000 C 
BRANCH  11  12
ATOM     12  C   UNL     1       7.642 -19.931  21.318  1.00  0.00    -0.000 C 
BRANCH  12  13
ATOM     13  C   UNL     1       8.849 -19.036  21.652  1.00  0.00    -0.000 C 
BRANCH  13  14
ATOM     14  C   UNL     1       8.534 -17.528  21.703  1.00  0.00    -0.000 C 
BRANCH  14  15
ATOM     15  C   UNL     1       7.612 -17.050  20.558  1.00  0.00    -0.000 C 
BRANCH  15  16
ATOM     16  C   UNL     1       6.823 -15.773  20.890  1.00  0.00    -0.003 C 
ATOM     17  C   UNL     1       7.026 -15.315  22.334  1.00  0.00     0.004 C 
ENDBRANCH  15  16
ENDBRANCH  14  15
ENDBRANCH  13  14
ENDBRANCH  12  13
ENDBRANCH  11  12
ENDBRANCH  10  11
ENDBRANCH   1  10
TORSDOF 13
ENDMDL
MODEL 4
REMARK VINA RESULT:    -3.976      2.769      4.962
REMARK INTER + INTRA:          -9.184
REMARK INTER:                  -7.527
REMARK INTRA:                  -1.658
REMARK UNBOUND:                -2.186
REMARK SMILES CCCCCCCCCCCCCCC(=O)[O-]
REMARK SMILES IDX 9 1 10 2 11 3 12 4 13 5 14 6 15 7 16 8 17 9 8 10 7 11 6 12
REMARK SMILES IDX 5 13 4 14 3 15 2 16 1 17
REMARK H PARENT
REMARK Flexibility Score: inf
ROOT
ATOM      1  C   UNL     1       8.579 -16.668  25.750  1.00  0.00     0.000 C 
ENDROOT
BRANCH   1   2
ATOM      2  C   UNL     1       9.763 -16.408  24.811  1.00  0.00     0.000 C 
BRANCH   2   3
ATOM      3  C   UNL     1       9.303 -15.716  23.522  1.00  0.00     0.000 C 
BRANCH   3   4
ATOM      4  C   UNL     1       7.853 -15.222  23.652  1.00  0.00     0.000 C 
BRANCH   4   5
ATOM      5  C   UNL     1       7.041 -15.426  22.363  1.00  0.00     0.006 C 
BRANCH   5   6
ATOM      6  C   UNL     1       7.703 -16.418  21.398  1.00  0.00     0.053 C 
BRANCH   6   7
ATOM      7  C   UNL     1       6.947 -16.475  20.108  1.00  0.00     0.041 C 
ATOM      8  O   UNL     1       6.234 -15.501  19.749  1.00  0.00    -0.550 OA
ATOM      9  O   UNL     1       6.990 -17.622  19.326  1.00  0.00    -0.550 OA
ENDBRANCH   6   7
ENDBRANCH   5   6
ENDBRANCH   4   5
ENDBRANCH   3   4
ENDBRANCH   2   3
ENDBRANCH   1   2
BRANCH   1  10
ATOM     10  C   UNL     1       8.237 -18.164  25.803  1.00  0.00     0.000 C 
BRANCH  10  11
ATOM     11  C   UNL     1       6.789 -18.463  25.373  1.00  0.00    -0.000 C 
BRANCH  11  12
ATOM     12  C   UNL     1       6.625 -18.966  23.923  1.00  0.00    -0.000 C 
BRANCH  12  13
ATOM     13  C   UNL     1       7.923 -19.438  23.243  1.00  0.00    -0.000 C 
BRANCH  13  14
ATOM     14  C   UNL     1       7.712 -20.391  22.051  1.00  0.00    -0.000 C 
BRANCH  14  15
ATOM     15  C   UNL     1       7.672 -21.884  22.452  1.00  0.00    -0.000 C 
BRANCH  15  16
ATOM     16  C   UNL     1       8.249 -22.828  21.384  1.00  0.00    -0.003 C 
ATOM     17  C   UNL     1       9.767 -22.975  21.488  1.00  0.00     0.004 C 
ENDBRANCH  15  16
ENDBRANCH  14  15
ENDBRANCH  13  14
ENDBRANCH  12  13
ENDBRANCH  11  12
ENDBRANCH  10  11
ENDBRANCH   1  10
TORSDOF 13
ENDMDL
MODEL 5
REMARK VINA RESULT:    -3.957      1.462      2.335
REMARK INTER + INTRA:          -9.150
REMARK INTER:                  -7.223
REMARK INTRA:                  -1.927
REMARK UNBOUND:                -2.186
REMARK SMILES CCCCCCCCCCCCCCC(=O)[O-]
REMARK SMILES IDX 9 1 10 2 11 3 12 4 13 5 14 6 15 7 16 8 17 9 8 10 7 11 6 12
REMARK SMILES IDX 5 13 4 14 3 15 2 16 1 17
REMARK H PARENT
REMARK Flexibility Score: inf
ROOT
ATOM      1  C   UNL     1       6.960 -20.828  22.891  1.00  0.00     0.000 C 
ENDROOT
BRANCH   1   2
ATOM      2  C   UNL     1       7.650 -19.461  22.980  1.00  0.00     0.000 C 
BRANCH   2   3
ATOM      3  C   UNL     1       7.863 -18.859  21.586  1.00  0.00     0.000 C 
BRANCH   3   4
ATOM      4  C   UNL     1       7.847 -17.323  21.642  1.00  0.00     0.000 C 
BRANCH   4   5
ATOM      5  C   UNL     1       7.346 -16.786  22.992  1.00  0.00     0.006 C 
BRANCH   5   6
ATOM      6  C   UNL     1       7.850 -15.368  23.288  1.00  0.00     0.053 C 
BRANCH   6   7
ATOM      7  C   UNL     1       8.975 -15.409  24.274  1.00  0.00     0.041 C 
ATOM      8  O   UNL     1      10.136 -15.069  23.924  1.00  0.00    -0.550 OA
ATOM      9  O   UNL     1       8.752 -15.870  25.565  1.00  0.00    -0.550 OA
ENDBRANCH   6   7
ENDBRANCH   5   6
ENDBRANCH   4   5
ENDBRANCH   3   4
ENDBRANCH   2   3
ENDBRANCH   1   2
BRANCH   1  10
ATOM     10  C   UNL     1       7.115 -21.431  21.487  1.00  0.00     0.000 C 
BRANCH  10  11
ATOM     11  C   UNL     1       7.900 -22.754  21.487  1.00  0.00    -0.000 C 
BRANCH  11  12
ATOM     12  C   UNL     1       9.363 -22.650  21.003  1.00  0.00    -0.000 C 
BRANCH  12  13
ATOM     13  C   UNL     1      10.392 -22.315  22.099  1.00  0.00    -0.000 C 
BRANCH  13  14
ATOM     14  C   UNL     1      11.071 -20.941  21.943  1.00  0.00    -0.000 C 
BRANCH  14  15
ATOM     15  C   UNL     1      11.613 -20.364  23.271  1.00  0.00    -0.000 C 
BRANCH  15  16
ATOM     16  C   UNL     1      11.179 -18.914  23.539  1.00  0.00    -0.003 C 
ATOM     17  C   UNL     1      11.470 -17.985  22.360  1.00  0.00     0.004 C 
ENDBRANCH  15  16
ENDBRANCH  14  15
ENDBRANCH  13  14
ENDBRANCH  12  13
ENDBRANCH  11  12
ENDBRANCH  10  11
ENDBRANCH   1  10
TORSDOF 13
ENDMDL
MODEL 6
REMARK VINA RESULT:    -3.939      3.349      5.903
REMARK INTER + INTRA:          -9.119
REMARK INTER:                  -6.817
REMARK INTRA:                  -2.302
REMARK UNBOUND:                -2.186
REMARK SMILES CCCCCCCCCCCCCCC(=O)[O-]
REMARK SMILES IDX 9 1 10 2 11 3 12 4 13 5 14 6 15 7 16 8 17 9 8 10 7 11 6 12
REMARK SMILES IDX 5 13 4 14 3 15 2 16 1 17
REMARK H PARENT
REMARK Flexibility Score: inf
ROOT
ATOM      1  C   UNL     1       7.726 -19.417  24.862  1.00  0.00     0.000 C 
ENDROOT
BRANCH   1   2
ATOM      2  C   UNL     1       6.764 -20.299  24.055  1.00  0.00     0.000 C 
BRANCH   2   3
ATOM      3  C   UNL     1       7.484 -20.961  22.874  1.00  0.00     0.000 C 
BRANCH   3   4
ATOM      4  C   UNL     1       8.951 -20.508  22.801  1.00  0.00     0.000 C 
BRANCH   4   5
ATOM      5  C   UNL     1       9.250 -19.673  21.546  1.00  0.00     0.006 C 
BRANCH   5   6
ATOM      6  C   UNL     1       8.165 -19.812  20.470  1.00  0.00     0.053 C 
BRANCH   6   7
ATOM      7  C   UNL     1       8.599 -20.779  19.415  1.00  0.00     0.041 C 
ATOM      8  O   UNL     1       9.199 -20.367  18.387  1.00  0.00    -0.550 OA
ATOM      9  O   UNL     1       8.298 -22.129  19.542  1.00  0.00    -0.550 OA
ENDBRANCH   6   7
ENDBRANCH   5   6
ENDBRANCH   4   5
ENDBRANCH   3   4
ENDBRANCH   2   3
ENDBRANCH   1   2
BRANCH   1  10
ATOM     10  C   UNL     1       7.175 -17.990  25.004  1.00  0.00     0.000 C 
BRANCH  10  11
ATOM     11  C   UNL     1       6.771 -17.367  23.656  1.00  0.00    -0.000 C 
BRANCH  11  12
ATOM     12  C   UNL     1       7.872 -16.538  22.960  1.00  0.00    -0.000 C 
BRANCH  12  13
ATOM     13  C   UNL     1       8.433 -15.367  23.788  1.00  0.00    -0.000 C 
BRANCH  13  14
ATOM     14  C   UNL     1       9.930 -15.484  24.130  1.00  0.00    -0.000 C 
BRANCH  14  15
ATOM     15  C   UNL     1      10.601 -16.749  23.547  1.00  0.00    -0.000 C 
BRANCH  15  16
ATOM     16  C   UNL     1      11.165 -17.701  24.615  1.00  0.00    -0.003 C 
ATOM     17  C   UNL     1      10.663 -17.369  26.021  1.00  0.00     0.004 C 
ENDBRANCH  15  16
ENDBRANCH  14  15
ENDBRANCH  13  14
ENDBRANCH  12  13
ENDBRANCH  11  12
ENDBRANCH  10  11
ENDBRANCH   1  10
TORSDOF 13
ENDMDL
MODEL 7
REMARK VINA RESULT:    -3.932      1.199      1.827
REMARK INTER + INTRA:          -9.106
REMARK INTER:                  -6.859
REMARK INTRA:                  -2.246
REMARK UNBOUND:                -2.186
REMARK SMILES CCCCCCCCCCCCCCC(=O)[O-]
REMARK SMILES IDX 9 1 10 2 11 3 12 4 13 5 14 6 15 7 16 8 17 9 8 10 7 11 6 12
REMARK SMILES IDX 5 13 4 14 3 15 2 16 1 17
REMARK H PARENT
REMARK Flexibility Score: inf
ROOT
ATOM      1  C   UNL     1       7.940 -19.414  20.450  1.00  0.00     0.000 C 
ENDROOT
BRANCH   1   2
ATOM      2  C   UNL     1       8.268 -18.407  21.559  1.00  0.00     0.000 C 
BRANCH   2   3
ATOM      3  C   UNL     1       8.358 -19.100  22.924  1.00  0.00     0.000 C 
BRANCH   3   4
ATOM      4  C   UNL     1       9.560 -18.579  23.727  1.00  0.00     0.000 C 
BRANCH   4   5
ATOM      5  C   UNL     1      10.219 -17.353  23.077  1.00  0.00     0.006 C 
BRANCH   5   6
ATOM      6  C   UNL     1      10.363 -16.174  24.049  1.00  0.00     0.053 C 
BRANCH   6   7
ATOM      7  C   UNL     1       9.021 -15.748  24.554  1.00  0.00     0.041 C 
ATOM      8  O   UNL     1       8.712 -15.928  25.762  1.00  0.00    -0.550 OA
ATOM      9  O   UNL     1       8.091 -15.196  23.681  1.00  0.00    -0.550 OA
ENDBRANCH   6   7
ENDBRANCH   5   6
ENDBRANCH   4   5
ENDBRANCH   3   4
ENDBRANCH   2   3
ENDBRANCH   1   2
BRANCH   1  10
ATOM     10  C   UNL     1       7.189 -20.628  21.015  1.00  0.00     0.000 C 
BRANCH  10  11
ATOM     11  C   UNL     1       7.818 -21.969  20.599  1.00  0.00    -0.000 C 
BRANCH  11  12
ATOM     12  C   UNL     1       8.436 -22.791  21.751  1.00  0.00    -0.000 C 
BRANCH  12  13
ATOM     13  C   UNL     1       9.963 -22.979  21.675  1.00  0.00    -0.000 C 
BRANCH  13  14
ATOM     14  C   UNL     1      10.781 -21.819  22.273  1.00  0.00    -0.000 C 
BRANCH  14  15
ATOM     15  C   UNL     1      11.366 -20.861  21.209  1.00  0.00    -0.000 C 
BRANCH  15  16
ATOM     16  C   UNL     1      11.556 -21.511  19.828  1.00  0.00    -0.003 C 
ATOM     17  C   UNL     1      10.969 -20.667  18.697  1.00  0.00     0.004 C 
ENDBRANCH  15  16
ENDBRANCH  14  15
ENDBRANCH  13  14
ENDBRANCH  12  13
ENDBRANCH  11  12
ENDBRANCH  10  11
ENDBRANCH   1  10
TORSDOF 13
ENDMDL
MODEL 8
REMARK VINA RESULT:    -3.928      3.240      5.718
REMARK INTER + INTRA:          -9.099
REMARK INTER:                  -6.786
REMARK INTRA:                  -2.313
REMARK UNBOUND:                -2.186
REMARK SMILES CCCCCCCCCCCCCCC(=O)[O-]
REMARK SMILES IDX 9 1 10 2 11 3 12 4 13 5 14 6 15 7 16 8 17 9 8 10 7 11 6 12
REMARK SMILES IDX 5 13 4 14 3 15 2 16 1 17
REMARK H PARENT
REMARK Flexibility Score: inf
ROOT
ATOM      1  C   UNL     1       8.648 -16.636  24.536  1.00  0.00     0.000 C 
ENDROOT
BRANCH   1   2
ATOM      2  C   UNL     1       7.527 -17.653  24.782  1.00  0.00     0.000 C 
BRANCH   2   3
ATOM      3  C   UNL     1       7.954 -19.061  24.349  1.00  0.00     0.000 C 
BRANCH   3   4
ATOM      4  C   UNL     1       6.729 -19.957  24.107  1.00  0.00     0.000 C 
BRANCH   4   5
ATOM      5  C   UNL     1       6.836 -20.765  22.804  1.00  0.00     0.006 C 
BRANCH   5   6
ATOM      6  C   UNL     1       8.269 -21.222  22.507  1.00  0.00     0.053 C 
BRANCH   6   7
ATOM      7  C   UNL     1       8.283 -22.185  21.362  1.00  0.00     0.041 C 
ATOM      8  O   UNL     1       8.565 -23.397  21.557  1.00  0.00    -0.550 OA
ATOM      9  O   UNL     1       8.033 -21.735  20.072  1.00  0.00    -0.550 OA
ENDBRANCH   6   7
ENDBRANCH   5   6
ENDBRANCH   4   5
ENDBRANCH   3   4
ENDBRANCH   2   3
ENDBRANCH   1   2
BRANCH   1  10
ATOM     10  C   UNL     1       8.152 -15.471  23.667  1.00  0.00     0.000 C 
BRANCH  10  11
ATOM     11  C   UNL     1       6.879 -15.813  22.874  1.00  0.00    -0.000 C 
BRANCH  11  12
ATOM     12  C   UNL     1       6.836 -15.266  21.431  1.00  0.00    -0.000 C 
BRANCH  12  13
ATOM     13  C   UNL     1       7.229 -16.275  20.337  1.00  0.00    -0.000 C 
BRANCH  13  14
ATOM     14  C   UNL     1       7.525 -17.697  20.852  1.00  0.00    -0.000 C 
BRANCH  14  15
ATOM     15  C   UNL     1       8.931 -18.213  20.470  1.00  0.00    -0.000 C 
BRANCH  15  16
ATOM     16  C   UNL     1      10.074 -17.515  21.226  1.00  0.00    -0.003 C 
ATOM     17  C   UNL     1      10.868 -18.478  22.109  1.00  0.00     0.004 C 
ENDBRANCH  15  16
ENDBRANCH  14  15
ENDBRANCH  13  14
ENDBRANCH  12  13
ENDBRANCH  11  12
ENDBRANCH  10  11
ENDBRANCH   1  10
TORSDOF 13
ENDMDL
MODEL 9
REMARK VINA RESULT:    -3.889      3.383      5.618
REMARK INTER + INTRA:          -9.031
REMARK INTER:                  -7.172
REMARK INTRA:                  -1.858
REMARK UNBOUND:                -2.186
REMARK SMILES CCCCCCCCCCCCCCC(=O)[O-]
REMARK SMILES IDX 9 1 10 2 11 3 12 4 13 5 14 6 15 7 16 8 17 9 8 10 7 11 6 12
REMARK SMILES IDX 5 13 4 14 3 15 2 16 1 17
REMARK H PARENT
REMARK Flexibility Score: inf
ROOT
ATOM      1  C   UNL     1       7.490 -16.976  22.955  1.00  0.00     0.000 C 
ENDROOT
BRANCH   1   2
ATOM      2  C   UNL     1       6.926 -17.637  24.220  1.00  0.00     0.000 C 
BRANCH   2   3
ATOM      3  C   UNL     1       7.423 -19.081  24.355  1.00  0.00     0.000 C 
BRANCH   3   4
ATOM      4  C   UNL     1       6.527 -20.046  23.562  1.00  0.00     0.000 C 
BRANCH   4   5
ATOM      5  C   UNL     1       7.322 -21.184  22.901  1.00  0.00     0.006 C 
BRANCH   5   6
ATOM      6  C   UNL     1       6.895 -21.439  21.450  1.00  0.00     0.053 C 
BRANCH   6   7
ATOM      7  C   UNL     1       7.890 -22.317  20.761  1.00  0.00     0.041 C 
ATOM      8  O   UNL     1       8.255 -23.400  21.292  1.00  0.00    -0.550 OA
ATOM      9  O   UNL     1       8.453 -21.918  19.555  1.00  0.00    -0.550 OA
ENDBRANCH   6   7
ENDBRANCH   5   6
ENDBRANCH   4   5
ENDBRANCH   3   4
ENDBRANCH   2   3
ENDBRANCH   1   2
BRANCH   1  10
ATOM     10  C   UNL     1       7.971 -15.548  23.249  1.00  0.00     0.000 C 
BRANCH  10  11
ATOM     11  C   UNL     1       8.952 -15.477  24.433  1.00  0.00    -0.000 C 
BRANCH  11  12
ATOM     12  C   UNL     1      10.422 -15.797  24.088  1.00  0.00    -0.000 C 
BRANCH  12  13
ATOM     13  C   UNL     1      11.032 -16.984  24.855  1.00  0.00    -0.000 C 
BRANCH  13  14
ATOM     14  C   UNL     1      11.800 -17.989  23.976  1.00  0.00    -0.000 C 
BRANCH  14  15
ATOM     15  C   UNL     1      10.947 -19.198  23.528  1.00  0.00    -0.000 C 
BRANCH  15  16
ATOM     16  C   UNL     1      10.415 -19.083  22.090  1.00  0.00    -0.003 C 
ATOM     17  C   UNL     1      11.208 -18.082  21.249  1.00  0.00     0.004 C 
ENDBRANCH  15  16
ENDBRANCH  14  15
ENDBRANCH  13  14
ENDBRANCH  12  13
ENDBRANCH  11  12
ENDBRANCH  10  11
ENDBRANCH   1  10
TORSDOF 13
ENDMDL
