MODEL 1
REMARK VINA RESULT:    -3.702      0.000      0.000
REMARK INTER + INTRA:          -8.760
REMARK INTER:                  -6.949
REMARK INTRA:                  -1.811
REMARK UNBOUND:                -1.811
REMARK SMILES CCCCCCCCC=CCCCCCCCC(=O)[O-]
REMARK SMILES IDX 10 1 9 2 11 3 12 4 13 5 14 6 15 7 16 8 17 9 18 10 19 11
REMARK SMILES IDX 20 12 8 13 7 14 6 15 5 16 4 17 3 18 2 19 1 20
REMARK H PARENT
REMARK Flexibility Score: inf
ROOT
ATOM      1  C   UNL     1      13.271   1.662 -17.471  1.00  0.00    -0.031 C 
ATOM      2  C   UNL     1      12.609   1.955 -18.601  1.00  0.00    -0.031 C 
ENDROOT
BRANCH   1   3
ATOM      3  C   UNL     1      12.643   0.833 -16.385  1.00  0.00     0.027 C 
BRANCH   3   4
ATOM      4  C   UNL     1      12.039  -0.454 -16.957  1.00  0.00     0.004 C 
BRANCH   4   5
ATOM      5  C   UNL     1      10.550  -0.273 -17.270  1.00  0.00     0.000 C 
BRANCH   5   6
ATOM      6  C   UNL     1      10.243  -0.662 -18.724  1.00  0.00     0.000 C 
BRANCH   6   7
ATOM      7  C   UNL     1       9.906  -2.154 -18.881  1.00  0.00     0.000 C 
BRANCH   7   8
ATOM      8  C   UNL     1       9.747  -2.576 -20.349  1.00  0.00     0.006 C 
BRANCH   8   9
ATOM      9  C   UNL     1      10.504  -1.621 -21.278  1.00  0.00     0.053 C 
BRANCH   9  10
ATOM     10  C   UNL     1      10.820  -2.292 -22.577  1.00  0.00     0.041 C 
ATOM     11  O   UNL     1      11.885  -2.018 -23.190  1.00  0.00    -0.550 OA
ATOM     12  O   UNL     1       9.962  -3.257 -23.088  1.00  0.00    -0.550 OA
ENDBRANCH   9  10
ENDBRANCH   8   9
ENDBRANCH   7   8
ENDBRANCH   6   7
ENDBRANCH   5   6
ENDBRANCH   4   5
ENDBRANCH   3   4
ENDBRANCH   1   3
BRANCH   2  13
ATOM     13  C   UNL     1      13.231   2.796 -19.680  1.00  0.00     0.027 C 
BRANCH  13  14
ATOM     14  C   UNL     1      13.416   1.983 -20.970  1.00  0.00     0.004 C 
BRANCH  14  15
ATOM     15  C   UNL     1      12.883   0.548 -20.842  1.00  0.00     0.000 C 
BRANCH  15  16
ATOM     16  C   UNL     1      13.992  -0.507 -20.975  1.00  0.00     0.000 C 
BRANCH  16  17
ATOM     17  C   UNL     1      14.089  -1.363 -19.704  1.00  0.00    -0.000 C 
BRANCH  17  18
ATOM     18  C   UNL     1      15.468  -2.021 -19.539  1.00  0.00    -0.000 C 
BRANCH  18  19
ATOM     19  C   UNL     1      16.470  -1.562 -20.608  1.00  0.00    -0.003 C 
ATOM     20  C   UNL     1      17.872  -1.418 -20.022  1.00  0.00     0.004 C 
ENDBRANCH  18  19
ENDBRANCH  17  18
ENDBRANCH  16  17
ENDBRANCH  15  16
ENDBRANCH  14  15
ENDBRANCH  13  14
ENDBRANCH   2  13
TORSDOF 15
ENDMDL
MODEL 2
REMARK VINA RESULT:    -3.560      3.417      4.746
REMARK INTER + INTRA:          -8.492
REMARK INTER:                  -7.369
REMARK INTRA:                  -1.123
REMARK UNBOUND:                -1.811
REMARK SMILES CCCCCCCCC=CCCCCCCCC(=O)[O-]
REMARK SMILES IDX 10 1 9 2 11 3 12 4 13 5 14 6 15 7 16 8 17 9 18 10 19 11
REMARK SMILES IDX 20 12 8 13 7 14 6 15 5 16 4 17 3 18 2 19 1 20
REMARK H PARENT
REMARK Flexibility Score: inf
ROOT
ATOM      1  C   UNL     1      13.181   1.507 -18.272  1.00  0.00    -0.031 C 
ATOM      2  C   UNL     1      12.815   2.663 -18.847  1.00  0.00    -0.031 C 
ENDROOT
BRANCH   1   3
ATOM      3  C   UNL     1      12.620   1.078 -16.945  1.00  0.00     0.027 C 
BRANCH   3   4
ATOM      4  C   UNL     1      11.752  -0.176 -17.095  1.00  0.00     0.004 C 
BRANCH   4   5
ATOM      5  C   UNL     1      10.768  -0.029 -18.261  1.00  0.00     0.000 C 
BRANCH   5   6
ATOM      6  C   UNL     1      10.579  -1.367 -18.992  1.00  0.00     0.000 C 
BRANCH   6   7
ATOM      7  C   UNL     1      11.047  -1.316 -20.456  1.00  0.00     0.000 C 
BRANCH   7   8
ATOM      8  C   UNL     1      12.365  -0.548 -20.632  1.00  0.00     0.006 C 
BRANCH   8   9
ATOM      9  C   UNL     1      13.499  -1.492 -21.046  1.00  0.00     0.053 C 
BRANCH   9  10
ATOM     10  C   UNL     1      14.479  -1.658 -19.929  1.00  0.00     0.041 C 
ATOM     11  O   UNL     1      14.073  -1.827 -18.749  1.00  0.00    -0.550 OA
ATOM     12  O   UNL     1      15.841  -1.677 -20.196  1.00  0.00    -0.550 OA
ENDBRANCH   9  10
ENDBRANCH   8   9
ENDBRANCH   7   8
ENDBRANCH   6   7
ENDBRANCH   5   6
ENDBRANCH   4   5
ENDBRANCH   3   4
ENDBRANCH   1   3
BRANCH   2  13
ATOM     13  C   UNL     1      13.388   3.099 -20.166  1.00  0.00     0.027 C 
BRANCH  13  14
ATOM     14  C   UNL     1      13.627   4.617 -20.185  1.00  0.00     0.004 C 
BRANCH  14  15
ATOM     15  C   UNL     1      14.687   5.032 -21.217  1.00  0.00     0.000 C 
BRANCH  15  16
ATOM     16  C   UNL     1      15.806   5.885 -20.601  1.00  0.00     0.000 C 
BRANCH  16  17
ATOM     17  C   UNL     1      17.054   5.880 -21.496  1.00  0.00    -0.000 C 
BRANCH  17  18
ATOM     18  C   UNL     1      16.715   5.678 -22.981  1.00  0.00    -0.000 C 
BRANCH  18  19
ATOM     19  C   UNL     1      17.960   5.401 -23.836  1.00  0.00    -0.003 C 
ATOM     20  C   UNL     1      19.227   5.428 -22.986  1.00  0.00     0.004 C 
ENDBRANCH  18  19
ENDBRANCH  17  18
ENDBRANCH  16  17
ENDBRANCH  15  16
ENDBRANCH  14  15
ENDBRANCH  13  14
ENDBRANCH   2  13
TORSDOF 15
ENDMDL
MODEL 3
REMARK VINA RESULT:    -3.477      3.083      4.601
REMARK INTER + INTRA:          -8.338
REMARK INTER:                  -7.217
REMARK INTRA:                  -1.120
REMARK UNBOUND:                -1.811
REMARK SMILES CCCCCCCCC=CCCCCCCCC(=O)[O-]
REMARK SMILES IDX 10 1 9 2 11 3 12 4 13 5 14 6 15 7 16 8 17 9 18 10 19 11
REMARK SMILES IDX 20 12 8 13 7 14 6 15 5 16 4 17 3 18 2 19 1 20
REMARK H PARENT
REMARK Flexibility Score: inf
ROOT
ATOM      1  C   UNL     1      12.433   1.376 -18.421  1.00  0.00    -0.031 C 
ATOM      2  C   UNL     1      13.239   2.378 -18.803  1.00  0.00    -0.031 C 
ENDROOT
BRANCH   1   3
ATOM      3  C   UNL     1      12.457   0.840 -17.016  1.00  0.00     0.027 C 
BRANCH   3   4
ATOM      4  C   UNL     1      12.505  -0.692 -17.014  1.00  0.00     0.004 C 
BRANCH   4   5
ATOM      5  C   UNL     1      12.533  -1.245 -18.443  1.00  0.00     0.000 C 
BRANCH   5   6
ATOM      6  C   UNL     1      13.943  -1.727 -18.818  1.00  0.00     0.000 C 
BRANCH   6   7
ATOM      7  C   UNL     1      14.299  -1.440 -20.286  1.00  0.00     0.000 C 
BRANCH   7   8
ATOM      8  C   UNL     1      13.185  -0.695 -21.033  1.00  0.00     0.006 C 
BRANCH   8   9
ATOM      9  C   UNL     1      12.679  -1.515 -22.224  1.00  0.00     0.053 C 
BRANCH   9  10
ATOM     10  C   UNL     1      11.213  -1.783 -22.094  1.00  0.00     0.041 C 
ATOM     11  O   UNL     1      10.609  -2.446 -22.978  1.00  0.00    -0.550 OA
ATOM     12  O   UNL     1      10.523  -1.343 -20.973  1.00  0.00    -0.550 OA
ENDBRANCH   9  10
ENDBRANCH   8   9
ENDBRANCH   7   8
ENDBRANCH   6   7
ENDBRANCH   5   6
ENDBRANCH   4   5
ENDBRANCH   3   4
ENDBRANCH   1   3
BRANCH   2  13
ATOM     13  C   UNL     1      13.225   2.904 -20.211  1.00  0.00     0.027 C 
BRANCH  13  14
ATOM     14  C   UNL     1      13.536   4.408 -20.237  1.00  0.00     0.004 C 
BRANCH  14  15
ATOM     15  C   UNL     1      14.696   4.752 -21.184  1.00  0.00     0.000 C 
BRANCH  15  16
ATOM     16  C   UNL     1      15.589   5.875 -20.637  1.00  0.00     0.000 C 
BRANCH  16  17
ATOM     17  C   UNL     1      16.786   6.125 -21.566  1.00  0.00    -0.000 C 
BRANCH  17  18
ATOM     18  C   UNL     1      16.769   5.219 -22.807  1.00  0.00    -0.000 C 
BRANCH  18  19
ATOM     19  C   UNL     1      17.959   5.480 -23.742  1.00  0.00    -0.003 C 
ATOM     20  C   UNL     1      17.488   5.982 -25.104  1.00  0.00     0.004 C 
ENDBRANCH  18  19
ENDBRANCH  17  18
ENDBRANCH  16  17
ENDBRANCH  15  16
ENDBRANCH  14  15
ENDBRANCH  13  14
ENDBRANCH   2  13
TORSDOF 15
ENDMDL
MODEL 4
REMARK VINA RESULT:    -3.375      3.378      6.666
REMARK INTER + INTRA:          -8.145
REMARK INTER:                  -6.709
REMARK INTRA:                  -1.436
REMARK UNBOUND:                -1.811
REMARK SMILES CCCCCCCCC=CCCCCCCCC(=O)[O-]
REMARK SMILES IDX 10 1 9 2 11 3 12 4 13 5 14 6 15 7 16 8 17 9 18 10 19 11
REMARK SMILES IDX 20 12 8 13 7 14 6 15 5 16 4 17 3 18 2 19 1 20
REMARK H PARENT
REMARK Flexibility Score: inf
ROOT
ATOM      1  C   UNL     1      12.877  -1.246 -21.366  1.00  0.00    -0.031 C 
ATOM      2  C   UNL     1      11.774  -1.032 -22.100  1.00  0.00    -0.031 C 
ENDROOT
BRANCH   1   3
ATOM      3  C   UNL     1      13.788  -0.117 -20.969  1.00  0.00     0.027 C 
BRANCH   3   4
ATOM      4  C   UNL     1      12.987   1.062 -20.405  1.00  0.00     0.004 C 
BRANCH   4   5
ATOM      5  C   UNL     1      13.418   2.382 -21.053  1.00  0.00     0.000 C 
BRANCH   5   6
ATOM      6  C   UNL     1      13.477   3.511 -20.013  1.00  0.00     0.000 C 
BRANCH   6   7
ATOM      7  C   UNL     1      13.654   4.899 -20.651  1.00  0.00     0.000 C 
BRANCH   7   8
ATOM      8  C   UNL     1      15.120   5.352 -20.692  1.00  0.00     0.006 C 
BRANCH   8   9
ATOM      9  C   UNL     1      15.455   6.004 -22.037  1.00  0.00     0.053 C 
BRANCH   9  10
ATOM     10  C   UNL     1      16.639   5.339 -22.663  1.00  0.00     0.041 C 
ATOM     11  O   UNL     1      17.798   5.569 -22.229  1.00  0.00    -0.550 OA
ATOM     12  O   UNL     1      16.460   4.428 -23.695  1.00  0.00    -0.550 OA
ENDBRANCH   9  10
ENDBRANCH   8   9
ENDBRANCH   7   8
ENDBRANCH   6   7
ENDBRANCH   5   6
ENDBRANCH   4   5
ENDBRANCH   3   4
ENDBRANCH   1   3
BRANCH   2  13
ATOM     13  C   UNL     1      10.872  -2.162 -22.509  1.00  0.00     0.027 C 
BRANCH  13  14
ATOM     14  C   UNL     1      10.006  -2.627 -21.327  1.00  0.00     0.004 C 
BRANCH  14  15
ATOM     15  C   UNL     1       9.743  -1.503 -20.313  1.00  0.00     0.000 C 
BRANCH  15  16
ATOM     16  C   UNL     1      10.268  -1.841 -18.910  1.00  0.00     0.000 C 
BRANCH  16  17
ATOM     17  C   UNL     1      10.653  -0.566 -18.147  1.00  0.00    -0.000 C 
BRANCH  17  18
ATOM     18  C   UNL     1      12.016  -0.685 -17.447  1.00  0.00    -0.000 C 
BRANCH  18  19
ATOM     19  C   UNL     1      12.248   0.431 -16.419  1.00  0.00    -0.003 C 
ATOM     20  C   UNL     1      13.301   1.421 -16.909  1.00  0.00     0.004 C 
ENDBRANCH  18  19
ENDBRANCH  17  18
ENDBRANCH  16  17
ENDBRANCH  15  16
ENDBRANCH  14  15
ENDBRANCH  13  14
ENDBRANCH   2  13
TORSDOF 15
ENDMDL
MODEL 5
REMARK VINA RESULT:    -3.294      4.149      6.982
REMARK INTER + INTRA:          -7.994
REMARK INTER:                  -6.886
REMARK INTRA:                  -1.108
REMARK UNBOUND:                -1.811
REMARK SMILES CCCCCCCCC=CCCCCCCCC(=O)[O-]
REMARK SMILES IDX 10 1 9 2 11 3 12 4 13 5 14 6 15 7 16 8 17 9 18 10 19 11
REMARK SMILES IDX 20 12 8 13 7 14 6 15 5 16 4 17 3 18 2 19 1 20
REMARK H PARENT
REMARK Flexibility Score: inf
ROOT
ATOM      1  C   UNL     1      12.458   1.529 -18.731  1.00  0.00    -0.031 C 
ATOM      2  C   UNL     1      12.632   0.800 -17.617  1.00  0.00    -0.031 C 
ENDROOT
BRANCH   1   3
ATOM      3  C   UNL     1      13.176   2.835 -18.934  1.00  0.00     0.027 C 
BRANCH   3   4
ATOM      4  C   UNL     1      13.251   3.194 -20.422  1.00  0.00     0.004 C 
BRANCH   4   5
ATOM      5  C   UNL     1      13.333   4.712 -20.619  1.00  0.00     0.000 C 
BRANCH   5   6
ATOM      6  C   UNL     1      14.775   5.212 -20.438  1.00  0.00     0.000 C 
BRANCH   6   7
ATOM      7  C   UNL     1      15.305   5.957 -21.674  1.00  0.00     0.000 C 
BRANCH   7   8
ATOM      8  C   UNL     1      16.639   5.392 -22.182  1.00  0.00     0.006 C 
BRANCH   8   9
ATOM      9  C   UNL     1      16.526   4.949 -23.644  1.00  0.00     0.053 C 
BRANCH   9  10
ATOM     10  C   UNL     1      17.668   5.485 -24.446  1.00  0.00     0.041 C 
ATOM     11  O   UNL     1      17.547   5.655 -25.688  1.00  0.00    -0.550 OA
ATOM     12  O   UNL     1      18.852   5.845 -23.816  1.00  0.00    -0.550 OA
ENDBRANCH   9  10
ENDBRANCH   8   9
ENDBRANCH   7   8
ENDBRANCH   6   7
ENDBRANCH   5   6
ENDBRANCH   4   5
ENDBRANCH   3   4
ENDBRANCH   1   3
BRANCH   2  13
ATOM     13  C   UNL     1      11.903  -0.497 -17.407  1.00  0.00     0.027 C 
BRANCH  13  14
ATOM     14  C   UNL     1      12.395  -1.568 -18.393  1.00  0.00     0.004 C 
BRANCH  14  15
ATOM     15  C   UNL     1      13.910  -1.490 -18.637  1.00  0.00     0.000 C 
BRANCH  15  16
ATOM     16  C   UNL     1      14.281  -1.710 -20.111  1.00  0.00     0.000 C 
BRANCH  16  17
ATOM     17  C   UNL     1      13.526  -0.728 -21.018  1.00  0.00    -0.000 C 
BRANCH  17  18
ATOM     18  C   UNL     1      12.786  -1.433 -22.166  1.00  0.00    -0.000 C 
BRANCH  18  19
ATOM     19  C   UNL     1      11.260  -1.350 -22.021  1.00  0.00    -0.003 C 
ATOM     20  C   UNL     1      10.572  -2.471 -22.793  1.00  0.00     0.004 C 
ENDBRANCH  18  19
ENDBRANCH  17  18
ENDBRANCH  16  17
ENDBRANCH  15  16
ENDBRANCH  14  15
ENDBRANCH  13  14
ENDBRANCH   2  13
TORSDOF 15
ENDMDL
MODEL 6
REMARK VINA RESULT:    -3.280      4.365      7.182
REMARK INTER + INTRA:          -7.966
REMARK INTER:                  -6.474
REMARK INTRA:                  -1.493
REMARK UNBOUND:                -1.811
REMARK SMILES CCCCCCCCC=CCCCCCCCC(=O)[O-]
REMARK SMILES IDX 10 1 9 2 11 3 12 4 13 5 14 6 15 7 16 8 17 9 18 10 19 11
REMARK SMILES IDX 20 12 8 13 7 14 6 15 5 16 4 17 3 18 2 19 1 20
REMARK H PARENT
REMARK Flexibility Score: inf
ROOT
ATOM      1  C   UNL     1      12.752   2.267 -18.767  1.00  0.00    -0.031 C 
ATOM      2  C   UNL     1      13.305   1.250 -18.088  1.00  0.00    -0.031 C 
ENDROOT
BRANCH   1   3
ATOM      3  C   UNL     1      13.288   2.703 -20.102  1.00  0.00     0.027 C 
BRANCH   3   4
ATOM      4  C   UNL     1      13.320   4.232 -20.208  1.00  0.00     0.004 C 
BRANCH   4   5
ATOM      5  C   UNL     1      14.512   4.701 -21.049  1.00  0.00     0.000 C 
BRANCH   5   6
ATOM      6  C   UNL     1      15.140   5.970 -20.451  1.00  0.00     0.000 C 
BRANCH   6   7
ATOM      7  C   UNL     1      16.628   6.121 -20.807  1.00  0.00     0.000 C 
BRANCH   7   8
ATOM      8  C   UNL     1      17.005   5.397 -22.107  1.00  0.00     0.006 C 
BRANCH   8   9
ATOM      9  C   UNL     1      18.277   5.993 -22.718  1.00  0.00     0.053 C 
BRANCH   9  10
ATOM     10  C   UNL     1      18.316   5.750 -24.193  1.00  0.00     0.041 C 
ATOM     11  O   UNL     1      19.308   6.124 -24.871  1.00  0.00    -0.550 OA
ATOM     12  O   UNL     1      17.279   5.066 -24.813  1.00  0.00    -0.550 OA
ENDBRANCH   9  10
ENDBRANCH   8   9
ENDBRANCH   7   8
ENDBRANCH   6   7
ENDBRANCH   5   6
ENDBRANCH   4   5
ENDBRANCH   3   4
ENDBRANCH   1   3
BRANCH   2  13
ATOM     13  C   UNL     1      12.779   0.823 -16.746  1.00  0.00     0.027 C 
BRANCH  13  14
ATOM     14  C   UNL     1      11.455   0.059 -16.895  1.00  0.00     0.004 C 
BRANCH  14  15
ATOM     15  C   UNL     1      11.513  -1.010 -17.997  1.00  0.00     0.000 C 
BRANCH  15  16
ATOM     16  C   UNL     1      10.487  -0.763 -19.112  1.00  0.00     0.000 C 
BRANCH  16  17
ATOM     17  C   UNL     1      10.880  -1.511 -20.395  1.00  0.00    -0.000 C 
BRANCH  17  18
ATOM     18  C   UNL     1      11.866  -0.716 -21.264  1.00  0.00    -0.000 C 
BRANCH  18  19
ATOM     19  C   UNL     1      13.117  -1.528 -21.628  1.00  0.00    -0.003 C 
ATOM     20  C   UNL     1      14.164  -1.452 -20.521  1.00  0.00     0.004 C 
ENDBRANCH  18  19
ENDBRANCH  17  18
ENDBRANCH  16  17
ENDBRANCH  15  16
ENDBRANCH  14  15
ENDBRANCH  13  14
ENDBRANCH   2  13
TORSDOF 15
ENDMDL
MODEL 7
REMARK VINA RESULT:    -3.145      3.772      4.840
REMARK INTER + INTRA:          -7.713
REMARK INTER:                  -6.629
REMARK INTRA:                  -1.084
REMARK UNBOUND:                -1.811
REMARK SMILES CCCCCCCCC=CCCCCCCCC(=O)[O-]
REMARK SMILES IDX 10 1 9 2 11 3 12 4 13 5 14 6 15 7 16 8 17 9 18 10 19 11
REMARK SMILES IDX 20 12 8 13 7 14 6 15 5 16 4 17 3 18 2 19 1 20
REMARK H PARENT
REMARK Flexibility Score: inf
ROOT
ATOM      1  C   UNL     1      13.495   2.783 -19.519  1.00  0.00    -0.031 C 
ATOM      2  C   UNL     1      13.347   3.961 -20.145  1.00  0.00    -0.031 C 
ENDROOT
BRANCH   1   3
ATOM      3  C   UNL     1      12.507   2.313 -18.487  1.00  0.00     0.027 C 
BRANCH   3   4
ATOM      4  C   UNL     1      13.224   1.666 -17.297  1.00  0.00     0.004 C 
BRANCH   4   5
ATOM      5  C   UNL     1      12.575   0.328 -16.923  1.00  0.00     0.000 C 
BRANCH   5   6
ATOM      6  C   UNL     1      11.440  -0.022 -17.898  1.00  0.00     0.000 C 
BRANCH   6   7
ATOM      7  C   UNL     1      11.734  -1.287 -18.722  1.00  0.00     0.000 C 
BRANCH   7   8
ATOM      8  C   UNL     1      13.158  -1.306 -19.294  1.00  0.00     0.006 C 
BRANCH   8   9
ATOM      9  C   UNL     1      13.236  -0.506 -20.599  1.00  0.00     0.053 C 
BRANCH   9  10
ATOM     10  C   UNL     1      12.526  -1.226 -21.701  1.00  0.00     0.041 C 
ATOM     11  O   UNL     1      13.131  -2.092 -22.385  1.00  0.00    -0.550 OA
ATOM     12  O   UNL     1      11.181  -0.978 -21.941  1.00  0.00    -0.550 OA
ENDBRANCH   9  10
ENDBRANCH   8   9
ENDBRANCH   7   8
ENDBRANCH   6   7
ENDBRANCH   5   6
ENDBRANCH   4   5
ENDBRANCH   3   4
ENDBRANCH   1   3
BRANCH   2  13
ATOM     13  C   UNL     1      14.342   4.437 -21.167  1.00  0.00     0.027 C 
BRANCH  13  14
ATOM     14  C   UNL     1      15.145   5.633 -20.633  1.00  0.00     0.004 C 
BRANCH  14  15
ATOM     15  C   UNL     1      16.375   5.947 -21.497  1.00  0.00     0.000 C 
BRANCH  15  16
ATOM     16  C   UNL     1      16.123   5.704 -22.992  1.00  0.00     0.000 C 
BRANCH  16  17
ATOM     17  C   UNL     1      17.424   5.324 -23.713  1.00  0.00    -0.000 C 
BRANCH  17  18
ATOM     18  C   UNL     1      18.643   5.335 -22.776  1.00  0.00    -0.000 C 
BRANCH  18  19
ATOM     19  C   UNL     1      19.918   5.827 -23.477  1.00  0.00    -0.003 C 
ATOM     20  C   UNL     1      21.125   4.982 -23.078  1.00  0.00     0.004 C 
ENDBRANCH  18  19
ENDBRANCH  17  18
ENDBRANCH  16  17
ENDBRANCH  15  16
ENDBRANCH  14  15
ENDBRANCH  13  14
ENDBRANCH   2  13
TORSDOF 15
ENDMDL
MODEL 8
REMARK VINA RESULT:    -3.131      4.241      7.398
REMARK INTER + INTRA:          -7.687
REMARK INTER:                  -6.395
REMARK INTRA:                  -1.292
REMARK UNBOUND:                -1.811
REMARK SMILES CCCCCCCCC=CCCCCCCCC(=O)[O-]
REMARK SMILES IDX 10 1 9 2 11 3 12 4 13 5 14 6 15 7 16 8 17 9 18 10 19 11
REMARK SMILES IDX 20 12 8 13 7 14 6 15 5 16 4 17 3 18 2 19 1 20
REMARK H PARENT
REMARK Flexibility Score: inf
ROOT
ATOM      1  C   UNL     1      13.122   1.069 -20.558  1.00  0.00    -0.031 C 
ATOM      2  C   UNL     1      13.735  -0.021 -21.047  1.00  0.00    -0.031 C 
ENDROOT
BRANCH   1   3
ATOM      3  C   UNL     1      13.414   2.442 -21.098  1.00  0.00     0.027 C 
BRANCH   3   4
ATOM      4  C   UNL     1      13.296   3.501 -19.996  1.00  0.00     0.004 C 
BRANCH   4   5
ATOM      5  C   UNL     1      13.505   4.910 -20.562  1.00  0.00     0.000 C 
BRANCH   5   6
ATOM      6  C   UNL     1      14.996   5.280 -20.576  1.00  0.00     0.000 C 
BRANCH   6   7
ATOM      7  C   UNL     1      15.430   5.949 -21.891  1.00  0.00     0.000 C 
BRANCH   7   8
ATOM      8  C   UNL     1      16.826   5.505 -22.351  1.00  0.00     0.006 C 
BRANCH   8   9
ATOM      9  C   UNL     1      16.784   4.962 -23.783  1.00  0.00     0.053 C 
BRANCH   9  10
ATOM     10  C   UNL     1      17.812   5.639 -24.632  1.00  0.00     0.041 C 
ATOM     11  O   UNL     1      18.985   5.797 -24.203  1.00  0.00    -0.550 OA
ATOM     12  O   UNL     1      17.489   6.053 -25.917  1.00  0.00    -0.550 OA
ENDBRANCH   9  10
ENDBRANCH   8   9
ENDBRANCH   7   8
ENDBRANCH   6   7
ENDBRANCH   5   6
ENDBRANCH   4   5
ENDBRANCH   3   4
ENDBRANCH   1   3
BRANCH   2  13
ATOM     13  C   UNL     1      13.455  -1.391 -20.497  1.00  0.00     0.027 C 
BRANCH  13  14
ATOM     14  C   UNL     1      14.005  -1.532 -19.070  1.00  0.00     0.004 C 
BRANCH  14  15
ATOM     15  C   UNL     1      12.892  -1.684 -18.023  1.00  0.00     0.000 C 
BRANCH  15  16
ATOM     16  C   UNL     1      12.511  -0.347 -17.370  1.00  0.00     0.000 C 
BRANCH  16  17
ATOM     17  C   UNL     1      10.986  -0.210 -17.251  1.00  0.00    -0.000 C 
BRANCH  17  18
ATOM     18  C   UNL     1      10.281  -0.245 -18.617  1.00  0.00    -0.000 C 
BRANCH  18  19
ATOM     19  C   UNL     1       9.815  -1.656 -19.001  1.00  0.00    -0.003 C 
ATOM     20  C   UNL     1       9.971  -1.898 -20.500  1.00  0.00     0.004 C 
ENDBRANCH  18  19
ENDBRANCH  17  18
ENDBRANCH  16  17
ENDBRANCH  15  16
ENDBRANCH  14  15
ENDBRANCH  13  14
ENDBRANCH   2  13
TORSDOF 15
ENDMDL
MODEL 9
REMARK VINA RESULT:    -3.038      4.016      7.127
REMARK INTER + INTRA:          -7.514
REMARK INTER:                  -6.032
REMARK INTRA:                  -1.482
REMARK UNBOUND:                -1.811
REMARK SMILES CCCCCCCCC=CCCCCCCCC(=O)[O-]
REMARK SMILES IDX 10 1 9 2 11 3 12 4 13 5 14 6 15 7 16 8 17 9 18 10 19 11
REMARK SMILES IDX 20 12 8 13 7 14 6 15 5 16 4 17 3 18 2 19 1 20
REMARK H PARENT
REMARK Flexibility Score: inf
ROOT
ATOM      1  C   UNL     1      13.223   1.203 -19.634  1.00  0.00    -0.031 C 
ATOM      2  C   UNL     1      13.326   0.606 -20.832  1.00  0.00    -0.031 C 
ENDROOT
BRANCH   1   3
ATOM      3  C   UNL     1      12.866   2.658 -19.510  1.00  0.00     0.027 C 
BRANCH   3   4
ATOM      4  C   UNL     1      13.579   3.491 -20.581  1.00  0.00     0.004 C 
BRANCH   4   5
ATOM      5  C   UNL     1      13.588   4.978 -20.208  1.00  0.00     0.000 C 
BRANCH   5   6
ATOM      6  C   UNL     1      14.519   5.772 -21.137  1.00  0.00     0.000 C 
BRANCH   6   7
ATOM      7  C   UNL     1      15.924   5.968 -20.544  1.00  0.00     0.000 C 
BRANCH   7   8
ATOM      8  C   UNL     1      17.038   5.802 -21.588  1.00  0.00     0.006 C 
BRANCH   8   9
ATOM      9  C   UNL     1      16.452   5.668 -22.998  1.00  0.00     0.053 C 
BRANCH   9  10
ATOM     10  C   UNL     1      17.518   5.291 -23.976  1.00  0.00     0.041 C 
ATOM     11  O   UNL     1      17.212   4.962 -25.152  1.00  0.00    -0.550 OA
ATOM     12  O   UNL     1      18.855   5.349 -23.606  1.00  0.00    -0.550 OA
ENDBRANCH   9  10
ENDBRANCH   8   9
ENDBRANCH   7   8
ENDBRANCH   6   7
ENDBRANCH   5   6
ENDBRANCH   4   5
ENDBRANCH   3   4
ENDBRANCH   1   3
BRANCH   2  13
ATOM     13  C   UNL     1      13.697  -0.845 -20.956  1.00  0.00     0.027 C 
BRANCH  13  14
ATOM     14  C   UNL     1      12.727  -1.580 -21.894  1.00  0.00     0.004 C 
BRANCH  14  15
ATOM     15  C   UNL     1      11.279  -1.089 -21.744  1.00  0.00     0.000 C 
BRANCH  15  16
ATOM     16  C   UNL     1      10.338  -2.182 -21.217  1.00  0.00     0.000 C 
BRANCH  16  17
ATOM     17  C   UNL     1       9.705  -1.763 -19.882  1.00  0.00    -0.000 C 
BRANCH  17  18
ATOM     18  C   UNL     1      10.747  -1.569 -18.769  1.00  0.00    -0.000 C 
BRANCH  18  19
ATOM     19  C   UNL     1      10.541  -0.261 -17.993  1.00  0.00    -0.003 C 
ATOM     20  C   UNL     1      11.588  -0.103 -16.893  1.00  0.00     0.004 C 
ENDBRANCH  18  19
ENDBRANCH  17  18
ENDBRANCH  16  17
ENDBRANCH  15  16
ENDBRANCH  14  15
ENDBRANCH  13  14
ENDBRANCH   2  13
TORSDOF 15
ENDMDL
