MODEL 1
REMARK VINA RESULT:    -4.137      0.000      0.000
REMARK INTER + INTRA:          -4.400
REMARK INTER:                  -4.379
REMARK INTRA:                  -0.021
REMARK UNBOUND:                -0.021
REMARK SMILES O=C([O-])c1cccnc1
REMARK SMILES IDX 4 1 5 2 9 3 6 4 8 5 7 6 2 7 1 8 3 9
REMARK H PARENT
REMARK Flexibility Score: inf
ROOT
ATOM      1  C   UNL     1      87.951  75.191  67.622  1.00  0.00     0.016 A 
ATOM      2  C   UNL     1      89.134  75.951  67.640  1.00  0.00     0.013 A 
ATOM      3  C   UNL     1      86.758  75.822  67.228  1.00  0.00     0.120 A 
ATOM      4  C   UNL     1      89.107  77.298  67.272  1.00  0.00     0.021 A 
ATOM      5  N   UNL     1      86.761  77.135  66.875  1.00  0.00    -0.264 NA
ATOM      6  C   UNL     1      87.898  77.878  66.888  1.00  0.00     0.111 A 
ENDROOT
BRANCH   1   7
ATOM      7  C   UNL     1      87.958  73.764  68.007  1.00  0.00     0.073 C 
ATOM      8  O   UNL     1      88.681  73.360  68.957  1.00  0.00    -0.545 OA
ATOM      9  O   UNL     1      87.165  72.847  67.326  1.00  0.00    -0.545 OA
ENDBRANCH   1   7
TORSDOF 1
ENDMDL
MODEL 2
REMARK VINA RESULT:    -4.125      0.893      1.933
REMARK INTER + INTRA:          -4.387
REMARK INTER:                  -4.366
REMARK INTRA:                  -0.021
REMARK UNBOUND:                -0.021
REMARK SMILES O=C([O-])c1cccnc1
REMARK SMILES IDX 4 1 5 2 9 3 6 4 8 5 7 6 2 7 1 8 3 9
REMARK H PARENT
REMARK Flexibility Score: inf
ROOT
ATOM      1  C   UNL     1      87.880  75.143  67.560  1.00  0.00     0.016 A 
ATOM      2  C   UNL     1      86.672  75.736  67.154  1.00  0.00     0.013 A 
ATOM      3  C   UNL     1      89.018  75.960  67.678  1.00  0.00     0.120 A 
ATOM      4  C   UNL     1      86.620  77.104  66.878  1.00  0.00     0.021 A 
ATOM      5  N   UNL     1      88.940  77.289  67.402  1.00  0.00    -0.264 NA
ATOM      6  C   UNL     1      87.777  77.872  67.010  1.00  0.00     0.111 A 
ENDROOT
BRANCH   1   7
ATOM      7  C   UNL     1      87.956  73.698  67.858  1.00  0.00     0.073 C 
ATOM      8  O   UNL     1      87.306  72.867  67.168  1.00  0.00    -0.545 OA
ATOM      9  O   UNL     1      88.746  73.234  68.904  1.00  0.00    -0.545 OA
ENDBRANCH   1   7
TORSDOF 1
ENDMDL
MODEL 3
REMARK VINA RESULT:    -3.949      2.388      3.028
REMARK INTER + INTRA:          -4.201
REMARK INTER:                  -4.182
REMARK INTRA:                  -0.019
REMARK UNBOUND:                -0.021
REMARK SMILES O=C([O-])c1cccnc1
REMARK SMILES IDX 4 1 5 2 9 3 6 4 8 5 7 6 2 7 1 8 3 9
REMARK H PARENT
REMARK Flexibility Score: inf
ROOT
ATOM      1  C   UNL     1      86.844  74.761  69.517  1.00  0.00     0.016 A 
ATOM      2  C   UNL     1      87.278  73.932  68.468  1.00  0.00     0.013 A 
ATOM      3  C   UNL     1      86.324  76.027  69.196  1.00  0.00     0.120 A 
ATOM      4  C   UNL     1      87.189  74.371  67.145  1.00  0.00     0.021 A 
ATOM      5  N   UNL     1      86.249  76.429  67.899  1.00  0.00    -0.264 NA
ATOM      6  C   UNL     1      86.665  75.636  66.878  1.00  0.00     0.111 A 
ENDROOT
BRANCH   1   7
ATOM      7  C   UNL     1      86.928  74.316  70.924  1.00  0.00     0.073 C 
ATOM      8  O   UNL     1      85.928  74.404  71.685  1.00  0.00    -0.545 OA
ATOM      9  O   UNL     1      88.114  73.792  71.427  1.00  0.00    -0.545 OA
ENDBRANCH   1   7
TORSDOF 1
ENDMDL
MODEL 4
REMARK VINA RESULT:    -3.944      3.334      4.142
REMARK INTER + INTRA:          -4.195
REMARK INTER:                  -4.177
REMARK INTRA:                  -0.018
REMARK UNBOUND:                -0.021
REMARK SMILES O=C([O-])c1cccnc1
REMARK SMILES IDX 4 1 5 2 9 3 6 4 8 5 7 6 2 7 1 8 3 9
REMARK H PARENT
REMARK Flexibility Score: inf
ROOT
ATOM      1  C   UNL     1      87.415  76.400  68.954  1.00  0.00     0.016 A 
ATOM      2  C   UNL     1      86.427  76.966  69.778  1.00  0.00     0.013 A 
ATOM      3  C   UNL     1      87.650  75.017  69.046  1.00  0.00     0.120 A 
ATOM      4  C   UNL     1      85.705  76.160  70.660  1.00  0.00     0.021 A 
ATOM      5  N   UNL     1      86.932  74.256  69.915  1.00  0.00    -0.264 NA
ATOM      6  C   UNL     1      85.975  74.792  70.715  1.00  0.00     0.111 A 
ENDROOT
BRANCH   1   7
ATOM      7  C   UNL     1      88.190  77.235  68.012  1.00  0.00     0.073 C 
ATOM      8  O   UNL     1      87.604  77.918  67.130  1.00  0.00    -0.545 OA
ATOM      9  O   UNL     1      89.578  77.279  68.087  1.00  0.00    -0.545 OA
ENDBRANCH   1   7
TORSDOF 1
ENDMDL
MODEL 5
REMARK VINA RESULT:    -3.938      2.840      3.079
REMARK INTER + INTRA:          -4.189
REMARK INTER:                  -4.172
REMARK INTRA:                  -0.016
REMARK UNBOUND:                -0.021
REMARK SMILES O=C([O-])c1cccnc1
REMARK SMILES IDX 4 1 5 2 9 3 6 4 8 5 7 6 2 7 1 8 3 9
REMARK H PARENT
REMARK Flexibility Score: inf
ROOT
ATOM      1  C   UNL     1      86.449  75.687  69.934  1.00  0.00     0.016 A 
ATOM      2  C   UNL     1      86.175  77.009  70.323  1.00  0.00     0.013 A 
ATOM      3  C   UNL     1      86.851  75.450  68.608  1.00  0.00     0.120 A 
ATOM      4  C   UNL     1      86.304  78.051  69.403  1.00  0.00     0.021 A 
ATOM      5  N   UNL     1      86.968  76.484  67.733  1.00  0.00    -0.264 NA
ATOM      6  C   UNL     1      86.706  77.765  68.098  1.00  0.00     0.111 A 
ENDROOT
BRANCH   1   7
ATOM      7  C   UNL     1      86.319  74.569  70.893  1.00  0.00     0.073 C 
ATOM      8  O   UNL     1      87.344  74.024  71.383  1.00  0.00    -0.545 OA
ATOM      9  O   UNL     1      85.063  74.105  71.269  1.00  0.00    -0.545 OA
ENDBRANCH   1   7
TORSDOF 1
ENDMDL
MODEL 6
REMARK VINA RESULT:    -3.877      1.399      1.847
REMARK INTER + INTRA:          -4.124
REMARK INTER:                  -4.102
REMARK INTRA:                  -0.022
REMARK UNBOUND:                -0.021
REMARK SMILES O=C([O-])c1cccnc1
REMARK SMILES IDX 4 1 5 2 9 3 6 4 8 5 7 6 2 7 1 8 3 9
REMARK H PARENT
REMARK Flexibility Score: inf
ROOT
ATOM      1  C   UNL     1      87.274  75.183  68.002  1.00  0.00     0.016 A 
ATOM      2  C   UNL     1      87.360  75.865  69.227  1.00  0.00     0.013 A 
ATOM      3  C   UNL     1      86.709  75.853  66.903  1.00  0.00     0.120 A 
ATOM      4  C   UNL     1      86.893  77.176  69.334  1.00  0.00     0.021 A 
ATOM      5  N   UNL     1      86.261  77.130  67.035  1.00  0.00    -0.264 NA
ATOM      6  C   UNL     1      86.340  77.799  68.215  1.00  0.00     0.111 A 
ENDROOT
BRANCH   1   7
ATOM      7  C   UNL     1      87.764  73.795  67.867  1.00  0.00     0.073 C 
ATOM      8  O   UNL     1      87.265  73.020  67.006  1.00  0.00    -0.545 OA
ATOM      9  O   UNL     1      88.783  73.324  68.687  1.00  0.00    -0.545 OA
ENDBRANCH   1   7
TORSDOF 1
ENDMDL
MODEL 7
REMARK VINA RESULT:    -3.844      3.255      3.941
REMARK INTER + INTRA:          -4.089
REMARK INTER:                  -4.067
REMARK INTRA:                  -0.022
REMARK UNBOUND:                -0.021
REMARK SMILES O=C([O-])c1cccnc1
REMARK SMILES IDX 4 1 5 2 9 3 6 4 8 5 7 6 2 7 1 8 3 9
REMARK H PARENT
REMARK Flexibility Score: inf
ROOT
ATOM      1  C   UNL     1      86.926  76.324  68.871  1.00  0.00     0.016 A 
ATOM      2  C   UNL     1      86.784  76.191  67.479  1.00  0.00     0.013 A 
ATOM      3  C   UNL     1      87.229  75.177  69.624  1.00  0.00     0.120 A 
ATOM      4  C   UNL     1      86.942  74.942  66.875  1.00  0.00     0.021 A 
ATOM      5  N   UNL     1      87.377  73.973  69.010  1.00  0.00    -0.264 NA
ATOM      6  C   UNL     1      87.242  73.833  67.666  1.00  0.00     0.111 A 
ENDROOT
BRANCH   1   7
ATOM      7  C   UNL     1      86.764  77.637  69.531  1.00  0.00     0.073 C 
ATOM      8  O   UNL     1      87.332  77.877  70.629  1.00  0.00    -0.545 OA
ATOM      9  O   UNL     1      85.981  78.627  68.946  1.00  0.00    -0.545 OA
ENDBRANCH   1   7
TORSDOF 1
ENDMDL
