MODEL 1
REMARK VINA RESULT:    -3.751      0.000      0.000
REMARK INTER + INTRA:          -8.381
REMARK INTER:                  -6.820
REMARK INTRA:                  -1.561
REMARK UNBOUND:                -1.561
REMARK SMILES CCCCCC=CCC=CCCCCCCCC(=O)[O-]
REMARK SMILES IDX 11 1 12 2 13 3 14 4 15 5 16 6 17 7 18 8 19 9 20 10 10 11
REMARK SMILES IDX 9 12 8 13 7 14 6 15 5 16 4 17 3 18 2 19 1 20
REMARK H PARENT
REMARK Flexibility Score: inf
ROOT
ATOM      1  C   UNL     1       8.845  -3.509  -2.357  1.00  0.00     0.027 C 
ENDROOT
BRANCH   1   2
ATOM      2  C   UNL     1       9.284  -4.529  -3.414  1.00  0.00     0.004 C 
BRANCH   2   3
ATOM      3  C   UNL     1       9.769  -5.826  -2.758  1.00  0.00     0.000 C 
BRANCH   3   4
ATOM      4  C   UNL     1      10.176  -5.584  -1.297  1.00  0.00     0.000 C 
BRANCH   4   5
ATOM      5  C   UNL     1      11.627  -6.002  -1.000  1.00  0.00     0.000 C 
BRANCH   5   6
ATOM      6  C   UNL     1      12.559  -4.860  -0.549  1.00  0.00     0.006 C 
BRANCH   6   7
ATOM      7  C   UNL     1      12.577  -3.649  -1.500  1.00  0.00     0.053 C 
BRANCH   7   8
ATOM      8  C   UNL     1      13.191  -3.969  -2.830  1.00  0.00     0.041 C 
ATOM      9  O   UNL     1      12.828  -3.348  -3.863  1.00  0.00    -0.550 OA
ATOM     10  O   UNL     1      14.136  -4.983  -2.935  1.00  0.00    -0.550 OA
ENDBRANCH   7   8
ENDBRANCH   6   7
ENDBRANCH   5   6
ENDBRANCH   4   5
ENDBRANCH   3   4
ENDBRANCH   2   3
ENDBRANCH   1   2
BRANCH   1  11
ATOM     11  C   UNL     1       7.355  -3.286  -2.414  1.00  0.00    -0.031 C 
ATOM     12  C   UNL     1       6.455  -3.951  -1.666  1.00  0.00    -0.027 C 
BRANCH  12  13
ATOM     13  C   UNL     1       6.794  -5.066  -0.708  1.00  0.00     0.054 C 
BRANCH  13  14
ATOM     14  C   UNL     1       6.028  -4.932   0.579  1.00  0.00    -0.027 C 
ATOM     15  C   UNL     1       5.539  -3.751   0.987  1.00  0.00    -0.031 C 
BRANCH  15  16
ATOM     16  C   UNL     1       4.770  -3.619   2.272  1.00  0.00     0.027 C 
BRANCH  16  17
ATOM     17  C   UNL     1       5.674  -3.883   3.486  1.00  0.00     0.004 C 
BRANCH  17  18
ATOM     18  C   UNL     1       6.540  -2.668   3.863  1.00  0.00     0.000 C 
BRANCH  18  19
ATOM     19  C   UNL     1       5.788  -1.325   3.903  1.00  0.00    -0.003 C 
ATOM     20  C   UNL     1       5.861  -0.640   5.267  1.00  0.00     0.004 C 
ENDBRANCH  18  19
ENDBRANCH  17  18
ENDBRANCH  16  17
ENDBRANCH  15  16
ENDBRANCH  13  14
ENDBRANCH  12  13
ENDBRANCH   1  11
TORSDOF 14
ENDMDL
MODEL 2
REMARK VINA RESULT:    -3.489     11.292     13.643
REMARK INTER + INTRA:          -7.905
REMARK INTER:                  -4.884
REMARK INTRA:                  -3.021
REMARK UNBOUND:                -1.561
REMARK SMILES CCCCCC=CCC=CCCCCCCCC(=O)[O-]
REMARK SMILES IDX 11 1 12 2 13 3 14 4 15 5 16 6 17 7 18 8 19 9 20 10 10 11
REMARK SMILES IDX 9 12 8 13 7 14 6 15 5 16 4 17 3 18 2 19 1 20
REMARK H PARENT
REMARK Flexibility Score: inf
ROOT
ATOM      1  C   UNL     1      20.286   2.988   8.402  1.00  0.00     0.027 C 
ENDROOT
BRANCH   1   2
ATOM      2  C   UNL     1      20.847   1.766   7.666  1.00  0.00     0.004 C 
BRANCH   2   3
ATOM      3  C   UNL     1      20.530   0.473   8.427  1.00  0.00     0.000 C 
BRANCH   3   4
ATOM      4  C   UNL     1      19.816  -0.537   7.518  1.00  0.00     0.000 C 
BRANCH   4   5
ATOM      5  C   UNL     1      19.392   0.066   6.167  1.00  0.00     0.000 C 
BRANCH   5   6
ATOM      6  C   UNL     1      19.709  -0.802   4.933  1.00  0.00     0.006 C 
BRANCH   6   7
ATOM      7  C   UNL     1      20.960  -0.355   4.155  1.00  0.00     0.053 C 
BRANCH   7   8
ATOM      8  C   UNL     1      20.858   1.056   3.659  1.00  0.00     0.041 C 
ATOM      9  O   UNL     1      20.085   1.340   2.707  1.00  0.00    -0.550 OA
ATOM     10  O   UNL     1      21.647   2.051   4.223  1.00  0.00    -0.550 OA
ENDBRANCH   7   8
ENDBRANCH   6   7
ENDBRANCH   5   6
ENDBRANCH   4   5
ENDBRANCH   3   4
ENDBRANCH   2   3
ENDBRANCH   1   2
BRANCH   1  11
ATOM     11  C   UNL     1      19.160   3.614   7.618  1.00  0.00    -0.031 C 
ATOM     12  C   UNL     1      17.856   3.504   7.935  1.00  0.00    -0.027 C 
BRANCH  12  13
ATOM     13  C   UNL     1      17.321   2.684   9.082  1.00  0.00     0.054 C 
BRANCH  13  14
ATOM     14  C   UNL     1      16.765   1.372   8.602  1.00  0.00    -0.027 C 
ATOM     15  C   UNL     1      16.247   1.235   7.372  1.00  0.00    -0.031 C 
BRANCH  15  16
ATOM     16  C   UNL     1      15.696  -0.079   6.892  1.00  0.00     0.027 C 
BRANCH  16  17
ATOM     17  C   UNL     1      15.833  -1.163   7.972  1.00  0.00     0.004 C 
BRANCH  17  18
ATOM     18  C   UNL     1      16.637  -2.386   7.494  1.00  0.00     0.000 C 
BRANCH  18  19
ATOM     19  C   UNL     1      16.648  -2.597   5.969  1.00  0.00    -0.003 C 
ATOM     20  C   UNL     1      17.515  -3.777   5.535  1.00  0.00     0.004 C 
ENDBRANCH  18  19
ENDBRANCH  17  18
ENDBRANCH  16  17
ENDBRANCH  15  16
ENDBRANCH  13  14
ENDBRANCH  12  13
ENDBRANCH   1  11
TORSDOF 14
ENDMDL
MODEL 3
REMARK VINA RESULT:    -3.451     11.476     13.790
REMARK INTER + INTRA:          -7.837
REMARK INTER:                  -4.964
REMARK INTRA:                  -2.873
REMARK UNBOUND:                -1.561
REMARK SMILES CCCCCC=CCC=CCCCCCCCC(=O)[O-]
REMARK SMILES IDX 11 1 12 2 13 3 14 4 15 5 16 6 17 7 18 8 19 9 20 10 10 11
REMARK SMILES IDX 9 12 8 13 7 14 6 15 5 16 4 17 3 18 2 19 1 20
REMARK H PARENT
REMARK Flexibility Score: inf
ROOT
ATOM      1  C   UNL     1      10.363   6.193  -9.669  1.00  0.00     0.027 C 
ENDROOT
BRANCH   1   2
ATOM      2  C   UNL     1       9.632   7.465  -9.226  1.00  0.00     0.004 C 
BRANCH   2   3
ATOM      3  C   UNL     1       9.841   7.726  -7.730  1.00  0.00     0.000 C 
BRANCH   3   4
ATOM      4  C   UNL     1       8.947   8.875  -7.243  1.00  0.00     0.000 C 
BRANCH   4   5
ATOM      5  C   UNL     1       7.529   8.414  -6.864  1.00  0.00     0.000 C 
BRANCH   5   6
ATOM      6  C   UNL     1       7.139   8.634  -5.390  1.00  0.00     0.006 C 
BRANCH   6   7
ATOM      7  C   UNL     1       5.639   8.435  -5.099  1.00  0.00     0.053 C 
BRANCH   7   8
ATOM      8  C   UNL     1       5.395   7.624  -3.863  1.00  0.00     0.041 C 
ATOM      9  O   UNL     1       6.192   7.691  -2.890  1.00  0.00    -0.550 OA
ATOM     10  O   UNL     1       4.307   6.761  -3.799  1.00  0.00    -0.550 OA
ENDBRANCH   7   8
ENDBRANCH   6   7
ENDBRANCH   5   6
ENDBRANCH   4   5
ENDBRANCH   3   4
ENDBRANCH   2   3
ENDBRANCH   1   2
BRANCH   1  11
ATOM     11  C   UNL     1       9.408   5.229 -10.327  1.00  0.00    -0.031 C 
ATOM     12  C   UNL     1       8.943   4.104  -9.752  1.00  0.00    -0.027 C 
BRANCH  12  13
ATOM     13  C   UNL     1       9.359   3.603  -8.391  1.00  0.00     0.054 C 
BRANCH  13  14
ATOM     14  C   UNL     1       8.213   3.649  -7.419  1.00  0.00    -0.027 C 
ATOM     15  C   UNL     1       7.722   4.811  -6.965  1.00  0.00    -0.031 C 
BRANCH  15  16
ATOM     16  C   UNL     1       6.573   4.856  -5.996  1.00  0.00     0.027 C 
BRANCH  16  17
ATOM     17  C   UNL     1       5.230   4.681  -6.723  1.00  0.00     0.004 C 
BRANCH  17  18
ATOM     18  C   UNL     1       4.806   5.937  -7.506  1.00  0.00     0.000 C 
BRANCH  18  19
ATOM     19  C   UNL     1       4.850   5.790  -9.037  1.00  0.00    -0.003 C 
ATOM     20  C   UNL     1       6.002   6.562  -9.679  1.00  0.00     0.004 C 
ENDBRANCH  18  19
ENDBRANCH  17  18
ENDBRANCH  16  17
ENDBRANCH  15  16
ENDBRANCH  13  14
ENDBRANCH  12  13
ENDBRANCH   1  11
TORSDOF 14
ENDMDL
MODEL 4
REMARK VINA RESULT:    -3.414     11.720     13.603
REMARK INTER + INTRA:          -7.769
REMARK INTER:                  -5.323
REMARK INTRA:                  -2.446
REMARK UNBOUND:                -1.561
REMARK SMILES CCCCCC=CCC=CCCCCCCCC(=O)[O-]
REMARK SMILES IDX 11 1 12 2 13 3 14 4 15 5 16 6 17 7 18 8 19 9 20 10 10 11
REMARK SMILES IDX 9 12 8 13 7 14 6 15 5 16 4 17 3 18 2 19 1 20
REMARK H PARENT
REMARK Flexibility Score: inf
ROOT
ATOM      1  C   UNL     1      10.562   9.811  -8.094  1.00  0.00     0.027 C 
ENDROOT
BRANCH   1   2
ATOM      2  C   UNL     1      10.997   8.341  -8.111  1.00  0.00     0.004 C 
BRANCH   2   3
ATOM      3  C   UNL     1       9.829   7.418  -7.745  1.00  0.00     0.000 C 
BRANCH   3   4
ATOM      4  C   UNL     1       8.723   7.485  -8.807  1.00  0.00     0.000 C 
BRANCH   4   5
ATOM      5  C   UNL     1       8.589   6.185  -9.618  1.00  0.00     0.000 C 
BRANCH   5   6
ATOM      6  C   UNL     1       9.428   5.000  -9.101  1.00  0.00     0.006 C 
BRANCH   6   7
ATOM      7  C   UNL     1       8.591   3.808  -8.598  1.00  0.00     0.053 C 
BRANCH   7   8
ATOM      8  C   UNL     1       9.402   2.828  -7.804  1.00  0.00     0.041 C 
ATOM      9  O   UNL     1       9.408   1.609  -8.116  1.00  0.00    -0.550 OA
ATOM     10  O   UNL     1      10.120   3.256  -6.694  1.00  0.00    -0.550 OA
ENDBRANCH   7   8
ENDBRANCH   6   7
ENDBRANCH   5   6
ENDBRANCH   4   5
ENDBRANCH   3   4
ENDBRANCH   2   3
ENDBRANCH   1   2
BRANCH   1  11
ATOM     11  C   UNL     1      10.653  10.380  -6.701  1.00  0.00    -0.031 C 
ATOM     12  C   UNL     1       9.602  10.563  -5.880  1.00  0.00    -0.027 C 
BRANCH  12  13
ATOM     13  C   UNL     1       8.166  10.289  -6.255  1.00  0.00     0.054 C 
BRANCH  13  14
ATOM     14  C   UNL     1       7.481   9.447  -5.215  1.00  0.00    -0.027 C 
ATOM     15  C   UNL     1       6.555   8.535  -5.547  1.00  0.00    -0.031 C 
BRANCH  15  16
ATOM     16  C   UNL     1       5.874   7.690  -4.506  1.00  0.00     0.027 C 
BRANCH  16  17
ATOM     17  C   UNL     1       5.761   6.229  -4.968  1.00  0.00     0.004 C 
BRANCH  17  18
ATOM     18  C   UNL     1       6.462   5.972  -6.315  1.00  0.00     0.000 C 
BRANCH  18  19
ATOM     19  C   UNL     1       5.544   5.439  -7.430  1.00  0.00    -0.003 C 
ATOM     20  C   UNL     1       4.834   6.551  -8.201  1.00  0.00     0.004 C 
ENDBRANCH  18  19
ENDBRANCH  17  18
ENDBRANCH  16  17
ENDBRANCH  15  16
ENDBRANCH  13  14
ENDBRANCH  12  13
ENDBRANCH   1  11
TORSDOF 14
ENDMDL
MODEL 5
REMARK VINA RESULT:    -3.367     10.646     13.981
REMARK INTER + INTRA:          -7.684
REMARK INTER:                  -5.716
REMARK INTRA:                  -1.967
REMARK UNBOUND:                -1.561
REMARK SMILES CCCCCC=CCC=CCCCCCCCC(=O)[O-]
REMARK SMILES IDX 11 1 12 2 13 3 14 4 15 5 16 6 17 7 18 8 19 9 20 10 10 11
REMARK SMILES IDX 9 12 8 13 7 14 6 15 5 16 4 17 3 18 2 19 1 20
REMARK H PARENT
REMARK Flexibility Score: inf
ROOT
ATOM      1  C   UNL     1      17.364   2.820   8.873  1.00  0.00     0.027 C 
ENDROOT
BRANCH   1   2
ATOM      2  C   UNL     1      16.270   2.052   8.123  1.00  0.00     0.004 C 
BRANCH   2   3
ATOM      3  C   UNL     1      16.720   0.618   7.814  1.00  0.00     0.000 C 
BRANCH   3   4
ATOM      4  C   UNL     1      15.880   0.012   6.681  1.00  0.00     0.000 C 
BRANCH   4   5
ATOM      5  C   UNL     1      16.602  -1.128   5.942  1.00  0.00     0.000 C 
BRANCH   5   6
ATOM      6  C   UNL     1      16.294  -2.546   6.461  1.00  0.00     0.006 C 
BRANCH   6   7
ATOM      7  C   UNL     1      14.882  -2.705   7.055  1.00  0.00     0.053 C 
BRANCH   7   8
ATOM      8  C   UNL     1      14.142  -3.874   6.477  1.00  0.00     0.041 C 
ATOM      9  O   UNL     1      14.370  -5.040   6.895  1.00  0.00    -0.550 OA
ATOM     10  O   UNL     1      13.229  -3.680   5.448  1.00  0.00    -0.550 OA
ENDBRANCH   7   8
ENDBRANCH   6   7
ENDBRANCH   5   6
ENDBRANCH   4   5
ENDBRANCH   3   4
ENDBRANCH   2   3
ENDBRANCH   1   2
BRANCH   1  11
ATOM     11  C   UNL     1      18.173   3.665   7.922  1.00  0.00    -0.031 C 
ATOM     12  C   UNL     1      19.344   3.288   7.374  1.00  0.00    -0.027 C 
BRANCH  12  13
ATOM     13  C   UNL     1      20.055   1.994   7.681  1.00  0.00     0.054 C 
BRANCH  13  14
ATOM     14  C   UNL     1      20.200   1.145   6.449  1.00  0.00    -0.027 C 
ATOM     15  C   UNL     1      20.293  -0.192   6.523  1.00  0.00    -0.031 C 
BRANCH  15  16
ATOM     16  C   UNL     1      20.433  -1.041   5.290  1.00  0.00     0.027 C 
BRANCH  16  17
ATOM     17  C   UNL     1      19.604  -0.469   4.129  1.00  0.00     0.004 C 
BRANCH  17  18
ATOM     18  C   UNL     1      20.466  -0.069   2.919  1.00  0.00     0.000 C 
BRANCH  18  19
ATOM     19  C   UNL     1      20.942   1.395   2.919  1.00  0.00    -0.003 C 
ATOM     20  C   UNL     1      22.396   1.551   3.361  1.00  0.00     0.004 C 
ENDBRANCH  18  19
ENDBRANCH  17  18
ENDBRANCH  16  17
ENDBRANCH  15  16
ENDBRANCH  13  14
ENDBRANCH  12  13
ENDBRANCH   1  11
TORSDOF 14
ENDMDL
MODEL 6
REMARK VINA RESULT:    -3.358     11.160     13.695
REMARK INTER + INTRA:          -7.666
REMARK INTER:                  -5.153
REMARK INTRA:                  -2.513
REMARK UNBOUND:                -1.561
REMARK SMILES CCCCCC=CCC=CCCCCCCCC(=O)[O-]
REMARK SMILES IDX 11 1 12 2 13 3 14 4 15 5 16 6 17 7 18 8 19 9 20 10 10 11
REMARK SMILES IDX 9 12 8 13 7 14 6 15 5 16 4 17 3 18 2 19 1 20
REMARK H PARENT
REMARK Flexibility Score: inf
ROOT
ATOM      1  C   UNL     1       6.525   2.679  -7.919  1.00  0.00     0.027 C 
ENDROOT
BRANCH   1   2
ATOM      2  C   UNL     1       5.715   3.459  -8.961  1.00  0.00     0.004 C 
BRANCH   2   3
ATOM      3  C   UNL     1       6.255   4.884  -9.122  1.00  0.00     0.000 C 
BRANCH   3   4
ATOM      4  C   UNL     1       5.533   5.855  -8.177  1.00  0.00     0.000 C 
BRANCH   4   5
ATOM      5  C   UNL     1       6.443   6.393  -7.059  1.00  0.00     0.000 C 
BRANCH   5   6
ATOM      6  C   UNL     1       6.257   5.725  -5.682  1.00  0.00     0.006 C 
BRANCH   6   7
ATOM      7  C   UNL     1       4.969   6.143  -4.949  1.00  0.00     0.053 C 
BRANCH   7   8
ATOM      8  C   UNL     1       5.190   7.283  -4.000  1.00  0.00     0.041 C 
ATOM      9  O   UNL     1       4.225   7.767  -3.353  1.00  0.00    -0.550 OA
ATOM     10  O   UNL     1       6.457   7.837  -3.861  1.00  0.00    -0.550 OA
ENDBRANCH   7   8
ENDBRANCH   6   7
ENDBRANCH   5   6
ENDBRANCH   4   5
ENDBRANCH   3   4
ENDBRANCH   2   3
ENDBRANCH   1   2
BRANCH   1  11
ATOM     11  C   UNL     1       7.817   2.177  -8.512  1.00  0.00    -0.031 C 
ATOM     12  C   UNL     1       9.042   2.585  -8.129  1.00  0.00    -0.027 C 
BRANCH  12  13
ATOM     13  C   UNL     1       9.304   3.654  -7.098  1.00  0.00     0.054 C 
BRANCH  13  14
ATOM     14  C   UNL     1       9.665   4.962  -7.747  1.00  0.00    -0.027 C 
ATOM     15  C   UNL     1       9.795   5.074  -9.077  1.00  0.00    -0.031 C 
BRANCH  15  16
ATOM     16  C   UNL     1      10.153   6.383  -9.725  1.00  0.00     0.027 C 
BRANCH  16  17
ATOM     17  C   UNL     1       9.205   7.503  -9.267  1.00  0.00     0.004 C 
BRANCH  17  18
ATOM     18  C   UNL     1       9.919   8.594  -8.449  1.00  0.00     0.000 C 
BRANCH  18  19
ATOM     19  C   UNL     1       9.445   8.724  -6.990  1.00  0.00    -0.003 C 
ATOM     20  C   UNL     1       9.654  10.125  -6.416  1.00  0.00     0.004 C 
ENDBRANCH  18  19
ENDBRANCH  17  18
ENDBRANCH  16  17
ENDBRANCH  15  16
ENDBRANCH  13  14
ENDBRANCH  12  13
ENDBRANCH   1  11
TORSDOF 14
ENDMDL
MODEL 7
REMARK VINA RESULT:    -3.348     10.769     13.857
REMARK INTER + INTRA:          -7.649
REMARK INTER:                  -4.945
REMARK INTRA:                  -2.704
REMARK UNBOUND:                -1.561
REMARK SMILES CCCCCC=CCC=CCCCCCCCC(=O)[O-]
REMARK SMILES IDX 11 1 12 2 13 3 14 4 15 5 16 6 17 7 18 8 19 9 20 10 10 11
REMARK SMILES IDX 9 12 8 13 7 14 6 15 5 16 4 17 3 18 2 19 1 20
REMARK H PARENT
REMARK Flexibility Score: inf
ROOT
ATOM      1  C   UNL     1      17.725   3.233   9.063  1.00  0.00     0.027 C 
ENDROOT
BRANCH   1   2
ATOM      2  C   UNL     1      17.002   1.883   9.002  1.00  0.00     0.004 C 
BRANCH   2   3
ATOM      3  C   UNL     1      16.291   1.701   7.656  1.00  0.00     0.000 C 
BRANCH   3   4
ATOM      4  C   UNL     1      16.190   0.215   7.286  1.00  0.00     0.000 C 
BRANCH   4   5
ATOM      5  C   UNL     1      16.871  -0.708   8.312  1.00  0.00     0.000 C 
BRANCH   5   6
ATOM      6  C   UNL     1      16.398  -2.175   8.291  1.00  0.00     0.006 C 
BRANCH   6   7
ATOM      7  C   UNL     1      14.870  -2.344   8.372  1.00  0.00     0.053 C 
BRANCH   7   8
ATOM      8  C   UNL     1      14.310  -3.095   7.201  1.00  0.00     0.041 C 
ATOM      9  O   UNL     1      14.661  -2.798   6.029  1.00  0.00    -0.550 OA
ATOM     10  O   UNL     1      13.369  -4.097   7.401  1.00  0.00    -0.550 OA
ENDBRANCH   7   8
ENDBRANCH   6   7
ENDBRANCH   5   6
ENDBRANCH   4   5
ENDBRANCH   3   4
ENDBRANCH   2   3
ENDBRANCH   1   2
BRANCH   1  11
ATOM     11  C   UNL     1      18.291   3.598   7.713  1.00  0.00    -0.031 C 
ATOM     12  C   UNL     1      19.491   3.196   7.255  1.00  0.00    -0.027 C 
BRANCH  12  13
ATOM     13  C   UNL     1      20.479   2.376   8.047  1.00  0.00     0.054 C 
BRANCH  13  14
ATOM     14  C   UNL     1      20.425   0.926   7.655  1.00  0.00    -0.027 C 
ATOM     15  C   UNL     1      19.855   0.529   6.507  1.00  0.00    -0.031 C 
BRANCH  15  16
ATOM     16  C   UNL     1      19.805  -0.922   6.113  1.00  0.00     0.027 C 
BRANCH  16  17
ATOM     17  C   UNL     1      18.989  -1.116   4.826  1.00  0.00     0.004 C 
BRANCH  17  18
ATOM     18  C   UNL     1      17.934  -2.231   4.949  1.00  0.00     0.000 C 
BRANCH  18  19
ATOM     19  C   UNL     1      18.507  -3.641   5.183  1.00  0.00    -0.003 C 
ATOM     20  C   UNL     1      17.461  -4.636   5.682  1.00  0.00     0.004 C 
ENDBRANCH  18  19
ENDBRANCH  17  18
ENDBRANCH  16  17
ENDBRANCH  15  16
ENDBRANCH  13  14
ENDBRANCH  12  13
ENDBRANCH   1  11
TORSDOF 14
ENDMDL
MODEL 8
REMARK VINA RESULT:    -3.305     11.717     13.178
REMARK INTER + INTRA:          -7.570
REMARK INTER:                  -5.330
REMARK INTRA:                  -2.240
REMARK UNBOUND:                -1.561
REMARK SMILES CCCCCC=CCC=CCCCCCCCC(=O)[O-]
REMARK SMILES IDX 11 1 12 2 13 3 14 4 15 5 16 6 17 7 18 8 19 9 20 10 10 11
REMARK SMILES IDX 9 12 8 13 7 14 6 15 5 16 4 17 3 18 2 19 1 20
REMARK H PARENT
REMARK Flexibility Score: inf
ROOT
ATOM      1  C   UNL     1       8.445   3.425  -9.503  1.00  0.00     0.027 C 
ENDROOT
BRANCH   1   2
ATOM      2  C   UNL     1       9.074   4.210 -10.659  1.00  0.00     0.004 C 
BRANCH   2   3
ATOM      3  C   UNL     1       9.565   5.584 -10.187  1.00  0.00     0.000 C 
BRANCH   3   4
ATOM      4  C   UNL     1       8.391   6.560 -10.028  1.00  0.00     0.000 C 
BRANCH   4   5
ATOM      5  C   UNL     1       8.526   7.465  -8.790  1.00  0.00     0.000 C 
BRANCH   5   6
ATOM      6  C   UNL     1       9.773   7.208  -7.922  1.00  0.00     0.006 C 
BRANCH   6   7
ATOM      7  C   UNL     1      10.851   8.303  -8.028  1.00  0.00     0.053 C 
BRANCH   7   8
ATOM      8  C   UNL     1      10.409   9.605  -7.431  1.00  0.00     0.041 C 
ATOM      9  O   UNL     1      10.333  10.639  -8.146  1.00  0.00    -0.550 OA
ATOM     10  O   UNL     1      10.120   9.687  -6.075  1.00  0.00    -0.550 OA
ENDBRANCH   7   8
ENDBRANCH   6   7
ENDBRANCH   5   6
ENDBRANCH   4   5
ENDBRANCH   3   4
ENDBRANCH   2   3
ENDBRANCH   1   2
BRANCH   1  11
ATOM     11  C   UNL     1       9.262   3.579  -8.244  1.00  0.00    -0.031 C 
ATOM     12  C   UNL     1       8.744   3.798  -7.021  1.00  0.00    -0.027 C 
BRANCH  12  13
ATOM     13  C   UNL     1       7.275   3.990  -6.735  1.00  0.00     0.054 C 
BRANCH  13  14
ATOM     14  C   UNL     1       6.991   5.384  -6.248  1.00  0.00    -0.027 C 
ATOM     15  C   UNL     1       5.864   5.680  -5.583  1.00  0.00    -0.031 C 
BRANCH  15  16
ATOM     16  C   UNL     1       5.583   7.074  -5.092  1.00  0.00     0.027 C 
BRANCH  16  17
ATOM     17  C   UNL     1       6.668   8.054  -5.566  1.00  0.00     0.004 C 
BRANCH  17  18
ATOM     18  C   UNL     1       6.924   9.193  -4.562  1.00  0.00     0.000 C 
BRANCH  18  19
ATOM     19  C   UNL     1       6.644   8.834  -3.091  1.00  0.00    -0.003 C 
ATOM     20  C   UNL     1       5.597   9.740  -2.444  1.00  0.00     0.004 C 
ENDBRANCH  18  19
ENDBRANCH  17  18
ENDBRANCH  16  17
ENDBRANCH  15  16
ENDBRANCH  13  14
ENDBRANCH  12  13
ENDBRANCH   1  11
TORSDOF 14
ENDMDL
MODEL 9
REMARK VINA RESULT:    -3.279     11.129     13.206
REMARK INTER + INTRA:          -7.523
REMARK INTER:                  -4.432
REMARK INTRA:                  -3.091
REMARK UNBOUND:                -1.561
REMARK SMILES CCCCCC=CCC=CCCCCCCCC(=O)[O-]
REMARK SMILES IDX 11 1 12 2 13 3 14 4 15 5 16 6 17 7 18 8 19 9 20 10 10 11
REMARK SMILES IDX 9 12 8 13 7 14 6 15 5 16 4 17 3 18 2 19 1 20
REMARK H PARENT
REMARK Flexibility Score: inf
ROOT
ATOM      1  C   UNL     1       9.428   2.880  -8.154  1.00  0.00     0.027 C 
ENDROOT
BRANCH   1   2
ATOM      2  C   UNL     1       9.224   3.938  -7.064  1.00  0.00     0.004 C 
BRANCH   2   3
ATOM      3  C   UNL     1       9.344   5.353  -7.643  1.00  0.00     0.000 C 
BRANCH   3   4
ATOM      4  C   UNL     1      10.040   5.328  -9.012  1.00  0.00     0.000 C 
BRANCH   4   5
ATOM      5  C   UNL     1       9.889   6.650  -9.786  1.00  0.00     0.000 C 
BRANCH   5   6
ATOM      6  C   UNL     1       8.768   7.581  -9.283  1.00  0.00     0.006 C 
BRANCH   6   7
ATOM      7  C   UNL     1       9.223   9.028  -9.019  1.00  0.00     0.053 C 
BRANCH   7   8
ATOM      8  C   UNL     1      10.208   9.127  -7.894  1.00  0.00     0.041 C 
ATOM      9  O   UNL     1      11.366   9.576  -8.100  1.00  0.00    -0.550 OA
ATOM     10  O   UNL     1       9.860   8.685  -6.623  1.00  0.00    -0.550 OA
ENDBRANCH   7   8
ENDBRANCH   6   7
ENDBRANCH   5   6
ENDBRANCH   4   5
ENDBRANCH   3   4
ENDBRANCH   2   3
ENDBRANCH   1   2
BRANCH   1  11
ATOM     11  C   UNL     1       8.159   2.098  -8.385  1.00  0.00    -0.031 C 
ATOM     12  C   UNL     1       7.411   2.171  -9.502  1.00  0.00    -0.027 C 
BRANCH  12  13
ATOM     13  C   UNL     1       7.691   3.094 -10.661  1.00  0.00     0.054 C 
BRANCH  13  14
ATOM     14  C   UNL     1       6.998   4.417 -10.486  1.00  0.00    -0.027 C 
ATOM     15  C   UNL     1       5.976   4.567  -9.631  1.00  0.00    -0.031 C 
BRANCH  15  16
ATOM     16  C   UNL     1       5.286   5.891  -9.453  1.00  0.00     0.027 C 
BRANCH  16  17
ATOM     17  C   UNL     1       4.834   6.087  -7.998  1.00  0.00     0.004 C 
BRANCH  17  18
ATOM     18  C   UNL     1       6.012   6.291  -7.028  1.00  0.00     0.000 C 
BRANCH  18  19
ATOM     19  C   UNL     1       6.029   5.336  -5.821  1.00  0.00    -0.003 C 
ATOM     20  C   UNL     1       5.626   3.908  -6.183  1.00  0.00     0.004 C 
ENDBRANCH  18  19
ENDBRANCH  17  18
ENDBRANCH  16  17
ENDBRANCH  15  16
ENDBRANCH  13  14
ENDBRANCH  12  13
ENDBRANCH   1  11
TORSDOF 14
ENDMDL
