MODEL 1
REMARK VINA RESULT:    -4.709      0.000      0.000
REMARK INTER + INTRA:          -5.588
REMARK INTER:                  -5.673
REMARK INTRA:                   0.085
REMARK UNBOUND:                 0.085
REMARK SMILES CC[C@@H](C)[C@H]([NH3+])C(=O)[O-]
REMARK SMILES IDX 3 1 4 2 5 3 6 4 7 8 8 9 9 10 2 11 1 12
REMARK H PARENT 6 5 6 6 6 7
REMARK Flexibility Score: inf
ROOT
ATOM      1  C   UNL     1     148.700 166.793 151.263  1.00  0.00     0.050 C 
ATOM      2  C   UNL     1     148.338 165.794 150.148  1.00  0.00     0.014 C 
ENDROOT
BRANCH   1   3
ATOM      3  C   UNL     1     148.382 166.249 152.694  1.00  0.00     0.230 C 
BRANCH   3   4
ATOM      4  N   UNL     1     146.972 165.860 152.863  1.00  0.00    -0.350 N 
ATOM      5  H   UNL     1     146.602 166.267 153.753  1.00  0.00     0.345 HD
ATOM      6  H   UNL     1     146.383 166.203 152.071  1.00  0.00     0.345 HD
ATOM      7  H   UNL     1     146.888 164.822 152.938  1.00  0.00     0.345 HD
ENDBRANCH   3   4
BRANCH   3   8
ATOM      8  C   UNL     1     148.801 167.238 153.756  1.00  0.00     0.099 C 
ATOM      9  O   UNL     1     148.004 168.125 154.165  1.00  0.00    -0.544 OA
ATOM     10  O   UNL     1     150.097 167.203 154.256  1.00  0.00    -0.544 OA
ENDBRANCH   3   8
ENDBRANCH   1   3
BRANCH   1  11
ATOM     11  C   UNL     1     150.167 167.254 151.083  1.00  0.00     0.006 C 
ATOM     12  C   UNL     1     150.856 166.636 149.865  1.00  0.00     0.004 C 
ENDBRANCH   1  11
TORSDOF 4
ENDMDL
MODEL 2
REMARK VINA RESULT:    -4.689      3.211      4.120
REMARK INTER + INTRA:          -5.564
REMARK INTER:                  -5.663
REMARK INTRA:                   0.099
REMARK UNBOUND:                 0.085
REMARK SMILES CC[C@@H](C)[C@H]([NH3+])C(=O)[O-]
REMARK SMILES IDX 3 1 4 2 5 3 6 4 7 8 8 9 9 10 2 11 1 12
REMARK H PARENT 6 5 6 6 6 7
REMARK Flexibility Score: inf
ROOT
ATOM      1  C   UNL     1     149.175 166.172 150.868  1.00  0.00     0.050 C 
ATOM      2  C   UNL     1     147.828 165.568 151.309  1.00  0.00     0.014 C 
ENDROOT
BRANCH   1   3
ATOM      3  C   UNL     1     149.584 165.750 149.418  1.00  0.00     0.230 C 
BRANCH   3   4
ATOM      4  N   UNL     1     149.022 164.450 149.016  1.00  0.00    -0.350 N 
ATOM      5  H   UNL     1     148.414 164.081 149.784  1.00  0.00     0.345 HD
ATOM      6  H   UNL     1     148.446 164.534 148.148  1.00  0.00     0.345 HD
ATOM      7  H   UNL     1     149.786 163.756 148.864  1.00  0.00     0.345 HD
ENDBRANCH   3   4
BRANCH   3   8
ATOM      8  C   UNL     1     151.085 165.765 149.253  1.00  0.00     0.099 C 
ATOM      9  O   UNL     1     151.639 165.139 148.310  1.00  0.00    -0.544 OA
ATOM     10  O   UNL     1     151.872 166.439 150.179  1.00  0.00    -0.544 OA
ENDBRANCH   3   8
ENDBRANCH   1   3
BRANCH   1  11
ATOM     11  C   UNL     1     149.146 167.704 151.086  1.00  0.00     0.006 C 
ATOM     12  C   UNL     1     149.457 168.121 152.525  1.00  0.00     0.004 C 
ENDBRANCH   1  11
TORSDOF 4
ENDMDL
MODEL 3
REMARK VINA RESULT:    -4.681      2.211      2.661
REMARK INTER + INTRA:          -5.555
REMARK INTER:                  -5.424
REMARK INTRA:                  -0.130
REMARK UNBOUND:                 0.085
REMARK SMILES CC[C@@H](C)[C@H]([NH3+])C(=O)[O-]
REMARK SMILES IDX 3 1 4 2 5 3 6 4 7 8 8 9 9 10 2 11 1 12
REMARK H PARENT 6 5 6 6 6 7
REMARK Flexibility Score: inf
ROOT
ATOM      1  C   UNL     1     148.147 166.916 152.205  1.00  0.00     0.050 C 
ATOM      2  C   UNL     1     146.888 167.791 152.348  1.00  0.00     0.014 C 
ENDROOT
BRANCH   1   3
ATOM      3  C   UNL     1     149.061 166.953 153.473  1.00  0.00     0.230 C 
BRANCH   3   4
ATOM      4  N   UNL     1     148.806 168.121 154.333  1.00  0.00    -0.350 N 
ATOM      5  H   UNL     1     149.575 168.819 154.210  1.00  0.00     0.345 HD
ATOM      6  H   UNL     1     147.899 168.581 154.094  1.00  0.00     0.345 HD
ATOM      7  H   UNL     1     148.800 167.838 155.338  1.00  0.00     0.345 HD
ENDBRANCH   3   4
BRANCH   3   8
ATOM      8  C   UNL     1     150.520 166.871 153.092  1.00  0.00     0.099 C 
ATOM      9  O   UNL     1     150.903 167.172 151.929  1.00  0.00    -0.544 OA
ATOM     10  O   UNL     1     151.448 166.412 154.018  1.00  0.00    -0.544 OA
ENDBRANCH   3   8
ENDBRANCH   1   3
BRANCH   1  11
ATOM     11  C   UNL     1     147.732 165.486 151.778  1.00  0.00     0.006 C 
ATOM     12  C   UNL     1     148.238 165.093 150.389  1.00  0.00     0.004 C 
ENDBRANCH   1  11
TORSDOF 4
ENDMDL
MODEL 4
REMARK VINA RESULT:    -4.636     19.592     20.395
REMARK INTER + INTRA:          -5.499
REMARK INTER:                  -5.434
REMARK INTRA:                  -0.066
REMARK UNBOUND:                 0.085
REMARK SMILES CC[C@@H](C)[C@H]([NH3+])C(=O)[O-]
REMARK SMILES IDX 3 1 4 2 5 3 6 4 7 8 8 9 9 10 2 11 1 12
REMARK H PARENT 6 5 6 6 6 7
REMARK Flexibility Score: inf
ROOT
ATOM      1  C   UNL     1     165.567 166.654 163.888  1.00  0.00     0.050 C 
ATOM      2  C   UNL     1     166.871 165.880 163.613  1.00  0.00     0.014 C 
ENDROOT
BRANCH   1   3
ATOM      3  C   UNL     1     165.151 166.628 165.395  1.00  0.00     0.230 C 
BRANCH   3   4
ATOM      4  N   UNL     1     166.115 165.913 166.247  1.00  0.00    -0.350 N 
ATOM      5  H   UNL     1     166.246 166.438 167.142  1.00  0.00     0.345 HD
ATOM      6  H   UNL     1     165.785 164.948 166.473  1.00  0.00     0.345 HD
ATOM      7  H   UNL     1     167.047 165.863 165.778  1.00  0.00     0.345 HD
ENDBRANCH   3   4
BRANCH   3   8
ATOM      8  C   UNL     1     163.760 166.066 165.563  1.00  0.00     0.099 C 
ATOM      9  O   UNL     1     162.844 166.350 164.744  1.00  0.00    -0.544 OA
ATOM     10  O   UNL     1     163.469 165.262 166.659  1.00  0.00    -0.544 OA
ENDBRANCH   3   8
ENDBRANCH   1   3
BRANCH   1  11
ATOM     11  C   UNL     1     165.684 168.081 163.298  1.00  0.00     0.006 C 
ATOM     12  C   UNL     1     165.542 168.125 161.775  1.00  0.00     0.004 C 
ENDBRANCH   1  11
TORSDOF 4
ENDMDL
MODEL 5
REMARK VINA RESULT:    -4.568      3.690      4.697
REMARK INTER + INTRA:          -5.418
REMARK INTER:                  -5.358
REMARK INTRA:                  -0.060
REMARK UNBOUND:                 0.085
REMARK SMILES CC[C@@H](C)[C@H]([NH3+])C(=O)[O-]
REMARK SMILES IDX 3 1 4 2 5 3 6 4 7 8 8 9 9 10 2 11 1 12
REMARK H PARENT 6 5 6 6 6 7
REMARK Flexibility Score: inf
ROOT
ATOM      1  C   UNL     1     151.532 166.543 151.201  1.00  0.00     0.050 C 
ATOM      2  C   UNL     1     150.733 167.226 152.326  1.00  0.00     0.014 C 
ENDROOT
BRANCH   1   3
ATOM      3  C   UNL     1     150.872 166.718 149.794  1.00  0.00     0.230 C 
BRANCH   3   4
ATOM      4  N   UNL     1     149.513 167.279 149.861  1.00  0.00    -0.350 N 
ATOM      5  H   UNL     1     149.569 168.310 150.031  1.00  0.00     0.345 HD
ATOM      6  H   UNL     1     148.987 167.117 148.973  1.00  0.00     0.345 HD
ATOM      7  H   UNL     1     148.986 166.861 150.661  1.00  0.00     0.345 HD
ENDBRANCH   3   4
BRANCH   3   8
ATOM      8  C   UNL     1     150.884 165.419 149.024  1.00  0.00     0.099 C 
ATOM      9  O   UNL     1     151.867 165.104 148.301  1.00  0.00    -0.544 OA
ATOM     10  O   UNL     1     149.779 164.578 149.076  1.00  0.00    -0.544 OA
ENDBRANCH   3   8
ENDBRANCH   1   3
BRANCH   1  11
ATOM     11  C   UNL     1     153.007 167.012 151.260  1.00  0.00     0.006 C 
ATOM     12  C   UNL     1     153.804 166.377 152.401  1.00  0.00     0.004 C 
ENDBRANCH   1  11
TORSDOF 4
ENDMDL
MODEL 6
REMARK VINA RESULT:    -4.515     18.600     19.577
REMARK INTER + INTRA:          -5.355
REMARK INTER:                  -5.246
REMARK INTRA:                  -0.108
REMARK UNBOUND:                 0.085
REMARK SMILES CC[C@@H](C)[C@H]([NH3+])C(=O)[O-]
REMARK SMILES IDX 3 1 4 2 5 3 6 4 7 8 8 9 9 10 2 11 1 12
REMARK H PARENT 6 5 6 6 6 7
REMARK Flexibility Score: inf
ROOT
ATOM      1  C   UNL     1     163.533 166.599 163.804  1.00  0.00     0.050 C 
ATOM      2  C   UNL     1     164.328 167.319 162.698  1.00  0.00     0.014 C 
ENDROOT
BRANCH   1   3
ATOM      3  C   UNL     1     164.164 166.782 165.223  1.00  0.00     0.230 C 
BRANCH   3   4
ATOM      4  N   UNL     1     165.501 167.396 165.184  1.00  0.00    -0.350 N 
ATOM      5  H   UNL     1     165.443 168.330 164.715  1.00  0.00     0.345 HD
ATOM      6  H   UNL     1     165.889 167.532 166.145  1.00  0.00     0.345 HD
ATOM      7  H   UNL     1     166.155 166.807 164.623  1.00  0.00     0.345 HD
ENDBRANCH   3   4
BRANCH   3   8
ATOM      8  C   UNL     1     164.191 165.474 165.977  1.00  0.00     0.099 C 
ATOM      9  O   UNL     1     165.197 164.717 165.924  1.00  0.00    -0.544 OA
ATOM     10  O   UNL     1     163.074 165.074 166.702  1.00  0.00    -0.544 OA
ENDBRANCH   3   8
ENDBRANCH   1   3
BRANCH   1  11
ATOM     11  C   UNL     1     162.045 167.021 163.724  1.00  0.00     0.006 C 
ATOM     12  C   UNL     1     161.097 165.861 163.417  1.00  0.00     0.004 C 
ENDBRANCH   1  11
TORSDOF 4
ENDMDL
MODEL 7
REMARK VINA RESULT:    -4.489      2.328      2.987
REMARK INTER + INTRA:          -5.323
REMARK INTER:                  -5.229
REMARK INTRA:                  -0.095
REMARK UNBOUND:                 0.085
REMARK SMILES CC[C@@H](C)[C@H]([NH3+])C(=O)[O-]
REMARK SMILES IDX 3 1 4 2 5 3 6 4 7 8 8 9 9 10 2 11 1 12
REMARK H PARENT 6 5 6 6 6 7
REMARK Flexibility Score: inf
ROOT
ATOM      1  C   UNL     1     149.410 166.999 152.433  1.00  0.00     0.050 C 
ATOM      2  C   UNL     1     149.769 168.111 153.436  1.00  0.00     0.014 C 
ENDROOT
BRANCH   1   3
ATOM      3  C   UNL     1     147.930 166.511 152.571  1.00  0.00     0.230 C 
BRANCH   3   4
ATOM      4  N   UNL     1     147.611 166.012 153.919  1.00  0.00    -0.350 N 
ATOM      5  H   UNL     1     148.450 165.533 154.320  1.00  0.00     0.345 HD
ATOM      6  H   UNL     1     147.334 166.790 154.559  1.00  0.00     0.345 HD
ATOM      7  H   UNL     1     146.843 165.307 153.873  1.00  0.00     0.345 HD
ENDBRANCH   3   4
BRANCH   3   8
ATOM      8  C   UNL     1     147.600 165.479 151.519  1.00  0.00     0.099 C 
ATOM      9  O   UNL     1     148.008 164.292 151.627  1.00  0.00    -0.544 OA
ATOM     10  O   UNL     1     146.876 165.851 150.393  1.00  0.00    -0.544 OA
ENDBRANCH   3   8
ENDBRANCH   1   3
BRANCH   1  11
ATOM     11  C   UNL     1     149.784 167.457 151.002  1.00  0.00     0.006 C 
ATOM     12  C   UNL     1     150.986 166.712 150.418  1.00  0.00     0.004 C 
ENDBRANCH   1  11
TORSDOF 4
ENDMDL
MODEL 8
REMARK VINA RESULT:    -4.459      1.684      1.772
REMARK INTER + INTRA:          -5.287
REMARK INTER:                  -5.212
REMARK INTRA:                  -0.075
REMARK UNBOUND:                 0.085
REMARK SMILES CC[C@@H](C)[C@H]([NH3+])C(=O)[O-]
REMARK SMILES IDX 3 1 4 2 5 3 6 4 7 8 8 9 9 10 2 11 1 12
REMARK H PARENT 6 5 6 6 6 7
REMARK Flexibility Score: inf
ROOT
ATOM      1  C   UNL     1     149.119 167.010 150.839  1.00  0.00     0.050 C 
ATOM      2  C   UNL     1     148.369 165.664 150.853  1.00  0.00     0.014 C 
ENDROOT
BRANCH   1   3
ATOM      3  C   UNL     1     149.616 167.444 152.257  1.00  0.00     0.230 C 
BRANCH   3   4
ATOM      4  N   UNL     1     150.906 166.839 152.626  1.00  0.00    -0.350 N 
ATOM      5  H   UNL     1     151.458 166.641 151.759  1.00  0.00     0.345 HD
ATOM      6  H   UNL     1     151.466 167.475 153.237  1.00  0.00     0.345 HD
ATOM      7  H   UNL     1     150.755 165.928 153.113  1.00  0.00     0.345 HD
ENDBRANCH   3   4
BRANCH   3   8
ATOM      8  C   UNL     1     148.567 167.163 153.307  1.00  0.00     0.099 C 
ATOM      9  O   UNL     1     147.532 167.877 153.395  1.00  0.00    -0.544 OA
ATOM     10  O   UNL     1     148.765 166.134 154.220  1.00  0.00    -0.544 OA
ENDBRANCH   3   8
ENDBRANCH   1   3
BRANCH   1  11
ATOM     11  C   UNL     1     150.242 166.960 149.774  1.00  0.00     0.006 C 
ATOM     12  C   UNL     1     150.404 165.587 149.121  1.00  0.00     0.004 C 
ENDBRANCH   1  11
TORSDOF 4
ENDMDL
