MODEL 1
REMARK VINA RESULT:    -0.510      0.000      0.000
REMARK INTER + INTRA:           0.121
REMARK INTER:                  -0.778
REMARK INTRA:                   0.899
REMARK UNBOUND:                 0.899
REMARK SMILES CC1=CCC[C@@H](C)C(=O)C[C@@H](C(C)C)C(=O)C1
REMARK SMILES IDX 8 1 9 2 6 3 7 4 5 5 4 6 3 7 2 8 1 9 10 11 11 12 15 13 16 14
REMARK SMILES IDX 17 15 12 17 13 18 14 19
REMARK H PARENT
REMARK Flexibility Score: 70.00
ROOT
ATOM      1  C   UNL     1      85.497  33.083  63.833  1.00  0.00     0.136 C 
ATOM      2  O   UNL     1      85.506  33.841  62.873  1.00  0.00    -0.299 OA
ENDROOT
BRANCH   1   3
ATOM      3  C   UNL     1      86.635  33.140  64.839  1.00  0.00     0.053 C 
ATOM      4  C   UNL     1      87.333  34.506  64.786  1.00  0.00     0.016 C 
BRANCH   3   5
ATOM      5  C   UNL     1      87.644  31.997  64.591  1.00  0.00     0.015 C 
BRANCH   5   6
ATOM      6  C   UNL     1      87.357  30.779  65.493  1.00  0.00     0.028 C 
BRANCH   6   7
ATOM      7  C   UNL     1      87.419  29.468  64.752  1.00  0.00    -0.028 C 
ATOM      8  C   UNL     1      86.471  28.502  64.803  1.00  0.00    -0.070 CG0
ATOM      9  C   UNL     1      86.745  27.213  64.069  1.00  0.00     0.039 C 
ATOM     10  G   UNL     1      85.141  28.671  65.525  1.00  0.00     0.000 G0
ENDBRANCH   6   7
ENDBRANCH   5   6
ENDBRANCH   3   5
ENDBRANCH   1   3
BRANCH   1  11
ATOM     11  C   UNL     1      84.330  32.141  64.028  1.00  0.00     0.087 C 
BRANCH  11  12
ATOM     12  C   UNL     1      84.419  31.220  65.279  1.00  0.00     0.066 C 
BRANCH  12  13
ATOM     13  C   UNL     1      84.260  29.750  64.904  1.00  0.00     0.140 C 
ATOM     14  O   UNL     1      83.444  29.446  64.044  1.00  0.00    -0.299 OA
BRANCH  13  15
ATOM     15  C   UNL     1      85.132  28.670  65.508  1.00  0.00     0.106 CG0
ATOM     16  G   UNL     1      86.465  28.488  64.797  1.00  0.00     0.000 G0
ENDBRANCH  13  15
ENDBRANCH  12  13
BRANCH  12  17
ATOM     17  C   UNL     1      83.502  31.626  66.481  1.00  0.00    -0.006 C 
ATOM     18  C   UNL     1      82.496  30.507  66.805  1.00  0.00     0.008 C 
ATOM     19  C   UNL     1      84.308  31.944  67.754  1.00  0.00     0.008 C 
ENDBRANCH  12  17
ENDBRANCH  11  12
ENDBRANCH   1  11
TORSDOF 1
ENDMDL
MODEL 2
REMARK VINA RESULT:    -0.293      2.081      4.407
REMARK INTER + INTRA:           0.452
REMARK INTER:                  -0.338
REMARK INTRA:                   0.790
REMARK UNBOUND:                 0.899
REMARK SMILES CC1=CCC[C@@H](C)C(=O)C[C@@H](C(C)C)C(=O)C1
REMARK SMILES IDX 8 1 9 2 6 3 7 4 5 5 4 6 3 7 2 8 1 9 10 11 11 12 15 13 16 14
REMARK SMILES IDX 17 15 12 17 13 18 14 19
REMARK H PARENT
REMARK Flexibility Score: 70.00
ROOT
ATOM      1  C   UNL     1      87.482  28.840  64.777  1.00  0.00     0.136 C 
ATOM      2  O   UNL     1      87.577  29.230  63.621  1.00  0.00    -0.299 OA
ENDROOT
BRANCH   1   3
ATOM      3  C   UNL     1      86.995  27.427  65.049  1.00  0.00     0.053 C 
ATOM      4  C   UNL     1      88.082  26.404  64.692  1.00  0.00     0.016 C 
BRANCH   3   5
ATOM      5  C   UNL     1      85.691  27.137  64.275  1.00  0.00     0.015 C 
BRANCH   5   6
ATOM      6  C   UNL     1      84.447  27.608  65.056  1.00  0.00     0.028 C 
BRANCH   6   7
ATOM      7  C   UNL     1      83.630  28.628  64.305  1.00  0.00    -0.028 C 
ATOM      8  C   UNL     1      83.463  29.918  64.681  1.00  0.00    -0.070 CG0
ATOM      9  C   UNL     1      82.531  30.773  63.857  1.00  0.00     0.039 C 
ATOM     10  G   UNL     1      84.192  30.548  65.859  1.00  0.00     0.000 G0
ENDBRANCH   6   7
ENDBRANCH   5   6
ENDBRANCH   3   5
ENDBRANCH   1   3
BRANCH   1  11
ATOM     11  C   UNL     1      87.898  29.754  65.908  1.00  0.00     0.087 C 
BRANCH  11  12
ATOM     12  C   UNL     1      86.740  30.533  66.596  1.00  0.00     0.066 C 
BRANCH  12  13
ATOM     13  C   UNL     1      85.640  30.892  65.602  1.00  0.00     0.140 C 
ATOM     14  O   UNL     1      85.953  31.418  64.542  1.00  0.00    -0.299 OA
BRANCH  13  15
ATOM     15  C   UNL     1      84.187  30.552  65.856  1.00  0.00     0.106 CG0
ATOM     16  G   UNL     1      83.483  29.933  64.657  1.00  0.00     0.000 G0
ENDBRANCH  13  15
ENDBRANCH  12  13
BRANCH  12  17
ATOM     17  C   UNL     1      87.175  31.759  67.465  1.00  0.00    -0.006 C 
ATOM     18  C   UNL     1      88.121  32.683  66.675  1.00  0.00     0.008 C 
ATOM     19  C   UNL     1      85.975  32.589  67.954  1.00  0.00     0.008 C 
ENDBRANCH  12  17
ENDBRANCH  11  12
ENDBRANCH   1  11
TORSDOF 1
ENDMDL
MODEL 3
REMARK VINA RESULT:    -0.218     14.481     15.766
REMARK INTER + INTRA:           0.565
REMARK INTER:                  -2.712
REMARK INTRA:                   3.277
REMARK UNBOUND:                 0.899
REMARK SMILES CC1=CCC[C@@H](C)C(=O)C[C@@H](C(C)C)C(=O)C1
REMARK SMILES IDX 8 1 9 2 6 3 7 4 5 5 4 6 3 7 2 8 1 9 10 11 11 12 15 13 16 14
REMARK SMILES IDX 17 15 12 17 13 18 14 19
REMARK H PARENT
REMARK Flexibility Score: 70.00
ROOT
ATOM      1  C   UNL     1      77.724  35.812  50.994  1.00  0.00     0.136 C 
ATOM      2  O   UNL     1      77.011  35.578  50.028  1.00  0.00    -0.299 OA
ENDROOT
BRANCH   1   3
ATOM      3  C   UNL     1      79.195  36.125  50.776  1.00  0.00     0.053 C 
ATOM      4  C   UNL     1      79.672  35.563  49.430  1.00  0.00     0.016 C 
BRANCH   3   5
ATOM      5  C   UNL     1      80.052  35.572  51.937  1.00  0.00     0.015 C 
BRANCH   5   6
ATOM      6  C   UNL     1      80.973  34.426  51.470  1.00  0.00     0.028 C 
BRANCH   6   7
ATOM      7  C   UNL     1      80.564  33.082  52.015  1.00  0.00    -0.028 C 
ATOM      8  C   UNL     1      79.300  32.598  52.019  1.00  0.00    -0.070 CG0
ATOM      9  C   UNL     1      79.060  31.269  52.693  1.00  0.00     0.039 C 
ATOM     10  G   UNL     1      78.130  33.304  51.348  1.00  0.00     0.000 G0
ENDBRANCH   6   7
ENDBRANCH   5   6
ENDBRANCH   3   5
ENDBRANCH   1   3
BRANCH   1  11
ATOM     11  C   UNL     1      77.118  35.835  52.380  1.00  0.00     0.087 C 
BRANCH  11  12
ATOM     12  C   UNL     1      76.248  34.598  52.747  1.00  0.00     0.066 C 
BRANCH  12  13
ATOM     13  C   UNL     1      76.832  33.312  52.171  1.00  0.00     0.140 C 
ATOM     14  O   UNL     1      76.218  32.265  52.324  1.00  0.00    -0.299 OA
BRANCH  13  15
ATOM     15  C   UNL     1      78.108  33.306  51.355  1.00  0.00     0.106 CG0
ATOM     16  G   UNL     1      79.275  32.615  52.047  1.00  0.00     0.000 G0
ENDBRANCH  13  15
ENDBRANCH  12  13
BRANCH  12  17
ATOM     17  C   UNL     1      74.718  34.738  52.449  1.00  0.00    -0.006 C 
ATOM     18  C   UNL     1      73.888  34.523  53.728  1.00  0.00     0.008 C 
ATOM     19  C   UNL     1      74.358  36.114  51.857  1.00  0.00     0.008 C 
ENDBRANCH  12  17
ENDBRANCH  11  12
ENDBRANCH   1  11
TORSDOF 1
ENDMDL
MODEL 4
REMARK VINA RESULT:     0.176      1.807      4.503
REMARK INTER + INTRA:           1.167
REMARK INTER:                  -0.838
REMARK INTRA:                   2.005
REMARK UNBOUND:                 0.899
REMARK SMILES CC1=CCC[C@@H](C)C(=O)C[C@@H](C(C)C)C(=O)C1
REMARK SMILES IDX 8 1 9 2 6 3 7 4 5 5 4 6 3 7 2 8 1 9 10 11 11 12 15 13 16 14
REMARK SMILES IDX 17 15 12 17 13 18 14 19
REMARK H PARENT
REMARK Flexibility Score: 70.00
ROOT
ATOM      1  C   UNL     1      83.418  30.207  64.636  1.00  0.00     0.136 C 
ATOM      2  O   UNL     1      82.274  29.934  64.301  1.00  0.00    -0.299 OA
ENDROOT
BRANCH   1   3
ATOM      3  C   UNL     1      83.666  31.414  65.526  1.00  0.00     0.053 C 
ATOM      4  C   UNL     1      82.635  31.467  66.662  1.00  0.00     0.016 C 
BRANCH   3   5
ATOM      5  C   UNL     1      83.643  32.719  64.701  1.00  0.00     0.015 C 
BRANCH   5   6
ATOM      6  C   UNL     1      84.747  32.732  63.623  1.00  0.00     0.028 C 
BRANCH   6   7
ATOM      7  C   UNL     1      85.968  33.512  64.037  1.00  0.00    -0.028 C 
ATOM      8  C   UNL     1      86.854  33.121  64.983  1.00  0.00    -0.070 CG0
ATOM      9  C   UNL     1      87.968  34.076  65.336  1.00  0.00     0.039 C 
ATOM     10  G   UNL     1      86.802  31.764  65.671  1.00  0.00     0.000 G0
ENDBRANCH   6   7
ENDBRANCH   5   6
ENDBRANCH   3   5
ENDBRANCH   1   3
BRANCH   1  11
ATOM     11  C   UNL     1      84.556  29.312  64.200  1.00  0.00     0.087 C 
BRANCH  11  12
ATOM     12  C   UNL     1      85.829  29.369  65.095  1.00  0.00     0.066 C 
BRANCH  12  13
ATOM     13  C   UNL     1      86.696  30.577  64.756  1.00  0.00     0.140 C 
ATOM     14  O   UNL     1      87.247  30.620  63.664  1.00  0.00    -0.299 OA
BRANCH  13  15
ATOM     15  C   UNL     1      86.835  31.754  65.698  1.00  0.00     0.106 CG0
ATOM     16  G   UNL     1      86.899  33.102  64.992  1.00  0.00     0.000 G0
ENDBRANCH  13  15
ENDBRANCH  12  13
BRANCH  12  17
ATOM     17  C   UNL     1      86.661  28.046  65.168  1.00  0.00    -0.006 C 
ATOM     18  C   UNL     1      85.971  26.920  64.376  1.00  0.00     0.008 C 
ATOM     19  C   UNL     1      88.092  28.220  64.627  1.00  0.00     0.008 C 
ENDBRANCH  12  17
ENDBRANCH  11  12
ENDBRANCH   1  11
TORSDOF 1
ENDMDL
MODEL 5
REMARK VINA RESULT:     0.632     14.279     16.121
REMARK INTER + INTRA:           1.863
REMARK INTER:                  -2.328
REMARK INTRA:                   4.191
REMARK UNBOUND:                 0.899
REMARK SMILES CC1=CCC[C@@H](C)C(=O)C[C@@H](C(C)C)C(=O)C1
REMARK SMILES IDX 8 1 9 2 6 3 7 4 5 5 4 6 3 7 2 8 1 9 10 11 11 12 15 13 16 14
REMARK SMILES IDX 17 15 12 17 13 18 14 19
REMARK H PARENT
REMARK Flexibility Score: 70.00
ROOT
ATOM      1  C   UNL     1      80.446  33.406  52.332  1.00  0.00     0.136 C 
ATOM      2  O   UNL     1      81.457  33.029  51.756  1.00  0.00    -0.299 OA
ENDROOT
BRANCH   1   3
ATOM      3  C   UNL     1      79.434  32.380  52.814  1.00  0.00     0.053 C 
ATOM      4  C   UNL     1      80.068  30.983  52.867  1.00  0.00     0.016 C 
BRANCH   3   5
ATOM      5  C   UNL     1      78.180  32.381  51.914  1.00  0.00     0.015 C 
BRANCH   5   6
ATOM      6  C   UNL     1      76.885  32.228  52.739  1.00  0.00     0.028 C 
BRANCH   6   7
ATOM      7  C   UNL     1      75.822  33.227  52.360  1.00  0.00    -0.028 C 
ATOM      8  C   UNL     1      75.986  34.571  52.357  1.00  0.00    -0.070 CG0
ATOM      9  C   UNL     1      74.782  35.423  52.041  1.00  0.00     0.039 C 
ATOM     10  G   UNL     1      77.323  35.253  52.617  1.00  0.00     0.000 G0
ENDBRANCH   6   7
ENDBRANCH   5   6
ENDBRANCH   3   5
ENDBRANCH   1   3
BRANCH   1  11
ATOM     11  C   UNL     1      80.247  34.882  52.598  1.00  0.00     0.087 C 
BRANCH  11  12
ATOM     12  C   UNL     1      79.646  35.697  51.415  1.00  0.00     0.066 C 
BRANCH  12  13
ATOM     13  C   UNL     1      78.125  35.596  51.383  1.00  0.00     0.140 C 
ATOM     14  O   UNL     1      77.550  35.699  50.308  1.00  0.00    -0.299 OA
BRANCH  13  15
ATOM     15  C   UNL     1      77.314  35.301  52.628  1.00  0.00     0.106 CG0
ATOM     16  G   UNL     1      76.010  34.565  52.351  1.00  0.00     0.000 G0
ENDBRANCH  13  15
ENDBRANCH  12  13
BRANCH  12  17
ATOM     17  C   UNL     1      80.287  35.423  50.014  1.00  0.00    -0.006 C 
ATOM     18  C   UNL     1      80.331  33.912  49.718  1.00  0.00     0.008 C 
ATOM     19  C   UNL     1      79.528  36.124  48.873  1.00  0.00     0.008 C 
ENDBRANCH  12  17
ENDBRANCH  11  12
ENDBRANCH   1  11
TORSDOF 1
ENDMDL
MODEL 6
REMARK VINA RESULT:     0.837      1.835      4.265
REMARK INTER + INTRA:           2.176
REMARK INTER:                   0.782
REMARK INTRA:                   1.395
REMARK UNBOUND:                 0.899
REMARK SMILES CC1=CCC[C@@H](C)C(=O)C[C@@H](C(C)C)C(=O)C1
REMARK SMILES IDX 8 1 9 2 6 3 7 4 5 5 4 6 3 7 2 8 1 9 10 11 11 12 15 13 16 14
REMARK SMILES IDX 17 15 12 17 13 18 14 19
REMARK H PARENT
REMARK Flexibility Score: 70.00
ROOT
ATOM      1  C   UNL     1      87.907  30.826  65.493  1.00  0.00     0.136 C 
ATOM      2  O   UNL     1      87.573  30.478  66.617  1.00  0.00    -0.299 OA
ENDROOT
BRANCH   1   3
ATOM      3  C   UNL     1      88.057  29.779  64.402  1.00  0.00     0.053 C 
ATOM      4  C   UNL     1      88.125  30.445  63.021  1.00  0.00     0.016 C 
BRANCH   3   5
ATOM      5  C   UNL     1      86.903  28.754  64.461  1.00  0.00     0.015 C 
BRANCH   5   6
ATOM      6  C   UNL     1      85.791  29.203  65.433  1.00  0.00     0.028 C 
BRANCH   6   7
ATOM      7  C   UNL     1      84.504  29.558  64.733  1.00  0.00    -0.028 C 
ATOM      8  C   UNL     1      83.887  30.761  64.807  1.00  0.00    -0.070 CG0
ATOM      9  C   UNL     1      82.553  30.907  64.116  1.00  0.00     0.039 C 
ATOM     10  G   UNL     1      84.488  31.969  65.512  1.00  0.00     0.000 G0
ENDBRANCH   6   7
ENDBRANCH   5   6
ENDBRANCH   3   5
ENDBRANCH   1   3
BRANCH   1  11
ATOM     11  C   UNL     1      88.113  32.295  65.198  1.00  0.00     0.087 C 
BRANCH  11  12
ATOM     12  C   UNL     1      86.861  33.197  65.397  1.00  0.00     0.066 C 
BRANCH  12  13
ATOM     13  C   UNL     1      85.631  32.603  64.718  1.00  0.00     0.140 C 
ATOM     14  O   UNL     1      85.581  32.589  63.496  1.00  0.00    -0.299 OA
BRANCH  13  15
ATOM     15  C   UNL     1      84.507  31.966  65.509  1.00  0.00     0.106 CG0
ATOM     16  G   UNL     1      83.845  30.793  64.799  1.00  0.00     0.000 G0
ENDBRANCH  13  15
ENDBRANCH  12  13
BRANCH  12  17
ATOM     17  C   UNL     1      87.057  34.709  65.048  1.00  0.00    -0.006 C 
ATOM     18  C   UNL     1      88.053  35.371  66.019  1.00  0.00     0.008 C 
ATOM     19  C   UNL     1      87.562  34.920  63.609  1.00  0.00     0.008 C 
ENDBRANCH  12  17
ENDBRANCH  11  12
ENDBRANCH   1  11
TORSDOF 1
ENDMDL
MODEL 7
REMARK VINA RESULT:     1.024      2.202      4.041
REMARK INTER + INTRA:           2.462
REMARK INTER:                   1.487
REMARK INTRA:                   0.975
REMARK UNBOUND:                 0.899
REMARK SMILES CC1=CCC[C@@H](C)C(=O)C[C@@H](C(C)C)C(=O)C1
REMARK SMILES IDX 8 1 9 2 6 3 7 4 5 5 4 6 3 7 2 8 1 9 10 11 11 12 15 13 16 14
REMARK SMILES IDX 17 15 12 17 13 18 14 19
REMARK H PARENT
REMARK Flexibility Score: 70.00
ROOT
ATOM      1  C   UNL     1      86.684  28.404  65.093  1.00  0.00     0.136 C 
ATOM      2  O   UNL     1      86.646  27.334  64.500  1.00  0.00    -0.299 OA
ENDROOT
BRANCH   1   3
ATOM      3  C   UNL     1      87.991  29.176  65.155  1.00  0.00     0.053 C 
ATOM      4  C   UNL     1      88.097  29.951  66.475  1.00  0.00     0.016 C 
BRANCH   3   5
ATOM      5  C   UNL     1      88.125  30.128  63.946  1.00  0.00     0.015 C 
BRANCH   5   6
ATOM      6  C   UNL     1      88.125  31.607  64.383  1.00  0.00     0.028 C 
BRANCH   6   7
ATOM      7  C   UNL     1      87.106  32.440  63.648  1.00  0.00    -0.028 C 
ATOM      8  C   UNL     1      85.898  32.801  64.142  1.00  0.00    -0.070 CG0
ATOM      9  C   UNL     1      84.965  33.557  63.228  1.00  0.00     0.039 C 
ATOM     10  G   UNL     1      85.458  32.518  65.571  1.00  0.00     0.000 G0
ENDBRANCH   6   7
ENDBRANCH   5   6
ENDBRANCH   3   5
ENDBRANCH   1   3
BRANCH   1  11
ATOM     11  C   UNL     1      85.419  28.961  65.707  1.00  0.00     0.087 C 
BRANCH  11  12
ATOM     12  C   UNL     1      84.703  30.063  64.873  1.00  0.00     0.066 C 
BRANCH  12  13
ATOM     13  C   UNL     1      84.524  31.346  65.679  1.00  0.00     0.140 C 
ATOM     14  O   UNL     1      83.608  31.411  66.487  1.00  0.00    -0.299 OA
BRANCH  13  15
ATOM     15  C   UNL     1      85.489  32.507  65.562  1.00  0.00     0.106 CG0
ATOM     16  G   UNL     1      85.885  32.834  64.129  1.00  0.00     0.000 G0
ENDBRANCH  13  15
ENDBRANCH  12  13
BRANCH  12  17
ATOM     17  C   UNL     1      83.380  29.619  64.166  1.00  0.00    -0.006 C 
ATOM     18  C   UNL     1      83.224  28.088  64.205  1.00  0.00     0.008 C 
ATOM     19  C   UNL     1      82.130  30.255  64.804  1.00  0.00     0.008 C 
ENDBRANCH  12  17
ENDBRANCH  11  12
ENDBRANCH   1  11
TORSDOF 1
ENDMDL
MODEL 8
REMARK VINA RESULT:     1.038      2.487      4.910
REMARK INTER + INTRA:           2.483
REMARK INTER:                  -1.198
REMARK INTRA:                   3.681
REMARK UNBOUND:                 0.899
REMARK SMILES CC1=CCC[C@@H](C)C(=O)C[C@@H](C(C)C)C(=O)C1
REMARK SMILES IDX 8 1 9 2 6 3 7 4 5 5 4 6 3 7 2 8 1 9 10 11 11 12 15 13 16 14
REMARK SMILES IDX 17 15 12 17 13 18 14 19
REMARK H PARENT
REMARK Flexibility Score: 70.00
ROOT
ATOM      1  C   UNL     1      84.464  29.893  64.823  1.00  0.00     0.136 C 
ATOM      2  O   UNL     1      84.339  28.763  64.371  1.00  0.00    -0.299 OA
ENDROOT
BRANCH   1   3
ATOM      3  C   UNL     1      83.237  30.776  64.972  1.00  0.00     0.053 C 
ATOM      4  C   UNL     1      82.024  30.135  64.283  1.00  0.00     0.016 C 
BRANCH   3   5
ATOM      5  C   UNL     1      83.505  32.189  64.409  1.00  0.00     0.015 C 
BRANCH   5   6
ATOM      6  C   UNL     1      84.648  32.182  63.372  1.00  0.00     0.028 C 
BRANCH   6   7
ATOM      7  C   UNL     1      84.946  33.549  62.813  1.00  0.00    -0.028 C 
ATOM      8  C   UNL     1      85.839  34.423  63.334  1.00  0.00    -0.070 CG0
ATOM      9  C   UNL     1      85.938  35.787  62.696  1.00  0.00     0.039 C 
ATOM     10  G   UNL     1      86.764  34.083  64.494  1.00  0.00     0.000 G0
ENDBRANCH   6   7
ENDBRANCH   5   6
ENDBRANCH   3   5
ENDBRANCH   1   3
BRANCH   1  11
ATOM     11  C   UNL     1      85.828  30.370  65.271  1.00  0.00     0.087 C 
BRANCH  11  12
ATOM     12  C   UNL     1      85.912  31.873  65.665  1.00  0.00     0.066 C 
BRANCH  12  13
ATOM     13  C   UNL     1      86.907  32.625  64.788  1.00  0.00     0.140 C 
ATOM     14  O   UNL     1      87.807  31.998  64.246  1.00  0.00    -0.299 OA
BRANCH  13  15
ATOM     15  C   UNL     1      86.771  34.108  64.509  1.00  0.00     0.106 CG0
ATOM     16  G   UNL     1      85.869  34.430  63.326  1.00  0.00     0.000 G0
ENDBRANCH  13  15
ENDBRANCH  12  13
BRANCH  12  17
ATOM     17  C   UNL     1      86.129  32.160  67.187  1.00  0.00    -0.006 C 
ATOM     18  C   UNL     1      84.882  31.770  68.002  1.00  0.00     0.008 C 
ATOM     19  C   UNL     1      87.344  31.406  67.760  1.00  0.00     0.008 C 
ENDBRANCH  12  17
ENDBRANCH  11  12
ENDBRANCH   1  11
TORSDOF 1
ENDMDL
MODEL 9
REMARK VINA RESULT:     1.137      1.912      4.094
REMARK INTER + INTRA:           2.634
REMARK INTER:                   0.395
REMARK INTRA:                   2.239
REMARK UNBOUND:                 0.899
REMARK SMILES CC1=CCC[C@@H](C)C(=O)C[C@@H](C(C)C)C(=O)C1
REMARK SMILES IDX 8 1 9 2 6 3 7 4 5 5 4 6 3 7 2 8 1 9 10 11 11 12 15 13 16 14
REMARK SMILES IDX 17 15 12 17 13 18 14 19
REMARK H PARENT
REMARK Flexibility Score: 70.00
ROOT
ATOM      1  C   UNL     1      87.236  31.266  66.386  1.00  0.00     0.136 C 
ATOM      2  O   UNL     1      87.064  31.593  67.552  1.00  0.00    -0.299 OA
ENDROOT
BRANCH   1   3
ATOM      3  C   UNL     1      86.963  32.273  65.281  1.00  0.00     0.053 C 
ATOM      4  C   UNL     1      87.831  33.525  65.466  1.00  0.00     0.016 C 
BRANCH   3   5
ATOM      5  C   UNL     1      85.464  32.645  65.236  1.00  0.00     0.015 C 
BRANCH   5   6
ATOM      6  C   UNL     1      84.685  32.015  66.408  1.00  0.00     0.028 C 
BRANCH   6   7
ATOM      7  C   UNL     1      83.557  31.123  65.955  1.00  0.00    -0.028 C 
ATOM      8  C   UNL     1      83.607  30.290  64.889  1.00  0.00    -0.070 CG0
ATOM      9  C   UNL     1      82.349  29.541  64.525  1.00  0.00     0.039 C 
ATOM     10  G   UNL     1      84.870  30.049  64.073  1.00  0.00     0.000 G0
ENDBRANCH   6   7
ENDBRANCH   5   6
ENDBRANCH   3   5
ENDBRANCH   1   3
BRANCH   1  11
ATOM     11  C   UNL     1      87.766  29.885  66.070  1.00  0.00     0.087 C 
BRANCH  11  12
ATOM     12  C   UNL     1      87.309  29.293  64.705  1.00  0.00     0.066 C 
BRANCH  12  13
ATOM     13  C   UNL     1      85.805  29.041  64.680  1.00  0.00     0.140 C 
ATOM     14  O   UNL     1      85.366  28.040  65.232  1.00  0.00    -0.299 OA
BRANCH  13  15
ATOM     15  C   UNL     1      84.836  30.025  64.060  1.00  0.00     0.106 CG0
ATOM     16  G   UNL     1      83.594  30.278  64.903  1.00  0.00     0.000 G0
ENDBRANCH  13  15
ENDBRANCH  12  13
BRANCH  12  17
ATOM     17  C   UNL     1      88.125  28.057  64.199  1.00  0.00    -0.006 C 
ATOM     18  C   UNL     1      87.833  26.817  65.065  1.00  0.00     0.008 C 
ATOM     19  C   UNL     1      87.820  27.712  62.730  1.00  0.00     0.008 C 
ENDBRANCH  12  17
ENDBRANCH  11  12
ENDBRANCH   1  11
TORSDOF 1
ENDMDL
