MODEL 1
REMARK VINA RESULT:    -4.364      0.000      0.000
REMARK INTER + INTRA:          -6.062
REMARK INTER:                  -5.895
REMARK INTRA:                  -0.167
REMARK UNBOUND:                -0.167
REMARK SMILES [NH3+]CCCC[C@@H]([NH3+])C(=O)[O-]
REMARK SMILES IDX 4 1 3 2 2 3 1 4 5 8 6 9 7 10 8 14 9 15 10 16
REMARK H PARENT 1 5 1 6 1 7 7 11 7 12 7 13
REMARK Flexibility Score: inf
ROOT
ATOM      1  C   UNL     1     101.172  93.311 104.781  1.00  0.00     0.012 C 
ENDROOT
BRANCH   1   2
ATOM      2  C   UNL     1     102.234  94.364 104.429  1.00  0.00     0.061 C 
BRANCH   2   3
ATOM      3  C   UNL     1     103.382  93.739 103.624  1.00  0.00     0.258 C 
BRANCH   3   4
ATOM      4  N   UNL     1     103.659  94.518 102.418  1.00  0.00    -0.358 N 
ATOM      5  H   UNL     1     104.129  95.418 102.672  1.00  0.00     0.344 HD
ATOM      6  H   UNL     1     104.295  93.970 101.794  1.00  0.00     0.344 HD
ATOM      7  H   UNL     1     102.770  94.716 101.905  1.00  0.00     0.344 HD
ENDBRANCH   3   4
ENDBRANCH   2   3
ENDBRANCH   1   2
BRANCH   1   8
ATOM      8  C   UNL     1     101.503  92.534 106.070  1.00  0.00     0.072 C 
BRANCH   8   9
ATOM      9  C   UNL     1     101.203  93.309 107.374  1.00  0.00     0.227 C 
BRANCH   9  10
ATOM     10  N   UNL     1     100.422  92.474 108.295  1.00  0.00    -0.350 N 
ATOM     11  H   UNL     1     101.052  91.879 108.882  1.00  0.00     0.345 HD
ATOM     12  H   UNL     1      99.778  91.854 107.750  1.00  0.00     0.345 HD
ATOM     13  H   UNL     1      99.841  93.079 108.920  1.00  0.00     0.345 HD
ENDBRANCH   9  10
BRANCH   9  14
ATOM     14  C   UNL     1     102.472  93.769 108.044  1.00  0.00     0.099 C 
ATOM     15  O   UNL     1     102.426  94.543 109.037  1.00  0.00    -0.544 OA
ATOM     16  O   UNL     1     103.703  93.328 107.576  1.00  0.00    -0.544 OA
ENDBRANCH   9  14
ENDBRANCH   8   9
ENDBRANCH   1   8
TORSDOF 7
ENDMDL
MODEL 2
REMARK VINA RESULT:    -4.349      5.145      6.429
REMARK INTER + INTRA:          -6.041
REMARK INTER:                  -5.984
REMARK INTRA:                  -0.057
REMARK UNBOUND:                -0.167
REMARK SMILES [NH3+]CCCC[C@@H]([NH3+])C(=O)[O-]
REMARK SMILES IDX 4 1 3 2 2 3 1 4 5 8 6 9 7 10 8 14 9 15 10 16
REMARK H PARENT 1 5 1 6 1 7 7 11 7 12 7 13
REMARK Flexibility Score: inf
ROOT
ATOM      1  C   UNL     1     105.151  91.494 105.831  1.00  0.00     0.012 C 
ENDROOT
BRANCH   1   2
ATOM      2  C   UNL     1     105.184  92.877 106.498  1.00  0.00     0.061 C 
BRANCH   2   3
ATOM      3  C   UNL     1     103.916  93.117 107.329  1.00  0.00     0.258 C 
BRANCH   3   4
ATOM      4  N   UNL     1     103.482  94.510 107.233  1.00  0.00    -0.358 N 
ATOM      5  H   UNL     1     104.307  95.133 107.070  1.00  0.00     0.344 HD
ATOM      6  H   UNL     1     102.821  94.608 106.428  1.00  0.00     0.344 HD
ATOM      7  H   UNL     1     102.991  94.795 108.111  1.00  0.00     0.344 HD
ENDBRANCH   3   4
ENDBRANCH   2   3
ENDBRANCH   1   2
BRANCH   1   8
ATOM      8  C   UNL     1     106.540  90.830 105.762  1.00  0.00     0.072 C 
BRANCH   8   9
ATOM      9  C   UNL     1     107.658  91.748 105.217  1.00  0.00     0.227 C 
BRANCH   9  10
ATOM     10  N   UNL     1     108.574  92.132 106.299  1.00  0.00    -0.350 N 
ATOM     11  H   UNL     1     109.348  91.434 106.396  1.00  0.00     0.345 HD
ATOM     12  H   UNL     1     108.050  92.189 107.203  1.00  0.00     0.345 HD
ATOM     13  H   UNL     1     108.984  93.074 106.101  1.00  0.00     0.345 HD
ENDBRANCH   9  10
BRANCH   9  14
ATOM     14  C   UNL     1     108.423  91.081 104.105  1.00  0.00     0.099 C 
ATOM     15  O   UNL     1     108.894  89.922 104.258  1.00  0.00    -0.544 OA
ATOM     16  O   UNL     1     108.604  91.739 102.895  1.00  0.00    -0.544 OA
ENDBRANCH   9  14
ENDBRANCH   8   9
ENDBRANCH   1   8
TORSDOF 7
ENDMDL
MODEL 3
REMARK VINA RESULT:    -4.302      1.737      1.945
REMARK INTER + INTRA:          -5.977
REMARK INTER:                  -5.800
REMARK INTRA:                  -0.177
REMARK UNBOUND:                -0.167
REMARK SMILES [NH3+]CCCC[C@@H]([NH3+])C(=O)[O-]
REMARK SMILES IDX 4 1 3 2 2 3 1 4 5 8 6 9 7 10 8 14 9 15 10 16
REMARK H PARENT 1 5 1 6 1 7 7 11 7 12 7 13
REMARK Flexibility Score: inf
ROOT
ATOM      1  C   UNL     1     101.176  93.429 104.619  1.00  0.00     0.012 C 
ENDROOT
BRANCH   1   2
ATOM      2  C   UNL     1     101.535  93.664 103.144  1.00  0.00     0.061 C 
BRANCH   2   3
ATOM      3  C   UNL     1     103.039  93.471 102.907  1.00  0.00     0.258 C 
BRANCH   3   4
ATOM      4  N   UNL     1     103.637  94.674 102.328  1.00  0.00    -0.358 N 
ATOM      5  H   UNL     1     102.892  95.375 102.108  1.00  0.00     0.344 HD
ATOM      6  H   UNL     1     104.301  95.093 103.019  1.00  0.00     0.344 HD
ATOM      7  H   UNL     1     104.162  94.431 101.457  1.00  0.00     0.344 HD
ENDBRANCH   3   4
ENDBRANCH   2   3
ENDBRANCH   1   2
BRANCH   1   8
ATOM      8  C   UNL     1     101.923  94.378 105.576  1.00  0.00     0.072 C 
BRANCH   8   9
ATOM      9  C   UNL     1     102.668  93.664 106.728  1.00  0.00     0.227 C 
BRANCH   9  10
ATOM     10  N   UNL     1     104.048  94.155 106.825  1.00  0.00    -0.350 N 
ATOM     11  H   UNL     1     104.519  93.772 107.677  1.00  0.00     0.345 HD
ATOM     12  H   UNL     1     104.048  95.201 106.877  1.00  0.00     0.345 HD
ATOM     13  H   UNL     1     104.588  93.871 105.975  1.00  0.00     0.345 HD
ENDBRANCH   9  10
BRANCH   9  14
ATOM     14  C   UNL     1     101.958  93.855 108.042  1.00  0.00     0.099 C 
ATOM     15  O   UNL     1     102.500  94.510 108.973  1.00  0.00    -0.544 OA
ATOM     16  O   UNL     1     100.691  93.318 108.231  1.00  0.00    -0.544 OA
ENDBRANCH   9  14
ENDBRANCH   8   9
ENDBRANCH   1   8
TORSDOF 7
ENDMDL
MODEL 4
REMARK VINA RESULT:    -4.280      2.721      4.455
REMARK INTER + INTRA:          -5.948
REMARK INTER:                  -5.429
REMARK INTRA:                  -0.519
REMARK UNBOUND:                -0.167
REMARK SMILES [NH3+]CCCC[C@@H]([NH3+])C(=O)[O-]
REMARK SMILES IDX 4 1 3 2 2 3 1 4 5 8 6 9 7 10 8 14 9 15 10 16
REMARK H PARENT 1 5 1 6 1 7 7 11 7 12 7 13
REMARK Flexibility Score: inf
ROOT
ATOM      1  C   UNL     1     104.007  91.895 105.251  1.00  0.00     0.012 C 
ENDROOT
BRANCH   1   2
ATOM      2  C   UNL     1     104.828  92.738 106.239  1.00  0.00     0.061 C 
BRANCH   2   3
ATOM      3  C   UNL     1     103.990  93.115 107.468  1.00  0.00     0.258 C 
BRANCH   3   4
ATOM      4  N   UNL     1     103.507  94.492 107.369  1.00  0.00    -0.358 N 
ATOM      5  H   UNL     1     103.372  94.895 108.325  1.00  0.00     0.344 HD
ATOM      6  H   UNL     1     104.215  95.067 106.857  1.00  0.00     0.344 HD
ATOM      7  H   UNL     1     102.604  94.519 106.842  1.00  0.00     0.344 HD
ENDBRANCH   3   4
ENDBRANCH   2   3
ENDBRANCH   1   2
BRANCH   1   8
ATOM      8  C   UNL     1     103.968  92.502 103.835  1.00  0.00     0.072 C 
BRANCH   8   9
ATOM      9  C   UNL     1     103.396  93.937 103.773  1.00  0.00     0.227 C 
BRANCH   9  10
ATOM     10  N   UNL     1     103.608  94.513 102.439  1.00  0.00    -0.350 N 
ATOM     11  H   UNL     1     104.584  94.881 102.345  1.00  0.00     0.345 HD
ATOM     12  H   UNL     1     102.932  95.296 102.280  1.00  0.00     0.345 HD
ATOM     13  H   UNL     1     103.443  93.786 101.707  1.00  0.00     0.345 HD
ENDBRANCH   9  10
BRANCH   9  14
ATOM     14  C   UNL     1     101.930  93.960 104.118  1.00  0.00     0.099 C 
ATOM     15  O   UNL     1     101.545  94.348 105.254  1.00  0.00    -0.544 OA
ATOM     16  O   UNL     1     100.989  93.562 103.176  1.00  0.00    -0.544 OA
ENDBRANCH   9  14
ENDBRANCH   8   9
ENDBRANCH   1   8
TORSDOF 7
ENDMDL
MODEL 5
REMARK VINA RESULT:    -4.272      2.691      3.427
REMARK INTER + INTRA:          -5.937
REMARK INTER:                  -5.490
REMARK INTRA:                  -0.446
REMARK UNBOUND:                -0.167
REMARK SMILES [NH3+]CCCC[C@@H]([NH3+])C(=O)[O-]
REMARK SMILES IDX 4 1 3 2 2 3 1 4 5 8 6 9 7 10 8 14 9 15 10 16
REMARK H PARENT 1 5 1 6 1 7 7 11 7 12 7 13
REMARK Flexibility Score: inf
ROOT
ATOM      1  C   UNL     1     100.607  93.705 102.689  1.00  0.00     0.012 C 
ENDROOT
BRANCH   1   2
ATOM      2  C   UNL     1     101.171  92.774 101.606  1.00  0.00     0.061 C 
BRANCH   2   3
ATOM      3  C   UNL     1     101.755  93.580 100.437  1.00  0.00     0.258 C 
BRANCH   3   4
ATOM      4  N   UNL     1     102.484  94.751 100.923  1.00  0.00    -0.358 N 
ATOM      5  H   UNL     1     102.793  95.342 100.117  1.00  0.00     0.344 HD
ATOM      6  H   UNL     1     101.853  95.318 101.535  1.00  0.00     0.344 HD
ATOM      7  H   UNL     1     103.316  94.450 101.481  1.00  0.00     0.344 HD
ENDBRANCH   3   4
ENDBRANCH   2   3
ENDBRANCH   1   2
BRANCH   1   8
ATOM      8  C   UNL     1     101.188  93.418 104.087  1.00  0.00     0.072 C 
BRANCH   8   9
ATOM      9  C   UNL     1     102.417  94.282 104.455  1.00  0.00     0.227 C 
BRANCH   9  10
ATOM     10  N   UNL     1     102.257  94.848 105.801  1.00  0.00    -0.350 N 
ATOM     11  H   UNL     1     101.661  94.227 106.396  1.00  0.00     0.345 HD
ATOM     12  H   UNL     1     101.809  95.792 105.737  1.00  0.00     0.345 HD
ATOM     13  H   UNL     1     103.193  94.962 106.253  1.00  0.00     0.345 HD
ENDBRANCH   9  10
BRANCH   9  14
ATOM     14  C   UNL     1     103.692  93.485 104.378  1.00  0.00     0.099 C 
ATOM     15  O   UNL     1     104.273  93.104 105.430  1.00  0.00    -0.544 OA
ATOM     16  O   UNL     1     104.230  93.154 103.141  1.00  0.00    -0.544 OA
ENDBRANCH   9  14
ENDBRANCH   8   9
ENDBRANCH   1   8
TORSDOF 7
ENDMDL
MODEL 6
REMARK VINA RESULT:    -4.227      2.135      2.377
REMARK INTER + INTRA:          -5.877
REMARK INTER:                  -5.759
REMARK INTRA:                  -0.118
REMARK UNBOUND:                -0.167
REMARK SMILES [NH3+]CCCC[C@@H]([NH3+])C(=O)[O-]
REMARK SMILES IDX 4 1 3 2 2 3 1 4 5 8 6 9 7 10 8 14 9 15 10 16
REMARK H PARENT 1 5 1 6 1 7 7 11 7 12 7 13
REMARK Flexibility Score: inf
ROOT
ATOM      1  C   UNL     1     102.004  94.417 105.029  1.00  0.00     0.012 C 
ENDROOT
BRANCH   1   2
ATOM      2  C   UNL     1     101.965  93.905 103.581  1.00  0.00     0.061 C 
BRANCH   2   3
ATOM      3  C   UNL     1     101.014  92.708 103.447  1.00  0.00     0.258 C 
BRANCH   3   4
ATOM      4  N   UNL     1     100.302  92.746 102.170  1.00  0.00    -0.358 N 
ATOM      5  H   UNL     1      99.319  92.414 102.296  1.00  0.00     0.344 HD
ATOM      6  H   UNL     1     100.284  93.731 101.817  1.00  0.00     0.344 HD
ATOM      7  H   UNL     1     100.792  92.145 101.468  1.00  0.00     0.344 HD
ENDBRANCH   3   4
ENDBRANCH   2   3
ENDBRANCH   1   2
BRANCH   1   8
ATOM      8  C   UNL     1     101.743  93.307 106.064  1.00  0.00     0.072 C 
BRANCH   8   9
ATOM      9  C   UNL     1     102.558  93.451 107.371  1.00  0.00     0.227 C 
BRANCH   9  10
ATOM     10  N   UNL     1     103.564  94.511 107.230  1.00  0.00    -0.350 N 
ATOM     11  H   UNL     1     103.135  95.453 107.384  1.00  0.00     0.345 HD
ATOM     12  H   UNL     1     103.980  94.479 106.269  1.00  0.00     0.345 HD
ATOM     13  H   UNL     1     104.334  94.366 107.923  1.00  0.00     0.345 HD
ENDBRANCH   9  10
BRANCH   9  14
ATOM     14  C   UNL     1     101.664  93.741 108.547  1.00  0.00     0.099 C 
ATOM     15  O   UNL     1     100.549  93.163 108.662  1.00  0.00    -0.544 OA
ATOM     16  O   UNL     1     102.070  94.643 109.522  1.00  0.00    -0.544 OA
ENDBRANCH   9  14
ENDBRANCH   8   9
ENDBRANCH   1   8
TORSDOF 7
ENDMDL
MODEL 7
REMARK VINA RESULT:    -4.189      4.104      4.561
REMARK INTER + INTRA:          -5.825
REMARK INTER:                  -5.682
REMARK INTRA:                  -0.143
REMARK UNBOUND:                -0.167
REMARK SMILES [NH3+]CCCC[C@@H]([NH3+])C(=O)[O-]
REMARK SMILES IDX 4 1 3 2 2 3 1 4 5 8 6 9 7 10 8 14 9 15 10 16
REMARK H PARENT 1 5 1 6 1 7 7 11 7 12 7 13
REMARK Flexibility Score: inf
ROOT
ATOM      1  C   UNL     1     105.801  92.559 106.165  1.00  0.00     0.012 C 
ENDROOT
BRANCH   1   2
ATOM      2  C   UNL     1     106.660  91.341 105.796  1.00  0.00     0.061 C 
BRANCH   2   3
ATOM      3  C   UNL     1     108.084  91.768 105.412  1.00  0.00     0.258 C 
BRANCH   3   4
ATOM      4  N   UNL     1     108.850  92.157 106.595  1.00  0.00    -0.358 N 
ATOM      5  H   UNL     1     108.244  92.112 107.446  1.00  0.00     0.344 HD
ATOM      6  H   UNL     1     109.653  91.497 106.715  1.00  0.00     0.344 HD
ATOM      7  H   UNL     1     109.224  93.127 106.477  1.00  0.00     0.344 HD
ENDBRANCH   3   4
ENDBRANCH   2   3
ENDBRANCH   1   2
BRANCH   1   8
ATOM      8  C   UNL     1     104.450  92.171 106.796  1.00  0.00     0.072 C 
BRANCH   8   9
ATOM      9  C   UNL     1     103.306  93.173 106.516  1.00  0.00     0.227 C 
BRANCH   9  10
ATOM     10  N   UNL     1     103.665  94.508 107.010  1.00  0.00    -0.350 N 
ATOM     11  H   UNL     1     103.985  95.120 106.223  1.00  0.00     0.345 HD
ATOM     12  H   UNL     1     104.434  94.430 107.716  1.00  0.00     0.345 HD
ATOM     13  H   UNL     1     102.839  94.950 107.475  1.00  0.00     0.345 HD
ENDBRANCH   9  10
BRANCH   9  14
ATOM     14  C   UNL     1     102.978  93.235 105.048  1.00  0.00     0.099 C 
ATOM     15  O   UNL     1     102.840  94.347 104.470  1.00  0.00    -0.544 OA
ATOM     16  O   UNL     1     102.837  92.063 104.317  1.00  0.00    -0.544 OA
ENDBRANCH   9  14
ENDBRANCH   8   9
ENDBRANCH   1   8
TORSDOF 7
ENDMDL
MODEL 8
REMARK VINA RESULT:    -4.177      7.407      8.604
REMARK INTER + INTRA:          -5.808
REMARK INTER:                  -5.613
REMARK INTRA:                  -0.195
REMARK UNBOUND:                -0.167
REMARK SMILES [NH3+]CCCC[C@@H]([NH3+])C(=O)[O-]
REMARK SMILES IDX 4 1 3 2 2 3 1 4 5 8 6 9 7 10 8 14 9 15 10 16
REMARK H PARENT 1 5 1 6 1 7 7 11 7 12 7 13
REMARK Flexibility Score: inf
ROOT
ATOM      1  C   UNL     1     108.481  89.875 103.728  1.00  0.00     0.012 C 
ENDROOT
BRANCH   1   2
ATOM      2  C   UNL     1     108.843  90.115 105.201  1.00  0.00     0.061 C 
BRANCH   2   3
ATOM      3  C   UNL     1     108.183  91.397 105.728  1.00  0.00     0.258 C 
BRANCH   3   4
ATOM      4  N   UNL     1     109.007  92.023 106.760  1.00  0.00    -0.358 N 
ATOM      5  H   UNL     1     109.022  91.426 107.619  1.00  0.00     0.344 HD
ATOM      6  H   UNL     1     109.985  92.125 106.403  1.00  0.00     0.344 HD
ATOM      7  H   UNL     1     108.631  92.970 106.994  1.00  0.00     0.344 HD
ENDBRANCH   3   4
ENDBRANCH   2   3
ENDBRANCH   1   2
BRANCH   1   8
ATOM      8  C   UNL     1     107.413  90.855 103.206  1.00  0.00     0.072 C 
BRANCH   8   9
ATOM      9  C   UNL     1     107.894  91.764 102.050  1.00  0.00     0.227 C 
BRANCH   9  10
ATOM     10  N   UNL     1     109.302  92.133 102.244  1.00  0.00    -0.350 N 
ATOM     11  H   UNL     1     109.388  93.144 102.501  1.00  0.00     0.345 HD
ATOM     12  H   UNL     1     109.838  91.958 101.362  1.00  0.00     0.345 HD
ATOM     13  H   UNL     1     109.722  91.548 103.002  1.00  0.00     0.345 HD
ENDBRANCH   9  10
BRANCH   9  14
ATOM     14  C   UNL     1     107.715  91.093 100.714  1.00  0.00     0.099 C 
ATOM     15  O   UNL     1     106.742  90.317 100.512  1.00  0.00    -0.544 OA
ATOM     16  O   UNL     1     108.619  91.338  99.688  1.00  0.00    -0.544 OA
ENDBRANCH   9  14
ENDBRANCH   8   9
ENDBRANCH   1   8
TORSDOF 7
ENDMDL
MODEL 9
REMARK VINA RESULT:    -4.111      4.385      5.715
REMARK INTER + INTRA:          -5.719
REMARK INTER:                  -5.645
REMARK INTRA:                  -0.074
REMARK UNBOUND:                -0.167
REMARK SMILES [NH3+]CCCC[C@@H]([NH3+])C(=O)[O-]
REMARK SMILES IDX 4 1 3 2 2 3 1 4 5 8 6 9 7 10 8 14 9 15 10 16
REMARK H PARENT 1 5 1 6 1 7 7 11 7 12 7 13
REMARK Flexibility Score: inf
ROOT
ATOM      1  C   UNL     1     101.366  93.627 104.228  1.00  0.00     0.012 C 
ENDROOT
BRANCH   1   2
ATOM      2  C   UNL     1     101.954  94.455 105.380  1.00  0.00     0.061 C 
BRANCH   2   3
ATOM      3  C   UNL     1     103.077  93.688 106.091  1.00  0.00     0.258 C 
BRANCH   3   4
ATOM      4  N   UNL     1     103.617  94.464 107.206  1.00  0.00    -0.358 N 
ATOM      5  H   UNL     1     104.379  95.097 106.869  1.00  0.00     0.344 HD
ATOM      6  H   UNL     1     102.853  95.047 107.620  1.00  0.00     0.344 HD
ATOM      7  H   UNL     1     103.989  93.823 107.944  1.00  0.00     0.344 HD
ENDBRANCH   3   4
ENDBRANCH   2   3
ENDBRANCH   1   2
BRANCH   1   8
ATOM      8  C   UNL     1     102.087  93.869 102.888  1.00  0.00     0.072 C 
BRANCH   8   9
ATOM      9  C   UNL     1     101.585  92.980 101.726  1.00  0.00     0.227 C 
BRANCH   9  10
ATOM     10  N   UNL     1     100.206  92.543 101.977  1.00  0.00    -0.350 N 
ATOM     11  H   UNL     1      99.572  92.855 101.205  1.00  0.00     0.345 HD
ATOM     12  H   UNL     1      99.866  92.947 102.882  1.00  0.00     0.345 HD
ATOM     13  H   UNL     1     100.170  91.501 102.052  1.00  0.00     0.345 HD
ENDBRANCH   9  10
BRANCH   9  14
ATOM     14  C   UNL     1     101.666  93.702 100.407  1.00  0.00     0.099 C 
ATOM     15  O   UNL     1     102.421  94.703 100.271  1.00  0.00    -0.544 OA
ATOM     16  O   UNL     1     100.916  93.259  99.326  1.00  0.00    -0.544 OA
ENDBRANCH   9  14
ENDBRANCH   8   9
ENDBRANCH   1   8
TORSDOF 7
ENDMDL
