MODEL 1
REMARK VINA RESULT:    -6.310      0.000      0.000
REMARK INTER + INTRA:          -8.159
REMARK INTER:                  -8.523
REMARK INTRA:                   0.365
REMARK UNBOUND:                 0.365
REMARK SMILES O=c1c(-c2ccc(O)cc2)coc2c([C@@H]3O[C@H](CO)[C@H](O)[C@@H](O)[C@H]3O)c(O)ccc12
REMARK SMILES IDX 3 1 11 2 12 3 13 4 30 5 2 6 1 7 29 8 28 9 26 10 14 11 4 12
REMARK SMILES IDX 5 13 6 14 7 15 10 16 9 17 8 18 15 20 24 21 16 22 22 23 17 24
REMARK SMILES IDX 20 25 25 26 23 28 18 30 19 31 21 33 27 35
REMARK H PARENT 8 19 25 27 23 29 19 32 21 34 27 36
REMARK Flexibility Score: inf
ROOT
ATOM      1  C   UNL     1     177.532 200.740  82.429  1.00  0.00     0.065 A 
ATOM      2  C   UNL     1     177.024 201.694  83.321  1.00  0.00     0.208 A 
ATOM      3  O   UNL     1     177.321 201.643  84.615  1.00  0.00    -0.463 OA
ATOM      4  C   UNL     1     178.099 200.705  85.152  1.00  0.00     0.147 A 
ATOM      5  C   UNL     1     178.617 199.679  84.327  1.00  0.00     0.066 A 
ATOM      6  C   UNL     1     178.329 199.706  82.950  1.00  0.00     0.200 A 
ATOM      7  O   UNL     1     178.770 198.800  82.189  1.00  0.00    -0.288 OA
ATOM      8  C   UNL     1     179.406 198.670  84.893  1.00  0.00     0.020 A 
ATOM      9  C   UNL     1     179.661 198.669  86.258  1.00  0.00     0.047 A 
ATOM     10  C   UNL     1     179.167 199.681  87.089  1.00  0.00     0.125 A 
ATOM     11  C   UNL     1     178.415 200.757  86.535  1.00  0.00     0.069 A 
ENDROOT
BRANCH   1  12
ATOM     12  C   UNL     1     177.217 200.832  80.981  1.00  0.00    -0.011 A 
ATOM     13  C   UNL     1     178.098 201.488  80.106  1.00  0.00     0.013 A 
ATOM     14  C   UNL     1     177.802 201.577  78.742  1.00  0.00     0.047 A 
ATOM     15  C   UNL     1     176.625 201.013  78.239  1.00  0.00     0.115 A 
ATOM     16  C   UNL     1     176.040 200.259  80.467  1.00  0.00     0.013 A 
ATOM     17  C   UNL     1     175.743 200.355  79.105  1.00  0.00     0.047 A 
BRANCH  15  18
ATOM     18  O   UNL     1     176.344 201.107  76.878  1.00  0.00    -0.508 OA
ATOM     19  H   UNL     1     175.442 200.835  76.507  1.00  0.00     0.293 HD
ENDBRANCH  15  18
ENDBRANCH   1  12
BRANCH  11  20
ATOM     20  C   UNL     1     177.883 201.970  87.330  1.00  0.00     0.188 C 
ATOM     21  C   UNL     1     177.892 201.950  88.882  1.00  0.00     0.179 C 
ATOM     22  O   UNL     1     178.403 203.204  86.830  1.00  0.00    -0.362 OA
ATOM     23  C   UNL     1     179.313 202.190  89.406  1.00  0.00     0.177 C 
ATOM     24  C   UNL     1     179.709 203.548  87.296  1.00  0.00     0.176 C 
ATOM     25  C   UNL     1     179.838 203.517  88.839  1.00  0.00     0.177 C 
BRANCH  21  26
ATOM     26  O   UNL     1     177.053 202.969  89.367  1.00  0.00    -0.387 OA
ATOM     27  H   UNL     1     176.362 203.140  88.677  1.00  0.00     0.211 HD
ENDBRANCH  21  26
BRANCH  23  28
ATOM     28  O   UNL     1     179.284 202.227  90.811  1.00  0.00    -0.387 OA
ATOM     29  H   UNL     1     180.067 202.765  91.101  1.00  0.00     0.211 HD
ENDBRANCH  23  28
BRANCH  24  30
ATOM     30  C   UNL     1     180.829 202.785  86.556  1.00  0.00     0.191 C 
BRANCH  30  31
ATOM     31  O   UNL     1     181.574 203.655  85.749  1.00  0.00    -0.394 OA
ATOM     32  H   UNL     1     181.698 204.493  86.269  1.00  0.00     0.210 HD
ENDBRANCH  30  31
ENDBRANCH  24  30
BRANCH  25  33
ATOM     33  O   UNL     1     181.179 203.725  89.211  1.00  0.00    -0.388 OA
ATOM     34  H   UNL     1     181.372 204.689  89.088  1.00  0.00     0.211 HD
ENDBRANCH  25  33
ENDBRANCH  11  20
BRANCH  10  35
ATOM     35  O   UNL     1     179.423 199.584  88.454  1.00  0.00    -0.507 OA
ATOM     36  H   UNL     1     179.980 200.272  88.946  1.00  0.00     0.293 HD
ENDBRANCH  10  35
TORSDOF 9
ENDMDL
MODEL 2
REMARK VINA RESULT:    -6.229     11.190     13.736
REMARK INTER + INTRA:          -8.050
REMARK INTER:                  -8.415
REMARK INTRA:                   0.365
REMARK UNBOUND:                 0.365
REMARK SMILES O=c1c(-c2ccc(O)cc2)coc2c([C@@H]3O[C@H](CO)[C@H](O)[C@@H](O)[C@H]3O)c(O)ccc12
REMARK SMILES IDX 3 1 11 2 12 3 13 4 30 5 2 6 1 7 29 8 28 9 26 10 14 11 4 12
REMARK SMILES IDX 5 13 6 14 7 15 10 16 9 17 8 18 15 20 24 21 16 22 22 23 17 24
REMARK SMILES IDX 20 25 25 26 23 28 18 30 19 31 21 33 27 35
REMARK H PARENT 8 19 25 27 23 29 19 32 21 34 27 36
REMARK Flexibility Score: inf
ROOT
ATOM      1  C   UNL     1     186.187 193.251  82.493  1.00  0.00     0.065 A 
ATOM      2  C   UNL     1     186.936 193.442  81.324  1.00  0.00     0.208 A 
ATOM      3  O   UNL     1     188.264 193.476  81.364  1.00  0.00    -0.463 OA
ATOM      4  C   UNL     1     188.967 193.341  82.487  1.00  0.00     0.147 A 
ATOM      5  C   UNL     1     188.285 193.188  83.717  1.00  0.00     0.066 A 
ATOM      6  C   UNL     1     186.879 193.139  83.711  1.00  0.00     0.200 A 
ATOM      7  O   UNL     1     186.241 193.011  84.793  1.00  0.00    -0.288 OA
ATOM      8  C   UNL     1     189.019 193.081  84.905  1.00  0.00     0.020 A 
ATOM      9  C   UNL     1     190.406 193.145  84.875  1.00  0.00     0.047 A 
ATOM     10  C   UNL     1     191.099 193.285  83.667  1.00  0.00     0.125 A 
ATOM     11  C   UNL     1     190.386 193.331  82.434  1.00  0.00     0.069 A 
ENDROOT
BRANCH   1  12
ATOM     12  C   UNL     1     184.705 193.181  82.424  1.00  0.00    -0.011 A 
ATOM     13  C   UNL     1     183.939 194.357  82.474  1.00  0.00     0.013 A 
ATOM     14  C   UNL     1     182.543 194.293  82.410  1.00  0.00     0.047 A 
ATOM     15  C   UNL     1     181.900 193.057  82.296  1.00  0.00     0.115 A 
ATOM     16  C   UNL     1     184.052 191.942  82.300  1.00  0.00     0.013 A 
ATOM     17  C   UNL     1     182.658 191.880  82.242  1.00  0.00     0.047 A 
BRANCH  15  18
ATOM     18  O   UNL     1     180.510 193.008  82.231  1.00  0.00    -0.508 OA
ATOM     19  H   UNL     1     179.933 193.423  82.953  1.00  0.00     0.293 HD
ENDBRANCH  15  18
ENDBRANCH   1  12
BRANCH  11  20
ATOM     20  C   UNL     1     191.035 193.405  81.034  1.00  0.00     0.188 C 
ATOM     21  C   UNL     1     190.165 193.712  79.786  1.00  0.00     0.179 C 
ATOM     22  O   UNL     1     192.223 194.199  81.040  1.00  0.00    -0.362 OA
ATOM     23  C   UNL     1     189.817 195.204  79.738  1.00  0.00     0.177 C 
ATOM     24  C   UNL     1     192.012 195.610  80.950  1.00  0.00     0.176 C 
ATOM     25  C   UNL     1     191.117 196.023  79.756  1.00  0.00     0.177 C 
BRANCH  21  26
ATOM     26  O   UNL     1     190.883 193.377  78.624  1.00  0.00    -0.387 OA
ATOM     27  H   UNL     1     190.230 193.038  77.958  1.00  0.00     0.211 HD
ENDBRANCH  21  26
BRANCH  23  28
ATOM     28  O   UNL     1     189.081 195.467  78.569  1.00  0.00    -0.387 OA
ATOM     29  H   UNL     1     188.706 194.600  78.264  1.00  0.00     0.211 HD
ENDBRANCH  23  28
BRANCH  24  30
ATOM     30  C   UNL     1     191.593 196.239  82.297  1.00  0.00     0.191 C 
BRANCH  30  31
ATOM     31  O   UNL     1     192.684 196.309  83.173  1.00  0.00    -0.394 OA
ATOM     32  H   UNL     1     192.562 197.132  83.719  1.00  0.00     0.210 HD
ENDBRANCH  30  31
ENDBRANCH  24  30
BRANCH  25  33
ATOM     33  O   UNL     1     190.840 197.400  79.819  1.00  0.00    -0.388 OA
ATOM     34  H   UNL     1     191.577 197.824  80.328  1.00  0.00     0.211 HD
ENDBRANCH  25  33
ENDBRANCH  11  20
BRANCH  10  35
ATOM     35  O   UNL     1     192.486 193.390  83.722  1.00  0.00    -0.507 OA
ATOM     36  H   UNL     1     193.018 193.859  82.999  1.00  0.00     0.293 HD
ENDBRANCH  10  35
TORSDOF 9
ENDMDL
MODEL 3
REMARK VINA RESULT:    -6.091      3.043      6.369
REMARK INTER + INTRA:          -7.863
REMARK INTER:                  -8.240
REMARK INTRA:                   0.378
REMARK UNBOUND:                 0.365
REMARK SMILES O=c1c(-c2ccc(O)cc2)coc2c([C@@H]3O[C@H](CO)[C@H](O)[C@@H](O)[C@H]3O)c(O)ccc12
REMARK SMILES IDX 3 1 11 2 12 3 13 4 30 5 2 6 1 7 29 8 28 9 26 10 14 11 4 12
REMARK SMILES IDX 5 13 6 14 7 15 10 16 9 17 8 18 15 20 24 21 16 22 22 23 17 24
REMARK SMILES IDX 20 25 25 26 23 28 18 30 19 31 21 33 27 35
REMARK H PARENT 8 19 25 27 23 29 19 32 21 34 27 36
REMARK Flexibility Score: inf
ROOT
ATOM      1  C   UNL     1     178.516 197.556  87.779  1.00  0.00     0.065 A 
ATOM      2  C   UNL     1     178.221 198.715  88.511  1.00  0.00     0.208 A 
ATOM      3  O   UNL     1     178.278 199.914  87.941  1.00  0.00    -0.463 OA
ATOM      4  C   UNL     1     178.613 200.104  86.666  1.00  0.00     0.147 A 
ATOM      5  C   UNL     1     178.967 198.990  85.870  1.00  0.00     0.066 A 
ATOM      6  C   UNL     1     178.911 197.704  86.439  1.00  0.00     0.200 A 
ATOM      7  O   UNL     1     179.228 196.690  85.756  1.00  0.00    -0.288 OA
ATOM      8  C   UNL     1     179.355 199.188  84.539  1.00  0.00     0.020 A 
ATOM      9  C   UNL     1     179.411 200.472  84.013  1.00  0.00     0.047 A 
ATOM     10  C   UNL     1     179.054 201.586  84.782  1.00  0.00     0.125 A 
ATOM     11  C   UNL     1     178.592 201.414  86.119  1.00  0.00     0.069 A 
ENDROOT
BRANCH   1  12
ATOM     12  C   UNL     1     178.414 196.223  88.424  1.00  0.00    -0.011 A 
ATOM     13  C   UNL     1     179.494 195.709  89.160  1.00  0.00     0.013 A 
ATOM     14  C   UNL     1     179.400 194.453  89.768  1.00  0.00     0.047 A 
ATOM     15  C   UNL     1     178.230 193.698  89.647  1.00  0.00     0.115 A 
ATOM     16  C   UNL     1     177.236 195.462  88.314  1.00  0.00     0.013 A 
ATOM     17  C   UNL     1     177.147 194.205  88.917  1.00  0.00     0.047 A 
BRANCH  15  18
ATOM     18  O   UNL     1     178.150 192.450  90.258  1.00  0.00    -0.508 OA
ATOM     19  H   UNL     1     178.966 191.858  90.357  1.00  0.00     0.293 HD
ENDBRANCH  15  18
ENDBRANCH   1  12
BRANCH  11  20
ATOM     20  C   UNL     1     178.097 202.550  87.041  1.00  0.00     0.188 C 
ATOM     21  C   UNL     1     177.919 202.299  88.562  1.00  0.00     0.179 C 
ATOM     22  O   UNL     1     178.797 203.773  86.801  1.00  0.00    -0.362 OA
ATOM     23  C   UNL     1     179.284 202.285  89.259  1.00  0.00     0.177 C 
ATOM     24  C   UNL     1     180.067 203.884  87.447  1.00  0.00     0.176 C 
ATOM     25  C   UNL     1     180.008 203.609  88.970  1.00  0.00     0.177 C 
BRANCH  21  26
ATOM     26  O   UNL     1     177.138 203.329  89.116  1.00  0.00    -0.387 OA
ATOM     27  H   UNL     1     176.384 203.498  88.495  1.00  0.00     0.211 HD
ENDBRANCH  21  26
BRANCH  23  28
ATOM     28  O   UNL     1     179.092 202.117  90.642  1.00  0.00    -0.387 OA
ATOM     29  H   UNL     1     178.138 201.876  90.773  1.00  0.00     0.211 HD
ENDBRANCH  23  28
BRANCH  24  30
ATOM     30  C   UNL     1     181.182 203.109  86.711  1.00  0.00     0.191 C 
BRANCH  30  31
ATOM     31  O   UNL     1     181.633 203.828  85.596  1.00  0.00    -0.394 OA
ATOM     32  H   UNL     1     182.578 203.559  85.444  1.00  0.00     0.210 HD
ENDBRANCH  30  31
ENDBRANCH  24  30
BRANCH  25  33
ATOM     33  O   UNL     1     181.308 203.596  89.504  1.00  0.00    -0.388 OA
ATOM     34  H   UNL     1     181.703 202.712  89.296  1.00  0.00     0.211 HD
ENDBRANCH  25  33
ENDBRANCH  11  20
BRANCH  10  35
ATOM     35  O   UNL     1     179.182 202.844  84.200  1.00  0.00    -0.507 OA
ATOM     36  H   UNL     1     179.525 203.643  84.720  1.00  0.00     0.293 HD
ENDBRANCH  10  35
TORSDOF 9
ENDMDL
MODEL 4
REMARK VINA RESULT:    -6.050      2.106      3.497
REMARK INTER + INTRA:          -7.808
REMARK INTER:                  -8.261
REMARK INTRA:                   0.454
REMARK UNBOUND:                 0.365
REMARK SMILES O=c1c(-c2ccc(O)cc2)coc2c([C@@H]3O[C@H](CO)[C@H](O)[C@@H](O)[C@H]3O)c(O)ccc12
REMARK SMILES IDX 3 1 11 2 12 3 13 4 30 5 2 6 1 7 29 8 28 9 26 10 14 11 4 12
REMARK SMILES IDX 5 13 6 14 7 15 10 16 9 17 8 18 15 20 24 21 16 22 22 23 17 24
REMARK SMILES IDX 20 25 25 26 23 28 18 30 19 31 21 33 27 35
REMARK H PARENT 8 19 25 27 23 29 19 32 21 34 27 36
REMARK Flexibility Score: inf
ROOT
ATOM      1  C   UNL     1     179.054 199.049  83.140  1.00  0.00     0.065 A 
ATOM      2  C   UNL     1     179.640 200.298  83.385  1.00  0.00     0.208 A 
ATOM      3  O   UNL     1     179.773 200.757  84.625  1.00  0.00    -0.463 OA
ATOM      4  C   UNL     1     179.368 200.087  85.701  1.00  0.00     0.147 A 
ATOM      5  C   UNL     1     178.726 198.837  85.539  1.00  0.00     0.066 A 
ATOM      6  C   UNL     1     178.575 198.317  84.240  1.00  0.00     0.200 A 
ATOM      7  O   UNL     1     178.000 197.207  84.060  1.00  0.00    -0.288 OA
ATOM      8  C   UNL     1     178.266 198.144  86.665  1.00  0.00     0.020 A 
ATOM      9  C   UNL     1     178.421 198.693  87.932  1.00  0.00     0.047 A 
ATOM     10  C   UNL     1     179.063 199.923  88.115  1.00  0.00     0.125 A 
ATOM     11  C   UNL     1     179.601 200.623  86.996  1.00  0.00     0.069 A 
ENDROOT
BRANCH   1  12
ATOM     12  C   UNL     1     178.944 198.538  81.751  1.00  0.00    -0.011 A 
ATOM     13  C   UNL     1     177.987 199.073  80.874  1.00  0.00     0.013 A 
ATOM     14  C   UNL     1     177.882 198.592  79.564  1.00  0.00     0.047 A 
ATOM     15  C   UNL     1     178.730 197.574  79.118  1.00  0.00     0.115 A 
ATOM     16  C   UNL     1     179.801 197.520  81.292  1.00  0.00     0.013 A 
ATOM     17  C   UNL     1     179.689 197.038  79.986  1.00  0.00     0.047 A 
BRANCH  15  18
ATOM     18  O   UNL     1     178.616 197.106  77.812  1.00  0.00    -0.508 OA
ATOM     19  H   UNL     1     179.197 196.350  77.470  1.00  0.00     0.293 HD
ENDBRANCH  15  18
ENDBRANCH   1  12
BRANCH  11  20
ATOM     20  C   UNL     1     180.396 201.945  87.074  1.00  0.00     0.188 C 
ATOM     21  C   UNL     1     180.632 202.789  85.793  1.00  0.00     0.179 C 
ATOM     22  O   UNL     1     179.957 202.767  88.156  1.00  0.00    -0.362 OA
ATOM     23  C   UNL     1     179.353 203.544  85.413  1.00  0.00     0.177 C 
ATOM     24  C   UNL     1     178.793 203.553  87.891  1.00  0.00     0.176 C 
ATOM     25  C   UNL     1     178.908 204.407  86.604  1.00  0.00     0.177 C 
BRANCH  21  26
ATOM     26  O   UNL     1     181.655 203.724  86.033  1.00  0.00    -0.387 OA
ATOM     27  H   UNL     1     182.519 203.243  85.971  1.00  0.00     0.211 HD
ENDBRANCH  21  26
BRANCH  23  28
ATOM     28  O   UNL     1     179.610 204.347  84.288  1.00  0.00    -0.387 OA
ATOM     29  H   UNL     1     180.405 204.899  84.503  1.00  0.00     0.211 HD
ENDBRANCH  23  28
BRANCH  24  30
ATOM     30  C   UNL     1     177.485 202.737  87.989  1.00  0.00     0.191 C 
BRANCH  30  31
ATOM     31  O   UNL     1     177.086 202.597  89.325  1.00  0.00    -0.394 OA
ATOM     32  H   UNL     1     176.527 203.390  89.542  1.00  0.00     0.210 HD
ENDBRANCH  30  31
ENDBRANCH  24  30
BRANCH  25  33
ATOM     33  O   UNL     1     177.680 205.036  86.336  1.00  0.00    -0.388 OA
ATOM     34  H   UNL     1     176.968 204.468  86.726  1.00  0.00     0.211 HD
ENDBRANCH  25  33
ENDBRANCH  11  20
BRANCH  10  35
ATOM     35  O   UNL     1     179.137 200.430  89.409  1.00  0.00    -0.507 OA
ATOM     36  H   UNL     1     179.338 199.839  90.207  1.00  0.00     0.293 HD
ENDBRANCH  10  35
TORSDOF 9
ENDMDL
MODEL 5
REMARK VINA RESULT:    -6.045      5.249      6.890
REMARK INTER + INTRA:          -7.801
REMARK INTER:                  -8.203
REMARK INTRA:                   0.402
REMARK UNBOUND:                 0.365
REMARK SMILES O=c1c(-c2ccc(O)cc2)coc2c([C@@H]3O[C@H](CO)[C@H](O)[C@@H](O)[C@H]3O)c(O)ccc12
REMARK SMILES IDX 3 1 11 2 12 3 13 4 30 5 2 6 1 7 29 8 28 9 26 10 14 11 4 12
REMARK SMILES IDX 5 13 6 14 7 15 10 16 9 17 8 18 15 20 24 21 16 22 22 23 17 24
REMARK SMILES IDX 20 25 25 26 23 28 18 30 19 31 21 33 27 35
REMARK H PARENT 8 19 25 27 23 29 19 32 21 34 27 36
REMARK Flexibility Score: inf
ROOT
ATOM      1  C   UNL     1     176.614 207.917  82.655  1.00  0.00     0.065 A 
ATOM      2  C   UNL     1     177.028 206.578  82.613  1.00  0.00     0.208 A 
ATOM      3  O   UNL     1     177.710 206.044  83.621  1.00  0.00    -0.463 OA
ATOM      4  C   UNL     1     178.047 206.721  84.717  1.00  0.00     0.147 A 
ATOM      5  C   UNL     1     177.704 208.090  84.820  1.00  0.00     0.066 A 
ATOM      6  C   UNL     1     176.975 208.686  83.774  1.00  0.00     0.200 A 
ATOM      7  O   UNL     1     176.661 209.908  83.832  1.00  0.00    -0.288 OA
ATOM      8  C   UNL     1     178.087 208.815  85.955  1.00  0.00     0.020 A 
ATOM      9  C   UNL     1     178.816 208.197  86.963  1.00  0.00     0.047 A 
ATOM     10  C   UNL     1     179.155 206.841  86.885  1.00  0.00     0.125 A 
ATOM     11  C   UNL     1     178.725 206.059  85.775  1.00  0.00     0.069 A 
ENDROOT
BRANCH   1  12
ATOM     12  C   UNL     1     175.824 208.486  81.534  1.00  0.00    -0.011 A 
ATOM     13  C   UNL     1     174.421 208.425  81.555  1.00  0.00     0.013 A 
ATOM     14  C   UNL     1     173.676 208.960  80.499  1.00  0.00     0.047 A 
ATOM     15  C   UNL     1     174.322 209.561  79.415  1.00  0.00     0.115 A 
ATOM     16  C   UNL     1     176.468 209.100  80.445  1.00  0.00     0.013 A 
ATOM     17  C   UNL     1     175.721 209.629  79.389  1.00  0.00     0.047 A 
BRANCH  15  18
ATOM     18  O   UNL     1     173.568 210.092  78.371  1.00  0.00    -0.508 OA
ATOM     19  H   UNL     1     173.537 211.089  78.198  1.00  0.00     0.293 HD
ENDBRANCH  15  18
ENDBRANCH   1  12
BRANCH  11  20
ATOM     20  C   UNL     1     178.967 204.542  85.611  1.00  0.00     0.188 C 
ATOM     21  C   UNL     1     180.205 203.874  86.266  1.00  0.00     0.179 C 
ATOM     22  O   UNL     1     177.782 203.784  85.862  1.00  0.00    -0.362 OA
ATOM     23  C   UNL     1     179.980 203.707  87.773  1.00  0.00     0.177 C 
ATOM     24  C   UNL     1     177.503 203.529  87.240  1.00  0.00     0.176 C 
ATOM     25  C   UNL     1     178.694 202.898  88.001  1.00  0.00     0.177 C 
BRANCH  21  26
ATOM     26  O   UNL     1     180.407 202.605  85.696  1.00  0.00    -0.387 OA
ATOM     27  H   UNL     1     180.298 201.934  86.417  1.00  0.00     0.211 HD
ENDBRANCH  21  26
BRANCH  23  28
ATOM     28  O   UNL     1     181.087 203.047  88.334  1.00  0.00    -0.387 OA
ATOM     29  H   UNL     1     180.730 202.374  88.970  1.00  0.00     0.211 HD
ENDBRANCH  23  28
BRANCH  24  30
ATOM     30  C   UNL     1     176.870 204.742  87.957  1.00  0.00     0.191 C 
BRANCH  30  31
ATOM     31  O   UNL     1     176.059 204.323  89.020  1.00  0.00    -0.394 OA
ATOM     32  H   UNL     1     175.258 204.912  89.020  1.00  0.00     0.210 HD
ENDBRANCH  30  31
ENDBRANCH  24  30
BRANCH  25  33
ATOM     33  O   UNL     1     178.393 202.811  89.372  1.00  0.00    -0.388 OA
ATOM     34  H   UNL     1     179.247 202.658  89.851  1.00  0.00     0.211 HD
ENDBRANCH  25  33
ENDBRANCH  11  20
BRANCH  10  35
ATOM     35  O   UNL     1     179.929 206.306  87.911  1.00  0.00    -0.507 OA
ATOM     36  H   UNL     1     180.806 206.725  88.197  1.00  0.00     0.293 HD
ENDBRANCH  10  35
TORSDOF 9
ENDMDL
MODEL 6
REMARK VINA RESULT:    -6.035      2.996      4.257
REMARK INTER + INTRA:          -7.787
REMARK INTER:                  -8.031
REMARK INTRA:                   0.243
REMARK UNBOUND:                 0.365
REMARK SMILES O=c1c(-c2ccc(O)cc2)coc2c([C@@H]3O[C@H](CO)[C@H](O)[C@@H](O)[C@H]3O)c(O)ccc12
REMARK SMILES IDX 3 1 11 2 12 3 13 4 30 5 2 6 1 7 29 8 28 9 26 10 14 11 4 12
REMARK SMILES IDX 5 13 6 14 7 15 10 16 9 17 8 18 15 20 24 21 16 22 22 23 17 24
REMARK SMILES IDX 20 25 25 26 23 28 18 30 19 31 21 33 27 35
REMARK H PARENT 8 19 25 27 23 29 19 32 21 34 27 36
REMARK Flexibility Score: inf
ROOT
ATOM      1  C   UNL     1     178.780 199.834  84.208  1.00  0.00     0.065 A 
ATOM      2  C   UNL     1     179.624 200.951  84.290  1.00  0.00     0.208 A 
ATOM      3  O   UNL     1     179.238 202.052  84.927  1.00  0.00    -0.463 OA
ATOM      4  C   UNL     1     178.052 202.177  85.518  1.00  0.00     0.147 A 
ATOM      5  C   UNL     1     177.124 201.112  85.445  1.00  0.00     0.066 A 
ATOM      6  C   UNL     1     177.502 199.929  84.784  1.00  0.00     0.200 A 
ATOM      7  O   UNL     1     176.694 198.962  84.695  1.00  0.00    -0.288 OA
ATOM      8  C   UNL     1     175.862 201.253  86.034  1.00  0.00     0.020 A 
ATOM      9  C   UNL     1     175.518 202.440  86.668  1.00  0.00     0.047 A 
ATOM     10  C   UNL     1     176.425 203.502  86.761  1.00  0.00     0.125 A 
ATOM     11  C   UNL     1     177.740 203.367  86.229  1.00  0.00     0.069 A 
ENDROOT
BRANCH   1  12
ATOM     12  C   UNL     1     179.242 198.602  83.521  1.00  0.00    -0.011 A 
ATOM     13  C   UNL     1     179.380 198.581  82.124  1.00  0.00     0.013 A 
ATOM     14  C   UNL     1     179.813 197.420  81.475  1.00  0.00     0.047 A 
ATOM     15  C   UNL     1     180.114 196.271  82.212  1.00  0.00     0.115 A 
ATOM     16  C   UNL     1     179.555 197.446  84.258  1.00  0.00     0.013 A 
ATOM     17  C   UNL     1     179.982 196.286  83.607  1.00  0.00     0.047 A 
BRANCH  15  18
ATOM     18  O   UNL     1     180.546 195.124  81.554  1.00  0.00    -0.508 OA
ATOM     19  H   UNL     1     181.363 195.136  80.955  1.00  0.00     0.293 HD
ENDBRANCH  15  18
ENDBRANCH   1  12
BRANCH  11  20
ATOM     20  C   UNL     1     178.855 204.431  86.336  1.00  0.00     0.188 C 
ATOM     21  C   UNL     1     178.641 205.699  87.205  1.00  0.00     0.179 C 
ATOM     22  O   UNL     1     180.131 203.842  86.593  1.00  0.00    -0.362 OA
ATOM     23  C   UNL     1     178.786 205.353  88.691  1.00  0.00     0.177 C 
ATOM     24  C   UNL     1     180.389 203.522  87.962  1.00  0.00     0.176 C 
ATOM     25  C   UNL     1     180.164 204.714  88.924  1.00  0.00     0.177 C 
BRANCH  21  26
ATOM     26  O   UNL     1     179.608 206.664  86.868  1.00  0.00    -0.387 OA
ATOM     27  H   UNL     1     179.209 207.556  87.035  1.00  0.00     0.211 HD
ENDBRANCH  21  26
BRANCH  23  28
ATOM     28  O   UNL     1     178.649 206.527  89.452  1.00  0.00    -0.387 OA
ATOM     29  H   UNL     1     177.699 206.807  89.382  1.00  0.00     0.211 HD
ENDBRANCH  23  28
BRANCH  24  30
ATOM     30  C   UNL     1     179.702 202.214  88.411  1.00  0.00     0.191 C 
BRANCH  30  31
ATOM     31  O   UNL     1     180.365 201.098  87.882  1.00  0.00    -0.394 OA
ATOM     32  H   UNL     1     179.878 200.294  88.204  1.00  0.00     0.210 HD
ENDBRANCH  30  31
ENDBRANCH  24  30
BRANCH  25  33
ATOM     33  O   UNL     1     180.298 204.285  90.257  1.00  0.00    -0.388 OA
ATOM     34  H   UNL     1     179.959 203.355  90.301  1.00  0.00     0.211 HD
ENDBRANCH  25  33
ENDBRANCH  11  20
BRANCH  10  35
ATOM     35  O   UNL     1     175.991 204.676  87.369  1.00  0.00    -0.507 OA
ATOM     36  H   UNL     1     175.945 204.774  88.376  1.00  0.00     0.293 HD
ENDBRANCH  10  35
TORSDOF 9
ENDMDL
MODEL 7
REMARK VINA RESULT:    -6.002      1.623      2.887
REMARK INTER + INTRA:          -7.743
REMARK INTER:                  -8.177
REMARK INTRA:                   0.434
REMARK UNBOUND:                 0.365
REMARK SMILES O=c1c(-c2ccc(O)cc2)coc2c([C@@H]3O[C@H](CO)[C@H](O)[C@@H](O)[C@H]3O)c(O)ccc12
REMARK SMILES IDX 3 1 11 2 12 3 13 4 30 5 2 6 1 7 29 8 28 9 26 10 14 11 4 12
REMARK SMILES IDX 5 13 6 14 7 15 10 16 9 17 8 18 15 20 24 21 16 22 22 23 17 24
REMARK SMILES IDX 20 25 25 26 23 28 18 30 19 31 21 33 27 35
REMARK H PARENT 8 19 25 27 23 29 19 32 21 34 27 36
REMARK Flexibility Score: inf
ROOT
ATOM      1  C   UNL     1     178.078 200.723  82.543  1.00  0.00     0.065 A 
ATOM      2  C   UNL     1     179.206 201.130  83.268  1.00  0.00     0.208 A 
ATOM      3  O   UNL     1     179.223 201.068  84.595  1.00  0.00    -0.463 OA
ATOM      4  C   UNL     1     178.195 200.630  85.320  1.00  0.00     0.147 A 
ATOM      5  C   UNL     1     177.002 200.241  84.668  1.00  0.00     0.066 A 
ATOM      6  C   UNL     1     176.952 200.286  83.263  1.00  0.00     0.200 A 
ATOM      7  O   UNL     1     175.899 199.953  82.651  1.00  0.00    -0.288 OA
ATOM      8  C   UNL     1     175.907 199.813  85.429  1.00  0.00     0.020 A 
ATOM      9  C   UNL     1     175.987 199.792  86.815  1.00  0.00     0.047 A 
ATOM     10  C   UNL     1     177.163 200.162  87.479  1.00  0.00     0.125 A 
ATOM     11  C   UNL     1     178.317 200.540  86.732  1.00  0.00     0.069 A 
ENDROOT
BRANCH   1  12
ATOM     12  C   UNL     1     178.090 200.768  81.059  1.00  0.00    -0.011 A 
ATOM     13  C   UNL     1     178.515 199.651  80.321  1.00  0.00     0.013 A 
ATOM     14  C   UNL     1     178.528 199.693  78.923  1.00  0.00     0.047 A 
ATOM     15  C   UNL     1     178.118 200.847  78.249  1.00  0.00     0.115 A 
ATOM     16  C   UNL     1     177.670 201.923  80.375  1.00  0.00     0.013 A 
ATOM     17  C   UNL     1     177.690 201.964  78.979  1.00  0.00     0.047 A 
BRANCH  15  18
ATOM     18  O   UNL     1     178.135 200.874  76.857  1.00  0.00    -0.508 OA
ATOM     19  H   UNL     1     178.869 201.351  76.348  1.00  0.00     0.293 HD
ENDBRANCH  15  18
ENDBRANCH   1  12
BRANCH  11  20
ATOM     20  C   UNL     1     179.691 200.894  87.342  1.00  0.00     0.188 C 
ATOM     21  C   UNL     1     180.767 201.606  86.478  1.00  0.00     0.179 C 
ATOM     22  O   UNL     1     179.562 201.520  88.619  1.00  0.00    -0.362 OA
ATOM     23  C   UNL     1     180.419 203.090  86.319  1.00  0.00     0.177 C 
ATOM     24  C   UNL     1     179.284 202.921  88.585  1.00  0.00     0.176 C 
ATOM     25  C   UNL     1     180.279 203.724  87.712  1.00  0.00     0.177 C 
BRANCH  21  26
ATOM     26  O   UNL     1     182.018 201.499  87.111  1.00  0.00    -0.387 OA
ATOM     27  H   UNL     1     182.703 201.824  86.472  1.00  0.00     0.211 HD
ENDBRANCH  21  26
BRANCH  23  28
ATOM     28  O   UNL     1     181.438 203.725  85.586  1.00  0.00    -0.387 OA
ATOM     29  H   UNL     1     182.206 203.842  86.203  1.00  0.00     0.211 HD
ENDBRANCH  23  28
BRANCH  24  30
ATOM     30  C   UNL     1     177.799 203.230  88.292  1.00  0.00     0.191 C 
BRANCH  30  31
ATOM     31  O   UNL     1     177.003 202.948  89.410  1.00  0.00    -0.394 OA
ATOM     32  H   UNL     1     177.079 203.730  90.020  1.00  0.00     0.210 HD
ENDBRANCH  30  31
ENDBRANCH  24  30
BRANCH  25  33
ATOM     33  O   UNL     1     179.858 205.062  87.613  1.00  0.00    -0.388 OA
ATOM     34  H   UNL     1     180.151 205.398  86.729  1.00  0.00     0.211 HD
ENDBRANCH  25  33
ENDBRANCH  11  20
BRANCH  10  35
ATOM     35  O   UNL     1     177.150 200.161  88.870  1.00  0.00    -0.507 OA
ATOM     36  H   UNL     1     178.001 200.236  89.415  1.00  0.00     0.293 HD
ENDBRANCH  10  35
TORSDOF 9
ENDMDL
MODEL 8
REMARK VINA RESULT:    -5.984     11.037     14.766
REMARK INTER + INTRA:          -7.719
REMARK INTER:                  -7.902
REMARK INTRA:                   0.183
REMARK UNBOUND:                 0.365
REMARK SMILES O=c1c(-c2ccc(O)cc2)coc2c([C@@H]3O[C@H](CO)[C@H](O)[C@@H](O)[C@H]3O)c(O)ccc12
REMARK SMILES IDX 3 1 11 2 12 3 13 4 30 5 2 6 1 7 29 8 28 9 26 10 14 11 4 12
REMARK SMILES IDX 5 13 6 14 7 15 10 16 9 17 8 18 15 20 24 21 16 22 22 23 17 24
REMARK SMILES IDX 20 25 25 26 23 28 18 30 19 31 21 33 27 35
REMARK H PARENT 8 19 25 27 23 29 19 32 21 34 27 36
REMARK Flexibility Score: inf
ROOT
ATOM      1  C   UNL     1     185.286 194.086  94.268  1.00  0.00     0.065 A 
ATOM      2  C   UNL     1     184.363 194.172  95.320  1.00  0.00     0.208 A 
ATOM      3  O   UNL     1     183.056 194.191  95.080  1.00  0.00    -0.463 OA
ATOM      4  C   UNL     1     182.535 194.135  93.856  1.00  0.00     0.147 A 
ATOM      5  C   UNL     1     183.398 194.091  92.737  1.00  0.00     0.066 A 
ATOM      6  C   UNL     1     184.788 194.061  92.954  1.00  0.00     0.200 A 
ATOM      7  O   UNL     1     185.586 194.029  91.976  1.00  0.00    -0.288 OA
ATOM      8  C   UNL     1     182.856 194.068  91.446  1.00  0.00     0.020 A 
ATOM      9  C   UNL     1     181.479 194.110  91.268  1.00  0.00     0.047 A 
ATOM     10  C   UNL     1     180.608 194.143  92.363  1.00  0.00     0.125 A 
ATOM     11  C   UNL     1     181.125 194.101  93.690  1.00  0.00     0.069 A 
ENDROOT
BRANCH   1  12
ATOM     12  C   UNL     1     186.740 194.032  94.557  1.00  0.00    -0.011 A 
ATOM     13  C   UNL     1     187.551 195.154  94.322  1.00  0.00     0.013 A 
ATOM     14  C   UNL     1     188.922 195.105  94.593  1.00  0.00     0.047 A 
ATOM     15  C   UNL     1     189.497 193.936  95.101  1.00  0.00     0.115 A 
ATOM     16  C   UNL     1     187.324 192.862  95.078  1.00  0.00     0.013 A 
ATOM     17  C   UNL     1     188.695 192.813  95.342  1.00  0.00     0.047 A 
BRANCH  15  18
ATOM     18  O   UNL     1     190.863 193.901  95.369  1.00  0.00    -0.508 OA
ATOM     19  H   UNL     1     191.428 193.096  95.125  1.00  0.00     0.293 HD
ENDBRANCH  15  18
ENDBRANCH   1  12
BRANCH  11  20
ATOM     20  C   UNL     1     180.269 194.054  94.976  1.00  0.00     0.188 C 
ATOM     21  C   UNL     1     178.726 193.917  94.880  1.00  0.00     0.179 C 
ATOM     22  O   UNL     1     180.807 193.147  95.940  1.00  0.00    -0.362 OA
ATOM     23  C   UNL     1     178.344 192.474  94.535  1.00  0.00     0.177 C 
ATOM     24  C   UNL     1     180.469 191.773  95.737  1.00  0.00     0.176 C 
ATOM     25  C   UNL     1     178.947 191.530  95.587  1.00  0.00     0.177 C 
BRANCH  21  26
ATOM     26  O   UNL     1     178.151 194.254  96.119  1.00  0.00    -0.387 OA
ATOM     27  H   UNL     1     178.560 193.669  96.806  1.00  0.00     0.211 HD
ENDBRANCH  21  26
BRANCH  23  28
ATOM     28  O   UNL     1     176.942 192.361  94.515  1.00  0.00    -0.387 OA
ATOM     29  H   UNL     1     176.660 192.453  93.567  1.00  0.00     0.211 HD
ENDBRANCH  23  28
BRANCH  24  30
ATOM     30  C   UNL     1     181.324 191.102  94.640  1.00  0.00     0.191 C 
BRANCH  30  31
ATOM     31  O   UNL     1     182.672 191.057  95.020  1.00  0.00    -0.394 OA
ATOM     32  H   UNL     1     182.827 191.832  95.623  1.00  0.00     0.210 HD
ENDBRANCH  30  31
ENDBRANCH  24  30
BRANCH  25  33
ATOM     33  O   UNL     1     178.709 190.186  95.250  1.00  0.00    -0.388 OA
ATOM     34  H   UNL     1     177.776 190.127  94.921  1.00  0.00     0.211 HD
ENDBRANCH  25  33
ENDBRANCH  11  20
BRANCH  10  35
ATOM     35  O   UNL     1     179.243 194.233  92.104  1.00  0.00    -0.507 OA
ATOM     36  H   UNL     1     178.606 193.473  92.310  1.00  0.00     0.293 HD
ENDBRANCH  10  35
TORSDOF 9
ENDMDL
MODEL 9
REMARK VINA RESULT:    -5.885      3.382      4.836
REMARK INTER + INTRA:          -7.585
REMARK INTER:                  -7.960
REMARK INTRA:                   0.374
REMARK UNBOUND:                 0.365
REMARK SMILES O=c1c(-c2ccc(O)cc2)coc2c([C@@H]3O[C@H](CO)[C@H](O)[C@@H](O)[C@H]3O)c(O)ccc12
REMARK SMILES IDX 3 1 11 2 12 3 13 4 30 5 2 6 1 7 29 8 28 9 26 10 14 11 4 12
REMARK SMILES IDX 5 13 6 14 7 15 10 16 9 17 8 18 15 20 24 21 16 22 22 23 17 24
REMARK SMILES IDX 20 25 25 26 23 28 18 30 19 31 21 33 27 35
REMARK H PARENT 8 19 25 27 23 29 19 32 21 34 27 36
REMARK Flexibility Score: inf
ROOT
ATOM      1  C   UNL     1     178.997 198.239  85.241  1.00  0.00     0.065 A 
ATOM      2  C   UNL     1     179.576 199.479  84.939  1.00  0.00     0.208 A 
ATOM      3  O   UNL     1     179.651 200.438  85.856  1.00  0.00    -0.463 OA
ATOM      4  C   UNL     1     179.192 200.299  87.099  1.00  0.00     0.147 A 
ATOM      5  C   UNL     1     178.555 199.093  87.472  1.00  0.00     0.066 A 
ATOM      6  C   UNL     1     178.464 198.054  86.528  1.00  0.00     0.200 A 
ATOM      7  O   UNL     1     177.894 196.968  86.827  1.00  0.00    -0.288 OA
ATOM      8  C   UNL     1     178.039 198.956  88.767  1.00  0.00     0.020 A 
ATOM      9  C   UNL     1     178.136 200.007  89.670  1.00  0.00     0.047 A 
ATOM     10  C   UNL     1     178.773 201.205  89.323  1.00  0.00     0.125 A 
ATOM     11  C   UNL     1     179.366 201.352  88.036  1.00  0.00     0.069 A 
ENDROOT
BRANCH   1  12
ATOM     12  C   UNL     1     178.951 197.169  84.212  1.00  0.00    -0.011 A 
ATOM     13  C   UNL     1     177.871 197.093  83.318  1.00  0.00     0.013 A 
ATOM     14  C   UNL     1     177.827 196.085  82.349  1.00  0.00     0.047 A 
ATOM     15  C   UNL     1     178.858 195.145  82.264  1.00  0.00     0.115 A 
ATOM     16  C   UNL     1     179.990 196.226  84.115  1.00  0.00     0.013 A 
ATOM     17  C   UNL     1     179.940 195.216  83.150  1.00  0.00     0.047 A 
BRANCH  15  18
ATOM     18  O   UNL     1     178.802 194.148  81.293  1.00  0.00    -0.508 OA
ATOM     19  H   UNL     1     177.976 194.014  80.722  1.00  0.00     0.293 HD
ENDBRANCH  15  18
ENDBRANCH   1  12
BRANCH  11  20
ATOM     20  C   UNL     1     180.162 202.589  87.561  1.00  0.00     0.188 C 
ATOM     21  C   UNL     1     180.499 202.768  86.057  1.00  0.00     0.179 C 
ATOM     22  O   UNL     1     179.647 203.799  88.120  1.00  0.00    -0.362 OA
ATOM     23  C   UNL     1     179.257 203.232  85.288  1.00  0.00     0.177 C 
ATOM     24  C   UNL     1     178.511 204.346  87.446  1.00  0.00     0.176 C 
ATOM     25  C   UNL     1     178.729 204.528  85.924  1.00  0.00     0.177 C 
BRANCH  21  26
ATOM     26  O   UNL     1     181.507 203.739  85.918  1.00  0.00    -0.387 OA
ATOM     27  H   UNL     1     181.323 204.241  85.083  1.00  0.00     0.211 HD
ENDBRANCH  21  26
BRANCH  23  28
ATOM     28  O   UNL     1     179.603 203.446  83.942  1.00  0.00    -0.387 OA
ATOM     29  H   UNL     1     178.825 203.886  83.511  1.00  0.00     0.211 HD
ENDBRANCH  23  28
BRANCH  24  30
ATOM     30  C   UNL     1     177.195 203.626  87.811  1.00  0.00     0.191 C 
BRANCH  30  31
ATOM     31  O   UNL     1     176.690 204.101  89.029  1.00  0.00    -0.394 OA
ATOM     32  H   UNL     1     176.773 205.091  89.008  1.00  0.00     0.210 HD
ENDBRANCH  30  31
ENDBRANCH  24  30
BRANCH  25  33
ATOM     33  O   UNL     1     177.528 204.932  85.314  1.00  0.00    -0.388 OA
ATOM     34  H   UNL     1     176.901 205.182  86.038  1.00  0.00     0.211 HD
ENDBRANCH  25  33
ENDBRANCH  11  20
BRANCH  10  35
ATOM     35  O   UNL     1     178.787 202.228  90.266  1.00  0.00    -0.507 OA
ATOM     36  H   UNL     1     179.623 202.466  90.788  1.00  0.00     0.293 HD
ENDBRANCH  10  35
TORSDOF 9
ENDMDL
