MODEL 1
REMARK VINA RESULT:    -2.724      0.000      0.000
REMARK INTER + INTRA:          -2.724
REMARK INTER:                  -2.724
REMARK INTRA:                   0.000
REMARK UNBOUND:                 0.000
REMARK SMILES CC(C)=C1CC[C@@H](C)CC1=O
REMARK SMILES IDX 8 1 7 2 6 3 5 4 4 5 2 6 1 7 3 8 10 9 11 10 9 11
REMARK H PARENT
REMARK Flexibility Score: inf
ROOT
ATOM      1  C   UNL     1     119.982  88.766  57.565  1.00  0.00     0.008 C 
ATOM      2  C   UNL     1     120.703  87.457  57.225  1.00  0.00    -0.006 C 
ATOM      3  C   UNL     1     120.970  86.640  58.500  1.00  0.00     0.008 C 
ATOM      4  C   UNL     1     121.600  85.280  58.168  1.00  0.00     0.039 C 
ATOM      5  C   UNL     1     122.834  85.408  57.285  1.00  0.00    -0.006 C 
ATOM      6  C   UNL     1     123.870  84.523  57.381  1.00  0.00    -0.070 C 
ATOM      7  C   UNL     1     125.124  84.673  56.551  1.00  0.00     0.039 C 
ATOM      8  C   UNL     1     123.827  83.369  58.356  1.00  0.00     0.039 C 
ATOM      9  C   UNL     1     122.788  86.477  56.244  1.00  0.00     0.159 C 
ATOM     10  O   UNL     1     123.374  86.339  55.136  1.00  0.00    -0.295 OA
ATOM     11  C   UNL     1     122.026  87.745  56.499  1.00  0.00     0.084 C 
ENDROOT
TORSDOF 0
ENDMDL
MODEL 2
REMARK VINA RESULT:    -2.695      1.550      4.177
REMARK INTER + INTRA:          -2.695
REMARK INTER:                  -2.695
REMARK INTRA:                   0.000
REMARK UNBOUND:                 0.000
REMARK SMILES CC(C)=C1CC[C@@H](C)CC1=O
REMARK SMILES IDX 8 1 7 2 6 3 5 4 4 5 2 6 1 7 3 8 10 9 11 10 9 11
REMARK H PARENT
REMARK Flexibility Score: inf
ROOT
ATOM      1  C   UNL     1     124.430  84.861  55.033  1.00  0.00     0.008 C 
ATOM      2  C   UNL     1     123.733  85.887  55.935  1.00  0.00    -0.006 C 
ATOM      3  C   UNL     1     122.790  85.184  56.924  1.00  0.00     0.008 C 
ATOM      4  C   UNL     1     122.162  86.186  57.902  1.00  0.00     0.039 C 
ATOM      5  C   UNL     1     121.498  87.358  57.192  1.00  0.00    -0.006 C 
ATOM      6  C   UNL     1     120.399  87.977  57.717  1.00  0.00    -0.070 C 
ATOM      7  C   UNL     1     119.698  89.103  56.993  1.00  0.00     0.039 C 
ATOM      8  C   UNL     1     119.807  87.535  59.036  1.00  0.00     0.039 C 
ATOM      9  C   UNL     1     122.185  87.854  55.962  1.00  0.00     0.159 C 
ATOM     10  O   UNL     1     122.146  89.071  55.635  1.00  0.00    -0.295 OA
ATOM     11  C   UNL     1     122.948  86.900  55.089  1.00  0.00     0.084 C 
ENDROOT
TORSDOF 0
ENDMDL
MODEL 3
REMARK VINA RESULT:    -2.684      1.483      1.978
REMARK INTER + INTRA:          -2.684
REMARK INTER:                  -2.684
REMARK INTRA:                   0.000
REMARK UNBOUND:                 0.000
REMARK SMILES CC(C)=C1CC[C@@H](C)CC1=O
REMARK SMILES IDX 8 1 7 2 6 3 5 4 4 5 2 6 1 7 3 8 10 9 11 10 9 11
REMARK H PARENT
REMARK Flexibility Score: inf
ROOT
ATOM      1  C   UNL     1     119.683  88.548  57.712  1.00  0.00     0.008 C 
ATOM      2  C   UNL     1     120.610  87.662  56.873  1.00  0.00    -0.006 C 
ATOM      3  C   UNL     1     121.569  86.872  57.778  1.00  0.00     0.008 C 
ATOM      4  C   UNL     1     122.436  85.904  56.961  1.00  0.00     0.039 C 
ATOM      5  C   UNL     1     123.153  86.593  55.808  1.00  0.00    -0.006 C 
ATOM      6  C   UNL     1     124.378  86.168  55.378  1.00  0.00    -0.070 C 
ATOM      7  C   UNL     1     125.125  86.879  54.274  1.00  0.00     0.039 C 
ATOM      8  C   UNL     1     125.066  84.984  56.019  1.00  0.00     0.039 C 
ATOM      9  C   UNL     1     122.391  87.673  55.112  1.00  0.00     0.159 C 
ATOM     10  O   UNL     1     122.546  87.895  53.881  1.00  0.00    -0.295 OA
ATOM     11  C   UNL     1     121.411  88.514  55.877  1.00  0.00     0.084 C 
ENDROOT
TORSDOF 0
ENDMDL
MODEL 4
REMARK VINA RESULT:    -2.653      1.591      4.621
REMARK INTER + INTRA:          -2.653
REMARK INTER:                  -2.653
REMARK INTRA:                   0.000
REMARK UNBOUND:                 0.000
REMARK SMILES CC(C)=C1CC[C@@H](C)CC1=O
REMARK SMILES IDX 8 1 7 2 6 3 5 4 4 5 2 6 1 7 3 8 10 9 11 10 9 11
REMARK H PARENT
REMARK Flexibility Score: inf
ROOT
ATOM      1  C   UNL     1     125.125  83.414  57.468  1.00  0.00     0.008 C 
ATOM      2  C   UNL     1     123.933  84.271  57.028  1.00  0.00    -0.006 C 
ATOM      3  C   UNL     1     124.408  85.474  56.197  1.00  0.00     0.008 C 
ATOM      4  C   UNL     1     123.221  86.286  55.663  1.00  0.00     0.039 C 
ATOM      5  C   UNL     1     122.243  86.683  56.761  1.00  0.00    -0.006 C 
ATOM      6  C   UNL     1     121.535  87.849  56.693  1.00  0.00    -0.070 C 
ATOM      7  C   UNL     1     120.605  88.281  57.803  1.00  0.00     0.039 C 
ATOM      8  C   UNL     1     121.679  88.787  55.516  1.00  0.00     0.039 C 
ATOM      9  C   UNL     1     122.025  85.676  57.841  1.00  0.00     0.159 C 
ATOM     10  O   UNL     1     120.911  85.568  58.422  1.00  0.00    -0.295 OA
ATOM     11  C   UNL     1     123.140  84.759  58.251  1.00  0.00     0.084 C 
ENDROOT
TORSDOF 0
ENDMDL
MODEL 5
REMARK VINA RESULT:    -2.619      1.613      2.680
REMARK INTER + INTRA:          -2.619
REMARK INTER:                  -2.619
REMARK INTRA:                   0.000
REMARK UNBOUND:                 0.000
REMARK SMILES CC(C)=C1CC[C@@H](C)CC1=O
REMARK SMILES IDX 8 1 7 2 6 3 5 4 4 5 2 6 1 7 3 8 10 9 11 10 9 11
REMARK H PARENT
REMARK Flexibility Score: inf
ROOT
ATOM      1  C   UNL     1     119.162  87.591  58.985  1.00  0.00     0.008 C 
ATOM      2  C   UNL     1     120.584  87.423  58.438  1.00  0.00    -0.006 C 
ATOM      3  C   UNL     1     120.683  87.980  57.009  1.00  0.00     0.008 C 
ATOM      4  C   UNL     1     122.123  87.913  56.483  1.00  0.00     0.039 C 
ATOM      5  C   UNL     1     122.728  86.521  56.612  1.00  0.00    -0.006 C 
ATOM      6  C   UNL     1     123.644  86.059  55.710  1.00  0.00    -0.070 C 
ATOM      7  C   UNL     1     124.207  84.659  55.794  1.00  0.00     0.039 C 
ATOM      8  C   UNL     1     124.109  86.917  54.556  1.00  0.00     0.039 C 
ATOM      9  C   UNL     1     122.348  85.751  57.834  1.00  0.00     0.159 C 
ATOM     10  O   UNL     1     123.149  84.939  58.371  1.00  0.00    -0.295 OA
ATOM     11  C   UNL     1     120.995  85.942  58.453  1.00  0.00     0.084 C 
ENDROOT
TORSDOF 0
ENDMDL
MODEL 6
REMARK VINA RESULT:    -2.535      9.901     12.458
REMARK INTER + INTRA:          -2.535
REMARK INTER:                  -2.535
REMARK INTRA:                   0.000
REMARK UNBOUND:                 0.000
REMARK SMILES CC(C)=C1CC[C@@H](C)CC1=O
REMARK SMILES IDX 8 1 7 2 6 3 5 4 4 5 2 6 1 7 3 8 10 9 11 10 9 11
REMARK H PARENT
REMARK Flexibility Score: inf
ROOT
ATOM      1  C   UNL     1     114.248  88.861  58.322  1.00  0.00     0.008 C 
ATOM      2  C   UNL     1     113.009  88.103  57.834  1.00  0.00    -0.006 C 
ATOM      3  C   UNL     1     112.095  89.029  57.016  1.00  0.00     0.008 C 
ATOM      4  C   UNL     1     110.901  88.262  56.434  1.00  0.00     0.039 C 
ATOM      5  C   UNL     1     110.140  87.475  57.493  1.00  0.00    -0.006 C 
ATOM      6  C   UNL     1     108.793  87.269  57.394  1.00  0.00    -0.070 C 
ATOM      7  C   UNL     1     108.018  86.539  58.466  1.00  0.00     0.039 C 
ATOM      8  C   UNL     1     108.004  87.800  56.219  1.00  0.00     0.039 C 
ATOM      9  C   UNL     1     110.968  86.852  58.569  1.00  0.00     0.159 C 
ATOM     10  O   UNL     1     110.631  85.764  59.107  1.00  0.00    -0.295 OA
ATOM     11  C   UNL     1     112.234  87.518  59.024  1.00  0.00     0.084 C 
ENDROOT
TORSDOF 0
ENDMDL
MODEL 7
REMARK VINA RESULT:    -2.497     12.853     14.801
REMARK INTER + INTRA:          -2.497
REMARK INTER:                  -2.497
REMARK INTRA:                   0.000
REMARK UNBOUND:                 0.000
REMARK SMILES CC(C)=C1CC[C@@H](C)CC1=O
REMARK SMILES IDX 8 1 7 2 6 3 5 4 4 5 2 6 1 7 3 8 10 9 11 10 9 11
REMARK H PARENT
REMARK Flexibility Score: inf
ROOT
ATOM      1  C   UNL     1     110.624  89.052  56.459  1.00  0.00     0.008 C 
ATOM      2  C   UNL     1     109.334  88.314  56.834  1.00  0.00    -0.006 C 
ATOM      3  C   UNL     1     109.597  87.306  57.965  1.00  0.00     0.008 C 
ATOM      4  C   UNL     1     108.297  86.631  58.423  1.00  0.00     0.039 C 
ATOM      5  C   UNL     1     107.516  86.022  57.266  1.00  0.00    -0.006 C 
ATOM      6  C   UNL     1     106.755  84.900  57.436  1.00  0.00    -0.070 C 
ATOM      7  C   UNL     1     106.022  84.254  56.284  1.00  0.00     0.039 C 
ATOM      8  C   UNL     1     106.643  84.227  58.785  1.00  0.00     0.039 C 
ATOM      9  C   UNL     1     107.543  86.785  55.983  1.00  0.00     0.159 C 
ATOM     10  O   UNL     1     106.558  86.778  55.196  1.00  0.00    -0.295 OA
ATOM     11  C   UNL     1     108.754  87.589  55.610  1.00  0.00     0.084 C 
ENDROOT
TORSDOF 0
ENDMDL
MODEL 8
REMARK VINA RESULT:    -2.442     11.655     13.773
REMARK INTER + INTRA:          -2.442
REMARK INTER:                  -2.442
REMARK INTRA:                   0.000
REMARK UNBOUND:                 0.000
REMARK SMILES CC(C)=C1CC[C@@H](C)CC1=O
REMARK SMILES IDX 8 1 7 2 6 3 5 4 4 5 2 6 1 7 3 8 10 9 11 10 9 11
REMARK H PARENT
REMARK Flexibility Score: inf
ROOT
ATOM      1  C   UNL     1     107.299  88.724  53.986  1.00  0.00     0.008 C 
ATOM      2  C   UNL     1     107.891  88.538  55.388  1.00  0.00    -0.006 C 
ATOM      3  C   UNL     1     109.418  88.714  55.358  1.00  0.00     0.008 C 
ATOM      4  C   UNL     1     110.016  88.631  56.769  1.00  0.00     0.039 C 
ATOM      5  C   UNL     1     109.586  87.374  57.513  1.00  0.00    -0.006 C 
ATOM      6  C   UNL     1     110.408  86.771  58.423  1.00  0.00    -0.070 C 
ATOM      7  C   UNL     1     110.015  85.492  59.125  1.00  0.00     0.039 C 
ATOM      8  C   UNL     1     111.773  87.338  58.741  1.00  0.00     0.039 C 
ATOM      9  C   UNL     1     108.184  86.918  57.275  1.00  0.00     0.159 C 
ATOM     10  O   UNL     1     107.521  86.340  58.178  1.00  0.00    -0.295 OA
ATOM     11  C   UNL     1     107.533  87.150  55.942  1.00  0.00     0.084 C 
ENDROOT
TORSDOF 0
ENDMDL
