MODEL 1
REMARK VINA RESULT:    -6.995      0.000      0.000
REMARK INTER + INTRA:          -8.437
REMARK INTER:                  -8.630
REMARK INTRA:                   0.193
REMARK UNBOUND:                 0.193
REMARK SMILES Oc1cc(O)c2cc(O)c(-c3cc(O)c(O)c(O)c3)[o+]c2c1
REMARK SMILES IDX 10 1 20 2 21 3 22 4 2 5 3 6 4 7 6 8 7 9 8 10 11 11 12 12
REMARK SMILES IDX 13 13 19 14 15 15 17 16 14 17 16 19 18 21 9 23 1 25 5 27
REMARK H PARENT 14 18 16 20 18 22 9 24 1 26 5 28
REMARK Flexibility Score: inf
ROOT
ATOM      1  C   UNL     1       2.342   4.342 -22.258  1.00  0.00     0.402 A 
ATOM      2  O   UNL     1       1.526   3.292 -22.203  1.00  0.00    -0.202 OA
ATOM      3  C   UNL     1       1.041   2.804 -21.067  1.00  0.00     0.368 A 
ATOM      4  C   UNL     1       0.192   1.695 -21.110  1.00  0.00     0.162 A 
ATOM      5  C   UNL     1      -0.331   1.159 -19.934  1.00  0.00     0.128 A 
ATOM      6  C   UNL     1      -0.003   1.735 -18.701  1.00  0.00     0.093 A 
ATOM      7  C   UNL     1       0.845   2.847 -18.630  1.00  0.00     0.136 A 
ATOM      8  C   UNL     1       1.376   3.397 -19.826  1.00  0.00     0.125 A 
ATOM      9  C   UNL     1       2.223   4.516 -19.851  1.00  0.00     0.078 A 
ATOM     10  C   UNL     1       2.703   5.004 -21.071  1.00  0.00     0.223 A 
ENDROOT
BRANCH   1  11
ATOM     11  C   UNL     1       2.824   4.785 -23.586  1.00  0.00     0.091 A 
ATOM     12  C   UNL     1       3.003   6.155 -23.833  1.00  0.00     0.068 A 
ATOM     13  C   UNL     1       3.438   6.604 -25.084  1.00  0.00     0.162 A 
ATOM     14  C   UNL     1       3.054   3.868 -24.625  1.00  0.00     0.068 A 
ATOM     15  C   UNL     1       3.688   5.681 -26.114  1.00  0.00     0.200 A 
ATOM     16  C   UNL     1       3.490   4.309 -25.882  1.00  0.00     0.162 A 
BRANCH  13  17
ATOM     17  O   UNL     1       3.618   7.972 -25.285  1.00  0.00    -0.504 OA
ATOM     18  H   UNL     1       4.513   8.424 -25.146  1.00  0.00     0.293 HD
ENDBRANCH  13  17
BRANCH  15  19
ATOM     19  O   UNL     1       4.125   6.136 -27.358  1.00  0.00    -0.502 OA
ATOM     20  H   UNL     1       4.985   6.661 -27.469  1.00  0.00     0.293 HD
ENDBRANCH  15  19
BRANCH  16  21
ATOM     21  O   UNL     1       3.721   3.388 -26.903  1.00  0.00    -0.504 OA
ATOM     22  H   UNL     1       4.016   2.439 -26.707  1.00  0.00     0.293 HD
ENDBRANCH  16  21
ENDBRANCH   1  11
BRANCH  10  23
ATOM     23  O   UNL     1       3.503   6.147 -21.100  1.00  0.00    -0.500 OA
ATOM     24  H   UNL     1       4.505   6.093 -21.245  1.00  0.00     0.294 HD
ENDBRANCH  10  23
BRANCH   5  25
ATOM     25  O   UNL     1      -1.175   0.052 -19.998  1.00  0.00    -0.507 OA
ATOM     26  H   UNL     1      -1.117  -0.615 -20.759  1.00  0.00     0.293 HD
ENDBRANCH   5  25
BRANCH   7  27
ATOM     27  O   UNL     1       1.126   3.362 -17.361  1.00  0.00    -0.507 OA
ATOM     28  H   UNL     1       1.881   4.002 -17.160  1.00  0.00     0.293 HD
ENDBRANCH   7  27
TORSDOF 7
ENDMDL
MODEL 2
REMARK VINA RESULT:    -6.983      0.132      1.799
REMARK INTER + INTRA:          -8.423
REMARK INTER:                  -8.593
REMARK INTRA:                   0.170
REMARK UNBOUND:                 0.193
REMARK SMILES Oc1cc(O)c2cc(O)c(-c3cc(O)c(O)c(O)c3)[o+]c2c1
REMARK SMILES IDX 10 1 20 2 21 3 22 4 2 5 3 6 4 7 6 8 7 9 8 10 11 11 12 12
REMARK SMILES IDX 13 13 19 14 15 15 17 16 14 17 16 19 18 21 9 23 1 25 5 27
REMARK H PARENT 14 18 16 20 18 22 9 24 1 26 5 28
REMARK Flexibility Score: inf
ROOT
ATOM      1  C   UNL     1       2.258   4.283 -22.240  1.00  0.00     0.402 A 
ATOM      2  O   UNL     1       1.438   3.235 -22.213  1.00  0.00    -0.202 OA
ATOM      3  C   UNL     1       0.965   2.708 -21.090  1.00  0.00     0.368 A 
ATOM      4  C   UNL     1       0.109   1.605 -21.163  1.00  0.00     0.162 A 
ATOM      5  C   UNL     1      -0.400   1.028 -20.000  1.00  0.00     0.128 A 
ATOM      6  C   UNL     1      -0.053   1.555 -18.751  1.00  0.00     0.093 A 
ATOM      7  C   UNL     1       0.802   2.660 -18.650  1.00  0.00     0.136 A 
ATOM      8  C   UNL     1       1.320   3.251 -19.832  1.00  0.00     0.125 A 
ATOM      9  C   UNL     1       2.172   4.367 -19.826  1.00  0.00     0.078 A 
ATOM     10  C   UNL     1       2.639   4.898 -21.034  1.00  0.00     0.223 A 
ENDROOT
BRANCH   1  11
ATOM     11  C   UNL     1       2.725   4.773 -23.556  1.00  0.00     0.091 A 
ATOM     12  C   UNL     1       2.989   3.852 -24.582  1.00  0.00     0.068 A 
ATOM     13  C   UNL     1       3.451   4.285 -25.829  1.00  0.00     0.162 A 
ATOM     14  C   UNL     1       2.965   6.139 -23.786  1.00  0.00     0.068 A 
ATOM     15  C   UNL     1       3.668   5.654 -26.061  1.00  0.00     0.200 A 
ATOM     16  C   UNL     1       3.428   6.582 -25.033  1.00  0.00     0.162 A 
BRANCH  13  17
ATOM     17  O   UNL     1       3.687   3.339 -26.826  1.00  0.00    -0.504 OA
ATOM     18  H   UNL     1       3.672   3.579 -27.810  1.00  0.00     0.293 HD
ENDBRANCH  13  17
BRANCH  15  19
ATOM     19  O   UNL     1       4.125   6.078 -27.309  1.00  0.00    -0.502 OA
ATOM     20  H   UNL     1       5.025   6.528 -27.431  1.00  0.00     0.293 HD
ENDBRANCH  15  19
BRANCH  16  21
ATOM     21  O   UNL     1       3.655   7.939 -25.251  1.00  0.00    -0.504 OA
ATOM     22  H   UNL     1       3.860   8.303 -26.174  1.00  0.00     0.293 HD
ENDBRANCH  16  21
ENDBRANCH   1  11
BRANCH  10  23
ATOM     23  O   UNL     1       3.445   6.036 -21.031  1.00  0.00    -0.500 OA
ATOM     24  H   UNL     1       4.092   6.233 -21.786  1.00  0.00     0.294 HD
ENDBRANCH  10  23
BRANCH   5  25
ATOM     25  O   UNL     1      -1.251  -0.071 -20.095  1.00  0.00    -0.507 OA
ATOM     26  H   UNL     1      -1.485  -0.632 -19.284  1.00  0.00     0.293 HD
ENDBRANCH   5  25
BRANCH   7  27
ATOM     27  O   UNL     1       1.103   3.125 -17.367  1.00  0.00    -0.507 OA
ATOM     28  H   UNL     1       0.515   3.748 -16.833  1.00  0.00     0.293 HD
ENDBRANCH   7  27
TORSDOF 7
ENDMDL
MODEL 3
REMARK VINA RESULT:    -6.840      1.157      2.675
REMARK INTER + INTRA:          -8.247
REMARK INTER:                  -8.491
REMARK INTRA:                   0.244
REMARK UNBOUND:                 0.193
REMARK SMILES Oc1cc(O)c2cc(O)c(-c3cc(O)c(O)c(O)c3)[o+]c2c1
REMARK SMILES IDX 10 1 20 2 21 3 22 4 2 5 3 6 4 7 6 8 7 9 8 10 11 11 12 12
REMARK SMILES IDX 13 13 19 14 15 15 17 16 14 17 16 19 18 21 9 23 1 25 5 27
REMARK H PARENT 14 18 16 20 18 22 9 24 1 26 5 28
REMARK Flexibility Score: inf
ROOT
ATOM      1  C   UNL     1       2.096   3.857 -22.818  1.00  0.00     0.402 A 
ATOM      2  O   UNL     1       2.395   4.501 -21.692  1.00  0.00    -0.202 OA
ATOM      3  C   UNL     1       1.955   4.125 -20.497  1.00  0.00     0.368 A 
ATOM      4  C   UNL     1       2.322   4.867 -19.371  1.00  0.00     0.162 A 
ATOM      5  C   UNL     1       1.872   4.497 -18.104  1.00  0.00     0.128 A 
ATOM      6  C   UNL     1       1.047   3.377 -17.958  1.00  0.00     0.093 A 
ATOM      7  C   UNL     1       0.664   2.616 -19.070  1.00  0.00     0.136 A 
ATOM      8  C   UNL     1       1.123   2.988 -20.360  1.00  0.00     0.125 A 
ATOM      9  C   UNL     1       0.800   2.277 -21.528  1.00  0.00     0.078 A 
ATOM     10  C   UNL     1       1.295   2.702 -22.765  1.00  0.00     0.223 A 
ENDROOT
BRANCH   1  11
ATOM     11  C   UNL     1       2.641   4.381 -24.090  1.00  0.00     0.091 A 
ATOM     12  C   UNL     1       2.885   5.757 -24.222  1.00  0.00     0.068 A 
ATOM     13  C   UNL     1       3.381   6.283 -25.419  1.00  0.00     0.162 A 
ATOM     14  C   UNL     1       2.867   3.539 -25.192  1.00  0.00     0.068 A 
ATOM     15  C   UNL     1       3.626   5.433 -26.512  1.00  0.00     0.200 A 
ATOM     16  C   UNL     1       3.363   4.057 -26.397  1.00  0.00     0.162 A 
BRANCH  13  17
ATOM     17  O   UNL     1       3.625   7.653 -25.505  1.00  0.00    -0.504 OA
ATOM     18  H   UNL     1       3.913   8.096 -26.369  1.00  0.00     0.293 HD
ENDBRANCH  13  17
BRANCH  15  19
ATOM     19  O   UNL     1       4.124   5.965 -27.701  1.00  0.00    -0.502 OA
ATOM     20  H   UNL     1       4.516   6.898 -27.754  1.00  0.00     0.293 HD
ENDBRANCH  15  19
BRANCH  16  21
ATOM     21  O   UNL     1       3.590   3.210 -27.480  1.00  0.00    -0.504 OA
ATOM     22  H   UNL     1       3.100   3.328 -28.359  1.00  0.00     0.293 HD
ENDBRANCH  16  21
ENDBRANCH   1  11
BRANCH  10  23
ATOM     23  O   UNL     1       1.016   1.969 -23.919  1.00  0.00    -0.500 OA
ATOM     24  H   UNL     1       1.365   2.251 -24.827  1.00  0.00     0.294 HD
ENDBRANCH  10  23
BRANCH   5  25
ATOM     25  O   UNL     1       2.250   5.251 -16.994  1.00  0.00    -0.507 OA
ATOM     26  H   UNL     1       1.785   6.120 -16.761  1.00  0.00     0.293 HD
ENDBRANCH   5  25
BRANCH   7  27
ATOM     27  O   UNL     1      -0.165   1.514 -18.841  1.00  0.00    -0.507 OA
ATOM     28  H   UNL     1      -0.067   0.879 -18.062  1.00  0.00     0.293 HD
ENDBRANCH   7  27
TORSDOF 7
ENDMDL
MODEL 4
REMARK VINA RESULT:    -6.757      1.170      3.224
REMARK INTER + INTRA:          -8.144
REMARK INTER:                  -8.446
REMARK INTRA:                   0.302
REMARK UNBOUND:                 0.193
REMARK SMILES Oc1cc(O)c2cc(O)c(-c3cc(O)c(O)c(O)c3)[o+]c2c1
REMARK SMILES IDX 10 1 20 2 21 3 22 4 2 5 3 6 4 7 6 8 7 9 8 10 11 11 12 12
REMARK SMILES IDX 13 13 19 14 15 15 17 16 14 17 16 19 18 21 9 23 1 25 5 27
REMARK H PARENT 14 18 16 20 18 22 9 24 1 26 5 28
REMARK Flexibility Score: inf
ROOT
ATOM      1  C   UNL     1       2.056   3.826 -22.815  1.00  0.00     0.402 A 
ATOM      2  O   UNL     1       2.357   4.475 -21.693  1.00  0.00    -0.202 OA
ATOM      3  C   UNL     1       1.937   4.092 -20.493  1.00  0.00     0.368 A 
ATOM      4  C   UNL     1       2.305   4.841 -19.372  1.00  0.00     0.162 A 
ATOM      5  C   UNL     1       1.876   4.465 -18.099  1.00  0.00     0.128 A 
ATOM      6  C   UNL     1       1.071   3.330 -17.943  1.00  0.00     0.093 A 
ATOM      7  C   UNL     1       0.689   2.562 -19.050  1.00  0.00     0.136 A 
ATOM      8  C   UNL     1       1.126   2.941 -20.346  1.00  0.00     0.125 A 
ATOM      9  C   UNL     1       0.802   2.225 -21.509  1.00  0.00     0.078 A 
ATOM     10  C   UNL     1       1.275   2.657 -22.753  1.00  0.00     0.223 A 
ENDROOT
BRANCH   1  11
ATOM     11  C   UNL     1       2.577   4.359 -24.094  1.00  0.00     0.091 A 
ATOM     12  C   UNL     1       2.796   3.483 -25.169  1.00  0.00     0.068 A 
ATOM     13  C   UNL     1       3.306   3.954 -26.382  1.00  0.00     0.162 A 
ATOM     14  C   UNL     1       2.912   5.715 -24.240  1.00  0.00     0.068 A 
ATOM     15  C   UNL     1       3.619   5.316 -26.530  1.00  0.00     0.200 A 
ATOM     16  C   UNL     1       3.425   6.197 -25.452  1.00  0.00     0.162 A 
BRANCH  13  17
ATOM     17  O   UNL     1       3.494   3.054 -27.430  1.00  0.00    -0.504 OA
ATOM     18  H   UNL     1       4.417   2.757 -27.726  1.00  0.00     0.293 HD
ENDBRANCH  13  17
BRANCH  15  19
ATOM     19  O   UNL     1       4.125   5.779 -27.745  1.00  0.00    -0.502 OA
ATOM     20  H   UNL     1       4.986   5.423 -28.143  1.00  0.00     0.293 HD
ENDBRANCH  15  19
BRANCH  16  21
ATOM     21  O   UNL     1       3.747   7.547 -25.587  1.00  0.00    -0.504 OA
ATOM     22  H   UNL     1       3.547   8.217 -24.855  1.00  0.00     0.293 HD
ENDBRANCH  16  21
ENDBRANCH   1  11
BRANCH  10  23
ATOM     23  O   UNL     1       0.996   1.918 -23.903  1.00  0.00    -0.500 OA
ATOM     24  H   UNL     1       0.357   1.132 -23.889  1.00  0.00     0.294 HD
ENDBRANCH  10  23
BRANCH   5  25
ATOM     25  O   UNL     1       2.253   5.225 -16.994  1.00  0.00    -0.507 OA
ATOM     26  H   UNL     1       2.754   6.100 -17.099  1.00  0.00     0.293 HD
ENDBRANCH   5  25
BRANCH   7  27
ATOM     27  O   UNL     1      -0.118   1.446 -18.811  1.00  0.00    -0.507 OA
ATOM     28  H   UNL     1      -0.722   1.340 -18.009  1.00  0.00     0.293 HD
ENDBRANCH   7  27
TORSDOF 7
ENDMDL
MODEL 5
REMARK VINA RESULT:    -6.685      2.853      4.279
REMARK INTER + INTRA:          -8.055
REMARK INTER:                  -7.684
REMARK INTRA:                  -0.371
REMARK UNBOUND:                 0.193
REMARK SMILES Oc1cc(O)c2cc(O)c(-c3cc(O)c(O)c(O)c3)[o+]c2c1
REMARK SMILES IDX 10 1 20 2 21 3 22 4 2 5 3 6 4 7 6 8 7 9 8 10 11 11 12 12
REMARK SMILES IDX 13 13 19 14 15 15 17 16 14 17 16 19 18 21 9 23 1 25 5 27
REMARK H PARENT 14 18 16 20 18 22 9 24 1 26 5 28
REMARK Flexibility Score: inf
ROOT
ATOM      1  C   UNL     1       0.440   1.877 -23.052  1.00  0.00     0.402 A 
ATOM      2  O   UNL     1       0.667   2.635 -21.982  1.00  0.00    -0.202 OA
ATOM      3  C   UNL     1       0.895   2.139 -20.771  1.00  0.00     0.368 A 
ATOM      4  C   UNL     1       1.121   3.016 -19.707  1.00  0.00     0.162 A 
ATOM      5  C   UNL     1       1.361   2.523 -18.425  1.00  0.00     0.128 A 
ATOM      6  C   UNL     1       1.375   1.142 -18.200  1.00  0.00     0.093 A 
ATOM      7  C   UNL     1       1.153   0.242 -19.250  1.00  0.00     0.136 A 
ATOM      8  C   UNL     1       0.911   0.740 -20.557  1.00  0.00     0.125 A 
ATOM      9  C   UNL     1       0.691  -0.088 -21.669  1.00  0.00     0.078 A 
ATOM     10  C   UNL     1       0.464   0.476 -22.929  1.00  0.00     0.223 A 
ENDROOT
BRANCH   1  11
ATOM     11  C   UNL     1       0.188   2.551 -24.346  1.00  0.00     0.091 A 
ATOM     12  C   UNL     1       1.260   2.790 -25.220  1.00  0.00     0.068 A 
ATOM     13  C   UNL     1       1.055   3.442 -26.440  1.00  0.00     0.162 A 
ATOM     14  C   UNL     1      -1.094   3.008 -24.696  1.00  0.00     0.068 A 
ATOM     15  C   UNL     1      -0.233   3.878 -26.796  1.00  0.00     0.200 A 
ATOM     16  C   UNL     1      -1.309   3.663 -25.917  1.00  0.00     0.162 A 
BRANCH  13  17
ATOM     17  O   UNL     1       2.143   3.647 -27.287  1.00  0.00    -0.504 OA
ATOM     18  H   UNL     1       3.047   3.221 -27.116  1.00  0.00     0.293 HD
ENDBRANCH  13  17
BRANCH  15  19
ATOM     19  O   UNL     1      -0.430   4.524 -28.016  1.00  0.00    -0.502 OA
ATOM     20  H   UNL     1      -1.353   4.670 -28.408  1.00  0.00     0.293 HD
ENDBRANCH  15  19
BRANCH  16  21
ATOM     21  O   UNL     1      -2.586   4.106 -26.256  1.00  0.00    -0.504 OA
ATOM     22  H   UNL     1      -3.273   3.485 -26.667  1.00  0.00     0.293 HD
ENDBRANCH  16  21
ENDBRANCH   1  11
BRANCH  10  23
ATOM     23  O   UNL     1       0.295  -0.345 -24.043  1.00  0.00    -0.500 OA
ATOM     24  H   UNL     1      -0.602  -0.440 -24.505  1.00  0.00     0.294 HD
ENDBRANCH  10  23
BRANCH   5  25
ATOM     25  O   UNL     1       1.583   3.415 -17.377  1.00  0.00    -0.507 OA
ATOM     26  H   UNL     1       1.443   3.143 -16.411  1.00  0.00     0.293 HD
ENDBRANCH   5  25
BRANCH   7  27
ATOM     27  O   UNL     1       1.180  -1.122 -18.944  1.00  0.00    -0.507 OA
ATOM     28  H   UNL     1       1.718  -1.527 -18.192  1.00  0.00     0.293 HD
ENDBRANCH   7  27
TORSDOF 7
ENDMDL
MODEL 6
REMARK VINA RESULT:    -6.673      2.915      4.269
REMARK INTER + INTRA:          -8.040
REMARK INTER:                  -7.680
REMARK INTRA:                  -0.360
REMARK UNBOUND:                 0.193
REMARK SMILES Oc1cc(O)c2cc(O)c(-c3cc(O)c(O)c(O)c3)[o+]c2c1
REMARK SMILES IDX 10 1 20 2 21 3 22 4 2 5 3 6 4 7 6 8 7 9 8 10 11 11 12 12
REMARK SMILES IDX 13 13 19 14 15 15 17 16 14 17 16 19 18 21 9 23 1 25 5 27
REMARK H PARENT 14 18 16 20 18 22 9 24 1 26 5 28
REMARK Flexibility Score: inf
ROOT
ATOM      1  C   UNL     1       0.364   1.928 -23.058  1.00  0.00     0.402 A 
ATOM      2  O   UNL     1       0.609   2.671 -21.982  1.00  0.00    -0.202 OA
ATOM      3  C   UNL     1       0.845   2.159 -20.780  1.00  0.00     0.368 A 
ATOM      4  C   UNL     1       1.091   3.022 -19.708  1.00  0.00     0.162 A 
ATOM      5  C   UNL     1       1.338   2.513 -18.434  1.00  0.00     0.128 A 
ATOM      6  C   UNL     1       1.340   1.129 -18.225  1.00  0.00     0.093 A 
ATOM      7  C   UNL     1       1.097   0.243 -19.282  1.00  0.00     0.136 A 
ATOM      8  C   UNL     1       0.847   0.757 -20.581  1.00  0.00     0.125 A 
ATOM      9  C   UNL     1       0.606  -0.056 -21.700  1.00  0.00     0.078 A 
ATOM     10  C   UNL     1       0.373   0.525 -22.951  1.00  0.00     0.223 A 
ENDROOT
BRANCH   1  11
ATOM     11  C   UNL     1       0.106   2.618 -24.342  1.00  0.00     0.091 A 
ATOM     12  C   UNL     1      -1.193   3.059 -24.640  1.00  0.00     0.068 A 
ATOM     13  C   UNL     1      -1.470   3.696 -25.854  1.00  0.00     0.162 A 
ATOM     14  C   UNL     1       1.122   2.791 -25.297  1.00  0.00     0.068 A 
ATOM     15  C   UNL     1      -0.445   3.887 -26.797  1.00  0.00     0.200 A 
ATOM     16  C   UNL     1       0.854   3.428 -26.517  1.00  0.00     0.162 A 
BRANCH  13  17
ATOM     17  O   UNL     1      -2.769   4.133 -26.105  1.00  0.00    -0.504 OA
ATOM     18  H   UNL     1      -2.996   4.726 -26.895  1.00  0.00     0.293 HD
ENDBRANCH  13  17
BRANCH  15  19
ATOM     19  O   UNL     1      -0.729   4.527 -28.004  1.00  0.00    -0.502 OA
ATOM     20  H   UNL     1      -0.269   4.274 -28.870  1.00  0.00     0.293 HD
ENDBRANCH  15  19
BRANCH  16  21
ATOM     21  O   UNL     1       1.872   3.601 -27.453  1.00  0.00    -0.504 OA
ATOM     22  H   UNL     1       1.695   3.540 -28.449  1.00  0.00     0.293 HD
ENDBRANCH  16  21
ENDBRANCH   1  11
BRANCH  10  23
ATOM     23  O   UNL     1       0.184  -0.282 -24.072  1.00  0.00    -0.500 OA
ATOM     24  H   UNL     1       0.044  -1.283 -23.992  1.00  0.00     0.294 HD
ENDBRANCH  10  23
BRANCH   5  25
ATOM     25  O   UNL     1       1.581   3.390 -17.379  1.00  0.00    -0.507 OA
ATOM     26  H   UNL     1       0.982   3.414 -16.561  1.00  0.00     0.293 HD
ENDBRANCH   5  25
BRANCH   7  27
ATOM     27  O   UNL     1       1.112  -1.125 -18.991  1.00  0.00    -0.507 OA
ATOM     28  H   UNL     1       0.287  -1.680 -18.815  1.00  0.00     0.293 HD
ENDBRANCH   7  27
TORSDOF 7
ENDMDL
MODEL 7
REMARK VINA RESULT:    -6.545      1.532      2.860
REMARK INTER + INTRA:          -7.883
REMARK INTER:                  -7.509
REMARK INTRA:                  -0.374
REMARK UNBOUND:                 0.193
REMARK SMILES Oc1cc(O)c2cc(O)c(-c3cc(O)c(O)c(O)c3)[o+]c2c1
REMARK SMILES IDX 10 1 20 2 21 3 22 4 2 5 3 6 4 7 6 8 7 9 8 10 11 11 12 12
REMARK SMILES IDX 13 13 19 14 15 15 17 16 14 17 16 19 18 21 9 23 1 25 5 27
REMARK H PARENT 14 18 16 20 18 22 9 24 1 26 5 28
REMARK Flexibility Score: inf
ROOT
ATOM      1  C   UNL     1       0.885   3.262 -23.226  1.00  0.00     0.402 A 
ATOM      2  O   UNL     1       1.388   3.279 -21.994  1.00  0.00    -0.202 OA
ATOM      3  C   UNL     1       0.841   2.628 -20.973  1.00  0.00     0.368 A 
ATOM      4  C   UNL     1       1.442   2.707 -19.714  1.00  0.00     0.162 A 
ATOM      5  C   UNL     1       0.888   2.038 -18.624  1.00  0.00     0.128 A 
ATOM      6  C   UNL     1      -0.279   1.282 -18.790  1.00  0.00     0.093 A 
ATOM      7  C   UNL     1      -0.901   1.187 -20.041  1.00  0.00     0.136 A 
ATOM      8  C   UNL     1      -0.337   1.865 -21.154  1.00  0.00     0.125 A 
ATOM      9  C   UNL     1      -0.885   1.815 -22.445  1.00  0.00     0.078 A 
ATOM     10  C   UNL     1      -0.270   2.506 -23.495  1.00  0.00     0.223 A 
ENDROOT
BRANCH   1  11
ATOM     11  C   UNL     1       1.583   4.036 -24.277  1.00  0.00     0.091 A 
ATOM     12  C   UNL     1       1.244   5.383 -24.483  1.00  0.00     0.068 A 
ATOM     13  C   UNL     1       1.872   6.133 -25.482  1.00  0.00     0.162 A 
ATOM     14  C   UNL     1       2.539   3.437 -25.115  1.00  0.00     0.068 A 
ATOM     15  C   UNL     1       2.844   5.535 -26.303  1.00  0.00     0.200 A 
ATOM     16  C   UNL     1       3.173   4.181 -26.120  1.00  0.00     0.162 A 
BRANCH  13  17
ATOM     17  O   UNL     1       1.518   7.472 -25.643  1.00  0.00    -0.504 OA
ATOM     18  H   UNL     1       1.712   8.170 -24.935  1.00  0.00     0.293 HD
ENDBRANCH  13  17
BRANCH  15  19
ATOM     19  O   UNL     1       3.468   6.291 -27.295  1.00  0.00    -0.502 OA
ATOM     20  H   UNL     1       3.236   7.264 -27.459  1.00  0.00     0.293 HD
ENDBRANCH  15  19
BRANCH  16  21
ATOM     21  O   UNL     1       4.125   3.577 -26.940  1.00  0.00    -0.504 OA
ATOM     22  H   UNL     1       3.877   2.842 -27.591  1.00  0.00     0.293 HD
ENDBRANCH  16  21
ENDBRANCH   1  11
BRANCH  10  23
ATOM     23  O   UNL     1      -0.784   2.416 -24.788  1.00  0.00    -0.500 OA
ATOM     24  H   UNL     1      -0.385   2.940 -25.558  1.00  0.00     0.294 HD
ENDBRANCH  10  23
BRANCH   5  25
ATOM     25  O   UNL     1       1.502   2.129 -17.377  1.00  0.00    -0.507 OA
ATOM     26  H   UNL     1       2.302   2.733 -17.222  1.00  0.00     0.293 HD
ENDBRANCH   5  25
BRANCH   7  27
ATOM     27  O   UNL     1      -2.064   0.415 -20.124  1.00  0.00    -0.507 OA
ATOM     28  H   UNL     1      -2.706   0.268 -19.359  1.00  0.00     0.293 HD
ENDBRANCH   7  27
TORSDOF 7
ENDMDL
MODEL 8
REMARK VINA RESULT:    -6.463      2.010      3.532
REMARK INTER + INTRA:          -7.781
REMARK INTER:                  -7.409
REMARK INTRA:                  -0.372
REMARK UNBOUND:                 0.193
REMARK SMILES Oc1cc(O)c2cc(O)c(-c3cc(O)c(O)c(O)c3)[o+]c2c1
REMARK SMILES IDX 10 1 20 2 21 3 22 4 2 5 3 6 4 7 6 8 7 9 8 10 11 11 12 12
REMARK SMILES IDX 13 13 19 14 15 15 17 16 14 17 16 19 18 21 9 23 1 25 5 27
REMARK H PARENT 14 18 16 20 18 22 9 24 1 26 5 28
REMARK Flexibility Score: inf
ROOT
ATOM      1  C   UNL     1       0.521   3.123 -23.641  1.00  0.00     0.402 A 
ATOM      2  O   UNL     1       1.058   2.784 -22.471  1.00  0.00    -0.202 OA
ATOM      3  C   UNL     1       0.423   2.054 -21.561  1.00  0.00     0.368 A 
ATOM      4  C   UNL     1       1.070   1.750 -20.360  1.00  0.00     0.162 A 
ATOM      5  C   UNL     1       0.427   0.988 -19.385  1.00  0.00     0.128 A 
ATOM      6  C   UNL     1      -0.874   0.524 -19.609  1.00  0.00     0.093 A 
ATOM      7  C   UNL     1      -1.544   0.814 -20.805  1.00  0.00     0.136 A 
ATOM      8  C   UNL     1      -0.892   1.587 -21.800  1.00  0.00     0.125 A 
ATOM      9  C   UNL     1      -1.481   1.915 -23.032  1.00  0.00     0.078 A 
ATOM     10  C   UNL     1      -0.772   2.678 -23.967  1.00  0.00     0.223 A 
ENDROOT
BRANCH   1  11
ATOM     11  C   UNL     1       1.327   3.950 -24.567  1.00  0.00     0.091 A 
ATOM     12  C   UNL     1       2.345   3.347 -25.323  1.00  0.00     0.068 A 
ATOM     13  C   UNL     1       3.135   4.106 -26.192  1.00  0.00     0.162 A 
ATOM     14  C   UNL     1       1.134   5.338 -24.666  1.00  0.00     0.068 A 
ATOM     15  C   UNL     1       2.923   5.491 -26.304  1.00  0.00     0.200 A 
ATOM     16  C   UNL     1       1.922   6.108 -25.534  1.00  0.00     0.162 A 
BRANCH  13  17
ATOM     17  O   UNL     1       4.125   3.467 -26.936  1.00  0.00    -0.504 OA
ATOM     18  H   UNL     1       4.884   2.958 -26.499  1.00  0.00     0.293 HD
ENDBRANCH  13  17
BRANCH  15  19
ATOM     19  O   UNL     1       3.714   6.241 -27.175  1.00  0.00    -0.502 OA
ATOM     20  H   UNL     1       3.667   7.253 -27.212  1.00  0.00     0.293 HD
ENDBRANCH  15  19
BRANCH  16  21
ATOM     21  O   UNL     1       1.717   7.483 -25.628  1.00  0.00    -0.504 OA
ATOM     22  H   UNL     1       1.516   7.931 -26.514  1.00  0.00     0.293 HD
ENDBRANCH  16  21
ENDBRANCH   1  11
BRANCH  10  23
ATOM     23  O   UNL     1      -1.337   2.961 -25.210  1.00  0.00    -0.500 OA
ATOM     24  H   UNL     1      -0.791   3.356 -25.967  1.00  0.00     0.294 HD
ENDBRANCH  10  23
BRANCH   5  25
ATOM     25  O   UNL     1       1.088   0.697 -18.194  1.00  0.00    -0.507 OA
ATOM     26  H   UNL     1       1.671   1.384 -17.729  1.00  0.00     0.293 HD
ENDBRANCH   5  25
BRANCH   7  27
ATOM     27  O   UNL     1      -2.843   0.317 -20.952  1.00  0.00    -0.507 OA
ATOM     28  H   UNL     1      -3.454   0.083 -20.183  1.00  0.00     0.293 HD
ENDBRANCH   7  27
TORSDOF 7
ENDMDL
