MODEL 1
REMARK VINA RESULT:    -2.138      0.000      0.000
REMARK INTER + INTRA:          -2.976
REMARK INTER:                  -2.576
REMARK INTRA:                  -0.401
REMARK UNBOUND:                -0.401
REMARK SMILES O=c1c(O)c(-c2ccc(O)cc2O)oc2cc(O)cc(O)c12
REMARK SMILES IDX 5 1 3 2 2 3 1 4 22 5 20 6 19 7 17 8 16 9 15 10 14 11 6 12
REMARK SMILES IDX 8 13 7 14 9 15 11 16 12 17 10 18 13 20 4 22 21 24 18 26
REMARK H PARENT 10 19 13 21 4 23 21 25 18 27
REMARK Flexibility Score: inf
ROOT
ATOM      1  C   UNL     1      -2.878   8.160  -0.308  1.00  0.00     0.184 A 
ATOM      2  C   UNL     1      -2.739   6.809   0.044  1.00  0.00     0.208 A 
ATOM      3  C   UNL     1      -1.481   6.337   0.448  1.00  0.00     0.238 A 
ATOM      4  O   UNL     1      -1.377   5.139   0.821  1.00  0.00    -0.285 OA
ATOM      5  C   UNL     1      -0.372   7.217   0.468  1.00  0.00     0.111 A 
ATOM      6  C   UNL     1       0.958   6.839   0.823  1.00  0.00     0.134 A 
ATOM      7  C   UNL     1       1.952   7.821   0.925  1.00  0.00     0.093 A 
ATOM      8  C   UNL     1       1.678   9.157   0.622  1.00  0.00     0.123 A 
ATOM      9  C   UNL     1       0.398   9.527   0.219  1.00  0.00     0.094 A 
ATOM     10  C   UNL     1      -0.623   8.577   0.143  1.00  0.00     0.146 A 
ATOM     11  O   UNL     1      -1.833   8.975  -0.233  1.00  0.00    -0.451 OA
ENDROOT
BRANCH   1  12
ATOM     12  C   UNL     1      -4.173   8.708  -0.765  1.00  0.00     0.063 A 
ATOM     13  C   UNL     1      -6.297   9.766  -0.221  1.00  0.00     0.047 A 
ATOM     14  C   UNL     1      -5.044   9.290   0.172  1.00  0.00     0.020 A 
ATOM     15  C   UNL     1      -6.701   9.659  -1.557  1.00  0.00     0.119 A 
ATOM     16  C   UNL     1      -5.843   9.080  -2.497  1.00  0.00     0.093 A 
ATOM     17  C   UNL     1      -4.580   8.609  -2.116  1.00  0.00     0.130 A 
BRANCH  15  18
ATOM     18  O   UNL     1      -7.950  10.125  -1.961  1.00  0.00    -0.508 OA
ATOM     19  H   UNL     1      -8.070  11.060  -2.334  1.00  0.00     0.293 HD
ENDBRANCH  15  18
BRANCH  17  20
ATOM     20  O   UNL     1      -3.752   8.074  -3.104  1.00  0.00    -0.507 OA
ATOM     21  H   UNL     1      -3.002   7.425  -2.904  1.00  0.00     0.293 HD
ENDBRANCH  17  20
ENDBRANCH   1  12
BRANCH   2  22
ATOM     22  O   UNL     1      -3.850   5.962   0.011  1.00  0.00    -0.502 OA
ATOM     23  H   UNL     1      -4.494   5.941  -0.770  1.00  0.00     0.293 HD
ENDBRANCH   2  22
BRANCH   6  24
ATOM     24  O   UNL     1       1.359   5.520   1.057  1.00  0.00    -0.507 OA
ATOM     25  H   UNL     1       0.755   4.715   0.995  1.00  0.00     0.293 HD
ENDBRANCH   6  24
BRANCH   8  26
ATOM     26  O   UNL     1       2.677  10.124   0.711  1.00  0.00    -0.508 OA
ATOM     27  H   UNL     1       2.543  10.979   1.238  1.00  0.00     0.293 HD
ENDBRANCH   8  26
TORSDOF 6
ENDMDL
MODEL 2
REMARK VINA RESULT:    -1.932      4.913      7.642
REMARK INTER + INTRA:          -2.728
REMARK INTER:                  -2.360
REMARK INTRA:                  -0.368
REMARK UNBOUND:                -0.401
REMARK SMILES O=c1c(O)c(-c2ccc(O)cc2O)oc2cc(O)cc(O)c12
REMARK SMILES IDX 5 1 3 2 2 3 1 4 22 5 20 6 19 7 17 8 16 9 15 10 14 11 6 12
REMARK SMILES IDX 8 13 7 14 9 15 11 16 12 17 10 18 13 20 4 22 21 24 18 26
REMARK H PARENT 10 19 13 21 4 23 21 25 18 27
REMARK Flexibility Score: inf
ROOT
ATOM      1  C   UNL     1       0.403   3.293   1.078  1.00  0.00     0.184 A 
ATOM      2  C   UNL     1      -0.211   2.607   2.137  1.00  0.00     0.208 A 
ATOM      3  C   UNL     1      -0.233   1.204   2.117  1.00  0.00     0.238 A 
ATOM      4  O   UNL     1      -0.731   0.594   3.099  1.00  0.00    -0.285 OA
ATOM      5  C   UNL     1       0.333   0.506   1.023  1.00  0.00     0.111 A 
ATOM      6  C   UNL     1       0.333  -0.914   0.879  1.00  0.00     0.134 A 
ATOM      7  C   UNL     1       1.031  -1.500  -0.184  1.00  0.00     0.093 A 
ATOM      8  C   UNL     1       1.674  -0.715  -1.144  1.00  0.00     0.123 A 
ATOM      9  C   UNL     1       1.633   0.673  -1.044  1.00  0.00     0.094 A 
ATOM     10  C   UNL     1       0.976   1.286   0.025  1.00  0.00     0.146 A 
ATOM     11  O   UNL     1       0.972   2.613   0.090  1.00  0.00    -0.451 OA
ENDROOT
BRANCH   1  12
ATOM     12  C   UNL     1       0.436   4.770   1.033  1.00  0.00     0.063 A 
ATOM     13  C   UNL     1      -0.764   6.876   0.806  1.00  0.00     0.047 A 
ATOM     14  C   UNL     1      -0.769   5.483   0.906  1.00  0.00     0.020 A 
ATOM     15  C   UNL     1       0.447   7.577   0.824  1.00  0.00     0.119 A 
ATOM     16  C   UNL     1       1.652   6.877   0.948  1.00  0.00     0.093 A 
ATOM     17  C   UNL     1       1.658   5.481   1.060  1.00  0.00     0.130 A 
BRANCH  15  18
ATOM     18  O   UNL     1       0.466   8.966   0.719  1.00  0.00    -0.508 OA
ATOM     19  H   UNL     1      -0.316   9.477   0.327  1.00  0.00     0.293 HD
ENDBRANCH  15  18
BRANCH  17  20
ATOM     20  O   UNL     1       2.887   4.839   1.218  1.00  0.00    -0.507 OA
ATOM     21  H   UNL     1       3.153   4.356   2.067  1.00  0.00     0.293 HD
ENDBRANCH  17  20
ENDBRANCH   1  12
BRANCH   2  22
ATOM     22  O   UNL     1      -0.767   3.322   3.201  1.00  0.00    -0.502 OA
ATOM     23  H   UNL     1      -0.236   3.562   4.030  1.00  0.00     0.293 HD
ENDBRANCH   2  22
BRANCH   6  24
ATOM     24  O   UNL     1      -0.354  -1.786   1.728  1.00  0.00    -0.507 OA
ATOM     25  H   UNL     1      -0.477  -2.774   1.563  1.00  0.00     0.293 HD
ENDBRANCH   6  24
BRANCH   8  26
ATOM     26  O   UNL     1       2.353  -1.307  -2.208  1.00  0.00    -0.508 OA
ATOM     27  H   UNL     1       3.361  -1.242  -2.296  1.00  0.00     0.293 HD
ENDBRANCH   8  26
TORSDOF 6
ENDMDL
MODEL 3
REMARK VINA RESULT:    -1.387      1.513      3.155
REMARK INTER + INTRA:          -2.072
REMARK INTER:                  -1.669
REMARK INTRA:                  -0.403
REMARK UNBOUND:                -0.401
REMARK SMILES O=c1c(O)c(-c2ccc(O)cc2O)oc2cc(O)cc(O)c12
REMARK SMILES IDX 5 1 3 2 2 3 1 4 22 5 20 6 19 7 17 8 16 9 15 10 14 11 6 12
REMARK SMILES IDX 8 13 7 14 9 15 11 16 12 17 10 18 13 20 4 22 21 24 18 26
REMARK H PARENT 10 19 13 21 4 23 21 25 18 27
REMARK Flexibility Score: inf
ROOT
ATOM      1  C   UNL     1      -1.924   7.937   0.034  1.00  0.00     0.184 A 
ATOM      2  C   UNL     1      -0.792   8.746   0.213  1.00  0.00     0.208 A 
ATOM      3  C   UNL     1       0.420   8.147   0.588  1.00  0.00     0.238 A 
ATOM      4  O   UNL     1       1.446   8.870   0.687  1.00  0.00    -0.285 OA
ATOM      5  C   UNL     1       0.477   6.749   0.808  1.00  0.00     0.111 A 
ATOM      6  C   UNL     1       1.642   6.040   1.228  1.00  0.00     0.134 A 
ATOM      7  C   UNL     1       1.613   4.642   1.295  1.00  0.00     0.093 A 
ATOM      8  C   UNL     1       0.442   3.931   1.019  1.00  0.00     0.123 A 
ATOM      9  C   UNL     1      -0.715   4.617   0.663  1.00  0.00     0.094 A 
ATOM     10  C   UNL     1      -0.709   6.009   0.552  1.00  0.00     0.146 A 
ATOM     11  O   UNL     1      -1.832   6.623   0.197  1.00  0.00    -0.451 OA
ENDROOT
BRANCH   1  12
ATOM     12  C   UNL     1      -3.233   8.515  -0.337  1.00  0.00     0.063 A 
ATOM     13  C   UNL     1      -5.276   9.652   0.338  1.00  0.00     0.047 A 
ATOM     14  C   UNL     1      -4.013   9.146   0.648  1.00  0.00     0.020 A 
ATOM     15  C   UNL     1      -5.783   9.529  -0.961  1.00  0.00     0.119 A 
ATOM     16  C   UNL     1      -5.017   8.901  -1.948  1.00  0.00     0.093 A 
ATOM     17  C   UNL     1      -3.744   8.400  -1.651  1.00  0.00     0.130 A 
BRANCH  15  18
ATOM     18  O   UNL     1      -7.045  10.025  -1.282  1.00  0.00    -0.508 OA
ATOM     19  H   UNL     1      -7.165  10.762  -1.967  1.00  0.00     0.293 HD
ENDBRANCH  15  18
BRANCH  17  20
ATOM     20  O   UNL     1      -3.009   7.816  -2.685  1.00  0.00    -0.507 OA
ATOM     21  H   UNL     1      -2.503   8.355  -3.376  1.00  0.00     0.293 HD
ENDBRANCH  17  20
ENDBRANCH   1  12
BRANCH   2  22
ATOM     22  O   UNL     1      -0.877  10.123  -0.006  1.00  0.00    -0.502 OA
ATOM     23  H   UNL     1      -1.684  10.669   0.273  1.00  0.00     0.293 HD
ENDBRANCH   2  22
BRANCH   6  24
ATOM     24  O   UNL     1       2.835   6.657   1.615  1.00  0.00    -0.507 OA
ATOM     25  H   UNL     1       3.378   7.278   1.034  1.00  0.00     0.293 HD
ENDBRANCH   6  24
BRANCH   8  26
ATOM     26  O   UNL     1       0.419   2.540   1.104  1.00  0.00    -0.508 OA
ATOM     27  H   UNL     1      -0.290   2.053   1.639  1.00  0.00     0.293 HD
ENDBRANCH   8  26
TORSDOF 6
ENDMDL
MODEL 4
REMARK VINA RESULT:    -0.912      3.318      7.218
REMARK INTER + INTRA:          -1.499
REMARK INTER:                  -1.106
REMARK INTRA:                  -0.393
REMARK UNBOUND:                -0.401
REMARK SMILES O=c1c(O)c(-c2ccc(O)cc2O)oc2cc(O)cc(O)c12
REMARK SMILES IDX 5 1 3 2 2 3 1 4 22 5 20 6 19 7 17 8 16 9 15 10 14 11 6 12
REMARK SMILES IDX 8 13 7 14 9 15 11 16 12 17 10 18 13 20 4 22 21 24 18 26
REMARK H PARENT 10 19 13 21 4 23 21 25 18 27
REMARK Flexibility Score: inf
ROOT
ATOM      1  C   UNL     1      -0.007   4.535   0.910  1.00  0.00     0.184 A 
ATOM      2  C   UNL     1       1.073   5.404   1.124  1.00  0.00     0.208 A 
ATOM      3  C   UNL     1       0.878   6.784   0.967  1.00  0.00     0.238 A 
ATOM      4  O   UNL     1       1.836   7.562   1.220  1.00  0.00    -0.285 OA
ATOM      5  C   UNL     1      -0.388   7.275   0.568  1.00  0.00     0.111 A 
ATOM      6  C   UNL     1      -0.690   8.652   0.340  1.00  0.00     0.134 A 
ATOM      7  C   UNL     1      -2.010   9.034   0.069  1.00  0.00     0.093 A 
ATOM      8  C   UNL     1      -3.026   8.083  -0.047  1.00  0.00     0.123 A 
ATOM      9  C   UNL     1      -2.731   6.732   0.118  1.00  0.00     0.094 A 
ATOM     10  C   UNL     1      -1.432   6.323   0.425  1.00  0.00     0.146 A 
ATOM     11  O   UNL     1      -1.198   5.025   0.587  1.00  0.00    -0.451 OA
ENDROOT
BRANCH   1  12
ATOM     12  C   UNL     1       0.145   3.070   1.038  1.00  0.00     0.063 A 
ATOM     13  C   UNL     1       1.012   0.979   0.144  1.00  0.00     0.047 A 
ATOM     14  C   UNL     1       0.897   2.368   0.079  1.00  0.00     0.020 A 
ATOM     15  C   UNL     1       0.370   0.267   1.165  1.00  0.00     0.119 A 
ATOM     16  C   UNL     1      -0.382   0.955   2.122  1.00  0.00     0.093 A 
ATOM     17  C   UNL     1      -0.495   2.350   2.074  1.00  0.00     0.130 A 
BRANCH  15  18
ATOM     18  O   UNL     1       0.473  -1.120   1.237  1.00  0.00    -0.508 OA
ATOM     19  H   UNL     1       1.299  -1.570   1.616  1.00  0.00     0.293 HD
ENDBRANCH  15  18
BRANCH  17  20
ATOM     20  O   UNL     1      -1.228   2.986   3.077  1.00  0.00    -0.507 OA
ATOM     21  H   UNL     1      -1.995   3.617   2.885  1.00  0.00     0.293 HD
ENDBRANCH  17  20
ENDBRANCH   1  12
BRANCH   2  22
ATOM     22  O   UNL     1       2.314   4.891   1.512  1.00  0.00    -0.502 OA
ATOM     23  H   UNL     1       2.618   4.875   2.478  1.00  0.00     0.293 HD
ENDBRANCH   2  22
BRANCH   6  24
ATOM     24  O   UNL     1       0.266   9.672   0.341  1.00  0.00    -0.507 OA
ATOM     25  H   UNL     1       0.814   9.947   1.143  1.00  0.00     0.293 HD
ENDBRANCH   6  24
BRANCH   8  26
ATOM     26  O   UNL     1      -4.334   8.471  -0.334  1.00  0.00    -0.508 OA
ATOM     27  H   UNL     1      -4.537   9.353  -0.790  1.00  0.00     0.293 HD
ENDBRANCH   8  26
TORSDOF 6
ENDMDL
MODEL 5
REMARK VINA RESULT:    -0.701      3.544      7.307
REMARK INTER + INTRA:          -1.246
REMARK INTER:                  -1.031
REMARK INTRA:                  -0.215
REMARK UNBOUND:                -0.401
REMARK SMILES O=c1c(O)c(-c2ccc(O)cc2O)oc2cc(O)cc(O)c12
REMARK SMILES IDX 5 1 3 2 2 3 1 4 22 5 20 6 19 7 17 8 16 9 15 10 14 11 6 12
REMARK SMILES IDX 8 13 7 14 9 15 11 16 12 17 10 18 13 20 4 22 21 24 18 26
REMARK H PARENT 10 19 13 21 4 23 21 25 18 27
REMARK Flexibility Score: inf
ROOT
ATOM      1  C   UNL     1       0.851   4.144   0.926  1.00  0.00     0.184 A 
ATOM      2  C   UNL     1       2.135   4.708   0.926  1.00  0.00     0.208 A 
ATOM      3  C   UNL     1       2.265   6.104   0.874  1.00  0.00     0.238 A 
ATOM      4  O   UNL     1       3.418   6.606   0.935  1.00  0.00    -0.285 OA
ATOM      5  C   UNL     1       1.109   6.917   0.794  1.00  0.00     0.111 A 
ATOM      6  C   UNL     1       1.122   8.341   0.698  1.00  0.00     0.134 A 
ATOM      7  C   UNL     1      -0.086   9.049   0.750  1.00  0.00     0.093 A 
ATOM      8  C   UNL     1      -1.309   8.380   0.828  1.00  0.00     0.123 A 
ATOM      9  C   UNL     1      -1.336   6.989   0.865  1.00  0.00     0.094 A 
ATOM     10  C   UNL     1      -0.148   6.256   0.853  1.00  0.00     0.146 A 
ATOM     11  O   UNL     1      -0.218   4.931   0.903  1.00  0.00    -0.451 OA
ENDROOT
BRANCH   1  12
ATOM     12  C   UNL     1       0.653   2.680   0.956  1.00  0.00     0.063 A 
ATOM     13  C   UNL     1       1.114   0.494  -0.012  1.00  0.00     0.047 A 
ATOM     14  C   UNL     1       1.325   1.874   0.019  1.00  0.00     0.020 A 
ATOM     15  C   UNL     1       0.223  -0.101   0.888  1.00  0.00     0.119 A 
ATOM     16  C   UNL     1      -0.452   0.691   1.822  1.00  0.00     0.093 A 
ATOM     17  C   UNL     1      -0.241   2.074   1.870  1.00  0.00     0.130 A 
BRANCH  15  18
ATOM     18  O   UNL     1       0.000  -1.476   0.864  1.00  0.00    -0.508 OA
ATOM     19  H   UNL     1       0.156  -2.022   0.024  1.00  0.00     0.293 HD
ENDBRANCH  15  18
BRANCH  17  20
ATOM     20  O   UNL     1      -0.914   2.809   2.847  1.00  0.00    -0.507 OA
ATOM     21  H   UNL     1      -0.585   2.892   3.801  1.00  0.00     0.293 HD
ENDBRANCH  17  20
ENDBRANCH   1  12
BRANCH   2  22
ATOM     22  O   UNL     1       3.260   3.882   1.000  1.00  0.00    -0.502 OA
ATOM     23  H   UNL     1       3.317   3.098   1.639  1.00  0.00     0.293 HD
ENDBRANCH   2  22
BRANCH   6  24
ATOM     24  O   UNL     1       2.282   9.102   0.524  1.00  0.00    -0.507 OA
ATOM     25  H   UNL     1       3.207   8.720   0.393  1.00  0.00     0.293 HD
ENDBRANCH   6  24
BRANCH   8  26
ATOM     26  O   UNL     1      -2.507   9.092   0.862  1.00  0.00    -0.508 OA
ATOM     27  H   UNL     1      -3.315   8.796   0.328  1.00  0.00     0.293 HD
ENDBRANCH   8  26
TORSDOF 6
ENDMDL
MODEL 6
REMARK VINA RESULT:     0.592      1.768      6.726
REMARK INTER + INTRA:           0.312
REMARK INTER:                   0.701
REMARK INTRA:                  -0.389
REMARK UNBOUND:                -0.401
REMARK SMILES O=c1c(O)c(-c2ccc(O)cc2O)oc2cc(O)cc(O)c12
REMARK SMILES IDX 5 1 3 2 2 3 1 4 22 5 20 6 19 7 17 8 16 9 15 10 14 11 6 12
REMARK SMILES IDX 8 13 7 14 9 15 11 16 12 17 10 18 13 20 4 22 21 24 18 26
REMARK H PARENT 10 19 13 21 4 23 21 25 18 27
REMARK Flexibility Score: inf
ROOT
ATOM      1  C   UNL     1      -1.475   7.283  -0.148  1.00  0.00     0.184 A 
ATOM      2  C   UNL     1      -1.890   7.099  -1.476  1.00  0.00     0.208 A 
ATOM      3  C   UNL     1      -3.166   7.539  -1.857  1.00  0.00     0.238 A 
ATOM      4  O   UNL     1      -3.508   7.426  -3.064  1.00  0.00    -0.285 OA
ATOM      5  C   UNL     1      -4.022   8.132  -0.898  1.00  0.00     0.111 A 
ATOM      6  C   UNL     1      -5.351   8.581  -1.163  1.00  0.00     0.134 A 
ATOM      7  C   UNL     1      -6.061   9.264  -0.168  1.00  0.00     0.093 A 
ATOM      8  C   UNL     1      -5.514   9.458   1.103  1.00  0.00     0.123 A 
ATOM      9  C   UNL     1      -4.241   8.975   1.389  1.00  0.00     0.094 A 
ATOM     10  C   UNL     1      -3.493   8.321   0.407  1.00  0.00     0.146 A 
ATOM     11  O   UNL     1      -2.277   7.888   0.719  1.00  0.00    -0.451 OA
ENDROOT
BRANCH   1  12
ATOM     12  C   UNL     1      -0.151   6.818   0.316  1.00  0.00     0.063 A 
ATOM     13  C   UNL     1       2.241   7.215   0.530  1.00  0.00     0.047 A 
ATOM     14  C   UNL     1       0.970   7.651   0.151  1.00  0.00     0.020 A 
ATOM     15  C   UNL     1       2.413   5.937   1.074  1.00  0.00     0.119 A 
ATOM     16  C   UNL     1       1.306   5.100   1.241  1.00  0.00     0.093 A 
ATOM     17  C   UNL     1       0.024   5.530   0.875  1.00  0.00     0.130 A 
BRANCH  15  18
ATOM     18  O   UNL     1       3.677   5.489   1.451  1.00  0.00    -0.508 OA
ATOM     19  H   UNL     1       3.847   5.098   2.371  1.00  0.00     0.293 HD
ENDBRANCH  15  18
BRANCH  17  20
ATOM     20  O   UNL     1      -1.049   4.666   1.098  1.00  0.00    -0.507 OA
ATOM     21  H   UNL     1      -1.256   3.876   0.501  1.00  0.00     0.293 HD
ENDBRANCH  17  20
ENDBRANCH   1  12
BRANCH   2  22
ATOM     22  O   UNL     1      -1.026   6.506  -2.401  1.00  0.00    -0.502 OA
ATOM     23  H   UNL     1      -0.076   6.828  -2.541  1.00  0.00     0.293 HD
ENDBRANCH   2  22
BRANCH   6  24
ATOM     24  O   UNL     1      -6.025   8.358  -2.367  1.00  0.00    -0.507 OA
ATOM     25  H   UNL     1      -5.651   8.558  -3.283  1.00  0.00     0.293 HD
ENDBRANCH   6  24
BRANCH   8  26
ATOM     26  O   UNL     1      -6.235  10.125   2.092  1.00  0.00    -0.508 OA
ATOM     27  H   UNL     1      -6.544  11.082   1.968  1.00  0.00     0.293 HD
ENDBRANCH   8  26
TORSDOF 6
ENDMDL
