MODEL 1
REMARK VINA RESULT:    -8.280      0.000      0.000
REMARK INTER + INTRA:         -10.003
REMARK INTER:                  -9.732
REMARK INTRA:                  -0.271
REMARK UNBOUND:                -0.271
REMARK SMILES O=c1cc(-c2ccc(O)c(O)c2)oc2cc(O)cc(O)c12
REMARK SMILES IDX 4 1 3 2 2 3 1 4 21 5 19 6 18 7 16 8 15 9 14 10 13 11 5 12
REMARK SMILES IDX 6 13 7 14 8 15 12 16 10 17 9 18 11 20 20 22 17 24
REMARK H PARENT 9 19 11 21 20 23 17 25
REMARK Flexibility Score: inf
ROOT
ATOM      1  C   UNL     1      39.062  25.421  38.997  1.00  0.00     0.138 A 
ATOM      2  C   UNL     1      40.011  25.024  39.948  1.00  0.00     0.100 A 
ATOM      3  C   UNL     1      39.924  25.510  41.254  1.00  0.00     0.197 A 
ATOM      4  O   UNL     1      40.752  25.086  42.101  1.00  0.00    -0.289 OA
ATOM      5  C   UNL     1      38.900  26.424  41.597  1.00  0.00     0.107 A 
ATOM      6  C   UNL     1      38.738  27.016  42.885  1.00  0.00     0.134 A 
ATOM      7  C   UNL     1      37.619  27.817  43.142  1.00  0.00     0.093 A 
ATOM      8  C   UNL     1      36.687  28.095  42.138  1.00  0.00     0.123 A 
ATOM      9  C   UNL     1      36.865  27.565  40.862  1.00  0.00     0.094 A 
ATOM     10  C   UNL     1      37.953  26.734  40.585  1.00  0.00     0.146 A 
ATOM     11  O   UNL     1      38.077  26.238  39.359  1.00  0.00    -0.456 OA
ENDROOT
BRANCH   1  12
ATOM     12  C   UNL     1      39.108  24.936  37.593  1.00  0.00     0.021 A 
ATOM     13  C   UNL     1      40.110  25.413  36.729  1.00  0.00     0.016 A 
ATOM     14  C   UNL     1      40.178  24.967  35.407  1.00  0.00     0.051 A 
ATOM     15  C   UNL     1      39.255  24.030  34.928  1.00  0.00     0.157 A 
ATOM     16  C   UNL     1      38.190  23.984  37.109  1.00  0.00     0.062 A 
ATOM     17  C   UNL     1      38.260  23.536  35.781  1.00  0.00     0.158 A 
BRANCH  15  18
ATOM     18  O   UNL     1      39.320  23.584  33.610  1.00  0.00    -0.504 OA
ATOM     19  H   UNL     1      39.723  22.685  33.375  1.00  0.00     0.293 HD
ENDBRANCH  15  18
BRANCH  17  20
ATOM     20  O   UNL     1      37.349  22.595  35.305  1.00  0.00    -0.504 OA
ATOM     21  H   UNL     1      36.368  22.631  35.559  1.00  0.00     0.293 HD
ENDBRANCH  17  20
ENDBRANCH   1  12
BRANCH   6  22
ATOM     22  O   UNL     1      39.655  26.872  43.932  1.00  0.00    -0.507 OA
ATOM     23  H   UNL     1      39.466  26.399  44.802  1.00  0.00     0.293 HD
ENDBRANCH   6  22
BRANCH   8  24
ATOM     24  O   UNL     1      35.584  28.905  42.397  1.00  0.00    -0.508 OA
ATOM     25  H   UNL     1      34.823  28.994  41.733  1.00  0.00     0.293 HD
ENDBRANCH   8  24
TORSDOF 5
ENDMDL
MODEL 2
REMARK VINA RESULT:    -8.117      2.881      8.192
REMARK INTER + INTRA:          -9.811
REMARK INTER:                  -9.545
REMARK INTRA:                  -0.266
REMARK UNBOUND:                -0.271
REMARK SMILES O=c1cc(-c2ccc(O)c(O)c2)oc2cc(O)cc(O)c12
REMARK SMILES IDX 4 1 3 2 2 3 1 4 21 5 19 6 18 7 16 8 15 9 14 10 13 11 5 12
REMARK SMILES IDX 6 13 7 14 8 15 12 16 10 17 9 18 11 20 20 22 17 24
REMARK H PARENT 9 19 11 21 20 23 17 25
REMARK Flexibility Score: inf
ROOT
ATOM      1  C   UNL     1      36.544  28.663  43.298  1.00  0.00     0.138 A 
ATOM      2  C   UNL     1      37.711  28.192  43.913  1.00  0.00     0.100 A 
ATOM      3  C   UNL     1      38.538  27.297  43.230  1.00  0.00     0.197 A 
ATOM      4  O   UNL     1      39.610  26.941  43.783  1.00  0.00    -0.289 OA
ATOM      5  C   UNL     1      38.174  26.850  41.938  1.00  0.00     0.107 A 
ATOM      6  C   UNL     1      38.918  25.909  41.165  1.00  0.00     0.134 A 
ATOM      7  C   UNL     1      38.524  25.630  39.851  1.00  0.00     0.093 A 
ATOM      8  C   UNL     1      37.377  26.212  39.303  1.00  0.00     0.123 A 
ATOM      9  C   UNL     1      36.614  27.091  40.069  1.00  0.00     0.094 A 
ATOM     10  C   UNL     1      37.002  27.417  41.371  1.00  0.00     0.146 A 
ATOM     11  O   UNL     1      36.253  28.270  42.062  1.00  0.00    -0.456 OA
ENDROOT
BRANCH   1  12
ATOM     12  C   UNL     1      35.628  29.614  43.979  1.00  0.00     0.021 A 
ATOM     13  C   UNL     1      35.717  30.988  43.690  1.00  0.00     0.016 A 
ATOM     14  C   UNL     1      34.863  31.901  44.312  1.00  0.00     0.051 A 
ATOM     15  C   UNL     1      33.899  31.458  45.225  1.00  0.00     0.157 A 
ATOM     16  C   UNL     1      34.646  29.174  44.888  1.00  0.00     0.062 A 
ATOM     17  C   UNL     1      33.788  30.092  45.511  1.00  0.00     0.158 A 
BRANCH  15  18
ATOM     18  O   UNL     1      33.045  32.367  45.848  1.00  0.00    -0.504 OA
ATOM     19  H   UNL     1      32.826  32.297  46.834  1.00  0.00     0.293 HD
ENDBRANCH  15  18
BRANCH  17  20
ATOM     20  O   UNL     1      32.819  29.653  46.411  1.00  0.00    -0.504 OA
ATOM     21  H   UNL     1      32.060  30.255  46.711  1.00  0.00     0.293 HD
ENDBRANCH  17  20
ENDBRANCH   1  12
BRANCH   6  22
ATOM     22  O   UNL     1      40.028  25.208  41.646  1.00  0.00    -0.507 OA
ATOM     23  H   UNL     1      39.987  24.439  42.296  1.00  0.00     0.293 HD
ENDBRANCH   6  22
BRANCH   8  24
ATOM     24  O   UNL     1      36.983  25.917  38.000  1.00  0.00    -0.508 OA
ATOM     25  H   UNL     1      37.539  26.202  37.201  1.00  0.00     0.293 HD
ENDBRANCH   8  24
TORSDOF 5
ENDMDL
MODEL 3
REMARK VINA RESULT:    -7.653      1.996      7.243
REMARK INTER + INTRA:          -9.266
REMARK INTER:                  -9.003
REMARK INTRA:                  -0.263
REMARK UNBOUND:                -0.271
REMARK SMILES O=c1cc(-c2ccc(O)c(O)c2)oc2cc(O)cc(O)c12
REMARK SMILES IDX 4 1 3 2 2 3 1 4 21 5 19 6 18 7 16 8 15 9 14 10 13 11 5 12
REMARK SMILES IDX 6 13 7 14 8 15 12 16 10 17 9 18 11 20 20 22 17 24
REMARK H PARENT 9 19 11 21 20 23 17 25
REMARK Flexibility Score: inf
ROOT
ATOM      1  C   UNL     1      39.194  25.248  39.172  1.00  0.00     0.138 A 
ATOM      2  C   UNL     1      39.328  25.958  37.972  1.00  0.00     0.100 A 
ATOM      3  C   UNL     1      39.627  25.271  36.793  1.00  0.00     0.197 A 
ATOM      4  O   UNL     1      39.679  25.927  35.721  1.00  0.00    -0.289 OA
ATOM      5  C   UNL     1      39.825  23.870  36.827  1.00  0.00     0.107 A 
ATOM      6  C   UNL     1      40.174  23.072  35.697  1.00  0.00     0.134 A 
ATOM      7  C   UNL     1      40.228  21.679  35.826  1.00  0.00     0.093 A 
ATOM      8  C   UNL     1      40.006  21.060  37.059  1.00  0.00     0.123 A 
ATOM      9  C   UNL     1      39.718  21.835  38.179  1.00  0.00     0.094 A 
ATOM     10  C   UNL     1      39.621  23.225  38.075  1.00  0.00     0.146 A 
ATOM     11  O   UNL     1      39.330  23.925  39.167  1.00  0.00    -0.456 OA
ENDROOT
BRANCH   1  12
ATOM     12  C   UNL     1      38.878  25.928  40.454  1.00  0.00     0.021 A 
ATOM     13  C   UNL     1      39.833  25.934  41.487  1.00  0.00     0.016 A 
ATOM     14  C   UNL     1      39.563  26.572  42.700  1.00  0.00     0.051 A 
ATOM     15  C   UNL     1      38.339  27.223  42.899  1.00  0.00     0.157 A 
ATOM     16  C   UNL     1      37.655  26.596  40.656  1.00  0.00     0.062 A 
ATOM     17  C   UNL     1      37.385  27.238  41.874  1.00  0.00     0.158 A 
BRANCH  15  18
ATOM     18  O   UNL     1      38.066  27.860  44.107  1.00  0.00    -0.504 OA
ATOM     19  H   UNL     1      38.268  28.843  44.245  1.00  0.00     0.293 HD
ENDBRANCH  15  18
BRANCH  17  20
ATOM     20  O   UNL     1      36.173  27.896  42.071  1.00  0.00    -0.504 OA
ATOM     21  H   UNL     1      35.399  27.788  41.425  1.00  0.00     0.293 HD
ENDBRANCH  17  20
ENDBRANCH   1  12
BRANCH   6  22
ATOM     22  O   UNL     1      40.498  23.596  34.441  1.00  0.00    -0.507 OA
ATOM     23  H   UNL     1      40.958  23.084  33.704  1.00  0.00     0.293 HD
ENDBRANCH   6  22
BRANCH   8  24
ATOM     24  O   UNL     1      40.077  19.674  37.182  1.00  0.00    -0.508 OA
ATOM     25  H   UNL     1      40.036  19.068  36.370  1.00  0.00     0.293 HD
ENDBRANCH   8  24
TORSDOF 5
ENDMDL
MODEL 4
REMARK VINA RESULT:    -7.574      1.386      7.192
REMARK INTER + INTRA:          -9.173
REMARK INTER:                  -8.908
REMARK INTRA:                  -0.265
REMARK UNBOUND:                -0.271
REMARK SMILES O=c1cc(-c2ccc(O)c(O)c2)oc2cc(O)cc(O)c12
REMARK SMILES IDX 4 1 3 2 2 3 1 4 21 5 19 6 18 7 16 8 15 9 14 10 13 11 5 12
REMARK SMILES IDX 6 13 7 14 8 15 12 16 10 17 9 18 11 20 20 22 17 24
REMARK H PARENT 9 19 11 21 20 23 17 25
REMARK Flexibility Score: inf
ROOT
ATOM      1  C   UNL     1      38.600  25.029  38.989  1.00  0.00     0.138 A 
ATOM      2  C   UNL     1      37.727  23.942  38.853  1.00  0.00     0.100 A 
ATOM      3  C   UNL     1      37.653  23.265  37.634  1.00  0.00     0.197 A 
ATOM      4  O   UNL     1      36.907  22.254  37.562  1.00  0.00    -0.289 OA
ATOM      5  C   UNL     1      38.435  23.702  36.539  1.00  0.00     0.107 A 
ATOM      6  C   UNL     1      38.411  23.114  35.239  1.00  0.00     0.134 A 
ATOM      7  C   UNL     1      39.314  23.557  34.264  1.00  0.00     0.093 A 
ATOM      8  C   UNL     1      40.199  24.607  34.526  1.00  0.00     0.123 A 
ATOM      9  C   UNL     1      40.192  25.222  35.775  1.00  0.00     0.094 A 
ATOM     10  C   UNL     1      39.327  24.780  36.779  1.00  0.00     0.146 A 
ATOM     11  O   UNL     1      39.364  25.386  37.961  1.00  0.00    -0.456 OA
ENDROOT
BRANCH   1  12
ATOM     12  C   UNL     1      38.717  25.786  40.262  1.00  0.00     0.021 A 
ATOM     13  C   UNL     1      39.932  25.765  40.970  1.00  0.00     0.016 A 
ATOM     14  C   UNL     1      40.070  26.474  42.165  1.00  0.00     0.051 A 
ATOM     15  C   UNL     1      39.001  27.223  42.670  1.00  0.00     0.157 A 
ATOM     16  C   UNL     1      37.650  26.553  40.768  1.00  0.00     0.062 A 
ATOM     17  C   UNL     1      37.790  27.266  41.969  1.00  0.00     0.158 A 
BRANCH  15  18
ATOM     18  O   UNL     1      39.135  27.931  43.863  1.00  0.00    -0.504 OA
ATOM     19  H   UNL     1      39.927  28.540  44.031  1.00  0.00     0.293 HD
ENDBRANCH  15  18
BRANCH  17  20
ATOM     20  O   UNL     1      36.731  28.022  42.467  1.00  0.00    -0.504 OA
ATOM     21  H   UNL     1      36.468  27.988  43.446  1.00  0.00     0.293 HD
ENDBRANCH  17  20
ENDBRANCH   1  12
BRANCH   6  22
ATOM     22  O   UNL     1      37.510  22.118  34.848  1.00  0.00    -0.507 OA
ATOM     23  H   UNL     1      37.370  21.245  35.332  1.00  0.00     0.293 HD
ENDBRANCH   6  22
BRANCH   8  24
ATOM     24  O   UNL     1      41.084  25.051  33.546  1.00  0.00    -0.508 OA
ATOM     25  H   UNL     1      41.041  24.701  32.595  1.00  0.00     0.293 HD
ENDBRANCH   8  24
TORSDOF 5
ENDMDL
MODEL 5
REMARK VINA RESULT:    -7.527      4.474      8.007
REMARK INTER + INTRA:          -9.118
REMARK INTER:                  -8.853
REMARK INTRA:                  -0.264
REMARK UNBOUND:                -0.271
REMARK SMILES O=c1cc(-c2ccc(O)c(O)c2)oc2cc(O)cc(O)c12
REMARK SMILES IDX 4 1 3 2 2 3 1 4 21 5 19 6 18 7 16 8 15 9 14 10 13 11 5 12
REMARK SMILES IDX 6 13 7 14 8 15 12 16 10 17 9 18 11 20 20 22 17 24
REMARK H PARENT 9 19 11 21 20 23 17 25
REMARK Flexibility Score: inf
ROOT
ATOM      1  C   UNL     1      35.578  29.615  44.109  1.00  0.00     0.138 A 
ATOM      2  C   UNL     1      34.458  29.160  44.817  1.00  0.00     0.100 A 
ATOM      3  C   UNL     1      33.677  30.072  45.531  1.00  0.00     0.197 A 
ATOM      4  O   UNL     1      32.642  29.644  46.105  1.00  0.00    -0.289 OA
ATOM      5  C   UNL     1      34.041  31.439  45.558  1.00  0.00     0.107 A 
ATOM      6  C   UNL     1      33.343  32.450  46.284  1.00  0.00     0.134 A 
ATOM      7  C   UNL     1      33.725  33.790  46.143  1.00  0.00     0.093 A 
ATOM      8  C   UNL     1      34.819  34.147  45.350  1.00  0.00     0.123 A 
ATOM      9  C   UNL     1      35.539  33.161  44.681  1.00  0.00     0.094 A 
ATOM     10  C   UNL     1      35.161  31.819  44.773  1.00  0.00     0.146 A 
ATOM     11  O   UNL     1      35.867  30.913  44.106  1.00  0.00    -0.456 OA
ENDROOT
BRANCH   1  12
ATOM     12  C   UNL     1      36.445  28.689  43.335  1.00  0.00     0.021 A 
ATOM     13  C   UNL     1      36.132  28.408  41.993  1.00  0.00     0.016 A 
ATOM     14  C   UNL     1      36.935  27.546  41.242  1.00  0.00     0.051 A 
ATOM     15  C   UNL     1      38.069  26.959  41.815  1.00  0.00     0.157 A 
ATOM     16  C   UNL     1      37.595  28.105  43.901  1.00  0.00     0.062 A 
ATOM     17  C   UNL     1      38.402  27.241  43.145  1.00  0.00     0.158 A 
BRANCH  15  18
ATOM     18  O   UNL     1      38.872  26.098  41.069  1.00  0.00    -0.504 OA
ATOM     19  H   UNL     1      38.603  25.136  40.901  1.00  0.00     0.293 HD
ENDBRANCH  15  18
BRANCH  17  20
ATOM     20  O   UNL     1      39.538  26.664  43.709  1.00  0.00    -0.504 OA
ATOM     21  H   UNL     1      40.427  26.655  43.222  1.00  0.00     0.293 HD
ENDBRANCH  17  20
ENDBRANCH   1  12
BRANCH   6  22
ATOM     22  O   UNL     1      32.291  32.191  47.169  1.00  0.00    -0.507 OA
ATOM     23  H   UNL     1      32.096  32.722  48.003  1.00  0.00     0.293 HD
ENDBRANCH   6  22
BRANCH   8  24
ATOM     24  O   UNL     1      35.202  35.481  45.228  1.00  0.00    -0.508 OA
ATOM     25  H   UNL     1      35.263  35.933  44.323  1.00  0.00     0.293 HD
ENDBRANCH   8  24
TORSDOF 5
ENDMDL
MODEL 6
REMARK VINA RESULT:    -7.418      3.994      7.378
REMARK INTER + INTRA:          -8.989
REMARK INTER:                  -8.703
REMARK INTRA:                  -0.286
REMARK UNBOUND:                -0.271
REMARK SMILES O=c1cc(-c2ccc(O)c(O)c2)oc2cc(O)cc(O)c12
REMARK SMILES IDX 4 1 3 2 2 3 1 4 21 5 19 6 18 7 16 8 15 9 14 10 13 11 5 12
REMARK SMILES IDX 6 13 7 14 8 15 12 16 10 17 9 18 11 20 20 22 17 24
REMARK H PARENT 9 19 11 21 20 23 17 25
REMARK Flexibility Score: inf
ROOT
ATOM      1  C   UNL     1      35.797  29.482  43.296  1.00  0.00     0.138 A 
ATOM      2  C   UNL     1      35.097  29.412  44.508  1.00  0.00     0.100 A 
ATOM      3  C   UNL     1      34.173  30.407  44.831  1.00  0.00     0.197 A 
ATOM      4  O   UNL     1      33.515  30.283  45.896  1.00  0.00    -0.289 OA
ATOM      5  C   UNL     1      33.974  31.495  43.947  1.00  0.00     0.107 A 
ATOM      6  C   UNL     1      33.089  32.587  44.190  1.00  0.00     0.134 A 
ATOM      7  C   UNL     1      32.886  33.547  43.192  1.00  0.00     0.093 A 
ATOM      8  C   UNL     1      33.583  33.487  41.982  1.00  0.00     0.123 A 
ATOM      9  C   UNL     1      34.490  32.454  41.757  1.00  0.00     0.094 A 
ATOM     10  C   UNL     1      34.687  31.461  42.720  1.00  0.00     0.146 A 
ATOM     11  O   UNL     1      35.551  30.485  42.459  1.00  0.00    -0.456 OA
ENDROOT
BRANCH   1  12
ATOM     12  C   UNL     1      36.792  28.452  42.904  1.00  0.00     0.021 A 
ATOM     13  C   UNL     1      37.818  28.105  43.801  1.00  0.00     0.016 A 
ATOM     14  C   UNL     1      38.762  27.134  43.459  1.00  0.00     0.051 A 
ATOM     15  C   UNL     1      38.693  26.487  42.220  1.00  0.00     0.157 A 
ATOM     16  C   UNL     1      36.720  27.787  41.665  1.00  0.00     0.062 A 
ATOM     17  C   UNL     1      37.668  26.811  41.323  1.00  0.00     0.158 A 
BRANCH  15  18
ATOM     18  O   UNL     1      39.633  25.518  41.875  1.00  0.00    -0.504 OA
ATOM     19  H   UNL     1      39.864  24.757  42.502  1.00  0.00     0.293 HD
ENDBRANCH  15  18
BRANCH  17  20
ATOM     20  O   UNL     1      37.594  26.156  40.095  1.00  0.00    -0.504 OA
ATOM     21  H   UNL     1      37.821  25.172  40.002  1.00  0.00     0.293 HD
ENDBRANCH  17  20
ENDBRANCH   1  12
BRANCH   6  22
ATOM     22  O   UNL     1      32.408  32.787  45.396  1.00  0.00    -0.507 OA
ATOM     23  H   UNL     1      32.169  32.059  46.051  1.00  0.00     0.293 HD
ENDBRANCH   6  22
BRANCH   8  24
ATOM     24  O   UNL     1      33.387  34.454  40.999  1.00  0.00    -0.508 OA
ATOM     25  H   UNL     1      32.773  34.291  40.210  1.00  0.00     0.293 HD
ENDBRANCH   8  24
TORSDOF 5
ENDMDL
MODEL 7
REMARK VINA RESULT:    -7.297      4.710      7.250
REMARK INTER + INTRA:          -8.847
REMARK INTER:                  -8.554
REMARK INTRA:                  -0.294
REMARK UNBOUND:                -0.271
REMARK SMILES O=c1cc(-c2ccc(O)c(O)c2)oc2cc(O)cc(O)c12
REMARK SMILES IDX 4 1 3 2 2 3 1 4 21 5 19 6 18 7 16 8 15 9 14 10 13 11 5 12
REMARK SMILES IDX 6 13 7 14 8 15 12 16 10 17 9 18 11 20 20 22 17 24
REMARK H PARENT 9 19 11 21 20 23 17 25
REMARK Flexibility Score: inf
ROOT
ATOM      1  C   UNL     1      35.446  23.184  38.928  1.00  0.00     0.138 A 
ATOM      2  C   UNL     1      35.347  24.557  38.668  1.00  0.00     0.100 A 
ATOM      3  C   UNL     1      36.405  25.220  38.043  1.00  0.00     0.197 A 
ATOM      4  O   UNL     1      36.261  26.438  37.766  1.00  0.00    -0.289 OA
ATOM      5  C   UNL     1      37.581  24.506  37.707  1.00  0.00     0.107 A 
ATOM      6  C   UNL     1      38.737  25.085  37.105  1.00  0.00     0.134 A 
ATOM      7  C   UNL     1      39.797  24.259  36.711  1.00  0.00     0.093 A 
ATOM      8  C   UNL     1      39.767  22.883  36.952  1.00  0.00     0.123 A 
ATOM      9  C   UNL     1      38.665  22.317  37.588  1.00  0.00     0.094 A 
ATOM     10  C   UNL     1      37.576  23.110  37.962  1.00  0.00     0.146 A 
ATOM     11  O   UNL     1      36.539  22.526  38.553  1.00  0.00    -0.456 OA
ENDROOT
BRANCH   1  12
ATOM     12  C   UNL     1      34.351  22.431  39.592  1.00  0.00     0.021 A 
ATOM     13  C   UNL     1      34.619  21.165  40.143  1.00  0.00     0.016 A 
ATOM     14  C   UNL     1      33.608  20.439  40.778  1.00  0.00     0.051 A 
ATOM     15  C   UNL     1      32.317  20.969  40.883  1.00  0.00     0.157 A 
ATOM     16  C   UNL     1      33.053  22.963  39.712  1.00  0.00     0.062 A 
ATOM     17  C   UNL     1      32.039  22.234  40.352  1.00  0.00     0.158 A 
BRANCH  15  18
ATOM     18  O   UNL     1      31.306  20.247  41.515  1.00  0.00    -0.504 OA
ATOM     19  H   UNL     1      30.853  20.593  42.353  1.00  0.00     0.293 HD
ENDBRANCH  15  18
BRANCH  17  20
ATOM     20  O   UNL     1      30.756  22.764  40.467  1.00  0.00    -0.504 OA
ATOM     21  H   UNL     1      30.004  22.245  40.906  1.00  0.00     0.293 HD
ENDBRANCH  17  20
ENDBRANCH   1  12
BRANCH   6  22
ATOM     22  O   UNL     1      38.905  26.458  36.896  1.00  0.00    -0.507 OA
ATOM     23  H   UNL     1      39.340  27.092  37.549  1.00  0.00     0.293 HD
ENDBRANCH   6  22
BRANCH   8  24
ATOM     24  O   UNL     1      40.832  22.071  36.571  1.00  0.00    -0.508 OA
ATOM     25  H   UNL     1      41.366  21.544  37.252  1.00  0.00     0.293 HD
ENDBRANCH   8  24
TORSDOF 5
ENDMDL
MODEL 8
REMARK VINA RESULT:    -7.165      6.026      7.047
REMARK INTER + INTRA:          -8.692
REMARK INTER:                  -8.388
REMARK INTRA:                  -0.304
REMARK UNBOUND:                -0.271
REMARK SMILES O=c1cc(-c2ccc(O)c(O)c2)oc2cc(O)cc(O)c12
REMARK SMILES IDX 4 1 3 2 2 3 1 4 21 5 19 6 18 7 16 8 15 9 14 10 13 11 5 12
REMARK SMILES IDX 6 13 7 14 8 15 12 16 10 17 9 18 11 20 20 22 17 24
REMARK H PARENT 9 19 11 21 20 23 17 25
REMARK Flexibility Score: inf
ROOT
ATOM      1  C   UNL     1      34.697  22.917  39.363  1.00  0.00     0.138 A 
ATOM      2  C   UNL     1      33.409  23.456  39.248  1.00  0.00     0.100 A 
ATOM      3  C   UNL     1      32.345  22.851  39.920  1.00  0.00     0.197 A 
ATOM      4  O   UNL     1      31.213  23.395  39.849  1.00  0.00    -0.289 OA
ATOM      5  C   UNL     1      32.570  21.681  40.684  1.00  0.00     0.107 A 
ATOM      6  C   UNL     1      31.555  20.957  41.377  1.00  0.00     0.134 A 
ATOM      7  C   UNL     1      31.914  19.879  42.197  1.00  0.00     0.093 A 
ATOM      8  C   UNL     1      33.244  19.463  42.300  1.00  0.00     0.123 A 
ATOM      9  C   UNL     1      34.235  20.131  41.584  1.00  0.00     0.094 A 
ATOM     10  C   UNL     1      33.913  21.232  40.785  1.00  0.00     0.146 A 
ATOM     11  O   UNL     1      34.891  21.849  40.131  1.00  0.00    -0.456 OA
ENDROOT
BRANCH   1  12
ATOM     12  C   UNL     1      35.864  23.519  38.668  1.00  0.00     0.021 A 
ATOM     13  C   UNL     1      35.902  24.909  38.459  1.00  0.00     0.016 A 
ATOM     14  C   UNL     1      36.991  25.500  37.814  1.00  0.00     0.051 A 
ATOM     15  C   UNL     1      38.065  24.716  37.378  1.00  0.00     0.157 A 
ATOM     16  C   UNL     1      36.954  22.737  38.239  1.00  0.00     0.062 A 
ATOM     17  C   UNL     1      38.048  23.333  37.593  1.00  0.00     0.158 A 
BRANCH  15  18
ATOM     18  O   UNL     1      39.153  25.302  36.734  1.00  0.00    -0.504 OA
ATOM     19  H   UNL     1      39.405  26.270  36.896  1.00  0.00     0.293 HD
ENDBRANCH  15  18
BRANCH  17  20
ATOM     20  O   UNL     1      39.124  22.555  37.168  1.00  0.00    -0.504 OA
ATOM     21  H   UNL     1      38.995  21.767  36.543  1.00  0.00     0.293 HD
ENDBRANCH  17  20
ENDBRANCH   1  12
BRANCH   6  22
ATOM     22  O   UNL     1      30.189  21.236  41.276  1.00  0.00    -0.507 OA
ATOM     23  H   UNL     1      29.717  21.987  41.755  1.00  0.00     0.293 HD
ENDBRANCH   6  22
BRANCH   8  24
ATOM     24  O   UNL     1      33.590  18.381  43.105  1.00  0.00    -0.508 OA
ATOM     25  H   UNL     1      33.076  18.165  43.951  1.00  0.00     0.293 HD
ENDBRANCH   8  24
TORSDOF 5
ENDMDL
MODEL 9
REMARK VINA RESULT:    -6.970      4.213      7.720
REMARK INTER + INTRA:          -8.463
REMARK INTER:                  -8.192
REMARK INTRA:                  -0.272
REMARK UNBOUND:                -0.271
REMARK SMILES O=c1cc(-c2ccc(O)c(O)c2)oc2cc(O)cc(O)c12
REMARK SMILES IDX 4 1 3 2 2 3 1 4 21 5 19 6 18 7 16 8 15 9 14 10 13 11 5 12
REMARK SMILES IDX 6 13 7 14 8 15 12 16 10 17 9 18 11 20 20 22 17 24
REMARK H PARENT 9 19 11 21 20 23 17 25
REMARK Flexibility Score: inf
ROOT
ATOM      1  C   UNL     1      35.817  29.887  43.188  1.00  0.00     0.138 A 
ATOM      2  C   UNL     1      35.691  30.940  42.273  1.00  0.00     0.100 A 
ATOM      3  C   UNL     1      34.829  32.001  42.557  1.00  0.00     0.197 A 
ATOM      4  O   UNL     1      34.785  32.962  41.746  1.00  0.00    -0.289 OA
ATOM      5  C   UNL     1      34.067  31.988  43.749  1.00  0.00     0.107 A 
ATOM      6  C   UNL     1      33.127  32.995  44.122  1.00  0.00     0.134 A 
ATOM      7  C   UNL     1      32.516  32.937  45.381  1.00  0.00     0.093 A 
ATOM      8  C   UNL     1      32.766  31.875  46.254  1.00  0.00     0.123 A 
ATOM      9  C   UNL     1      33.641  30.859  45.876  1.00  0.00     0.094 A 
ATOM     10  C   UNL     1      34.293  30.908  44.641  1.00  0.00     0.146 A 
ATOM     11  O   UNL     1      35.131  29.926  44.327  1.00  0.00    -0.456 OA
ENDROOT
BRANCH   1  12
ATOM     12  C   UNL     1      36.717  28.732  42.937  1.00  0.00     0.021 A 
ATOM     13  C   UNL     1      37.684  28.387  43.899  1.00  0.00     0.016 A 
ATOM     14  C   UNL     1      38.538  27.302  43.689  1.00  0.00     0.051 A 
ATOM     15  C   UNL     1      38.436  26.537  42.521  1.00  0.00     0.157 A 
ATOM     16  C   UNL     1      36.611  27.951  41.770  1.00  0.00     0.062 A 
ATOM     17  C   UNL     1      37.469  26.860  41.561  1.00  0.00     0.158 A 
BRANCH  15  18
ATOM     18  O   UNL     1      39.287  25.455  42.308  1.00  0.00    -0.504 OA
ATOM     19  H   UNL     1      39.602  25.204  41.378  1.00  0.00     0.293 HD
ENDBRANCH  15  18
BRANCH  17  20
ATOM     20  O   UNL     1      37.362  26.091  40.404  1.00  0.00    -0.504 OA
ATOM     21  H   UNL     1      36.466  25.753  40.072  1.00  0.00     0.293 HD
ENDBRANCH  17  20
ENDBRANCH   1  12
BRANCH   6  22
ATOM     22  O   UNL     1      32.742  34.052  43.290  1.00  0.00    -0.507 OA
ATOM     23  H   UNL     1      33.136  34.979  43.317  1.00  0.00     0.293 HD
ENDBRANCH   6  22
BRANCH   8  24
ATOM     24  O   UNL     1      32.142  31.817  47.498  1.00  0.00    -0.508 OA
ATOM     25  H   UNL     1      31.132  31.809  47.585  1.00  0.00     0.293 HD
ENDBRANCH   8  24
TORSDOF 5
ENDMDL
