MODEL 1
REMARK VINA RESULT:    -3.490      0.000      0.000
REMARK INTER + INTRA:          -5.993
REMARK INTER:                  -5.021
REMARK INTRA:                  -0.972
REMARK UNBOUND:                -0.972
REMARK SMILES O=C(CO)[C@H](O)[C@@H](O)[C@@H](O)CO
REMARK SMILES IDX 7 1 9 2 11 3 12 4 10 6 5 8 2 9 1 10 3 11 4 12 6 14 8 16
REMARK H PARENT 12 5 10 7 4 13 6 15 8 17
REMARK Flexibility Score: inf
ROOT
ATOM      1  C   UNL     1       4.608   4.872  -7.474  1.00  0.00     0.181 C 
ENDROOT
BRANCH   1   2
ATOM      2  C   UNL     1       4.434   6.387  -7.172  1.00  0.00     0.171 C 
BRANCH   2   3
ATOM      3  C   UNL     1       3.208   7.007  -7.872  1.00  0.00     0.190 C 
BRANCH   3   4
ATOM      4  O   UNL     1       2.032   6.764  -7.148  1.00  0.00    -0.394 OA
ATOM      5  H   UNL     1       1.694   5.879  -7.445  1.00  0.00     0.210 HD
ENDBRANCH   3   4
ENDBRANCH   2   3
BRANCH   2   6
ATOM      6  O   UNL     1       5.592   7.094  -7.537  1.00  0.00    -0.388 OA
ATOM      7  H   UNL     1       5.726   7.802  -6.855  1.00  0.00     0.211 HD
ENDBRANCH   2   6
ENDBRANCH   1   2
BRANCH   1   8
ATOM      8  C   UNL     1       5.615   4.134  -6.544  1.00  0.00     0.214 C 
BRANCH   8   9
ATOM      9  C   UNL     1       4.898   3.222  -5.565  1.00  0.00     0.189 C 
ATOM     10  O   UNL     1       4.462   2.152  -5.967  1.00  0.00    -0.294 OA
BRANCH   9  11
ATOM     11  C   UNL     1       4.703   3.607  -4.118  1.00  0.00     0.234 C 
BRANCH  11  12
ATOM     12  O   UNL     1       5.863   3.363  -3.367  1.00  0.00    -0.388 OA
ATOM     13  H   UNL     1       6.197   2.469  -3.643  1.00  0.00     0.211 HD
ENDBRANCH  11  12
ENDBRANCH   9  11
ENDBRANCH   8   9
BRANCH   8  14
ATOM     14  O   UNL     1       6.490   5.023  -5.891  1.00  0.00    -0.382 OA
ATOM     15  H   UNL     1       5.944   5.679  -5.387  1.00  0.00     0.211 HD
ENDBRANCH   8  14
ENDBRANCH   1   8
BRANCH   1  16
ATOM     16  O   UNL     1       3.361   4.220  -7.498  1.00  0.00    -0.387 OA
ATOM     17  H   UNL     1       2.657   4.902  -7.646  1.00  0.00     0.211 HD
ENDBRANCH   1  16
TORSDOF 10
ENDMDL
MODEL 2
REMARK VINA RESULT:    -3.437      0.789      4.576
REMARK INTER + INTRA:          -5.917
REMARK INTER:                  -4.911
REMARK INTRA:                  -1.005
REMARK UNBOUND:                -0.972
REMARK SMILES O=C(CO)[C@H](O)[C@@H](O)[C@@H](O)CO
REMARK SMILES IDX 7 1 9 2 11 3 12 4 10 6 5 8 2 9 1 10 3 11 4 12 6 14 8 16
REMARK H PARENT 12 5 10 7 4 13 6 15 8 17
REMARK Flexibility Score: inf
ROOT
ATOM      1  C   UNL     1       4.985   4.856  -6.334  1.00  0.00     0.181 C 
ENDROOT
BRANCH   1   2
ATOM      2  C   UNL     1       4.280   3.666  -5.622  1.00  0.00     0.171 C 
BRANCH   2   3
ATOM      3  C   UNL     1       4.585   3.596  -4.113  1.00  0.00     0.190 C 
BRANCH   3   4
ATOM      4  O   UNL     1       5.923   3.923  -3.849  1.00  0.00    -0.394 OA
ATOM      5  H   UNL     1       6.374   3.077  -3.588  1.00  0.00     0.210 HD
ENDBRANCH   3   4
ENDBRANCH   2   3
BRANCH   2   6
ATOM      6  O   UNL     1       4.641   2.451  -6.231  1.00  0.00    -0.388 OA
ATOM      7  H   UNL     1       3.861   2.155  -6.770  1.00  0.00     0.211 HD
ENDBRANCH   2   6
ENDBRANCH   1   2
BRANCH   1   8
ATOM      8  C   UNL     1       4.416   5.203  -7.740  1.00  0.00     0.214 C 
BRANCH   8   9
ATOM      9  C   UNL     1       4.226   6.701  -7.906  1.00  0.00     0.189 C 
ATOM     10  O   UNL     1       5.211   7.426  -7.875  1.00  0.00    -0.294 OA
BRANCH   9  11
ATOM     11  C   UNL     1       2.859   7.311  -8.097  1.00  0.00     0.234 C 
BRANCH  11  12
ATOM     12  O   UNL     1       1.932   6.776  -7.190  1.00  0.00    -0.388 OA
ATOM     13  H   UNL     1       1.440   7.546  -6.800  1.00  0.00     0.211 HD
ENDBRANCH  11  12
ENDBRANCH   9  11
ENDBRANCH   8   9
BRANCH   8  14
ATOM     14  O   UNL     1       3.239   4.488  -8.032  1.00  0.00    -0.382 OA
ATOM     15  H   UNL     1       2.713   5.013  -8.688  1.00  0.00     0.211 HD
ENDBRANCH   8  14
ENDBRANCH   1   8
BRANCH   1  16
ATOM     16  O   UNL     1       5.015   5.990  -5.499  1.00  0.00    -0.387 OA
ATOM     17  H   UNL     1       5.753   6.579  -5.802  1.00  0.00     0.211 HD
ENDBRANCH   1  16
TORSDOF 10
ENDMDL
MODEL 3
REMARK VINA RESULT:    -3.401     11.014     12.419
REMARK INTER + INTRA:          -5.864
REMARK INTER:                  -4.712
REMARK INTRA:                  -1.152
REMARK UNBOUND:                -0.972
REMARK SMILES O=C(CO)[C@H](O)[C@@H](O)[C@@H](O)CO
REMARK SMILES IDX 7 1 9 2 11 3 12 4 10 6 5 8 2 9 1 10 3 11 4 12 6 14 8 16
REMARK H PARENT 12 5 10 7 4 13 6 15 8 17
REMARK Flexibility Score: inf
ROOT
ATOM      1  C   UNL     1      -7.385   1.637  -7.379  1.00  0.00     0.181 C 
ENDROOT
BRANCH   1   2
ATOM      2  C   UNL     1      -6.832   0.183  -7.427  1.00  0.00     0.171 C 
BRANCH   2   3
ATOM      3  C   UNL     1      -6.076  -0.134  -8.732  1.00  0.00     0.190 C 
BRANCH   3   4
ATOM      4  O   UNL     1      -4.713   0.179  -8.618  1.00  0.00    -0.394 OA
ATOM      5  H   UNL     1      -4.609   0.688  -7.772  1.00  0.00     0.210 HD
ENDBRANCH   3   4
ENDBRANCH   2   3
BRANCH   2   6
ATOM      6  O   UNL     1      -7.876  -0.741  -7.252  1.00  0.00    -0.388 OA
ATOM      7  H   UNL     1      -7.468  -1.646  -7.277  1.00  0.00     0.211 HD
ENDBRANCH   2   6
ENDBRANCH   1   2
BRANCH   1   8
ATOM      8  C   UNL     1      -7.934   2.079  -5.991  1.00  0.00     0.214 C 
BRANCH   8   9
ATOM      9  C   UNL     1      -7.386   3.437  -5.588  1.00  0.00     0.189 C 
ATOM     10  O   UNL     1      -7.862   4.440  -6.101  1.00  0.00    -0.294 OA
BRANCH   9  11
ATOM     11  C   UNL     1      -6.270   3.575  -4.581  1.00  0.00     0.234 C 
BRANCH  11  12
ATOM     12  O   UNL     1      -5.222   2.684  -4.858  1.00  0.00    -0.388 OA
ATOM     13  H   UNL     1      -5.534   2.101  -5.600  1.00  0.00     0.211 HD
ENDBRANCH  11  12
ENDBRANCH   9  11
ENDBRANCH   8   9
BRANCH   8  14
ATOM     14  O   UNL     1      -7.717   1.107  -4.996  1.00  0.00    -0.382 OA
ATOM     15  H   UNL     1      -7.249   0.339  -5.412  1.00  0.00     0.211 HD
ENDBRANCH   8  14
ENDBRANCH   1   8
BRANCH   1  16
ATOM     16  O   UNL     1      -6.432   2.550  -7.868  1.00  0.00    -0.387 OA
ATOM     17  H   UNL     1      -6.890   3.178  -8.483  1.00  0.00     0.211 HD
ENDBRANCH   1  16
TORSDOF 10
ENDMDL
MODEL 4
REMARK VINA RESULT:    -3.370     11.038     12.227
REMARK INTER + INTRA:          -5.820
REMARK INTER:                  -4.949
REMARK INTRA:                  -0.871
REMARK UNBOUND:                -0.972
REMARK SMILES O=C(CO)[C@H](O)[C@@H](O)[C@@H](O)CO
REMARK SMILES IDX 7 1 9 2 11 3 12 4 10 6 5 8 2 9 1 10 3 11 4 12 6 14 8 16
REMARK H PARENT 12 5 10 7 4 13 6 15 8 17
REMARK Flexibility Score: inf
ROOT
ATOM      1  C   UNL     1      -7.643   2.364  -5.202  1.00  0.00     0.181 C 
ENDROOT
BRANCH   1   2
ATOM      2  C   UNL     1      -6.493   3.036  -4.400  1.00  0.00     0.171 C 
BRANCH   2   3
ATOM      3  C   UNL     1      -6.533   4.576  -4.460  1.00  0.00     0.190 C 
BRANCH   3   4
ATOM      4  O   UNL     1      -5.421   5.087  -5.145  1.00  0.00    -0.394 OA
ATOM      5  H   UNL     1      -5.197   4.427  -5.853  1.00  0.00     0.210 HD
ENDBRANCH   3   4
ENDBRANCH   2   3
BRANCH   2   6
ATOM      6  O   UNL     1      -5.246   2.580  -4.859  1.00  0.00    -0.388 OA
ATOM      7  H   UNL     1      -4.890   1.965  -4.166  1.00  0.00     0.211 HD
ENDBRANCH   2   6
ENDBRANCH   1   2
BRANCH   1   8
ATOM      8  C   UNL     1      -7.388   2.247  -6.733  1.00  0.00     0.214 C 
BRANCH   8   9
ATOM      9  C   UNL     1      -6.946   0.845  -7.115  1.00  0.00     0.189 C 
ATOM     10  O   UNL     1      -5.789   0.512  -6.897  1.00  0.00    -0.294 OA
BRANCH   9  11
ATOM     11  C   UNL     1      -7.893  -0.138  -7.760  1.00  0.00     0.234 C 
BRANCH  11  12
ATOM     12  O   UNL     1      -8.601  -0.870  -6.796  1.00  0.00    -0.388 OA
ATOM     13  H   UNL     1      -8.999  -0.208  -6.172  1.00  0.00     0.211 HD
ENDBRANCH  11  12
ENDBRANCH   9  11
ENDBRANCH   8   9
BRANCH   8  14
ATOM     14  O   UNL     1      -6.492   3.227  -7.202  1.00  0.00    -0.382 OA
ATOM     15  H   UNL     1      -6.903   4.117  -7.054  1.00  0.00     0.211 HD
ENDBRANCH   8  14
ENDBRANCH   1   8
BRANCH   1  16
ATOM     16  O   UNL     1      -7.980   1.116  -4.642  1.00  0.00    -0.387 OA
ATOM     17  H   UNL     1      -7.796   0.413  -5.317  1.00  0.00     0.211 HD
ENDBRANCH   1  16
TORSDOF 10
ENDMDL
MODEL 5
REMARK VINA RESULT:    -3.288      1.380      2.213
REMARK INTER + INTRA:          -5.702
REMARK INTER:                  -4.979
REMARK INTRA:                  -0.723
REMARK UNBOUND:                -0.972
REMARK SMILES O=C(CO)[C@H](O)[C@@H](O)[C@@H](O)CO
REMARK SMILES IDX 7 1 9 2 11 3 12 4 10 6 5 8 2 9 1 10 3 11 4 12 6 14 8 16
REMARK H PARENT 12 5 10 7 4 13 6 15 8 17
REMARK Flexibility Score: inf
ROOT
ATOM      1  C   UNL     1       4.604   5.309  -7.958  1.00  0.00     0.181 C 
ENDROOT
BRANCH   1   2
ATOM      2  C   UNL     1       3.383   5.967  -8.663  1.00  0.00     0.171 C 
BRANCH   2   3
ATOM      3  C   UNL     1       2.808   7.166  -7.884  1.00  0.00     0.190 C 
BRANCH   3   4
ATOM      4  O   UNL     1       1.519   6.890  -7.406  1.00  0.00    -0.394 OA
ATOM      5  H   UNL     1       0.946   7.654  -7.678  1.00  0.00     0.210 HD
ENDBRANCH   3   4
ENDBRANCH   2   3
BRANCH   2   6
ATOM      6  O   UNL     1       2.371   5.016  -8.876  1.00  0.00    -0.388 OA
ATOM      7  H   UNL     1       1.897   4.899  -8.012  1.00  0.00     0.211 HD
ENDBRANCH   2   6
ENDBRANCH   1   2
BRANCH   1   8
ATOM      8  C   UNL     1       4.386   4.978  -6.453  1.00  0.00     0.214 C 
BRANCH   8   9
ATOM      9  C   UNL     1       5.686   5.065  -5.674  1.00  0.00     0.189 C 
ATOM     10  O   UNL     1       6.724   5.283  -6.282  1.00  0.00    -0.294 OA
BRANCH   9  11
ATOM     11  C   UNL     1       5.727   4.881  -4.175  1.00  0.00     0.234 C 
BRANCH  11  12
ATOM     12  O   UNL     1       5.578   3.531  -3.825  1.00  0.00    -0.388 OA
ATOM     13  H   UNL     1       5.614   3.490  -2.833  1.00  0.00     0.211 HD
ENDBRANCH  11  12
ENDBRANCH   9  11
ENDBRANCH   8   9
BRANCH   8  14
ATOM     14  O   UNL     1       3.742   3.740  -6.266  1.00  0.00    -0.382 OA
ATOM     15  H   UNL     1       4.362   3.139  -5.779  1.00  0.00     0.211 HD
ENDBRANCH   8  14
ENDBRANCH   1   8
BRANCH   1  16
ATOM     16  O   UNL     1       5.044   4.179  -8.673  1.00  0.00    -0.387 OA
ATOM     17  H   UNL     1       4.656   4.217  -9.584  1.00  0.00     0.211 HD
ENDBRANCH   1  16
TORSDOF 10
ENDMDL
MODEL 6
REMARK VINA RESULT:    -3.272     11.702     12.916
REMARK INTER + INTRA:          -5.678
REMARK INTER:                  -4.903
REMARK INTRA:                  -0.775
REMARK UNBOUND:                -0.972
REMARK SMILES O=C(CO)[C@H](O)[C@@H](O)[C@@H](O)CO
REMARK SMILES IDX 7 1 9 2 11 3 12 4 10 6 5 8 2 9 1 10 3 11 4 12 6 14 8 16
REMARK H PARENT 12 5 10 7 4 13 6 15 8 17
REMARK Flexibility Score: inf
ROOT
ATOM      1  C   UNL     1      -6.058  -0.221  -8.969  1.00  0.00     0.181 C 
ENDROOT
BRANCH   1   2
ATOM      2  C   UNL     1      -6.122  -1.741  -9.293  1.00  0.00     0.171 C 
BRANCH   2   3
ATOM      3  C   UNL     1      -7.545  -2.227  -9.634  1.00  0.00     0.190 C 
BRANCH   3   4
ATOM      4  O   UNL     1      -8.027  -3.110  -8.657  1.00  0.00    -0.394 OA
ATOM      5  H   UNL     1      -7.375  -3.857  -8.603  1.00  0.00     0.210 HD
ENDBRANCH   3   4
ENDBRANCH   2   3
BRANCH   2   6
ATOM      6  O   UNL     1      -5.614  -2.490  -8.219  1.00  0.00    -0.388 OA
ATOM      7  H   UNL     1      -4.683  -2.181  -8.066  1.00  0.00     0.211 HD
ENDBRANCH   2   6
ENDBRANCH   1   2
BRANCH   1   8
ATOM      8  C   UNL     1      -7.210   0.301  -8.061  1.00  0.00     0.214 C 
BRANCH   8   9
ATOM      9  C   UNL     1      -6.873   1.656  -7.464  1.00  0.00     0.189 C 
ATOM     10  O   UNL     1      -6.546   2.566  -8.215  1.00  0.00    -0.294 OA
BRANCH   9  11
ATOM     11  C   UNL     1      -6.923   1.902  -5.976  1.00  0.00     0.234 C 
BRANCH  11  12
ATOM     12  O   UNL     1      -5.860   1.265  -5.319  1.00  0.00    -0.388 OA
ATOM     13  H   UNL     1      -5.887   1.569  -4.374  1.00  0.00     0.211 HD
ENDBRANCH  11  12
ENDBRANCH   9  11
ENDBRANCH   8   9
BRANCH   8  14
ATOM     14  O   UNL     1      -7.577  -0.633  -7.074  1.00  0.00    -0.382 OA
ATOM     15  H   UNL     1      -7.874  -0.133  -6.271  1.00  0.00     0.211 HD
ENDBRANCH   8  14
ENDBRANCH   1   8
BRANCH   1  16
ATOM     16  O   UNL     1      -4.797   0.126  -8.447  1.00  0.00    -0.387 OA
ATOM     17  H   UNL     1      -4.861   0.128  -7.457  1.00  0.00     0.211 HD
ENDBRANCH   1  16
TORSDOF 10
ENDMDL
MODEL 7
REMARK VINA RESULT:    -3.247     10.764     12.649
REMARK INTER + INTRA:          -5.642
REMARK INTER:                  -4.646
REMARK INTRA:                  -0.996
REMARK UNBOUND:                -0.972
REMARK SMILES O=C(CO)[C@H](O)[C@@H](O)[C@@H](O)CO
REMARK SMILES IDX 7 1 9 2 11 3 12 4 10 6 5 8 2 9 1 10 3 11 4 12 6 14 8 16
REMARK H PARENT 12 5 10 7 4 13 6 15 8 17
REMARK Flexibility Score: inf
ROOT
ATOM      1  C   UNL     1       7.523  -7.066  -3.850  1.00  0.00     0.181 C 
ENDROOT
BRANCH   1   2
ATOM      2  C   UNL     1       7.979  -6.393  -2.524  1.00  0.00     0.171 C 
BRANCH   2   3
ATOM      3  C   UNL     1       8.337  -4.904  -2.693  1.00  0.00     0.190 C 
BRANCH   3   4
ATOM      4  O   UNL     1       7.223  -4.156  -3.101  1.00  0.00    -0.394 OA
ATOM      5  H   UNL     1       7.165  -4.250  -4.088  1.00  0.00     0.210 HD
ENDBRANCH   3   4
ENDBRANCH   2   3
BRANCH   2   6
ATOM      6  O   UNL     1       9.076  -7.083  -1.979  1.00  0.00    -0.388 OA
ATOM      7  H   UNL     1       9.264  -6.673  -1.095  1.00  0.00     0.211 HD
ENDBRANCH   2   6
ENDBRANCH   1   2
BRANCH   1   8
ATOM      8  C   UNL     1       6.019  -7.464  -3.895  1.00  0.00     0.214 C 
BRANCH   8   9
ATOM      9  C   UNL     1       5.701  -8.287  -5.132  1.00  0.00     0.189 C 
ATOM     10  O   UNL     1       6.598  -8.520  -5.930  1.00  0.00    -0.294 OA
BRANCH   9  11
ATOM     11  C   UNL     1       4.311  -8.812  -5.400  1.00  0.00     0.234 C 
BRANCH  11  12
ATOM     12  O   UNL     1       3.396  -7.763  -5.571  1.00  0.00    -0.388 OA
ATOM     13  H   UNL     1       2.816  -8.014  -6.337  1.00  0.00     0.211 HD
ENDBRANCH  11  12
ENDBRANCH   9  11
ENDBRANCH   8   9
BRANCH   8  14
ATOM     14  O   UNL     1       5.168  -6.350  -3.772  1.00  0.00    -0.382 OA
ATOM     15  H   UNL     1       4.290  -6.585  -4.168  1.00  0.00     0.211 HD
ENDBRANCH   8  14
ENDBRANCH   1   8
BRANCH   1  16
ATOM     16  O   UNL     1       7.877  -6.275  -4.959  1.00  0.00    -0.387 OA
ATOM     17  H   UNL     1       8.045  -6.877  -5.729  1.00  0.00     0.211 HD
ENDBRANCH   1  16
TORSDOF 10
ENDMDL
MODEL 8
REMARK VINA RESULT:    -3.193      1.736      4.393
REMARK INTER + INTRA:          -5.565
REMARK INTER:                  -4.109
REMARK INTRA:                  -1.457
REMARK UNBOUND:                -0.972
REMARK SMILES O=C(CO)[C@H](O)[C@@H](O)[C@@H](O)CO
REMARK SMILES IDX 7 1 9 2 11 3 12 4 10 6 5 8 2 9 1 10 3 11 4 12 6 14 8 16
REMARK H PARENT 12 5 10 7 4 13 6 15 8 17
REMARK Flexibility Score: inf
ROOT
ATOM      1  C   UNL     1       4.439   5.617  -6.675  1.00  0.00     0.181 C 
ENDROOT
BRANCH   1   2
ATOM      2  C   UNL     1       5.882   5.042  -6.747  1.00  0.00     0.171 C 
BRANCH   2   3
ATOM      3  C   UNL     1       5.947   3.650  -7.406  1.00  0.00     0.190 C 
BRANCH   3   4
ATOM      4  O   UNL     1       5.411   3.675  -8.701  1.00  0.00    -0.394 OA
ATOM      5  H   UNL     1       5.115   2.749  -8.903  1.00  0.00     0.210 HD
ENDBRANCH   3   4
ENDBRANCH   2   3
BRANCH   2   6
ATOM      6  O   UNL     1       6.448   4.981  -5.462  1.00  0.00    -0.388 OA
ATOM      7  H   UNL     1       5.989   5.667  -4.911  1.00  0.00     0.211 HD
ENDBRANCH   2   6
ENDBRANCH   1   2
BRANCH   1   8
ATOM      8  C   UNL     1       4.129   6.731  -7.716  1.00  0.00     0.214 C 
BRANCH   8   9
ATOM      9  C   UNL     1       2.687   6.660  -8.188  1.00  0.00     0.189 C 
ATOM     10  O   UNL     1       1.804   7.071  -7.448  1.00  0.00    -0.294 OA
BRANCH   9  11
ATOM     11  C   UNL     1       2.321   6.091  -9.538  1.00  0.00     0.234 C 
BRANCH  11  12
ATOM     12  O   UNL     1       2.980   4.876  -9.773  1.00  0.00    -0.388 OA
ATOM     13  H   UNL     1       3.942   5.032  -9.579  1.00  0.00     0.211 HD
ENDBRANCH  11  12
ENDBRANCH   9  11
ENDBRANCH   8   9
BRANCH   8  14
ATOM     14  O   UNL     1       5.036   6.723  -8.793  1.00  0.00    -0.382 OA
ATOM     15  H   UNL     1       5.318   5.787  -8.953  1.00  0.00     0.211 HD
ENDBRANCH   8  14
ENDBRANCH   1   8
BRANCH   1  16
ATOM     16  O   UNL     1       3.486   4.582  -6.731  1.00  0.00    -0.387 OA
ATOM     17  H   UNL     1       2.825   4.807  -7.436  1.00  0.00     0.211 HD
ENDBRANCH   1  16
TORSDOF 10
ENDMDL
MODEL 9
REMARK VINA RESULT:    -3.189     18.068     19.416
REMARK INTER + INTRA:          -5.559
REMARK INTER:                  -4.573
REMARK INTRA:                  -0.986
REMARK UNBOUND:                -0.972
REMARK SMILES O=C(CO)[C@H](O)[C@@H](O)[C@@H](O)CO
REMARK SMILES IDX 7 1 9 2 11 3 12 4 10 6 5 8 2 9 1 10 3 11 4 12 6 14 8 16
REMARK H PARENT 12 5 10 7 4 13 6 15 8 17
REMARK Flexibility Score: inf
ROOT
ATOM      1  C   UNL     1      -0.074  -5.624   8.389  1.00  0.00     0.181 C 
ENDROOT
BRANCH   1   2
ATOM      2  C   UNL     1       0.858  -4.861   9.374  1.00  0.00     0.171 C 
BRANCH   2   3
ATOM      3  C   UNL     1       0.571  -3.348   9.429  1.00  0.00     0.190 C 
BRANCH   3   4
ATOM      4  O   UNL     1      -0.746  -3.095   9.840  1.00  0.00    -0.394 OA
ATOM      5  H   UNL     1      -0.704  -2.870  10.806  1.00  0.00     0.210 HD
ENDBRANCH   3   4
ENDBRANCH   2   3
BRANCH   2   6
ATOM      6  O   UNL     1       2.205  -5.072   9.034  1.00  0.00    -0.388 OA
ATOM      7  H   UNL     1       2.223  -5.347   8.080  1.00  0.00     0.211 HD
ENDBRANCH   2   6
ENDBRANCH   1   2
BRANCH   1   8
ATOM      8  C   UNL     1      -1.173  -6.490   9.070  1.00  0.00     0.214 C 
BRANCH   8   9
ATOM      9  C   UNL     1      -1.806  -7.456   8.084  1.00  0.00     0.189 C 
ATOM     10  O   UNL     1      -1.149  -7.832   7.123  1.00  0.00    -0.294 OA
BRANCH   9  11
ATOM     11  C   UNL     1      -3.221  -7.953   8.256  1.00  0.00     0.234 C 
BRANCH  11  12
ATOM     12  O   UNL     1      -4.151  -7.004   7.806  1.00  0.00    -0.388 OA
ATOM     13  H   UNL     1      -4.888  -6.990   8.472  1.00  0.00     0.211 HD
ENDBRANCH  11  12
ENDBRANCH   9  11
ENDBRANCH   8   9
BRANCH   8  14
ATOM     14  O   UNL     1      -2.137  -5.707   9.732  1.00  0.00    -0.382 OA
ATOM     15  H   UNL     1      -1.965  -5.764  10.706  1.00  0.00     0.211 HD
ENDBRANCH   8  14
ENDBRANCH   1   8
BRANCH   1  16
ATOM     16  O   UNL     1      -0.630  -4.742   7.443  1.00  0.00    -0.387 OA
ATOM     17  H   UNL     1       0.049  -4.053   7.223  1.00  0.00     0.211 HD
ENDBRANCH   1  16
TORSDOF 10
ENDMDL
