MODEL 1
REMARK VINA RESULT:    -3.328      0.000      0.000
REMARK INTER + INTRA:          -7.613
REMARK INTER:                  -5.856
REMARK INTRA:                  -1.756
REMARK UNBOUND:                -1.756
REMARK SMILES CCCCCCC=CCCCCCCCC(=O)[O-]
REMARK SMILES IDX 10 1 11 2 12 3 13 4 14 5 15 6 16 7 17 8 18 9 9 10 8 11 7 12
REMARK SMILES IDX 6 13 5 14 4 15 3 16 2 17 1 18
REMARK H PARENT
REMARK Flexibility Score: inf
ROOT
ATOM      1  C   UNL     1     -33.012   2.066 -38.321  1.00  0.00     0.004 C 
ENDROOT
BRANCH   1   2
ATOM      2  C   UNL     1     -33.275   0.576 -38.603  1.00  0.00     0.000 C 
BRANCH   2   3
ATOM      3  C   UNL     1     -31.998  -0.281 -38.535  1.00  0.00     0.000 C 
BRANCH   3   4
ATOM      4  C   UNL     1     -31.050   0.054 -37.370  1.00  0.00     0.000 C 
BRANCH   4   5
ATOM      5  C   UNL     1     -29.566  -0.123 -37.733  1.00  0.00     0.006 C 
BRANCH   5   6
ATOM      6  C   UNL     1     -29.380  -0.772 -39.111  1.00  0.00     0.053 C 
BRANCH   6   7
ATOM      7  C   UNL     1     -28.698  -2.103 -39.010  1.00  0.00     0.041 C 
ATOM      8  O   UNL     1     -28.079  -2.573 -40.002  1.00  0.00    -0.550 OA
ATOM      9  O   UNL     1     -28.715  -2.806 -37.813  1.00  0.00    -0.550 OA
ENDBRANCH   6   7
ENDBRANCH   5   6
ENDBRANCH   4   5
ENDBRANCH   3   4
ENDBRANCH   2   3
ENDBRANCH   1   2
BRANCH   1  10
ATOM     10  C   UNL     1     -32.646   2.838 -39.595  1.00  0.00     0.027 C 
BRANCH  10  11
ATOM     11  C   UNL     1     -31.254   3.406 -39.516  1.00  0.00    -0.031 C 
ATOM     12  C   UNL     1     -30.194   2.750 -40.014  1.00  0.00    -0.031 C 
BRANCH  12  13
ATOM     13  C   UNL     1     -28.814   3.346 -39.980  1.00  0.00     0.027 C 
BRANCH  13  14
ATOM     14  C   UNL     1     -28.292   3.452 -38.540  1.00  0.00     0.004 C 
BRANCH  14  15
ATOM     15  C   UNL     1     -28.060   4.907 -38.100  1.00  0.00     0.000 C 
BRANCH  15  16
ATOM     16  C   UNL     1     -27.241   5.012 -36.805  1.00  0.00    -0.000 C 
BRANCH  16  17
ATOM     17  C   UNL     1     -25.987   4.133 -36.878  1.00  0.00    -0.003 C 
ATOM     18  C   UNL     1     -25.861   3.247 -35.641  1.00  0.00     0.004 C 
ENDBRANCH  16  17
ENDBRANCH  15  16
ENDBRANCH  14  15
ENDBRANCH  13  14
ENDBRANCH  12  13
ENDBRANCH  10  11
ENDBRANCH   1  10
TORSDOF 13
ENDMDL
MODEL 2
REMARK VINA RESULT:    -3.317      3.238      4.688
REMARK INTER + INTRA:          -7.594
REMARK INTER:                  -5.159
REMARK INTRA:                  -2.434
REMARK UNBOUND:                -1.756
REMARK SMILES CCCCCCC=CCCCCCCCC(=O)[O-]
REMARK SMILES IDX 10 1 11 2 12 3 13 4 14 5 15 6 16 7 17 8 18 9 9 10 8 11 7 12
REMARK SMILES IDX 6 13 5 14 4 15 3 16 2 17 1 18
REMARK H PARENT
REMARK Flexibility Score: inf
ROOT
ATOM      1  C   UNL     1     -31.975  -0.056 -37.762  1.00  0.00     0.004 C 
ENDROOT
BRANCH   1   2
ATOM      2  C   UNL     1     -30.948  -0.797 -38.635  1.00  0.00     0.000 C 
BRANCH   2   3
ATOM      3  C   UNL     1     -30.030   0.156 -39.421  1.00  0.00     0.000 C 
BRANCH   3   4
ATOM      4  C   UNL     1     -28.906   0.807 -38.596  1.00  0.00     0.000 C 
BRANCH   4   5
ATOM      5  C   UNL     1     -29.213   2.264 -38.208  1.00  0.00     0.006 C 
BRANCH   5   6
ATOM      6  C   UNL     1     -28.864   3.249 -39.331  1.00  0.00     0.053 C 
BRANCH   6   7
ATOM      7  C   UNL     1     -28.606   4.626 -38.801  1.00  0.00     0.041 C 
ATOM      8  O   UNL     1     -29.215   5.616 -39.287  1.00  0.00    -0.550 OA
ATOM      9  O   UNL     1     -27.721   4.813 -37.746  1.00  0.00    -0.550 OA
ENDBRANCH   6   7
ENDBRANCH   5   6
ENDBRANCH   4   5
ENDBRANCH   3   4
ENDBRANCH   2   3
ENDBRANCH   1   2
BRANCH   1  10
ATOM     10  C   UNL     1     -33.126   0.525 -38.594  1.00  0.00     0.027 C 
BRANCH  10  11
ATOM     11  C   UNL     1     -33.105   2.030 -38.590  1.00  0.00    -0.031 C 
ATOM     12  C   UNL     1     -32.551   2.732 -39.592  1.00  0.00    -0.031 C 
BRANCH  12  13
ATOM     13  C   UNL     1     -32.580   4.235 -39.609  1.00  0.00     0.027 C 
BRANCH  13  14
ATOM     14  C   UNL     1     -33.400   4.786 -38.434  1.00  0.00     0.004 C 
BRANCH  14  15
ATOM     15  C   UNL     1     -32.550   5.612 -37.455  1.00  0.00     0.000 C 
BRANCH  15  16
ATOM     16  C   UNL     1     -31.552   4.751 -36.665  1.00  0.00    -0.000 C 
BRANCH  16  17
ATOM     17  C   UNL     1     -32.266   3.956 -35.566  1.00  0.00    -0.003 C 
ATOM     18  C   UNL     1     -31.532   2.651 -35.263  1.00  0.00     0.004 C 
ENDBRANCH  16  17
ENDBRANCH  15  16
ENDBRANCH  14  15
ENDBRANCH  13  14
ENDBRANCH  12  13
ENDBRANCH  10  11
ENDBRANCH   1  10
TORSDOF 13
ENDMDL
MODEL 3
REMARK VINA RESULT:    -3.304      3.295      5.585
REMARK INTER + INTRA:          -7.571
REMARK INTER:                  -5.674
REMARK INTRA:                  -1.897
REMARK UNBOUND:                -1.756
REMARK SMILES CCCCCCC=CCCCCCCCC(=O)[O-]
REMARK SMILES IDX 10 1 11 2 12 3 13 4 14 5 15 6 16 7 17 8 18 9 9 10 8 11 7 12
REMARK SMILES IDX 6 13 5 14 4 15 3 16 2 17 1 18
REMARK H PARENT
REMARK Flexibility Score: inf
ROOT
ATOM      1  C   UNL     1     -31.707   4.770 -39.934  1.00  0.00     0.004 C 
ENDROOT
BRANCH   1   2
ATOM      2  C   UNL     1     -30.915   5.006 -38.637  1.00  0.00     0.000 C 
BRANCH   2   3
ATOM      3  C   UNL     1     -29.467   5.464 -38.893  1.00  0.00     0.000 C 
BRANCH   3   4
ATOM      4  C   UNL     1     -28.380   4.485 -38.416  1.00  0.00     0.000 C 
BRANCH   4   5
ATOM      5  C   UNL     1     -27.424   5.106 -37.384  1.00  0.00     0.006 C 
BRANCH   5   6
ATOM      6  C   UNL     1     -26.622   4.043 -36.622  1.00  0.00     0.053 C 
BRANCH   6   7
ATOM      7  C   UNL     1     -26.057   4.583 -35.344  1.00  0.00     0.041 C 
ATOM      8  O   UNL     1     -25.029   4.063 -34.837  1.00  0.00    -0.550 OA
ATOM      9  O   UNL     1     -26.644   5.684 -34.733  1.00  0.00    -0.550 OA
ENDBRANCH   6   7
ENDBRANCH   5   6
ENDBRANCH   4   5
ENDBRANCH   3   4
ENDBRANCH   2   3
ENDBRANCH   1   2
BRANCH   1  10
ATOM     10  C   UNL     1     -32.748   3.654 -39.779  1.00  0.00     0.027 C 
BRANCH  10  11
ATOM     11  C   UNL     1     -32.112   2.360 -39.350  1.00  0.00    -0.031 C 
ATOM     12  C   UNL     1     -32.844   1.322 -38.915  1.00  0.00    -0.031 C 
BRANCH  12  13
ATOM     13  C   UNL     1     -32.208   0.013 -38.539  1.00  0.00     0.027 C 
BRANCH  13  14
ATOM     14  C   UNL     1     -31.760   0.017 -37.070  1.00  0.00     0.004 C 
BRANCH  14  15
ATOM     15  C   UNL     1     -30.232   0.098 -36.917  1.00  0.00     0.000 C 
BRANCH  15  16
ATOM     16  C   UNL     1     -29.740   1.524 -36.628  1.00  0.00    -0.000 C 
BRANCH  16  17
ATOM     17  C   UNL     1     -30.730   2.273 -35.727  1.00  0.00    -0.003 C 
ATOM     18  C   UNL     1     -30.154   3.609 -35.266  1.00  0.00     0.004 C 
ENDBRANCH  16  17
ENDBRANCH  15  16
ENDBRANCH  14  15
ENDBRANCH  13  14
ENDBRANCH  12  13
ENDBRANCH  10  11
ENDBRANCH   1  10
TORSDOF 13
ENDMDL
MODEL 4
REMARK VINA RESULT:    -3.277      3.663      4.663
REMARK INTER + INTRA:          -7.525
REMARK INTER:                  -5.272
REMARK INTRA:                  -2.253
REMARK UNBOUND:                -1.756
REMARK SMILES CCCCCCC=CCCCCCCCC(=O)[O-]
REMARK SMILES IDX 10 1 11 2 12 3 13 4 14 5 15 6 16 7 17 8 18 9 9 10 8 11 7 12
REMARK SMILES IDX 6 13 5 14 4 15 3 16 2 17 1 18
REMARK H PARENT
REMARK Flexibility Score: inf
ROOT
ATOM      1  C   UNL     1     -31.717  -0.127 -37.580  1.00  0.00     0.004 C 
ENDROOT
BRANCH   1   2
ATOM      2  C   UNL     1     -30.392   0.330 -36.944  1.00  0.00     0.000 C 
BRANCH   2   3
ATOM      3  C   UNL     1     -30.596   1.152 -35.659  1.00  0.00     0.000 C 
BRANCH   3   4
ATOM      4  C   UNL     1     -29.649   2.354 -35.497  1.00  0.00     0.000 C 
BRANCH   4   5
ATOM      5  C   UNL     1     -30.385   3.705 -35.519  1.00  0.00     0.006 C 
BRANCH   5   6
ATOM      6  C   UNL     1     -31.870   3.551 -35.870  1.00  0.00     0.053 C 
BRANCH   6   7
ATOM      7  C   UNL     1     -32.541   4.879 -36.041  1.00  0.00     0.041 C 
ATOM      8  O   UNL     1     -33.382   5.277 -35.191  1.00  0.00    -0.550 OA
ATOM      9  O   UNL     1     -32.211   5.694 -37.116  1.00  0.00    -0.550 OA
ENDBRANCH   6   7
ENDBRANCH   5   6
ENDBRANCH   4   5
ENDBRANCH   3   4
ENDBRANCH   2   3
ENDBRANCH   1   2
BRANCH   1  10
ATOM     10  C   UNL     1     -31.977   0.558 -38.927  1.00  0.00     0.027 C 
BRANCH  10  11
ATOM     11  C   UNL     1     -31.025   1.701 -39.159  1.00  0.00    -0.031 C 
ATOM     12  C   UNL     1     -31.453   2.901 -39.581  1.00  0.00    -0.031 C 
BRANCH  12  13
ATOM     13  C   UNL     1     -30.506   4.056 -39.759  1.00  0.00     0.027 C 
BRANCH  13  14
ATOM     14  C   UNL     1     -29.115   3.722 -39.200  1.00  0.00     0.004 C 
BRANCH  14  15
ATOM     15  C   UNL     1     -28.533   4.860 -38.345  1.00  0.00     0.000 C 
BRANCH  15  16
ATOM     16  C   UNL     1     -27.343   4.406 -37.486  1.00  0.00    -0.000 C 
BRANCH  16  17
ATOM     17  C   UNL     1     -26.784   5.575 -36.666  1.00  0.00    -0.003 C 
ATOM     18  C   UNL     1     -26.724   5.227 -35.180  1.00  0.00     0.004 C 
ENDBRANCH  16  17
ENDBRANCH  15  16
ENDBRANCH  14  15
ENDBRANCH  13  14
ENDBRANCH  12  13
ENDBRANCH  10  11
ENDBRANCH   1  10
TORSDOF 13
ENDMDL
MODEL 5
REMARK VINA RESULT:    -3.275      3.938      7.153
REMARK INTER + INTRA:          -7.521
REMARK INTER:                  -6.362
REMARK INTRA:                  -1.158
REMARK UNBOUND:                -1.756
REMARK SMILES CCCCCCC=CCCCCCCCC(=O)[O-]
REMARK SMILES IDX 10 1 11 2 12 3 13 4 14 5 15 6 16 7 17 8 18 9 9 10 8 11 7 12
REMARK SMILES IDX 6 13 5 14 4 15 3 16 2 17 1 18
REMARK H PARENT
REMARK Flexibility Score: inf
ROOT
ATOM      1  C   UNL     1     -28.785   4.704 -37.810  1.00  0.00     0.004 C 
ENDROOT
BRANCH   1   2
ATOM      2  C   UNL     1     -27.405   5.099 -37.256  1.00  0.00     0.000 C 
BRANCH   2   3
ATOM      3  C   UNL     1     -26.552   3.885 -36.848  1.00  0.00     0.000 C 
BRANCH   3   4
ATOM      4  C   UNL     1     -26.270   3.765 -35.339  1.00  0.00     0.000 C 
BRANCH   4   5
ATOM      5  C   UNL     1     -25.988   5.121 -34.672  1.00  0.00     0.006 C 
BRANCH   5   6
ATOM      6  C   UNL     1     -25.845   5.000 -33.149  1.00  0.00     0.053 C 
BRANCH   6   7
ATOM      7  C   UNL     1     -24.438   5.255 -32.702  1.00  0.00     0.041 C 
ATOM      8  O   UNL     1     -23.473   4.739 -33.324  1.00  0.00    -0.550 OA
ATOM      9  O   UNL     1     -24.191   6.092 -31.621  1.00  0.00    -0.550 OA
ENDBRANCH   6   7
ENDBRANCH   5   6
ENDBRANCH   4   5
ENDBRANCH   3   4
ENDBRANCH   2   3
ENDBRANCH   1   2
BRANCH   1  10
ATOM     10  C   UNL     1     -28.673   3.766 -39.019  1.00  0.00     0.027 C 
BRANCH  10  11
ATOM     11  C   UNL     1     -29.840   2.817 -39.092  1.00  0.00    -0.031 C 
ATOM     12  C   UNL     1     -31.065   3.230 -39.450  1.00  0.00    -0.031 C 
BRANCH  12  13
ATOM     13  C   UNL     1     -32.215   2.269 -39.573  1.00  0.00     0.027 C 
BRANCH  13  14
ATOM     14  C   UNL     1     -32.513   1.588 -38.229  1.00  0.00     0.004 C 
BRANCH  14  15
ATOM     15  C   UNL     1     -32.478   0.053 -38.323  1.00  0.00     0.000 C 
BRANCH  15  16
ATOM     16  C   UNL     1     -31.344  -0.566 -37.492  1.00  0.00    -0.000 C 
BRANCH  16  17
ATOM     17  C   UNL     1     -30.096  -0.792 -38.353  1.00  0.00    -0.003 C 
ATOM     18  C   UNL     1     -30.473  -1.205 -39.774  1.00  0.00     0.004 C 
ENDBRANCH  16  17
ENDBRANCH  15  16
ENDBRANCH  14  15
ENDBRANCH  13  14
ENDBRANCH  12  13
ENDBRANCH  10  11
ENDBRANCH   1  10
TORSDOF 13
ENDMDL
MODEL 6
REMARK VINA RESULT:    -3.242      6.010      9.586
REMARK INTER + INTRA:          -7.463
REMARK INTER:                  -5.520
REMARK INTRA:                  -1.943
REMARK UNBOUND:                -1.756
REMARK SMILES CCCCCCC=CCCCCCCCC(=O)[O-]
REMARK SMILES IDX 10 1 11 2 12 3 13 4 14 5 15 6 16 7 17 8 18 9 9 10 8 11 7 12
REMARK SMILES IDX 6 13 5 14 4 15 3 16 2 17 1 18
REMARK H PARENT
REMARK Flexibility Score: inf
ROOT
ATOM      1  C   UNL     1     -23.543   2.201 -32.067  1.00  0.00     0.004 C 
ENDROOT
BRANCH   1   2
ATOM      2  C   UNL     1     -23.821   2.869 -33.425  1.00  0.00     0.000 C 
BRANCH   2   3
ATOM      3  C   UNL     1     -23.425   4.357 -33.453  1.00  0.00     0.000 C 
BRANCH   3   4
ATOM      4  C   UNL     1     -24.595   5.346 -33.306  1.00  0.00     0.000 C 
BRANCH   4   5
ATOM      5  C   UNL     1     -25.933   4.770 -33.800  1.00  0.00     0.006 C 
BRANCH   5   6
ATOM      6  C   UNL     1     -26.477   5.529 -35.017  1.00  0.00     0.053 C 
BRANCH   6   7
ATOM      7  C   UNL     1     -26.440   4.689 -36.257  1.00  0.00     0.041 C 
ATOM      8  O   UNL     1     -27.380   4.754 -37.093  1.00  0.00    -0.550 OA
ATOM      9  O   UNL     1     -25.352   3.864 -36.508  1.00  0.00    -0.550 OA
ENDBRANCH   6   7
ENDBRANCH   5   6
ENDBRANCH   4   5
ENDBRANCH   3   4
ENDBRANCH   2   3
ENDBRANCH   1   2
BRANCH   1  10
ATOM     10  C   UNL     1     -24.765   1.441 -31.538  1.00  0.00     0.027 C 
BRANCH  10  11
ATOM     11  C   UNL     1     -25.783   2.377 -30.943  1.00  0.00    -0.031 C 
ATOM     12  C   UNL     1     -25.420   3.438 -30.206  1.00  0.00    -0.031 C 
BRANCH  12  13
ATOM     13  C   UNL     1     -26.438   4.400 -29.658  1.00  0.00     0.027 C 
BRANCH  13  14
ATOM     14  C   UNL     1     -26.024   5.855 -29.925  1.00  0.00     0.004 C 
BRANCH  14  15
ATOM     15  C   UNL     1     -24.531   6.103 -29.657  1.00  0.00     0.000 C 
BRANCH  15  16
ATOM     16  C   UNL     1     -24.230   7.565 -29.290  1.00  0.00    -0.000 C 
BRANCH  16  17
ATOM     17  C   UNL     1     -25.145   8.044 -28.157  1.00  0.00    -0.003 C 
ATOM     18  C   UNL     1     -24.562   7.692 -26.791  1.00  0.00     0.004 C 
ENDBRANCH  16  17
ENDBRANCH  15  16
ENDBRANCH  14  15
ENDBRANCH  13  14
ENDBRANCH  12  13
ENDBRANCH  10  11
ENDBRANCH   1  10
TORSDOF 13
ENDMDL
MODEL 7
REMARK VINA RESULT:    -3.229      9.303     11.426
REMARK INTER + INTRA:          -7.440
REMARK INTER:                  -5.124
REMARK INTRA:                  -2.316
REMARK UNBOUND:                -1.756
REMARK SMILES CCCCCCC=CCCCCCCCC(=O)[O-]
REMARK SMILES IDX 10 1 11 2 12 3 13 4 14 5 15 6 16 7 17 8 18 9 9 10 8 11 7 12
REMARK SMILES IDX 6 13 5 14 4 15 3 16 2 17 1 18
REMARK H PARENT
REMARK Flexibility Score: inf
ROOT
ATOM      1  C   UNL     1     -35.019  -5.083 -29.156  1.00  0.00     0.004 C 
ENDROOT
BRANCH   1   2
ATOM      2  C   UNL     1     -35.483  -5.749 -30.463  1.00  0.00     0.000 C 
BRANCH   2   3
ATOM      3  C   UNL     1     -34.452  -6.742 -31.029  1.00  0.00     0.000 C 
BRANCH   3   4
ATOM      4  C   UNL     1     -33.076  -6.716 -30.341  1.00  0.00     0.000 C 
BRANCH   4   5
ATOM      5  C   UNL     1     -32.068  -7.688 -30.977  1.00  0.00     0.006 C 
BRANCH   5   6
ATOM      6  C   UNL     1     -32.398  -9.153 -30.665  1.00  0.00     0.053 C 
BRANCH   6   7
ATOM      7  C   UNL     1     -31.798  -9.592 -29.364  1.00  0.00     0.041 C 
ATOM      8  O   UNL     1     -30.569  -9.861 -29.294  1.00  0.00    -0.550 OA
ATOM      9  O   UNL     1     -32.585  -9.668 -28.223  1.00  0.00    -0.550 OA
ENDBRANCH   6   7
ENDBRANCH   5   6
ENDBRANCH   4   5
ENDBRANCH   3   4
ENDBRANCH   2   3
ENDBRANCH   1   2
BRANCH   1  10
ATOM     10  C   UNL     1     -35.115  -3.554 -29.221  1.00  0.00     0.027 C 
BRANCH  10  11
ATOM     11  C   UNL     1     -33.977  -2.961 -30.009  1.00  0.00    -0.031 C 
ATOM     12  C   UNL     1     -32.696  -3.207 -29.693  1.00  0.00    -0.031 C 
BRANCH  12  13
ATOM     13  C   UNL     1     -31.564  -2.657 -30.514  1.00  0.00     0.027 C 
BRANCH  13  14
ATOM     14  C   UNL     1     -30.946  -3.745 -31.405  1.00  0.00     0.004 C 
BRANCH  14  15
ATOM     15  C   UNL     1     -31.227  -3.516 -32.899  1.00  0.00     0.000 C 
BRANCH  15  16
ATOM     16  C   UNL     1     -32.271  -4.493 -33.463  1.00  0.00    -0.000 C 
BRANCH  16  17
ATOM     17  C   UNL     1     -33.674  -3.876 -33.424  1.00  0.00    -0.003 C 
ATOM     18  C   UNL     1     -33.620  -2.367 -33.646  1.00  0.00     0.004 C 
ENDBRANCH  16  17
ENDBRANCH  15  16
ENDBRANCH  14  15
ENDBRANCH  13  14
ENDBRANCH  12  13
ENDBRANCH  10  11
ENDBRANCH   1  10
TORSDOF 13
ENDMDL
MODEL 8
REMARK VINA RESULT:    -3.229      6.770      9.565
REMARK INTER + INTRA:          -7.440
REMARK INTER:                  -5.888
REMARK INTRA:                  -1.551
REMARK UNBOUND:                -1.756
REMARK SMILES CCCCCCC=CCCCCCCCC(=O)[O-]
REMARK SMILES IDX 10 1 11 2 12 3 13 4 14 5 15 6 16 7 17 8 18 9 9 10 8 11 7 12
REMARK SMILES IDX 6 13 5 14 4 15 3 16 2 17 1 18
REMARK H PARENT
REMARK Flexibility Score: inf
ROOT
ATOM      1  C   UNL     1     -25.650   3.272 -36.202  1.00  0.00     0.004 C 
ENDROOT
BRANCH   1   2
ATOM      2  C   UNL     1     -26.228   4.676 -36.450  1.00  0.00     0.000 C 
BRANCH   2   3
ATOM      3  C   UNL     1     -26.599   5.410 -35.149  1.00  0.00     0.000 C 
BRANCH   3   4
ATOM      4  C   UNL     1     -26.049   4.773 -33.861  1.00  0.00     0.000 C 
BRANCH   4   5
ATOM      5  C   UNL     1     -24.803   5.494 -33.320  1.00  0.00     0.006 C 
BRANCH   5   6
ATOM      6  C   UNL     1     -24.301   4.879 -32.007  1.00  0.00     0.053 C 
BRANCH   6   7
ATOM      7  C   UNL     1     -24.398   5.847 -30.868  1.00  0.00     0.041 C 
ATOM      8  O   UNL     1     -23.356   6.371 -30.393  1.00  0.00    -0.550 OA
ATOM      9  O   UNL     1     -25.640   6.199 -30.356  1.00  0.00    -0.550 OA
ENDBRANCH   6   7
ENDBRANCH   5   6
ENDBRANCH   4   5
ENDBRANCH   3   4
ENDBRANCH   2   3
ENDBRANCH   1   2
BRANCH   1  10
ATOM     10  C   UNL     1     -24.195   3.155 -36.673  1.00  0.00     0.027 C 
BRANCH  10  11
ATOM     11  C   UNL     1     -23.395   2.245 -35.779  1.00  0.00    -0.031 C 
ATOM     12  C   UNL     1     -23.696   2.089 -34.480  1.00  0.00    -0.031 C 
BRANCH  12  13
ATOM     13  C   UNL     1     -22.928   1.138 -33.604  1.00  0.00     0.027 C 
BRANCH  13  14
ATOM     14  C   UNL     1     -22.819   1.673 -32.169  1.00  0.00     0.004 C 
BRANCH  14  15
ATOM     15  C   UNL     1     -21.444   1.401 -31.539  1.00  0.00     0.000 C 
BRANCH  15  16
ATOM     16  C   UNL     1     -20.387   0.992 -32.576  1.00  0.00    -0.000 C 
BRANCH  16  17
ATOM     17  C   UNL     1     -19.793  -0.381 -32.240  1.00  0.00    -0.003 C 
ATOM     18  C   UNL     1     -20.521  -1.024 -31.062  1.00  0.00     0.004 C 
ENDBRANCH  16  17
ENDBRANCH  15  16
ENDBRANCH  14  15
ENDBRANCH  13  14
ENDBRANCH  12  13
ENDBRANCH  10  11
ENDBRANCH   1  10
TORSDOF 13
ENDMDL
MODEL 9
REMARK VINA RESULT:    -3.223      3.074      4.243
REMARK INTER + INTRA:          -7.429
REMARK INTER:                  -5.493
REMARK INTRA:                  -1.936
REMARK UNBOUND:                -1.756
REMARK SMILES CCCCCCC=CCCCCCCCC(=O)[O-]
REMARK SMILES IDX 10 1 11 2 12 3 13 4 14 5 15 6 16 7 17 8 18 9 9 10 8 11 7 12
REMARK SMILES IDX 6 13 5 14 4 15 3 16 2 17 1 18
REMARK H PARENT
REMARK Flexibility Score: inf
ROOT
ATOM      1  C   UNL     1     -30.280   0.328 -39.667  1.00  0.00     0.004 C 
ENDROOT
BRANCH   1   2
ATOM      2  C   UNL     1     -31.374  -0.300 -38.787  1.00  0.00     0.000 C 
BRANCH   2   3
ATOM      3  C   UNL     1     -32.554   0.653 -38.525  1.00  0.00     0.000 C 
BRANCH   3   4
ATOM      4  C   UNL     1     -32.494   1.989 -39.287  1.00  0.00     0.000 C 
BRANCH   4   5
ATOM      5  C   UNL     1     -32.290   3.200 -38.360  1.00  0.00     0.006 C 
BRANCH   5   6
ATOM      6  C   UNL     1     -31.964   2.781 -36.921  1.00  0.00     0.053 C 
BRANCH   6   7
ATOM      7  C   UNL     1     -31.820   3.966 -36.017  1.00  0.00     0.041 C 
ATOM      8  O   UNL     1     -32.507   5.003 -36.218  1.00  0.00    -0.550 OA
ATOM      9  O   UNL     1     -30.955   3.914 -34.931  1.00  0.00    -0.550 OA
ENDBRANCH   6   7
ENDBRANCH   5   6
ENDBRANCH   4   5
ENDBRANCH   3   4
ENDBRANCH   2   3
ENDBRANCH   1   2
BRANCH   1  10
ATOM     10  C   UNL     1     -28.946   0.460 -38.923  1.00  0.00     0.027 C 
BRANCH  10  11
ATOM     11  C   UNL     1     -28.640   1.895 -38.586  1.00  0.00    -0.031 C 
ATOM     12  C   UNL     1     -28.838   2.886 -39.470  1.00  0.00    -0.031 C 
BRANCH  12  13
ATOM     13  C   UNL     1     -28.582   4.323 -39.111  1.00  0.00     0.027 C 
BRANCH  13  14
ATOM     14  C   UNL     1     -28.477   4.503 -37.590  1.00  0.00     0.004 C 
BRANCH  14  15
ATOM     15  C   UNL     1     -27.118   5.076 -37.154  1.00  0.00     0.000 C 
BRANCH  15  16
ATOM     16  C   UNL     1     -26.166   3.997 -36.615  1.00  0.00    -0.000 C 
BRANCH  16  17
ATOM     17  C   UNL     1     -25.668   4.358 -35.211  1.00  0.00    -0.003 C 
ATOM     18  C   UNL     1     -26.749   5.083 -34.412  1.00  0.00     0.004 C 
ENDBRANCH  16  17
ENDBRANCH  15  16
ENDBRANCH  14  15
ENDBRANCH  13  14
ENDBRANCH  12  13
ENDBRANCH  10  11
ENDBRANCH   1  10
TORSDOF 13
ENDMDL
