MODEL 1
REMARK VINA RESULT:    -5.846      0.000      0.000
REMARK INTER + INTRA:          -6.884
REMARK INTER:                  -6.701
REMARK INTRA:                  -0.183
REMARK UNBOUND:                -0.183
REMARK SMILES CC=Cc1ccc(O)c(OC)c1
REMARK SMILES IDX 4 1 12 2 9 3 7 4 6 5 5 6 3 7 1 8 2 9 10 10 11 11 8 12
REMARK H PARENT 8 13
REMARK Flexibility Score: inf
ROOT
ATOM      1  C   UNL     1     -12.448   0.981  -9.658  1.00  0.00    -0.022 A 
ATOM      2  C   UNL     1     -11.366   0.085  -9.666  1.00  0.00     0.058 A 
ATOM      3  C   UNL     1     -11.551  -1.271 -10.002  1.00  0.00     0.161 A 
ATOM      4  C   UNL     1     -12.837  -1.725 -10.344  1.00  0.00     0.157 A 
ATOM      5  C   UNL     1     -13.913  -0.832 -10.353  1.00  0.00     0.051 A 
ATOM      6  C   UNL     1     -13.724   0.510 -10.018  1.00  0.00     0.012 A 
ENDROOT
BRANCH   1   7
ATOM      7  C   UNL     1     -12.192   2.400  -9.306  1.00  0.00     0.003 C 
ATOM      8  C   UNL     1     -12.801   4.666  -8.553  1.00  0.00     0.035 C 
ATOM      9  C   UNL     1     -13.142   3.253  -8.904  1.00  0.00    -0.030 C 
ENDBRANCH   1   7
BRANCH   3  10
ATOM     10  O   UNL     1     -10.487  -2.188 -10.007  1.00  0.00    -0.493 OA
ATOM     11  C   UNL     1      -9.923  -2.778  -8.839  1.00  0.00     0.278 C 
ENDBRANCH   3  10
BRANCH   4  12
ATOM     12  O   UNL     1     -13.065  -3.057 -10.682  1.00  0.00    -0.504 OA
ATOM     13  H   UNL     1     -13.912  -3.359 -11.151  1.00  0.00     0.293 HD
ENDBRANCH   4  12
TORSDOF 3
ENDMDL
MODEL 2
REMARK VINA RESULT:    -5.823      1.129      2.444
REMARK INTER + INTRA:          -6.856
REMARK INTER:                  -6.699
REMARK INTRA:                  -0.158
REMARK UNBOUND:                -0.183
REMARK SMILES CC=Cc1ccc(O)c(OC)c1
REMARK SMILES IDX 4 1 12 2 9 3 7 4 6 5 5 6 3 7 1 8 2 9 10 10 11 11 8 12
REMARK H PARENT 8 13
REMARK Flexibility Score: inf
ROOT
ATOM      1  C   UNL     1     -12.888   1.034  -9.716  1.00  0.00    -0.022 A 
ATOM      2  C   UNL     1     -13.868   0.094 -10.077  1.00  0.00     0.058 A 
ATOM      3  C   UNL     1     -13.515  -1.229 -10.409  1.00  0.00     0.161 A 
ATOM      4  C   UNL     1     -12.162  -1.611 -10.366  1.00  0.00     0.157 A 
ATOM      5  C   UNL     1     -11.186  -0.683  -9.992  1.00  0.00     0.051 A 
ATOM      6  C   UNL     1     -11.541   0.628  -9.665  1.00  0.00     0.012 A 
ENDROOT
BRANCH   1   7
ATOM      7  C   UNL     1     -13.318   2.411  -9.367  1.00  0.00     0.003 C 
ATOM      8  C   UNL     1     -12.992   4.745  -8.648  1.00  0.00     0.035 C 
ATOM      9  C   UNL     1     -12.482   3.376  -8.968  1.00  0.00    -0.030 C 
ENDBRANCH   1   7
BRANCH   3  10
ATOM     10  O   UNL     1     -14.475  -2.184 -10.783  1.00  0.00    -0.493 OA
ATOM     11  C   UNL     1     -15.110  -3.086  -9.882  1.00  0.00     0.278 C 
ENDBRANCH   3  10
BRANCH   4  12
ATOM     12  O   UNL     1     -11.768  -2.909 -10.687  1.00  0.00    -0.504 OA
ATOM     13  H   UNL     1     -12.197  -3.433 -11.441  1.00  0.00     0.293 HD
ENDBRANCH   4  12
TORSDOF 3
ENDMDL
MODEL 3
REMARK VINA RESULT:    -5.735      2.627      4.831
REMARK INTER + INTRA:          -6.756
REMARK INTER:                  -6.593
REMARK INTRA:                  -0.163
REMARK UNBOUND:                -0.183
REMARK SMILES CC=Cc1ccc(O)c(OC)c1
REMARK SMILES IDX 4 1 12 2 9 3 7 4 6 5 5 6 3 7 1 8 2 9 10 10 11 11 8 12
REMARK H PARENT 8 13
REMARK Flexibility Score: inf
ROOT
ATOM      1  C   UNL     1     -11.794  -0.149  -9.904  1.00  0.00    -0.022 A 
ATOM      2  C   UNL     1     -11.574   1.200  -9.578  1.00  0.00     0.058 A 
ATOM      3  C   UNL     1     -12.652   2.098  -9.447  1.00  0.00     0.161 A 
ATOM      4  C   UNL     1     -13.964   1.629  -9.636  1.00  0.00     0.157 A 
ATOM      5  C   UNL     1     -14.187   0.284  -9.944  1.00  0.00     0.051 A 
ATOM      6  C   UNL     1     -13.116  -0.602 -10.074  1.00  0.00     0.012 A 
ENDROOT
BRANCH   1   7
ATOM      7  C   UNL     1     -10.622  -1.052 -10.019  1.00  0.00     0.003 C 
ATOM      8  C   UNL     1      -9.401  -3.180  -9.785  1.00  0.00     0.035 C 
ATOM      9  C   UNL     1     -10.620  -2.330  -9.620  1.00  0.00    -0.030 C 
ENDBRANCH   1   7
BRANCH   3  10
ATOM     10  O   UNL     1     -12.457   3.453  -9.132  1.00  0.00    -0.493 OA
ATOM     11  C   UNL     1     -11.477   3.938  -8.219  1.00  0.00     0.278 C 
ENDBRANCH   3  10
BRANCH   4  12
ATOM     12  O   UNL     1     -15.059   2.483  -9.517  1.00  0.00    -0.504 OA
ATOM     13  H   UNL     1     -14.955   3.472  -9.324  1.00  0.00     0.293 HD
ENDBRANCH   4  12
TORSDOF 3
ENDMDL
MODEL 4
REMARK VINA RESULT:    -5.356     15.842     17.558
REMARK INTER + INTRA:          -6.322
REMARK INTER:                  -6.148
REMARK INTRA:                  -0.174
REMARK UNBOUND:                -0.183
REMARK SMILES CC=Cc1ccc(O)c(OC)c1
REMARK SMILES IDX 4 1 12 2 9 3 7 4 6 5 5 6 3 7 1 8 2 9 10 10 11 11 8 12
REMARK H PARENT 8 13
REMARK Flexibility Score: inf
ROOT
ATOM      1  C   UNL     1      -9.725   6.629   6.848  1.00  0.00    -0.022 A 
ATOM      2  C   UNL     1     -10.506   6.285   5.732  1.00  0.00     0.058 A 
ATOM      3  C   UNL     1     -11.572   5.371   5.849  1.00  0.00     0.161 A 
ATOM      4  C   UNL     1     -11.860   4.808   7.104  1.00  0.00     0.157 A 
ATOM      5  C   UNL     1     -11.096   5.161   8.220  1.00  0.00     0.051 A 
ATOM      6  C   UNL     1     -10.039   6.066   8.099  1.00  0.00     0.012 A 
ENDROOT
BRANCH   1   7
ATOM      7  C   UNL     1      -8.620   7.604   6.669  1.00  0.00     0.003 C 
ATOM      8  C   UNL     1      -7.421   9.453   5.566  1.00  0.00     0.035 C 
ATOM      9  C   UNL     1      -8.562   8.492   5.669  1.00  0.00    -0.030 C 
ENDBRANCH   1   7
BRANCH   3  10
ATOM     10  O   UNL     1     -12.361   5.003   4.746  1.00  0.00    -0.493 OA
ATOM     11  C   UNL     1     -13.420   5.791   4.211  1.00  0.00     0.278 C 
ENDBRANCH   3  10
BRANCH   4  12
ATOM     12  O   UNL     1     -12.906   3.900   7.265  1.00  0.00    -0.504 OA
ATOM     13  H   UNL     1     -13.120   3.194   6.570  1.00  0.00     0.293 HD
ENDBRANCH   4  12
TORSDOF 3
ENDMDL
MODEL 5
REMARK VINA RESULT:    -5.192     15.790     17.565
REMARK INTER + INTRA:          -6.134
REMARK INTER:                  -5.986
REMARK INTRA:                  -0.147
REMARK UNBOUND:                -0.183
REMARK SMILES CC=Cc1ccc(O)c(OC)c1
REMARK SMILES IDX 4 1 12 2 9 3 7 4 6 5 5 6 3 7 1 8 2 9 10 10 11 11 8 12
REMARK H PARENT 8 13
REMARK Flexibility Score: inf
ROOT
ATOM      1  C   UNL     1     -12.391   5.913   6.061  1.00  0.00    -0.022 A 
ATOM      2  C   UNL     1     -11.196   6.646   5.974  1.00  0.00     0.058 A 
ATOM      3  C   UNL     1     -10.176   6.484   6.932  1.00  0.00     0.161 A 
ATOM      4  C   UNL     1     -10.358   5.568   7.982  1.00  0.00     0.157 A 
ATOM      5  C   UNL     1     -11.540   4.826   8.064  1.00  0.00     0.051 A 
ATOM      6  C   UNL     1     -12.548   4.990   7.112  1.00  0.00     0.012 A 
ENDROOT
BRANCH   1   7
ATOM      7  C   UNL     1     -13.427   6.117   5.018  1.00  0.00     0.003 C 
ATOM      8  C   UNL     1     -14.403   5.931   2.763  1.00  0.00     0.035 C 
ATOM      9  C   UNL     1     -13.306   5.700   3.752  1.00  0.00    -0.030 C 
ENDBRANCH   1   7
BRANCH   3  10
ATOM     10  O   UNL     1      -8.976   7.213   6.872  1.00  0.00    -0.493 OA
ATOM     11  C   UNL     1      -8.725   8.284   5.967  1.00  0.00     0.278 C 
ENDBRANCH   3  10
BRANCH   4  12
ATOM     12  O   UNL     1      -9.376   5.377   8.952  1.00  0.00    -0.504 OA
ATOM     13  H   UNL     1      -8.570   5.987   9.034  1.00  0.00     0.293 HD
ENDBRANCH   4  12
TORSDOF 3
ENDMDL
MODEL 6
REMARK VINA RESULT:    -5.060      3.662      6.633
REMARK INTER + INTRA:          -5.982
REMARK INTER:                  -5.836
REMARK INTRA:                  -0.146
REMARK UNBOUND:                -0.183
REMARK SMILES CC=Cc1ccc(O)c(OC)c1
REMARK SMILES IDX 4 1 12 2 9 3 7 4 6 5 5 6 3 7 1 8 2 9 10 10 11 11 8 12
REMARK H PARENT 8 13
REMARK Flexibility Score: inf
ROOT
ATOM      1  C   UNL     1     -10.457  -4.957  -8.005  1.00  0.00    -0.022 A 
ATOM      2  C   UNL     1     -11.389  -4.234  -8.769  1.00  0.00     0.058 A 
ATOM      3  C   UNL     1     -10.978  -3.169  -9.594  1.00  0.00     0.161 A 
ATOM      4  C   UNL     1      -9.613  -2.836  -9.658  1.00  0.00     0.157 A 
ATOM      5  C   UNL     1      -8.681  -3.562  -8.912  1.00  0.00     0.051 A 
ATOM      6  C   UNL     1      -9.094  -4.617  -8.095  1.00  0.00     0.012 A 
ENDROOT
BRANCH   1   7
ATOM      7  C   UNL     1     -10.945  -6.076  -7.162  1.00  0.00     0.003 C 
ATOM      8  C   UNL     1     -11.670  -7.151  -5.066  1.00  0.00     0.035 C 
ATOM      9  C   UNL     1     -11.162  -5.980  -5.845  1.00  0.00    -0.030 C 
ENDBRANCH   1   7
BRANCH   3  10
ATOM     10  O   UNL     1     -11.891  -2.425 -10.359  1.00  0.00    -0.493 OA
ATOM     11  C   UNL     1     -13.307  -2.493 -10.218  1.00  0.00     0.278 C 
ENDBRANCH   3  10
BRANCH   4  12
ATOM     12  O   UNL     1      -9.163  -1.788 -10.460  1.00  0.00    -0.504 OA
ATOM     13  H   UNL     1      -9.025  -1.893 -11.459  1.00  0.00     0.293 HD
ENDBRANCH   4  12
TORSDOF 3
ENDMDL
MODEL 7
REMARK VINA RESULT:    -4.963      3.514      5.723
REMARK INTER + INTRA:          -5.871
REMARK INTER:                  -5.691
REMARK INTRA:                  -0.180
REMARK UNBOUND:                -0.183
REMARK SMILES CC=Cc1ccc(O)c(OC)c1
REMARK SMILES IDX 4 1 12 2 9 3 7 4 6 5 5 6 3 7 1 8 2 9 10 10 11 11 8 12
REMARK H PARENT 8 13
REMARK Flexibility Score: inf
ROOT
ATOM      1  C   UNL     1     -10.498  -3.687  -8.706  1.00  0.00    -0.022 A 
ATOM      2  C   UNL     1     -10.637  -5.021  -9.123  1.00  0.00     0.058 A 
ATOM      3  C   UNL     1     -10.321  -6.087  -8.258  1.00  0.00     0.161 A 
ATOM      4  C   UNL     1      -9.871  -5.806  -6.957  1.00  0.00     0.157 A 
ATOM      5  C   UNL     1      -9.746  -4.480  -6.532  1.00  0.00     0.051 A 
ATOM      6  C   UNL     1     -10.060  -3.427  -7.394  1.00  0.00     0.012 A 
ENDROOT
BRANCH   1   7
ATOM      7  C   UNL     1     -10.856  -2.604  -9.656  1.00  0.00     0.003 C 
ATOM      8  C   UNL     1     -11.042  -0.271 -10.427  1.00  0.00     0.035 C 
ATOM      9  C   UNL     1     -10.669  -1.302  -9.410  1.00  0.00    -0.030 C 
ENDBRANCH   1   7
BRANCH   3  10
ATOM     10  O   UNL     1     -10.442  -7.429  -8.656  1.00  0.00    -0.493 OA
ATOM     11  C   UNL     1     -11.678  -8.124  -8.791  1.00  0.00     0.278 C 
ENDBRANCH   3  10
BRANCH   4  12
ATOM     12  O   UNL     1      -9.546  -6.830  -6.068  1.00  0.00    -0.504 OA
ATOM     13  H   UNL     1      -9.982  -6.913  -5.157  1.00  0.00     0.293 HD
ENDBRANCH   4  12
TORSDOF 3
ENDMDL
MODEL 8
REMARK VINA RESULT:    -4.874      3.121      4.785
REMARK INTER + INTRA:          -5.769
REMARK INTER:                  -5.603
REMARK INTRA:                  -0.166
REMARK UNBOUND:                -0.183
REMARK SMILES CC=Cc1ccc(O)c(OC)c1
REMARK SMILES IDX 4 1 12 2 9 3 7 4 6 5 5 6 3 7 1 8 2 9 10 10 11 11 8 12
REMARK H PARENT 8 13
REMARK Flexibility Score: inf
ROOT
ATOM      1  C   UNL     1     -11.528  -2.922  -9.656  1.00  0.00    -0.022 A 
ATOM      2  C   UNL     1     -11.802  -4.220  -9.194  1.00  0.00     0.058 A 
ATOM      3  C   UNL     1     -10.850  -4.938  -8.443  1.00  0.00     0.161 A 
ATOM      4  C   UNL     1      -9.614  -4.337  -8.147  1.00  0.00     0.157 A 
ATOM      5  C   UNL     1      -9.344  -3.039  -8.591  1.00  0.00     0.051 A 
ATOM      6  C   UNL     1     -10.291  -2.332  -9.335  1.00  0.00     0.012 A 
ENDROOT
BRANCH   1   7
ATOM      7  C   UNL     1     -12.573  -2.209 -10.433  1.00  0.00     0.003 C 
ATOM      8  C   UNL     1     -14.094  -0.342 -10.955  1.00  0.00     0.035 C 
ATOM      9  C   UNL     1     -13.050  -1.001 -10.111  1.00  0.00    -0.030 C 
ENDBRANCH   1   7
BRANCH   3  10
ATOM     10  O   UNL     1     -11.097  -6.240  -7.979  1.00  0.00    -0.493 OA
ATOM     11  C   UNL     1     -10.843  -7.426  -8.727  1.00  0.00     0.278 C 
ENDBRANCH   3  10
BRANCH   4  12
ATOM     12  O   UNL     1      -8.643  -5.010  -7.408  1.00  0.00    -0.504 OA
ATOM     13  H   UNL     1      -7.672  -5.047  -7.698  1.00  0.00     0.293 HD
ENDBRANCH   4  12
TORSDOF 3
ENDMDL
MODEL 9
REMARK VINA RESULT:    -4.755     17.529     18.085
REMARK INTER + INTRA:          -5.633
REMARK INTER:                  -5.485
REMARK INTRA:                  -0.148
REMARK UNBOUND:                -0.183
REMARK SMILES CC=Cc1ccc(O)c(OC)c1
REMARK SMILES IDX 4 1 12 2 9 3 7 4 6 5 5 6 3 7 1 8 2 9 10 10 11 11 8 12
REMARK H PARENT 8 13
REMARK Flexibility Score: inf
ROOT
ATOM      1  C   UNL     1      -9.468   7.608   6.514  1.00  0.00    -0.022 A 
ATOM      2  C   UNL     1      -9.361   6.326   7.079  1.00  0.00     0.058 A 
ATOM      3  C   UNL     1     -10.487   5.487   7.188  1.00  0.00     0.161 A 
ATOM      4  C   UNL     1     -11.731   5.941   6.714  1.00  0.00     0.157 A 
ATOM      5  C   UNL     1     -11.838   7.209   6.138  1.00  0.00     0.051 A 
ATOM      6  C   UNL     1     -10.719   8.038   6.032  1.00  0.00     0.012 A 
ENDROOT
BRANCH   1   7
ATOM      7  C   UNL     1      -8.247   8.445   6.415  1.00  0.00     0.003 C 
ATOM      8  C   UNL     1      -6.798  10.190   5.450  1.00  0.00     0.035 C 
ATOM      9  C   UNL     1      -8.052   9.376   5.474  1.00  0.00    -0.030 C 
ENDBRANCH   1   7
BRANCH   3  10
ATOM     10  O   UNL     1     -10.408   4.206   7.758  1.00  0.00    -0.493 OA
ATOM     11  C   UNL     1     -10.680   3.911   9.125  1.00  0.00     0.278 C 
ENDBRANCH   3  10
BRANCH   4  12
ATOM     12  O   UNL     1     -12.871   5.144   6.804  1.00  0.00    -0.504 OA
ATOM     13  H   UNL     1     -13.788   5.531   6.997  1.00  0.00     0.293 HD
ENDBRANCH   4  12
TORSDOF 3
ENDMDL
