MODEL 1
REMARK VINA RESULT:    -3.493      0.000      0.000
REMARK INTER + INTRA:          -5.235
REMARK INTER:                  -4.718
REMARK INTRA:                  -0.516
REMARK UNBOUND:                -0.516
REMARK SMILES CCCCCCCC(=O)[O-]
REMARK SMILES IDX 5 1 6 2 7 3 8 4 9 5 10 6 4 7 3 8 2 9 1 10
REMARK H PARENT
REMARK Flexibility Score: inf
ROOT
ATOM      1  C   UNL     1       3.816  -5.926   9.403  1.00  0.00     0.000 C 
ENDROOT
BRANCH   1   2
ATOM      2  C   UNL     1       2.642  -4.955   9.206  1.00  0.00     0.006 C 
BRANCH   2   3
ATOM      3  C   UNL     1       2.290  -4.817   7.721  1.00  0.00     0.053 C 
BRANCH   3   4
ATOM      4  C   UNL     1       1.018  -5.541   7.415  1.00  0.00     0.041 C 
ATOM      5  O   UNL     1       0.963  -6.795   7.514  1.00  0.00    -0.550 OA
ATOM      6  O   UNL     1      -0.122  -4.827   7.067  1.00  0.00    -0.550 OA
ENDBRANCH   3   4
ENDBRANCH   2   3
ENDBRANCH   1   2
BRANCH   1   7
ATOM      7  C   UNL     1       4.685  -6.070   8.143  1.00  0.00     0.000 C 
BRANCH   7   8
ATOM      8  C   UNL     1       4.881  -7.538   7.725  1.00  0.00    -0.000 C 
BRANCH   8   9
ATOM      9  C   UNL     1       3.930  -8.492   8.464  1.00  0.00    -0.003 C 
ATOM     10  C   UNL     1       3.421  -9.628   7.576  1.00  0.00     0.004 C 
ENDBRANCH   8   9
ENDBRANCH   7   8
ENDBRANCH   1   7
TORSDOF 6
ENDMDL
MODEL 2
REMARK VINA RESULT:    -3.367     20.074     21.194
REMARK INTER + INTRA:          -5.064
REMARK INTER:                  -4.684
REMARK INTRA:                  -0.380
REMARK UNBOUND:                -0.516
REMARK SMILES CCCCCCCC(=O)[O-]
REMARK SMILES IDX 5 1 6 2 7 3 8 4 9 5 10 6 4 7 3 8 2 9 1 10
REMARK H PARENT
REMARK Flexibility Score: inf
ROOT
ATOM      1  C   UNL     1      -3.284   3.825  -7.891  1.00  0.00     0.000 C 
ENDROOT
BRANCH   1   2
ATOM      2  C   UNL     1      -2.995   3.952  -9.395  1.00  0.00     0.006 C 
BRANCH   2   3
ATOM      3  C   UNL     1      -3.588   5.249  -9.957  1.00  0.00     0.053 C 
BRANCH   3   4
ATOM      4  C   UNL     1      -2.793   6.430  -9.496  1.00  0.00     0.041 C 
ATOM      5  O   UNL     1      -1.594   6.567  -9.858  1.00  0.00    -0.550 OA
ATOM      6  O   UNL     1      -3.390   7.405  -8.708  1.00  0.00    -0.550 OA
ENDBRANCH   3   4
ENDBRANCH   2   3
ENDBRANCH   1   2
BRANCH   1   7
ATOM      7  C   UNL     1      -4.101   2.570  -7.547  1.00  0.00     0.000 C 
BRANCH   7   8
ATOM      8  C   UNL     1      -5.389   2.897  -6.771  1.00  0.00    -0.000 C 
BRANCH   8   9
ATOM      9  C   UNL     1      -6.658   2.562  -7.570  1.00  0.00    -0.003 C 
ATOM     10  C   UNL     1      -6.394   1.595  -8.724  1.00  0.00     0.004 C 
ENDBRANCH   8   9
ENDBRANCH   7   8
ENDBRANCH   1   7
TORSDOF 6
ENDMDL
MODEL 3
REMARK VINA RESULT:    -3.353      2.066      3.187
REMARK INTER + INTRA:          -5.046
REMARK INTER:                  -4.816
REMARK INTRA:                  -0.230
REMARK UNBOUND:                -0.516
REMARK SMILES CCCCCCCC(=O)[O-]
REMARK SMILES IDX 5 1 6 2 7 3 8 4 9 5 10 6 4 7 3 8 2 9 1 10
REMARK H PARENT
REMARK Flexibility Score: inf
ROOT
ATOM      1  C   UNL     1       4.535  -6.762   7.758  1.00  0.00     0.000 C 
ENDROOT
BRANCH   1   2
ATOM      2  C   UNL     1       3.528  -6.025   8.654  1.00  0.00     0.006 C 
BRANCH   2   3
ATOM      3  C   UNL     1       2.089  -6.378   8.264  1.00  0.00     0.053 C 
BRANCH   3   4
ATOM      4  C   UNL     1       1.454  -5.243   7.525  1.00  0.00     0.041 C 
ATOM      5  O   UNL     1       2.148  -4.258   7.158  1.00  0.00    -0.550 OA
ATOM      6  O   UNL     1       0.105  -5.294   7.197  1.00  0.00    -0.550 OA
ENDBRANCH   3   4
ENDBRANCH   2   3
ENDBRANCH   1   2
BRANCH   1   7
ATOM      7  C   UNL     1       5.927  -6.108   7.766  1.00  0.00     0.000 C 
BRANCH   7   8
ATOM      8  C   UNL     1       6.367  -5.672   9.175  1.00  0.00    -0.000 C 
BRANCH   8   9
ATOM      9  C   UNL     1       7.829  -5.200   9.214  1.00  0.00    -0.003 C 
ATOM     10  C   UNL     1       8.349  -4.764   7.844  1.00  0.00     0.004 C 
ENDBRANCH   8   9
ENDBRANCH   7   8
ENDBRANCH   1   7
TORSDOF 6
ENDMDL
MODEL 4
REMARK VINA RESULT:    -3.338      1.977      3.900
REMARK INTER + INTRA:          -5.025
REMARK INTER:                  -4.594
REMARK INTRA:                  -0.432
REMARK UNBOUND:                -0.516
REMARK SMILES CCCCCCCC(=O)[O-]
REMARK SMILES IDX 5 1 6 2 7 3 8 4 9 5 10 6 4 7 3 8 2 9 1 10
REMARK H PARENT
REMARK Flexibility Score: inf
ROOT
ATOM      1  C   UNL     1       3.968  -5.614   9.270  1.00  0.00     0.000 C 
ENDROOT
BRANCH   1   2
ATOM      2  C   UNL     1       4.486  -6.337   8.016  1.00  0.00     0.006 C 
BRANCH   2   3
ATOM      3  C   UNL     1       4.834  -7.795   8.331  1.00  0.00     0.053 C 
BRANCH   3   4
ATOM      4  C   UNL     1       3.588  -8.604   8.508  1.00  0.00     0.041 C 
ATOM      5  O   UNL     1       2.941  -9.000   7.503  1.00  0.00    -0.550 OA
ATOM      6  O   UNL     1       3.168  -8.963   9.783  1.00  0.00    -0.550 OA
ENDBRANCH   3   4
ENDBRANCH   2   3
ENDBRANCH   1   2
BRANCH   1   7
ATOM      7  C   UNL     1       2.632  -4.893   9.030  1.00  0.00     0.000 C 
BRANCH   7   8
ATOM      8  C   UNL     1       2.077  -5.131   7.614  1.00  0.00    -0.000 C 
BRANCH   8   9
ATOM      9  C   UNL     1       0.888  -6.105   7.605  1.00  0.00    -0.003 C 
ATOM     10  C   UNL     1      -0.425  -5.433   7.202  1.00  0.00     0.004 C 
ENDBRANCH   8   9
ENDBRANCH   7   8
ENDBRANCH   1   7
TORSDOF 6
ENDMDL
MODEL 5
REMARK VINA RESULT:    -3.225     14.035     15.889
REMARK INTER + INTRA:          -4.872
REMARK INTER:                  -4.537
REMARK INTRA:                  -0.335
REMARK UNBOUND:                -0.516
REMARK SMILES CCCCCCCC(=O)[O-]
REMARK SMILES IDX 5 1 6 2 7 3 8 4 9 5 10 6 4 7 3 8 2 9 1 10
REMARK H PARENT
REMARK Flexibility Score: inf
ROOT
ATOM      1  C   UNL     1      -1.782   8.664   7.077  1.00  0.00     0.000 C 
ENDROOT
BRANCH   1   2
ATOM      2  C   UNL     1      -2.680   8.351   5.871  1.00  0.00     0.006 C 
BRANCH   2   3
ATOM      3  C   UNL     1      -2.194   7.096   5.138  1.00  0.00     0.053 C 
BRANCH   3   4
ATOM      4  C   UNL     1      -3.064   5.926   5.470  1.00  0.00     0.041 C 
ATOM      5  O   UNL     1      -3.417   5.122   4.566  1.00  0.00    -0.550 OA
ATOM      6  O   UNL     1      -3.447   5.693   6.785  1.00  0.00    -0.550 OA
ENDBRANCH   3   4
ENDBRANCH   2   3
ENDBRANCH   1   2
BRANCH   1   7
ATOM      7  C   UNL     1      -2.298   9.848   7.911  1.00  0.00     0.000 C 
BRANCH   7   8
ATOM      8  C   UNL     1      -3.835   9.910   7.960  1.00  0.00    -0.000 C 
BRANCH   8   9
ATOM      9  C   UNL     1      -4.402   9.405   9.296  1.00  0.00    -0.003 C 
ATOM     10  C   UNL     1      -4.535   7.882   9.345  1.00  0.00     0.004 C 
ENDBRANCH   8   9
ENDBRANCH   7   8
ENDBRANCH   1   7
TORSDOF 6
ENDMDL
MODEL 6
REMARK VINA RESULT:    -3.221     19.549     21.214
REMARK INTER + INTRA:          -4.867
REMARK INTER:                  -4.436
REMARK INTRA:                  -0.431
REMARK UNBOUND:                -0.516
REMARK SMILES CCCCCCCC(=O)[O-]
REMARK SMILES IDX 5 1 6 2 7 3 8 4 9 5 10 6 4 7 3 8 2 9 1 10
REMARK H PARENT
REMARK Flexibility Score: inf
ROOT
ATOM      1  C   UNL     1      -6.678   2.423  -7.515  1.00  0.00     0.000 C 
ENDROOT
BRANCH   1   2
ATOM      2  C   UNL     1      -5.431   2.984  -6.814  1.00  0.00     0.006 C 
BRANCH   2   3
ATOM      3  C   UNL     1      -4.154   2.553  -7.543  1.00  0.00     0.053 C 
BRANCH   3   4
ATOM      4  C   UNL     1      -3.508   3.727  -8.207  1.00  0.00     0.041 C 
ATOM      5  O   UNL     1      -2.278   3.947  -8.048  1.00  0.00    -0.550 OA
ATOM      6  O   UNL     1      -4.253   4.552  -9.041  1.00  0.00    -0.550 OA
ENDBRANCH   3   4
ENDBRANCH   2   3
ENDBRANCH   1   2
BRANCH   1   7
ATOM      7  C   UNL     1      -6.333   1.423  -8.631  1.00  0.00     0.000 C 
BRANCH   7   8
ATOM      8  C   UNL     1      -6.959   1.807  -9.983  1.00  0.00    -0.000 C 
BRANCH   8   9
ATOM      9  C   UNL     1      -7.844   3.060  -9.887  1.00  0.00    -0.003 C 
ATOM     10  C   UNL     1      -9.325   2.759 -10.119  1.00  0.00     0.004 C 
ENDBRANCH   8   9
ENDBRANCH   7   8
ENDBRANCH   1   7
TORSDOF 6
ENDMDL
MODEL 7
REMARK VINA RESULT:    -3.184     19.653     20.860
REMARK INTER + INTRA:          -4.817
REMARK INTER:                  -4.382
REMARK INTRA:                  -0.435
REMARK UNBOUND:                -0.516
REMARK SMILES CCCCCCCC(=O)[O-]
REMARK SMILES IDX 5 1 6 2 7 3 8 4 9 5 10 6 4 7 3 8 2 9 1 10
REMARK H PARENT
REMARK Flexibility Score: inf
ROOT
ATOM      1  C   UNL     1      -3.747   2.292  -7.860  1.00  0.00     0.000 C 
ENDROOT
BRANCH   1   2
ATOM      2  C   UNL     1      -4.735   3.240  -7.163  1.00  0.00     0.006 C 
BRANCH   2   3
ATOM      3  C   UNL     1      -6.136   2.621  -7.104  1.00  0.00     0.053 C 
BRANCH   3   4
ATOM      4  C   UNL     1      -6.634   2.322  -8.482  1.00  0.00     0.041 C 
ATOM      5  O   UNL     1      -6.905   3.261  -9.276  1.00  0.00    -0.550 OA
ATOM      6  O   UNL     1      -6.753   1.005  -8.908  1.00  0.00    -0.550 OA
ENDBRANCH   3   4
ENDBRANCH   2   3
ENDBRANCH   1   2
BRANCH   1   7
ATOM      7  C   UNL     1      -3.110   2.915  -9.113  1.00  0.00     0.000 C 
BRANCH   7   8
ATOM      8  C   UNL     1      -2.138   4.060  -8.775  1.00  0.00    -0.000 C 
BRANCH   8   9
ATOM      9  C   UNL     1      -2.502   5.370  -9.492  1.00  0.00    -0.003 C 
ATOM     10  C   UNL     1      -3.893   5.333 -10.125  1.00  0.00     0.004 C 
ENDBRANCH   8   9
ENDBRANCH   7   8
ENDBRANCH   1   7
TORSDOF 6
ENDMDL
MODEL 8
REMARK VINA RESULT:    -3.141     19.927     21.183
REMARK INTER + INTRA:          -4.759
REMARK INTER:                  -4.441
REMARK INTRA:                  -0.318
REMARK UNBOUND:                -0.516
REMARK SMILES CCCCCCCC(=O)[O-]
REMARK SMILES IDX 5 1 6 2 7 3 8 4 9 5 10 6 4 7 3 8 2 9 1 10
REMARK H PARENT
REMARK Flexibility Score: inf
ROOT
ATOM      1  C   UNL     1      -3.820   2.281  -7.845  1.00  0.00     0.000 C 
ENDROOT
BRANCH   1   2
ATOM      2  C   UNL     1      -3.013   2.989  -8.944  1.00  0.00     0.006 C 
BRANCH   2   3
ATOM      3  C   UNL     1      -3.699   4.290  -9.372  1.00  0.00     0.053 C 
BRANCH   3   4
ATOM      4  C   UNL     1      -2.742   5.438  -9.290  1.00  0.00     0.041 C 
ATOM      5  O   UNL     1      -3.009   6.435  -8.569  1.00  0.00    -0.550 OA
ATOM      6  O   UNL     1      -1.533   5.385  -9.971  1.00  0.00    -0.550 OA
ENDBRANCH   3   4
ENDBRANCH   2   3
ENDBRANCH   1   2
BRANCH   1   7
ATOM      7  C   UNL     1      -5.090   3.052  -7.450  1.00  0.00     0.000 C 
BRANCH   7   8
ATOM      8  C   UNL     1      -6.379   2.313  -7.850  1.00  0.00    -0.000 C 
BRANCH   8   9
ATOM      9  C   UNL     1      -6.655   2.388  -9.360  1.00  0.00    -0.003 C 
ATOM     10  C   UNL     1      -7.124   1.056  -9.945  1.00  0.00     0.004 C 
ENDBRANCH   8   9
ENDBRANCH   7   8
ENDBRANCH   1   7
TORSDOF 6
ENDMDL
MODEL 9
REMARK VINA RESULT:    -3.076     19.893     20.876
REMARK INTER + INTRA:          -4.671
REMARK INTER:                  -4.422
REMARK INTRA:                  -0.248
REMARK UNBOUND:                -0.516
REMARK SMILES CCCCCCCC(=O)[O-]
REMARK SMILES IDX 5 1 6 2 7 3 8 4 9 5 10 6 4 7 3 8 2 9 1 10
REMARK H PARENT
REMARK Flexibility Score: inf
ROOT
ATOM      1  C   UNL     1      -5.000   2.951  -6.891  1.00  0.00     0.000 C 
ENDROOT
BRANCH   1   2
ATOM      2  C   UNL     1      -6.323   2.587  -7.582  1.00  0.00     0.006 C 
BRANCH   2   3
ATOM      3  C   UNL     1      -6.075   2.101  -9.014  1.00  0.00     0.053 C 
BRANCH   3   4
ATOM      4  C   UNL     1      -7.364   1.711  -9.664  1.00  0.00     0.041 C 
ATOM      5  O   UNL     1      -7.567   0.514 -10.003  1.00  0.00    -0.550 OA
ATOM      6  O   UNL     1      -8.363   2.658  -9.853  1.00  0.00    -0.550 OA
ENDBRANCH   3   4
ENDBRANCH   2   3
ENDBRANCH   1   2
BRANCH   1   7
ATOM      7  C   UNL     1      -3.777   2.742  -7.800  1.00  0.00     0.000 C 
BRANCH   7   8
ATOM      8  C   UNL     1      -3.062   4.062  -8.140  1.00  0.00    -0.000 C 
BRANCH   8   9
ATOM      9  C   UNL     1      -2.455   4.054  -9.552  1.00  0.00    -0.003 C 
ATOM     10  C   UNL     1      -1.052   3.449  -9.591  1.00  0.00     0.004 C 
ENDBRANCH   8   9
ENDBRANCH   7   8
ENDBRANCH   1   7
TORSDOF 6
ENDMDL
