MODEL 1
REMARK VINA RESULT:    -8.350      0.000      0.000
REMARK INTER + INTRA:         -12.727
REMARK INTER:                 -11.524
REMARK INTRA:                  -1.203
REMARK UNBOUND:                -1.203
REMARK SMILES CC[C@@H](CC[C@@H](C)[C@H]1CC[C@H]2[C@H]3CC=C4C[C@H](O)CC[C@]4(C)[C@@H]3CC[C@@]12C)C(C)C
REMARK SMILES IDX 5 1 4 2 3 3 2 4 1 5 28 6 29 7 30 8 6 9 7 10 8 11 9 12 26 13
REMARK SMILES IDX 10 14 11 15 25 16 27 17 12 18 24 19 23 20 13 21 21 22 14 23
REMARK SMILES IDX 15 24 20 25 22 26 16 27 19 28 17 29 18 30
REMARK H PARENT 18 31
REMARK Flexibility Score: inf
ROOT
ATOM      1  C   UNL     1      25.222 -26.187  32.955  1.00  0.00     0.004 C 
ENDROOT
BRANCH   1   2
ATOM      2  C   UNL     1      25.171 -26.871  34.350  1.00  0.00     0.004 C 
BRANCH   2   3
ATOM      3  C   UNL     1      26.301 -26.467  35.340  1.00  0.00    -0.009 C 
BRANCH   3   4
ATOM      4  C   UNL     1      27.595 -26.005  34.601  1.00  0.00     0.000 C 
ATOM      5  C   UNL     1      27.991 -24.538  34.836  1.00  0.00     0.004 C 
ENDBRANCH   3   4
BRANCH   3   6
ATOM      6  C   UNL     1      26.576 -27.594  36.409  1.00  0.00    -0.014 C 
ATOM      7  C   UNL     1      25.447 -27.688  37.454  1.00  0.00     0.007 C 
ATOM      8  C   UNL     1      26.772 -28.982  35.782  1.00  0.00     0.007 C 
ENDBRANCH   3   6
ENDBRANCH   2   3
ENDBRANCH   1   2
BRANCH   1   9
ATOM      9  C   UNL     1      25.411 -27.178  31.739  1.00  0.00    -0.011 C 
ATOM     10  C   UNL     1      25.869 -28.569  32.229  1.00  0.00     0.008 C 
BRANCH   9  11
ATOM     11  C   UNL     1      24.149 -27.165  30.789  1.00  0.00    -0.002 C 
ATOM     12  C   UNL     1      23.109 -26.120  31.255  1.00  0.00     0.005 C 
ATOM     13  C   UNL     1      24.339 -26.891  29.241  1.00  0.00    -0.026 C 
ATOM     14  C   UNL     1      22.536 -25.439  30.021  1.00  0.00     0.005 C 
ATOM     15  C   UNL     1      22.952 -26.296  28.837  1.00  0.00    -0.001 C 
ATOM     16  C   UNL     1      25.479 -25.851  28.928  1.00  0.00     0.007 C 
ATOM     17  C   UNL     1      24.583 -28.220  28.489  1.00  0.00     0.012 C 
ATOM     18  C   UNL     1      22.938 -25.588  27.450  1.00  0.00     0.000 C 
ATOM     19  C   UNL     1      25.391 -25.221  27.528  1.00  0.00     0.005 C 
ATOM     20  C   UNL     1      24.045 -24.511  27.308  1.00  0.00     0.003 C 
ATOM     21  C   UNL     1      21.587 -24.969  27.127  1.00  0.00     0.031 C 
ATOM     22  C   UNL     1      23.896 -23.627  25.961  1.00  0.00    -0.008 C 
ATOM     23  C   UNL     1      21.579 -24.596  25.685  1.00  0.00    -0.027 C 
ATOM     24  C   UNL     1      22.673 -24.056  25.106  1.00  0.00    -0.065 C 
ATOM     25  C   UNL     1      25.197 -23.686  25.083  1.00  0.00     0.014 C 
ATOM     26  C   UNL     1      23.652 -22.152  26.384  1.00  0.00     0.016 C 
ATOM     27  C   UNL     1      22.581 -23.636  23.653  1.00  0.00     0.063 C 
ATOM     28  C   UNL     1      25.043 -23.126  23.662  1.00  0.00     0.033 C 
ATOM     29  C   UNL     1      23.909 -23.823  22.917  1.00  0.00     0.118 C 
BRANCH  29  30
ATOM     30  O   UNL     1      24.207 -25.183  22.771  1.00  0.00    -0.393 OA
ATOM     31  H   UNL     1      23.398 -25.607  22.375  1.00  0.00     0.210 HD
ENDBRANCH  29  30
ENDBRANCH   9  11
ENDBRANCH   1   9
TORSDOF 7
ENDMDL
MODEL 2
REMARK VINA RESULT:    -7.937      2.979      9.274
REMARK INTER + INTRA:         -12.156
REMARK INTER:                 -10.524
REMARK INTRA:                  -1.632
REMARK UNBOUND:                -1.203
REMARK SMILES CC[C@@H](CC[C@@H](C)[C@H]1CC[C@H]2[C@H]3CC=C4C[C@H](O)CC[C@]4(C)[C@@H]3CC[C@@]12C)C(C)C
REMARK SMILES IDX 5 1 4 2 3 3 2 4 1 5 28 6 29 7 30 8 6 9 7 10 8 11 9 12 26 13
REMARK SMILES IDX 10 14 11 15 25 16 27 17 12 18 24 19 23 20 13 21 21 22 14 23
REMARK SMILES IDX 15 24 20 25 22 26 16 27 19 28 17 29 18 30
REMARK H PARENT 18 31
REMARK Flexibility Score: inf
ROOT
ATOM      1  C   UNL     1      24.312 -23.233  28.389  1.00  0.00     0.004 C 
ENDROOT
BRANCH   1   2
ATOM      2  C   UNL     1      24.219 -22.806  26.897  1.00  0.00     0.004 C 
BRANCH   2   3
ATOM      3  C   UNL     1      24.997 -23.704  25.891  1.00  0.00    -0.009 C 
BRANCH   3   4
ATOM      4  C   UNL     1      26.188 -22.947  25.226  1.00  0.00     0.000 C 
ATOM      5  C   UNL     1      26.863 -23.691  24.062  1.00  0.00     0.004 C 
ENDBRANCH   3   4
BRANCH   3   6
ATOM      6  C   UNL     1      24.033 -24.376  24.838  1.00  0.00    -0.014 C 
ATOM      7  C   UNL     1      23.384 -25.661  25.387  1.00  0.00     0.007 C 
ATOM      8  C   UNL     1      22.918 -23.436  24.359  1.00  0.00     0.007 C 
ENDBRANCH   3   6
ENDBRANCH   2   3
ENDBRANCH   1   2
BRANCH   1   9
ATOM      9  C   UNL     1      22.977 -23.830  28.990  1.00  0.00    -0.011 C 
ATOM     10  C   UNL     1      21.791 -23.599  28.030  1.00  0.00     0.008 C 
BRANCH   9  11
ATOM     11  C   UNL     1      23.185 -25.317  29.480  1.00  0.00    -0.002 C 
ATOM     12  C   UNL     1      24.501 -25.910  28.925  1.00  0.00     0.005 C 
ATOM     13  C   UNL     1      23.218 -25.631  31.032  1.00  0.00    -0.026 C 
ATOM     14  C   UNL     1      25.149 -26.737  30.025  1.00  0.00     0.005 C 
ATOM     15  C   UNL     1      24.081 -26.931  31.089  1.00  0.00    -0.001 C 
ATOM     16  C   UNL     1      23.903 -24.496  31.882  1.00  0.00     0.007 C 
ATOM     17  C   UNL     1      21.790 -25.922  31.549  1.00  0.00     0.012 C 
ATOM     18  C   UNL     1      24.601 -27.294  32.512  1.00  0.00     0.000 C 
ATOM     19  C   UNL     1      24.363 -24.946  33.279  1.00  0.00     0.005 C 
ATOM     20  C   UNL     1      25.350 -26.123  33.200  1.00  0.00     0.003 C 
ATOM     21  C   UNL     1      25.489 -28.529  32.509  1.00  0.00     0.031 C 
ATOM     22  C   UNL     1      26.076 -26.562  34.578  1.00  0.00    -0.008 C 
ATOM     23  C   UNL     1      25.678 -28.969  33.920  1.00  0.00    -0.027 C 
ATOM     24  C   UNL     1      25.861 -28.064  34.905  1.00  0.00    -0.065 C 
ATOM     25  C   UNL     1      25.596 -25.686  35.789  1.00  0.00     0.014 C 
ATOM     26  C   UNL     1      27.606 -26.358  34.396  1.00  0.00     0.016 C 
ATOM     27  C   UNL     1      26.114 -28.576  36.309  1.00  0.00     0.063 C 
ATOM     28  C   UNL     1      26.004 -26.216  37.172  1.00  0.00     0.033 C 
ATOM     29  C   UNL     1      25.521 -27.649  37.374  1.00  0.00     0.118 C 
BRANCH  29  30
ATOM     30  O   UNL     1      24.122 -27.685  37.337  1.00  0.00    -0.393 OA
ATOM     31  H   UNL     1      23.818 -27.771  38.281  1.00  0.00     0.210 HD
ENDBRANCH  29  30
ENDBRANCH   9  11
ENDBRANCH   1   9
TORSDOF 7
ENDMDL
MODEL 3
REMARK VINA RESULT:    -7.917      1.937      3.445
REMARK INTER + INTRA:         -12.129
REMARK INTER:                 -10.872
REMARK INTRA:                  -1.257
REMARK UNBOUND:                -1.203
REMARK SMILES CC[C@@H](CC[C@@H](C)[C@H]1CC[C@H]2[C@H]3CC=C4C[C@H](O)CC[C@]4(C)[C@@H]3CC[C@@]12C)C(C)C
REMARK SMILES IDX 5 1 4 2 3 3 2 4 1 5 28 6 29 7 30 8 6 9 7 10 8 11 9 12 26 13
REMARK SMILES IDX 10 14 11 15 25 16 27 17 12 18 24 19 23 20 13 21 21 22 14 23
REMARK SMILES IDX 15 24 20 25 22 26 16 27 19 28 17 29 18 30
REMARK H PARENT 18 31
REMARK Flexibility Score: inf
ROOT
ATOM      1  C   UNL     1      26.692 -27.580  35.541  1.00  0.00     0.004 C 
ENDROOT
BRANCH   1   2
ATOM      2  C   UNL     1      26.296 -28.623  36.623  1.00  0.00     0.004 C 
BRANCH   2   3
ATOM      3  C   UNL     1      25.025 -28.281  37.454  1.00  0.00    -0.009 C 
BRANCH   3   4
ATOM      4  C   UNL     1      25.048 -26.815  37.990  1.00  0.00     0.000 C 
ATOM      5  C   UNL     1      23.768 -26.006  37.727  1.00  0.00     0.004 C 
ENDBRANCH   3   4
BRANCH   3   6
ATOM      6  C   UNL     1      24.763 -29.344  38.591  1.00  0.00    -0.014 C 
ATOM      7  C   UNL     1      24.886 -28.727  39.998  1.00  0.00     0.007 C 
ATOM      8  C   UNL     1      23.389 -30.018  38.476  1.00  0.00     0.007 C 
ENDBRANCH   3   6
ENDBRANCH   2   3
ENDBRANCH   1   2
BRANCH   1   9
ATOM      9  C   UNL     1      26.144 -27.891  34.092  1.00  0.00    -0.011 C 
ATOM     10  C   UNL     1      26.071 -29.413  33.846  1.00  0.00     0.008 C 
BRANCH   9  11
ATOM     11  C   UNL     1      24.819 -27.083  33.796  1.00  0.00    -0.002 C 
ATOM     12  C   UNL     1      24.990 -25.585  34.136  1.00  0.00     0.005 C 
ATOM     13  C   UNL     1      24.201 -27.104  32.338  1.00  0.00    -0.026 C 
ATOM     14  C   UNL     1      24.291 -24.771  33.057  1.00  0.00     0.005 C 
ATOM     15  C   UNL     1      23.419 -25.752  32.290  1.00  0.00    -0.001 C 
ATOM     16  C   UNL     1      25.290 -27.132  31.200  1.00  0.00     0.007 C 
ATOM     17  C   UNL     1      23.218 -28.288  32.190  1.00  0.00     0.012 C 
ATOM     18  C   UNL     1      22.996 -25.305  30.859  1.00  0.00     0.000 C 
ATOM     19  C   UNL     1      24.771 -26.695  29.820  1.00  0.00     0.005 C 
ATOM     20  C   UNL     1      24.182 -25.275  29.859  1.00  0.00     0.003 C 
ATOM     21  C   UNL     1      22.296 -23.955  30.854  1.00  0.00     0.031 C 
ATOM     22  C   UNL     1      23.790 -24.607  28.438  1.00  0.00    -0.008 C 
ATOM     23  C   UNL     1      21.667 -23.763  29.517  1.00  0.00    -0.027 C 
ATOM     24  C   UNL     1      22.310 -24.143  28.392  1.00  0.00    -0.065 C 
ATOM     25  C   UNL     1      24.072 -25.583  27.242  1.00  0.00     0.014 C 
ATOM     26  C   UNL     1      24.664 -23.335  28.253  1.00  0.00     0.016 C 
ATOM     27  C   UNL     1      21.647 -23.859  27.059  1.00  0.00     0.063 C 
ATOM     28  C   UNL     1      23.464 -25.154  25.899  1.00  0.00     0.033 C 
ATOM     29  C   UNL     1      21.959 -24.941  26.022  1.00  0.00     0.118 C 
BRANCH  29  30
ATOM     30  O   UNL     1      21.338 -26.148  26.364  1.00  0.00    -0.393 OA
ATOM     31  H   UNL     1      22.052 -26.737  26.731  1.00  0.00     0.210 HD
ENDBRANCH  29  30
ENDBRANCH   9  11
ENDBRANCH   1   9
TORSDOF 7
ENDMDL
MODEL 4
REMARK VINA RESULT:    -7.783      2.969      5.168
REMARK INTER + INTRA:         -11.944
REMARK INTER:                  -9.883
REMARK INTRA:                  -2.061
REMARK UNBOUND:                -1.203
REMARK SMILES CC[C@@H](CC[C@@H](C)[C@H]1CC[C@H]2[C@H]3CC=C4C[C@H](O)CC[C@]4(C)[C@@H]3CC[C@@]12C)C(C)C
REMARK SMILES IDX 5 1 4 2 3 3 2 4 1 5 28 6 29 7 30 8 6 9 7 10 8 11 9 12 26 13
REMARK SMILES IDX 10 14 11 15 25 16 27 17 12 18 24 19 23 20 13 21 21 22 14 23
REMARK SMILES IDX 15 24 20 25 22 26 16 27 19 28 17 29 18 30
REMARK H PARENT 18 31
REMARK Flexibility Score: inf
ROOT
ATOM      1  C   UNL     1      23.098 -29.324  35.602  1.00  0.00     0.004 C 
ENDROOT
BRANCH   1   2
ATOM      2  C   UNL     1      21.675 -28.698  35.573  1.00  0.00     0.004 C 
BRANCH   2   3
ATOM      3  C   UNL     1      20.595 -29.520  34.812  1.00  0.00    -0.009 C 
BRANCH   3   4
ATOM      4  C   UNL     1      20.948 -31.039  34.744  1.00  0.00     0.000 C 
ATOM      5  C   UNL     1      21.037 -31.623  33.325  1.00  0.00     0.004 C 
ENDBRANCH   3   4
BRANCH   3   6
ATOM      6  C   UNL     1      20.276 -28.902  33.396  1.00  0.00    -0.014 C 
ATOM      7  C   UNL     1      18.761 -28.844  33.118  1.00  0.00     0.007 C 
ATOM      8  C   UNL     1      20.855 -27.492  33.212  1.00  0.00     0.007 C 
ENDBRANCH   3   6
ENDBRANCH   2   3
ENDBRANCH   1   2
BRANCH   1   9
ATOM      9  C   UNL     1      24.264 -28.333  35.205  1.00  0.00    -0.011 C 
ATOM     10  C   UNL     1      25.278 -28.187  36.359  1.00  0.00     0.008 C 
BRANCH   9  11
ATOM     11  C   UNL     1      24.875 -28.703  33.796  1.00  0.00    -0.002 C 
ATOM     12  C   UNL     1      23.940 -29.655  33.015  1.00  0.00     0.005 C 
ATOM     13  C   UNL     1      25.231 -27.548  32.772  1.00  0.00    -0.026 C 
ATOM     14  C   UNL     1      23.945 -29.230  31.553  1.00  0.00     0.005 C 
ATOM     15  C   UNL     1      25.120 -28.280  31.396  1.00  0.00    -0.001 C 
ATOM     16  C   UNL     1      24.221 -26.341  32.818  1.00  0.00     0.007 C 
ATOM     17  C   UNL     1      26.682 -27.063  32.997  1.00  0.00     0.012 C 
ATOM     18  C   UNL     1      25.061 -27.327  30.166  1.00  0.00     0.000 C 
ATOM     19  C   UNL     1      24.251 -25.446  31.568  1.00  0.00     0.005 C 
ATOM     20  C   UNL     1      23.954 -26.248  30.289  1.00  0.00     0.003 C 
ATOM     21  C   UNL     1      24.889 -28.079  28.855  1.00  0.00     0.031 C 
ATOM     22  C   UNL     1      23.746 -25.399  28.927  1.00  0.00    -0.008 C 
ATOM     23  C   UNL     1      25.150 -27.130  27.736  1.00  0.00    -0.027 C 
ATOM     24  C   UNL     1      24.704 -25.857  27.795  1.00  0.00    -0.065 C 
ATOM     25  C   UNL     1      23.921 -23.858  29.172  1.00  0.00     0.014 C 
ATOM     26  C   UNL     1      22.299 -25.658  28.421  1.00  0.00     0.016 C 
ATOM     27  C   UNL     1      24.944 -24.960  26.597  1.00  0.00     0.063 C 
ATOM     28  C   UNL     1      24.033 -23.009  27.897  1.00  0.00     0.033 C 
ATOM     29  C   UNL     1      25.170 -23.503  27.008  1.00  0.00     0.118 C 
BRANCH  29  30
ATOM     30  O   UNL     1      26.389 -23.362  27.680  1.00  0.00    -0.393 OA
ATOM     31  H   UNL     1      26.996 -22.872  27.062  1.00  0.00     0.210 HD
ENDBRANCH  29  30
ENDBRANCH   9  11
ENDBRANCH   1   9
TORSDOF 7
ENDMDL
MODEL 5
REMARK VINA RESULT:    -7.780      2.948      5.473
REMARK INTER + INTRA:         -11.940
REMARK INTER:                  -9.428
REMARK INTRA:                  -2.512
REMARK UNBOUND:                -1.203
REMARK SMILES CC[C@@H](CC[C@@H](C)[C@H]1CC[C@H]2[C@H]3CC=C4C[C@H](O)CC[C@]4(C)[C@@H]3CC[C@@]12C)C(C)C
REMARK SMILES IDX 5 1 4 2 3 3 2 4 1 5 28 6 29 7 30 8 6 9 7 10 8 11 9 12 26 13
REMARK SMILES IDX 10 14 11 15 25 16 27 17 12 18 24 19 23 20 13 21 21 22 14 23
REMARK SMILES IDX 15 24 20 25 22 26 16 27 19 28 17 29 18 30
REMARK H PARENT 18 31
REMARK Flexibility Score: inf
ROOT
ATOM      1  C   UNL     1      21.717 -21.709  32.526  1.00  0.00     0.004 C 
ENDROOT
BRANCH   1   2
ATOM      2  C   UNL     1      21.349 -23.177  32.880  1.00  0.00     0.004 C 
BRANCH   2   3
ATOM      3  C   UNL     1      21.310 -24.168  31.681  1.00  0.00    -0.009 C 
BRANCH   3   4
ATOM      4  C   UNL     1      19.887 -24.774  31.463  1.00  0.00     0.000 C 
ATOM      5  C   UNL     1      19.548 -25.976  32.359  1.00  0.00     0.004 C 
ENDBRANCH   3   4
BRANCH   3   6
ATOM      6  C   UNL     1      22.433 -25.271  31.793  1.00  0.00    -0.014 C 
ATOM      7  C   UNL     1      23.029 -25.630  30.418  1.00  0.00     0.007 C 
ATOM      8  C   UNL     1      23.581 -24.864  32.727  1.00  0.00     0.007 C 
ENDBRANCH   3   6
ENDBRANCH   2   3
ENDBRANCH   1   2
BRANCH   1   9
ATOM      9  C   UNL     1      21.283 -21.249  31.078  1.00  0.00    -0.011 C 
ATOM     10  C   UNL     1      20.316 -20.048  31.148  1.00  0.00     0.008 C 
BRANCH   9  11
ATOM     11  C   UNL     1      22.537 -21.067  30.135  1.00  0.00    -0.002 C 
ATOM     12  C   UNL     1      23.794 -21.731  30.742  1.00  0.00     0.005 C 
ATOM     13  C   UNL     1      22.476 -21.596  28.643  1.00  0.00    -0.026 C 
ATOM     14  C   UNL     1      24.565 -22.407  29.617  1.00  0.00     0.005 C 
ATOM     15  C   UNL     1      23.982 -21.861  28.324  1.00  0.00    -0.001 C 
ATOM     16  C   UNL     1      21.654 -22.929  28.488  1.00  0.00     0.007 C 
ATOM     17  C   UNL     1      21.924 -20.495  27.708  1.00  0.00     0.012 C 
ATOM     18  C   UNL     1      24.226 -22.729  27.053  1.00  0.00     0.000 C 
ATOM     19  C   UNL     1      21.948 -23.705  27.192  1.00  0.00     0.005 C 
ATOM     20  C   UNL     1      23.438 -24.065  27.073  1.00  0.00     0.003 C 
ATOM     21  C   UNL     1      25.701 -23.015  26.818  1.00  0.00     0.031 C 
ATOM     22  C   UNL     1      23.854 -25.060  25.866  1.00  0.00    -0.008 C 
ATOM     23  C   UNL     1      25.853 -23.572  25.444  1.00  0.00    -0.027 C 
ATOM     24  C   UNL     1      24.955 -24.453  24.954  1.00  0.00    -0.065 C 
ATOM     25  C   UNL     1      22.613 -25.464  24.994  1.00  0.00     0.014 C 
ATOM     26  C   UNL     1      24.455 -26.347  26.496  1.00  0.00     0.016 C 
ATOM     27  C   UNL     1      25.201 -25.034  23.576  1.00  0.00     0.063 C 
ATOM     28  C   UNL     1      22.953 -26.159  23.668  1.00  0.00     0.033 C 
ATOM     29  C   UNL     1      23.894 -25.303  22.825  1.00  0.00     0.118 C 
BRANCH  29  30
ATOM     30  O   UNL     1      23.262 -24.101  22.487  1.00  0.00    -0.393 OA
ATOM     31  H   UNL     1      23.586 -23.860  21.577  1.00  0.00     0.210 HD
ENDBRANCH  29  30
ENDBRANCH   9  11
ENDBRANCH   1   9
TORSDOF 7
ENDMDL
MODEL 6
REMARK VINA RESULT:    -7.707      1.830      3.085
REMARK INTER + INTRA:         -11.840
REMARK INTER:                 -10.523
REMARK INTRA:                  -1.317
REMARK UNBOUND:                -1.203
REMARK SMILES CC[C@@H](CC[C@@H](C)[C@H]1CC[C@H]2[C@H]3CC=C4C[C@H](O)CC[C@]4(C)[C@@H]3CC[C@@]12C)C(C)C
REMARK SMILES IDX 5 1 4 2 3 3 2 4 1 5 28 6 29 7 30 8 6 9 7 10 8 11 9 12 26 13
REMARK SMILES IDX 10 14 11 15 25 16 27 17 12 18 24 19 23 20 13 21 21 22 14 23
REMARK SMILES IDX 15 24 20 25 22 26 16 27 19 28 17 29 18 30
REMARK H PARENT 18 31
REMARK Flexibility Score: inf
ROOT
ATOM      1  C   UNL     1      24.149 -24.707  33.873  1.00  0.00     0.004 C 
ENDROOT
BRANCH   1   2
ATOM      2  C   UNL     1      24.988 -25.866  34.482  1.00  0.00     0.004 C 
BRANCH   2   3
ATOM      3  C   UNL     1      26.269 -26.257  33.691  1.00  0.00    -0.009 C 
BRANCH   3   4
ATOM      4  C   UNL     1      26.178 -27.696  33.094  1.00  0.00     0.000 C 
ATOM      5  C   UNL     1      25.135 -27.873  31.978  1.00  0.00     0.004 C 
ENDBRANCH   3   4
BRANCH   3   6
ATOM      6  C   UNL     1      27.578 -26.030  34.543  1.00  0.00    -0.014 C 
ATOM      7  C   UNL     1      27.821 -24.538  34.842  1.00  0.00     0.007 C 
ATOM      8  C   UNL     1      27.567 -26.795  35.874  1.00  0.00     0.007 C 
ENDBRANCH   3   6
ENDBRANCH   2   3
ENDBRANCH   1   2
BRANCH   1   9
ATOM      9  C   UNL     1      22.795 -25.157  33.194  1.00  0.00    -0.011 C 
ATOM     10  C   UNL     1      21.788 -25.656  34.253  1.00  0.00     0.008 C 
BRANCH   9  11
ATOM     11  C   UNL     1      22.257 -24.052  32.202  1.00  0.00    -0.002 C 
ATOM     12  C   UNL     1      23.170 -22.804  32.208  1.00  0.00     0.005 C 
ATOM     13  C   UNL     1      22.060 -24.406  30.671  1.00  0.00    -0.026 C 
ATOM     14  C   UNL     1      23.298 -22.303  30.777  1.00  0.00     0.005 C 
ATOM     15  C   UNL     1      22.210 -23.010  29.986  1.00  0.00    -0.001 C 
ATOM     16  C   UNL     1      23.151 -25.395  30.115  1.00  0.00     0.007 C 
ATOM     17  C   UNL     1      20.637 -24.962  30.430  1.00  0.00     0.012 C 
ATOM     18  C   UNL     1      22.426 -23.072  28.445  1.00  0.00     0.000 C 
ATOM     19  C   UNL     1      23.275 -25.401  28.582  1.00  0.00     0.005 C 
ATOM     20  C   UNL     1      23.599 -24.001  28.034  1.00  0.00     0.003 C 
ATOM     21  C   UNL     1      22.632 -21.696  27.830  1.00  0.00     0.031 C 
ATOM     22  C   UNL     1      23.963 -23.898  26.461  1.00  0.00    -0.008 C 
ATOM     23  C   UNL     1      22.520 -21.827  26.350  1.00  0.00    -0.027 C 
ATOM     24  C   UNL     1      23.054 -22.888  25.709  1.00  0.00    -0.065 C 
ATOM     25  C   UNL     1      23.887 -25.299  25.756  1.00  0.00     0.014 C 
ATOM     26  C   UNL     1      25.418 -23.364  26.343  1.00  0.00     0.016 C 
ATOM     27  C   UNL     1      22.965 -22.930  24.197  1.00  0.00     0.063 C 
ATOM     28  C   UNL     1      23.927 -25.254  24.222  1.00  0.00     0.033 C 
ATOM     29  C   UNL     1      22.821 -24.360  23.670  1.00  0.00     0.118 C 
BRANCH  29  30
ATOM     30  O   UNL     1      21.572 -24.890  24.014  1.00  0.00    -0.393 OA
ATOM     31  H   UNL     1      20.911 -24.476  23.395  1.00  0.00     0.210 HD
ENDBRANCH  29  30
ENDBRANCH   9  11
ENDBRANCH   1   9
TORSDOF 7
ENDMDL
MODEL 7
REMARK VINA RESULT:    -7.685      3.782     10.471
REMARK INTER + INTRA:         -11.809
REMARK INTER:                 -10.715
REMARK INTRA:                  -1.094
REMARK UNBOUND:                -1.203
REMARK SMILES CC[C@@H](CC[C@@H](C)[C@H]1CC[C@H]2[C@H]3CC=C4C[C@H](O)CC[C@]4(C)[C@@H]3CC[C@@]12C)C(C)C
REMARK SMILES IDX 5 1 4 2 3 3 2 4 1 5 28 6 29 7 30 8 6 9 7 10 8 11 9 12 26 13
REMARK SMILES IDX 10 14 11 15 25 16 27 17 12 18 24 19 23 20 13 21 21 22 14 23
REMARK SMILES IDX 15 24 20 25 22 26 16 27 19 28 17 29 18 30
REMARK H PARENT 18 31
REMARK Flexibility Score: inf
ROOT
ATOM      1  C   UNL     1      23.726 -26.174  30.019  1.00  0.00     0.004 C 
ENDROOT
BRANCH   1   2
ATOM      2  C   UNL     1      23.321 -26.375  28.532  1.00  0.00     0.004 C 
BRANCH   2   3
ATOM      3  C   UNL     1      24.159 -25.576  27.492  1.00  0.00    -0.009 C 
BRANCH   3   4
ATOM      4  C   UNL     1      25.214 -24.648  28.173  1.00  0.00     0.000 C 
ATOM      5  C   UNL     1      25.789 -23.545  27.271  1.00  0.00     0.004 C 
ENDBRANCH   3   4
BRANCH   3   6
ATOM      6  C   UNL     1      23.240 -24.807  26.465  1.00  0.00    -0.014 C 
ATOM      7  C   UNL     1      23.062 -25.590  25.150  1.00  0.00     0.007 C 
ATOM      8  C   UNL     1      21.849 -24.484  27.029  1.00  0.00     0.007 C 
ENDBRANCH   3   6
ENDBRANCH   2   3
ENDBRANCH   1   2
BRANCH   1   9
ATOM      9  C   UNL     1      24.162 -27.495  30.770  1.00  0.00    -0.011 C 
ATOM     10  C   UNL     1      24.756 -28.520  29.780  1.00  0.00     0.008 C 
BRANCH   9  11
ATOM     11  C   UNL     1      25.049 -27.168  32.036  1.00  0.00    -0.002 C 
ATOM     12  C   UNL     1      24.749 -25.751  32.577  1.00  0.00     0.005 C 
ATOM     13  C   UNL     1      24.979 -28.114  33.304  1.00  0.00    -0.026 C 
ATOM     14  C   UNL     1      24.749 -25.815  34.098  1.00  0.00     0.005 C 
ATOM     15  C   UNL     1      25.385 -27.147  34.461  1.00  0.00    -0.001 C 
ATOM     16  C   UNL     1      23.539 -28.693  33.571  1.00  0.00     0.007 C 
ATOM     17  C   UNL     1      26.017 -29.253  33.179  1.00  0.00     0.012 C 
ATOM     18  C   UNL     1      25.064 -27.683  35.888  1.00  0.00     0.000 C 
ATOM     19  C   UNL     1      23.325 -29.217  35.001  1.00  0.00     0.005 C 
ATOM     20  C   UNL     1      23.585 -28.123  36.050  1.00  0.00     0.003 C 
ATOM     21  C   UNL     1      25.416 -26.684  36.979  1.00  0.00     0.031 C 
ATOM     22  C   UNL     1      23.196 -28.473  37.582  1.00  0.00    -0.008 C 
ATOM     23  C   UNL     1      25.366 -27.389  38.290  1.00  0.00    -0.027 C 
ATOM     24  C   UNL     1      24.395 -28.289  38.552  1.00  0.00    -0.065 C 
ATOM     25  C   UNL     1      22.630 -29.931  37.717  1.00  0.00     0.014 C 
ATOM     26  C   UNL     1      22.097 -27.472  38.034  1.00  0.00     0.016 C 
ATOM     27  C   UNL     1      24.359 -28.924  39.927  1.00  0.00     0.063 C 
ATOM     28  C   UNL     1      22.512 -30.448  39.158  1.00  0.00     0.033 C 
ATOM     29  C   UNL     1      23.854 -30.368  39.880  1.00  0.00     0.118 C 
BRANCH  29  30
ATOM     30  O   UNL     1      24.784 -31.196  39.241  1.00  0.00    -0.393 OA
ATOM     31  H   UNL     1      25.482 -30.596  38.864  1.00  0.00     0.210 HD
ENDBRANCH  29  30
ENDBRANCH   9  11
ENDBRANCH   1   9
TORSDOF 7
ENDMDL
MODEL 8
REMARK VINA RESULT:    -7.683      5.415      8.749
REMARK INTER + INTRA:         -11.805
REMARK INTER:                 -10.909
REMARK INTRA:                  -0.896
REMARK UNBOUND:                -1.203
REMARK SMILES CC[C@@H](CC[C@@H](C)[C@H]1CC[C@H]2[C@H]3CC=C4C[C@H](O)CC[C@]4(C)[C@@H]3CC[C@@]12C)C(C)C
REMARK SMILES IDX 5 1 4 2 3 3 2 4 1 5 28 6 29 7 30 8 6 9 7 10 8 11 9 12 26 13
REMARK SMILES IDX 10 14 11 15 25 16 27 17 12 18 24 19 23 20 13 21 21 22 14 23
REMARK SMILES IDX 15 24 20 25 22 26 16 27 19 28 17 29 18 30
REMARK H PARENT 18 31
REMARK Flexibility Score: inf
ROOT
ATOM      1  C   UNL     1      26.227 -24.009  24.264  1.00  0.00     0.004 C 
ENDROOT
BRANCH   1   2
ATOM      2  C   UNL     1      26.727 -22.542  24.377  1.00  0.00     0.004 C 
BRANCH   2   3
ATOM      3  C   UNL     1      28.036 -22.215  23.602  1.00  0.00    -0.009 C 
BRANCH   3   4
ATOM      4  C   UNL     1      29.098 -23.352  23.733  1.00  0.00     0.000 C 
ATOM      5  C   UNL     1      29.685 -23.851  22.403  1.00  0.00     0.004 C 
ENDBRANCH   3   4
BRANCH   3   6
ATOM      6  C   UNL     1      28.609 -20.797  23.988  1.00  0.00    -0.014 C 
ATOM      7  C   UNL     1      30.047 -20.595  23.473  1.00  0.00     0.007 C 
ATOM      8  C   UNL     1      27.743 -19.639  23.470  1.00  0.00     0.007 C 
ENDBRANCH   3   6
ENDBRANCH   2   3
ENDBRANCH   1   2
BRANCH   1   9
ATOM      9  C   UNL     1      24.665 -24.163  24.083  1.00  0.00    -0.011 C 
ATOM     10  C   UNL     1      24.337 -25.225  23.012  1.00  0.00     0.008 C 
BRANCH   9  11
ATOM     11  C   UNL     1      23.942 -24.347  25.476  1.00  0.00    -0.002 C 
ATOM     12  C   UNL     1      24.956 -24.298  26.642  1.00  0.00     0.005 C 
ATOM     13  C   UNL     1      22.788 -23.347  25.895  1.00  0.00    -0.026 C 
ATOM     14  C   UNL     1      24.326 -23.516  27.786  1.00  0.00     0.005 C 
ATOM     15  C   UNL     1      22.847 -23.409  27.455  1.00  0.00    -0.001 C 
ATOM     16  C   UNL     1      23.036 -21.870  25.409  1.00  0.00     0.007 C 
ATOM     17  C   UNL     1      21.421 -23.869  25.397  1.00  0.00     0.012 C 
ATOM     18  C   UNL     1      22.075 -22.261  28.172  1.00  0.00     0.000 C 
ATOM     19  C   UNL     1      22.214 -20.811  26.162  1.00  0.00     0.005 C 
ATOM     20  C   UNL     1      22.488 -20.851  27.675  1.00  0.00     0.003 C 
ATOM     21  C   UNL     1      22.212 -22.324  29.685  1.00  0.00     0.031 C 
ATOM     22  C   UNL     1      21.851 -19.658  28.564  1.00  0.00    -0.008 C 
ATOM     23  C   UNL     1      21.210 -21.397  30.282  1.00  0.00    -0.027 C 
ATOM     24  C   UNL     1      20.966 -20.193  29.722  1.00  0.00    -0.065 C 
ATOM     25  C   UNL     1      21.019 -18.660  27.683  1.00  0.00     0.014 C 
ATOM     26  C   UNL     1      23.024 -18.877  29.221  1.00  0.00     0.016 C 
ATOM     27  C   UNL     1      19.985 -19.268  30.413  1.00  0.00     0.063 C 
ATOM     28  C   UNL     1      20.144 -17.675  28.473  1.00  0.00     0.033 C 
ATOM     29  C   UNL     1      19.199 -18.415  29.415  1.00  0.00     0.118 C 
BRANCH  29  30
ATOM     30  O   UNL     1      18.319 -19.210  28.670  1.00  0.00    -0.393 OA
ATOM     31  H   UNL     1      18.277 -20.091  29.132  1.00  0.00     0.210 HD
ENDBRANCH  29  30
ENDBRANCH   9  11
ENDBRANCH   1   9
TORSDOF 7
ENDMDL
MODEL 9
REMARK VINA RESULT:    -7.585      2.332      4.543
REMARK INTER + INTRA:         -11.670
REMARK INTER:                 -10.201
REMARK INTRA:                  -1.469
REMARK UNBOUND:                -1.203
REMARK SMILES CC[C@@H](CC[C@@H](C)[C@H]1CC[C@H]2[C@H]3CC=C4C[C@H](O)CC[C@]4(C)[C@@H]3CC[C@@]12C)C(C)C
REMARK SMILES IDX 5 1 4 2 3 3 2 4 1 5 28 6 29 7 30 8 6 9 7 10 8 11 9 12 26 13
REMARK SMILES IDX 10 14 11 15 25 16 27 17 12 18 24 19 23 20 13 21 21 22 14 23
REMARK SMILES IDX 15 24 20 25 22 26 16 27 19 28 17 29 18 30
REMARK H PARENT 18 31
REMARK Flexibility Score: inf
ROOT
ATOM      1  C   UNL     1      23.395 -28.994  36.032  1.00  0.00     0.004 C 
ENDROOT
BRANCH   1   2
ATOM      2  C   UNL     1      22.403 -28.310  37.015  1.00  0.00     0.004 C 
BRANCH   2   3
ATOM      3  C   UNL     1      22.541 -28.724  38.508  1.00  0.00    -0.009 C 
BRANCH   3   4
ATOM      4  C   UNL     1      22.852 -27.504  39.431  1.00  0.00     0.000 C 
ATOM      5  C   UNL     1      23.009 -26.160  38.703  1.00  0.00     0.004 C 
ENDBRANCH   3   4
BRANCH   3   6
ATOM      6  C   UNL     1      23.565 -29.910  38.696  1.00  0.00    -0.014 C 
ATOM      7  C   UNL     1      24.584 -29.622  39.816  1.00  0.00     0.007 C 
ATOM      8  C   UNL     1      22.880 -31.251  38.999  1.00  0.00     0.007 C 
ENDBRANCH   3   6
ENDBRANCH   2   3
ENDBRANCH   1   2
BRANCH   1   9
ATOM      9  C   UNL     1      24.501 -28.035  35.436  1.00  0.00    -0.011 C 
ATOM     10  C   UNL     1      25.603 -27.752  36.479  1.00  0.00     0.008 C 
BRANCH   9  11
ATOM     11  C   UNL     1      25.002 -28.546  34.028  1.00  0.00    -0.002 C 
ATOM     12  C   UNL     1      23.955 -29.469  33.363  1.00  0.00     0.005 C 
ATOM     13  C   UNL     1      25.390 -27.495  32.909  1.00  0.00    -0.026 C 
ATOM     14  C   UNL     1      23.911 -29.143  31.877  1.00  0.00     0.005 C 
ATOM     15  C   UNL     1      25.147 -28.304  31.595  1.00  0.00    -0.001 C 
ATOM     16  C   UNL     1      24.482 -26.209  32.921  1.00  0.00     0.007 C 
ATOM     17  C   UNL     1      26.885 -27.116  33.026  1.00  0.00     0.012 C 
ATOM     18  C   UNL     1      25.094 -27.433  30.305  1.00  0.00     0.000 C 
ATOM     19  C   UNL     1      24.512 -25.403  31.610  1.00  0.00     0.005 C 
ATOM     20  C   UNL     1      24.083 -26.261  30.408  1.00  0.00     0.003 C 
ATOM     21  C   UNL     1      24.791 -28.253  29.061  1.00  0.00     0.031 C 
ATOM     22  C   UNL     1      23.867 -25.490  29.001  1.00  0.00    -0.008 C 
ATOM     23  C   UNL     1      25.063 -27.405  27.867  1.00  0.00    -0.027 C 
ATOM     24  C   UNL     1      24.722 -26.098  27.858  1.00  0.00    -0.065 C 
ATOM     25  C   UNL     1      24.174 -23.956  29.129  1.00  0.00     0.014 C 
ATOM     26  C   UNL     1      22.379 -25.663  28.588  1.00  0.00     0.016 C 
ATOM     27  C   UNL     1      24.964 -25.304  26.590  1.00  0.00     0.063 C 
ATOM     28  C   UNL     1      24.281 -23.205  27.793  1.00  0.00     0.033 C 
ATOM     29  C   UNL     1      25.325 -23.847  26.885  1.00  0.00     0.118 C 
BRANCH  29  30
ATOM     30  O   UNL     1      26.587 -23.761  27.484  1.00  0.00    -0.393 OA
ATOM     31  H   UNL     1      26.894 -22.822  27.363  1.00  0.00     0.210 HD
ENDBRANCH  29  30
ENDBRANCH   9  11
ENDBRANCH   1   9
TORSDOF 7
ENDMDL
