MODEL 1
REMARK VINA RESULT:    -3.923      0.000      0.000
REMARK INTER + INTRA:          -4.602
REMARK INTER:                  -4.381
REMARK INTRA:                  -0.221
REMARK UNBOUND:                -0.221
REMARK SMILES CC(C)c1ccc(C(=O)[O-])cc1
REMARK SMILES IDX 7 1 6 2 11 3 5 4 12 5 4 6 8 7 9 8 10 9 2 10 1 11 3 12
REMARK H PARENT
REMARK Flexibility Score: inf
ROOT
ATOM      1  C   UNL     1      29.388  44.692  23.635  1.00  0.00    -0.003 A 
ATOM      2  C   UNL     1      29.671  45.828  24.409  1.00  0.00     0.010 A 
ATOM      3  C   UNL     1      29.063  44.857  22.278  1.00  0.00     0.010 A 
ATOM      4  C   UNL     1      29.632  47.104  23.839  1.00  0.00     0.004 A 
ATOM      5  C   UNL     1      29.023  46.131  21.707  1.00  0.00     0.004 A 
ATOM      6  C   UNL     1      29.306  47.270  22.480  1.00  0.00    -0.045 A 
ENDROOT
BRANCH   1   7
ATOM      7  C   UNL     1      29.431  43.344  24.243  1.00  0.00     0.071 C 
ATOM      8  O   UNL     1      29.869  43.181  25.412  1.00  0.00    -0.545 OA
ATOM      9  O   UNL     1      28.986  42.235  23.531  1.00  0.00    -0.545 OA
ENDBRANCH   1   7
BRANCH   6  10
ATOM     10  C   UNL     1      29.259  48.648  21.849  1.00  0.00     0.013 C 
ATOM     11  C   UNL     1      30.408  49.528  22.353  1.00  0.00     0.012 C 
ATOM     12  C   UNL     1      29.267  48.555  20.318  1.00  0.00     0.012 C 
ENDBRANCH   6  10
TORSDOF 2
ENDMDL
MODEL 2
REMARK VINA RESULT:    -3.903      3.169      5.049
REMARK INTER + INTRA:          -4.580
REMARK INTER:                  -4.364
REMARK INTRA:                  -0.216
REMARK UNBOUND:                -0.221
REMARK SMILES CC(C)c1ccc(C(=O)[O-])cc1
REMARK SMILES IDX 7 1 6 2 11 3 5 4 12 5 4 6 8 7 9 8 10 9 2 10 1 11 3 12
REMARK H PARENT
REMARK Flexibility Score: inf
ROOT
ATOM      1  C   UNL     1      29.265  47.534  22.044  1.00  0.00    -0.003 A 
ATOM      2  C   UNL     1      29.616  47.536  23.404  1.00  0.00     0.010 A 
ATOM      3  C   UNL     1      28.970  46.311  21.419  1.00  0.00     0.010 A 
ATOM      4  C   UNL     1      29.670  46.341  24.125  1.00  0.00     0.004 A 
ATOM      5  C   UNL     1      29.024  45.114  22.139  1.00  0.00     0.004 A 
ATOM      6  C   UNL     1      29.375  45.115  23.500  1.00  0.00    -0.045 A 
ENDROOT
BRANCH   1   7
ATOM      7  C   UNL     1      29.210  48.802  21.284  1.00  0.00     0.071 C 
ATOM      8  O   UNL     1      29.141  49.907  21.885  1.00  0.00    -0.545 OA
ATOM      9  O   UNL     1      29.235  48.793  19.895  1.00  0.00    -0.545 OA
ENDBRANCH   1   7
BRANCH   6  10
ATOM     10  C   UNL     1      29.429  43.809  24.271  1.00  0.00     0.013 C 
ATOM     11  C   UNL     1      28.875  42.650  23.435  1.00  0.00     0.012 C 
ATOM     12  C   UNL     1      30.854  43.511  24.753  1.00  0.00     0.012 C 
ENDBRANCH   6  10
TORSDOF 2
ENDMDL
MODEL 3
REMARK VINA RESULT:    -3.895     17.393     19.040
REMARK INTER + INTRA:          -4.572
REMARK INTER:                  -4.359
REMARK INTRA:                  -0.213
REMARK UNBOUND:                -0.221
REMARK SMILES CC(C)c1ccc(C(=O)[O-])cc1
REMARK SMILES IDX 7 1 6 2 11 3 5 4 12 5 4 6 8 7 9 8 10 9 2 10 1 11 3 12
REMARK H PARENT
REMARK Flexibility Score: inf
ROOT
ATOM      1  C   UNL     1      32.096  36.368  39.663  1.00  0.00    -0.003 A 
ATOM      2  C   UNL     1      31.588  37.669  39.813  1.00  0.00     0.010 A 
ATOM      3  C   UNL     1      33.475  36.197  39.453  1.00  0.00     0.010 A 
ATOM      4  C   UNL     1      32.440  38.775  39.755  1.00  0.00     0.004 A 
ATOM      5  C   UNL     1      34.328  37.303  39.395  1.00  0.00     0.004 A 
ATOM      6  C   UNL     1      33.821  38.605  39.545  1.00  0.00    -0.045 A 
ENDROOT
BRANCH   1   7
ATOM      7  C   UNL     1      31.191  35.200  39.724  1.00  0.00     0.071 C 
ATOM      8  O   UNL     1      29.963  35.327  39.474  1.00  0.00    -0.545 OA
ATOM      9  O   UNL     1      31.684  33.944  40.056  1.00  0.00    -0.545 OA
ENDBRANCH   1   7
BRANCH   6  10
ATOM     10  C   UNL     1      34.757  39.797  39.481  1.00  0.00     0.013 C 
ATOM     11  C   UNL     1      36.218  39.362  39.635  1.00  0.00     0.012 C 
ATOM     12  C   UNL     1      34.552  40.591  38.185  1.00  0.00     0.012 C 
ENDBRANCH   6  10
TORSDOF 2
ENDMDL
MODEL 4
REMARK VINA RESULT:    -3.855     17.403     19.075
REMARK INTER + INTRA:          -4.527
REMARK INTER:                  -4.314
REMARK INTRA:                  -0.213
REMARK UNBOUND:                -0.221
REMARK SMILES CC(C)c1ccc(C(=O)[O-])cc1
REMARK SMILES IDX 7 1 6 2 11 3 5 4 12 5 4 6 8 7 9 8 10 9 2 10 1 11 3 12
REMARK H PARENT
REMARK Flexibility Score: inf
ROOT
ATOM      1  C   UNL     1      32.088  36.251  39.647  1.00  0.00    -0.003 A 
ATOM      2  C   UNL     1      33.478  36.128  39.495  1.00  0.00     0.010 A 
ATOM      3  C   UNL     1      31.527  37.535  39.761  1.00  0.00     0.010 A 
ATOM      4  C   UNL     1      34.292  37.263  39.456  1.00  0.00     0.004 A 
ATOM      5  C   UNL     1      32.340  38.671  39.722  1.00  0.00     0.004 A 
ATOM      6  C   UNL     1      33.732  38.549  39.570  1.00  0.00    -0.045 A 
ENDROOT
BRANCH   1   7
ATOM      7  C   UNL     1      31.230  35.047  39.688  1.00  0.00     0.071 C 
ATOM      8  O   UNL     1      29.994  35.132  39.459  1.00  0.00    -0.545 OA
ATOM      9  O   UNL     1      31.777  33.802  39.979  1.00  0.00    -0.545 OA
ENDBRANCH   1   7
BRANCH   6  10
ATOM     10  C   UNL     1      34.603  39.790  39.529  1.00  0.00     0.013 C 
ATOM     11  C   UNL     1      36.080  39.436  39.734  1.00  0.00     0.012 C 
ATOM     12  C   UNL     1      34.398  40.567  38.223  1.00  0.00     0.012 C 
ENDBRANCH   6  10
TORSDOF 2
ENDMDL
MODEL 5
REMARK VINA RESULT:    -3.812     15.342     16.988
REMARK INTER + INTRA:          -4.479
REMARK INTER:                  -4.276
REMARK INTRA:                  -0.203
REMARK UNBOUND:                -0.221
REMARK SMILES CC(C)c1ccc(C(=O)[O-])cc1
REMARK SMILES IDX 7 1 6 2 11 3 5 4 12 5 4 6 8 7 9 8 10 9 2 10 1 11 3 12
REMARK H PARENT
REMARK Flexibility Score: inf
ROOT
ATOM      1  C   UNL     1      34.601  38.290  38.335  1.00  0.00    -0.003 A 
ATOM      2  C   UNL     1      35.392  39.172  39.088  1.00  0.00     0.010 A 
ATOM      3  C   UNL     1      34.055  38.735  37.119  1.00  0.00     0.010 A 
ATOM      4  C   UNL     1      35.633  40.473  38.636  1.00  0.00     0.004 A 
ATOM      5  C   UNL     1      34.295  40.035  36.666  1.00  0.00     0.004 A 
ATOM      6  C   UNL     1      35.086  40.919  37.418  1.00  0.00    -0.045 A 
ENDROOT
BRANCH   1   7
ATOM      7  C   UNL     1      34.349  36.915  38.818  1.00  0.00     0.071 C 
ATOM      8  O   UNL     1      33.498  36.699  39.722  1.00  0.00    -0.545 OA
ATOM      9  O   UNL     1      35.047  35.840  38.280  1.00  0.00    -0.545 OA
ENDBRANCH   1   7
BRANCH   6  10
ATOM     10  C   UNL     1      35.339  42.327  36.915  1.00  0.00     0.013 C 
ATOM     11  C   UNL     1      36.382  42.335  35.792  1.00  0.00     0.012 C 
ATOM     12  C   UNL     1      34.035  42.995  36.461  1.00  0.00     0.012 C 
ENDBRANCH   6  10
TORSDOF 2
ENDMDL
MODEL 6
REMARK VINA RESULT:    -3.800     15.389     16.836
REMARK INTER + INTRA:          -4.466
REMARK INTER:                  -4.261
REMARK INTRA:                  -0.204
REMARK UNBOUND:                -0.221
REMARK SMILES CC(C)c1ccc(C(=O)[O-])cc1
REMARK SMILES IDX 7 1 6 2 11 3 5 4 12 5 4 6 8 7 9 8 10 9 2 10 1 11 3 12
REMARK H PARENT
REMARK Flexibility Score: inf
ROOT
ATOM      1  C   UNL     1      33.557  39.503  38.845  1.00  0.00    -0.003 A 
ATOM      2  C   UNL     1      32.910  40.289  37.878  1.00  0.00     0.010 A 
ATOM      3  C   UNL     1      34.917  39.734  39.111  1.00  0.00     0.010 A 
ATOM      4  C   UNL     1      33.608  41.287  37.191  1.00  0.00     0.004 A 
ATOM      5  C   UNL     1      35.616  40.731  38.425  1.00  0.00     0.004 A 
ATOM      6  C   UNL     1      34.970  41.519  37.456  1.00  0.00    -0.045 A 
ENDROOT
BRANCH   1   7
ATOM      7  C   UNL     1      32.815  38.449  39.569  1.00  0.00     0.071 C 
ATOM      8  O   UNL     1      31.714  38.706  40.125  1.00  0.00    -0.545 OA
ATOM      9  O   UNL     1      33.322  37.156  39.646  1.00  0.00    -0.545 OA
ENDBRANCH   1   7
BRANCH   6  10
ATOM     10  C   UNL     1      35.740  42.598  36.719  1.00  0.00     0.013 C 
ATOM     11  C   UNL     1      36.289  42.074  35.387  1.00  0.00     0.012 C 
ATOM     12  C   UNL     1      34.875  43.847  36.506  1.00  0.00     0.012 C 
ENDBRANCH   6  10
TORSDOF 2
ENDMDL
MODEL 7
REMARK VINA RESULT:    -3.790     16.002     16.731
REMARK INTER + INTRA:          -4.454
REMARK INTER:                  -4.255
REMARK INTRA:                  -0.198
REMARK UNBOUND:                -0.221
REMARK SMILES CC(C)c1ccc(C(=O)[O-])cc1
REMARK SMILES IDX 7 1 6 2 11 3 5 4 12 5 4 6 8 7 9 8 10 9 2 10 1 11 3 12
REMARK H PARENT
REMARK Flexibility Score: inf
ROOT
ATOM      1  C   UNL     1      44.479  37.252  20.871  1.00  0.00    -0.003 A 
ATOM      2  C   UNL     1      44.943  37.878  22.040  1.00  0.00     0.010 A 
ATOM      3  C   UNL     1      43.674  37.984  19.982  1.00  0.00     0.010 A 
ATOM      4  C   UNL     1      44.610  39.207  22.314  1.00  0.00     0.004 A 
ATOM      5  C   UNL     1      43.340  39.313  20.255  1.00  0.00     0.004 A 
ATOM      6  C   UNL     1      43.804  39.941  21.424  1.00  0.00    -0.045 A 
ENDROOT
BRANCH   1   7
ATOM      7  C   UNL     1      44.834  35.845  20.585  1.00  0.00     0.071 C 
ATOM      8  O   UNL     1      44.092  34.905  20.975  1.00  0.00    -0.545 OA
ATOM      9  O   UNL     1      45.992  35.540  19.879  1.00  0.00    -0.545 OA
ENDBRANCH   1   7
BRANCH   6  10
ATOM     10  C   UNL     1      43.435  41.384  21.709  1.00  0.00     0.013 C 
ATOM     11  C   UNL     1      42.692  41.512  23.044  1.00  0.00     0.012 C 
ATOM     12  C   UNL     1      44.673  42.288  21.678  1.00  0.00     0.012 C 
ENDBRANCH   6  10
TORSDOF 2
ENDMDL
MODEL 8
REMARK VINA RESULT:    -3.717     13.873     16.247
REMARK INTER + INTRA:          -4.372
REMARK INTER:                  -4.167
REMARK INTRA:                  -0.205
REMARK UNBOUND:                -0.221
REMARK SMILES CC(C)c1ccc(C(=O)[O-])cc1
REMARK SMILES IDX 7 1 6 2 11 3 5 4 12 5 4 6 8 7 9 8 10 9 2 10 1 11 3 12
REMARK H PARENT
REMARK Flexibility Score: inf
ROOT
ATOM      1  C   UNL     1      35.160  41.211  35.235  1.00  0.00    -0.003 A 
ATOM      2  C   UNL     1      35.795  41.971  36.230  1.00  0.00     0.010 A 
ATOM      3  C   UNL     1      34.385  40.103  35.615  1.00  0.00     0.010 A 
ATOM      4  C   UNL     1      35.657  41.631  37.579  1.00  0.00     0.004 A 
ATOM      5  C   UNL     1      34.246  39.762  36.963  1.00  0.00     0.004 A 
ATOM      6  C   UNL     1      34.881  40.521  37.961  1.00  0.00    -0.045 A 
ENDROOT
BRANCH   1   7
ATOM      7  C   UNL     1      35.309  41.574  33.809  1.00  0.00     0.071 C 
ATOM      8  O   UNL     1      34.297  41.816  33.099  1.00  0.00    -0.545 OA
ATOM      9  O   UNL     1      36.571  41.655  33.230  1.00  0.00    -0.545 OA
ENDBRANCH   1   7
BRANCH   6  10
ATOM     10  C   UNL     1      34.722  40.141  39.421  1.00  0.00     0.013 C 
ATOM     11  C   UNL     1      33.339  39.536  39.689  1.00  0.00     0.012 C 
ATOM     12  C   UNL     1      35.837  39.187  39.868  1.00  0.00     0.012 C 
ENDBRANCH   6  10
TORSDOF 2
ENDMDL
