MODEL 1
REMARK VINA RESULT:    -3.906      0.000      0.000
REMARK INTER + INTRA:          -9.413
REMARK INTER:                  -7.103
REMARK INTRA:                  -2.310
REMARK UNBOUND:                -2.310
REMARK SMILES CCCCCC=CCC=CCCCCCCCC(=O)[O-]
REMARK SMILES IDX 11 1 12 2 13 3 14 4 15 5 16 6 17 7 18 8 19 9 20 10 10 11
REMARK SMILES IDX 9 12 8 13 7 14 6 15 5 16 4 17 3 18 2 19 1 20
REMARK H PARENT
REMARK Flexibility Score: inf
ROOT
ATOM      1  C   UNL     1     175.280  28.789 113.605  1.00  0.00     0.027 C 
ENDROOT
BRANCH   1   2
ATOM      2  C   UNL     1     175.838  30.192 113.877  1.00  0.00     0.004 C 
BRANCH   2   3
ATOM      3  C   UNL     1     174.768  31.284 113.705  1.00  0.00     0.000 C 
BRANCH   3   4
ATOM      4  C   UNL     1     175.360  32.624 113.241  1.00  0.00     0.000 C 
BRANCH   4   5
ATOM      5  C   UNL     1     174.755  33.112 111.912  1.00  0.00     0.000 C 
BRANCH   5   6
ATOM      6  C   UNL     1     174.690  32.003 110.851  1.00  0.00     0.006 C 
BRANCH   6   7
ATOM      7  C   UNL     1     173.836  32.396 109.637  1.00  0.00     0.053 C 
BRANCH   7   8
ATOM      8  C   UNL     1     172.707  33.283 110.055  1.00  0.00     0.041 C 
ATOM      9  O   UNL     1     172.663  34.481 109.662  1.00  0.00    -0.550 OA
ATOM     10  O   UNL     1     171.682  32.780 110.849  1.00  0.00    -0.550 OA
ENDBRANCH   7   8
ENDBRANCH   6   7
ENDBRANCH   5   6
ENDBRANCH   4   5
ENDBRANCH   3   4
ENDBRANCH   2   3
ENDBRANCH   1   2
BRANCH   1  11
ATOM     11  C   UNL     1     175.501  28.380 112.174  1.00  0.00    -0.031 C 
ATOM     12  C   UNL     1     176.484  28.913 111.430  1.00  0.00    -0.027 C 
BRANCH  12  13
ATOM     13  C   UNL     1     176.736  28.441 110.027  1.00  0.00     0.054 C 
BRANCH  13  14
ATOM     14  C   UNL     1     175.482  28.530 109.202  1.00  0.00    -0.027 C 
ATOM     15  C   UNL     1     174.877  27.423 108.752  1.00  0.00    -0.031 C 
BRANCH  15  16
ATOM     16  C   UNL     1     173.654  27.490 107.876  1.00  0.00     0.027 C 
BRANCH  16  17
ATOM     17  C   UNL     1     172.833  28.775 108.082  1.00  0.00     0.004 C 
BRANCH  17  18
ATOM     18  C   UNL     1     171.431  28.534 108.675  1.00  0.00     0.000 C 
BRANCH  18  19
ATOM     19  C   UNL     1     171.459  28.269 110.189  1.00  0.00    -0.003 C 
ATOM     20  C   UNL     1     172.237  29.358 110.924  1.00  0.00     0.004 C 
ENDBRANCH  18  19
ENDBRANCH  17  18
ENDBRANCH  16  17
ENDBRANCH  15  16
ENDBRANCH  13  14
ENDBRANCH  12  13
ENDBRANCH   1  11
TORSDOF 14
ENDMDL
MODEL 2
REMARK VINA RESULT:    -3.883      1.136      2.420
REMARK INTER + INTRA:          -9.371
REMARK INTER:                  -6.719
REMARK INTRA:                  -2.652
REMARK UNBOUND:                -2.310
REMARK SMILES CCCCCC=CCC=CCCCCCCCC(=O)[O-]
REMARK SMILES IDX 11 1 12 2 13 3 14 4 15 5 16 6 17 7 18 8 19 9 20 10 10 11
REMARK SMILES IDX 9 12 8 13 7 14 6 15 5 16 4 17 3 18 2 19 1 20
REMARK H PARENT
REMARK Flexibility Score: inf
ROOT
ATOM      1  C   UNL     1     175.406  31.289 114.988  1.00  0.00     0.027 C 
ENDROOT
BRANCH   1   2
ATOM      2  C   UNL     1     174.528  32.228 114.150  1.00  0.00     0.004 C 
BRANCH   2   3
ATOM      3  C   UNL     1     175.281  32.793 112.933  1.00  0.00     0.000 C 
BRANCH   3   4
ATOM      4  C   UNL     1     174.724  32.273 111.599  1.00  0.00     0.000 C 
BRANCH   4   5
ATOM      5  C   UNL     1     173.329  31.639 111.745  1.00  0.00     0.000 C 
BRANCH   5   6
ATOM      6  C   UNL     1     172.307  32.224 110.759  1.00  0.00     0.006 C 
BRANCH   6   7
ATOM      7  C   UNL     1     171.640  33.502 111.288  1.00  0.00     0.053 C 
BRANCH   7   8
ATOM      8  C   UNL     1     172.104  34.695 110.514  1.00  0.00     0.041 C 
ATOM      9  O   UNL     1     172.024  35.847 111.019  1.00  0.00    -0.550 OA
ATOM     10  O   UNL     1     172.658  34.532 109.250  1.00  0.00    -0.550 OA
ENDBRANCH   7   8
ENDBRANCH   6   7
ENDBRANCH   5   6
ENDBRANCH   4   5
ENDBRANCH   3   4
ENDBRANCH   2   3
ENDBRANCH   1   2
BRANCH   1  11
ATOM     11  C   UNL     1     175.892  30.122 114.172  1.00  0.00    -0.031 C 
ATOM     12  C   UNL     1     175.086  29.095 113.857  1.00  0.00    -0.027 C 
BRANCH  12  13
ATOM     13  C   UNL     1     175.566  27.974 112.982  1.00  0.00     0.054 C 
BRANCH  13  14
ATOM     14  C   UNL     1     175.312  28.283 111.532  1.00  0.00    -0.027 C 
ATOM     15  C   UNL     1     176.225  28.935 110.799  1.00  0.00    -0.031 C 
BRANCH  15  16
ATOM     16  C   UNL     1     175.966  29.307 109.364  1.00  0.00     0.027 C 
BRANCH  16  17
ATOM     17  C   UNL     1     174.718  28.624 108.777  1.00  0.00     0.004 C 
BRANCH  17  18
ATOM     18  C   UNL     1     173.544  29.587 108.514  1.00  0.00     0.000 C 
BRANCH  18  19
ATOM     19  C   UNL     1     172.172  28.899 108.608  1.00  0.00    -0.003 C 
ATOM     20  C   UNL     1     171.808  28.592 110.059  1.00  0.00     0.004 C 
ENDBRANCH  18  19
ENDBRANCH  17  18
ENDBRANCH  16  17
ENDBRANCH  15  16
ENDBRANCH  13  14
ENDBRANCH  12  13
ENDBRANCH   1  11
TORSDOF 14
ENDMDL
MODEL 3
REMARK VINA RESULT:    -3.860      3.081      4.990
REMARK INTER + INTRA:          -9.329
REMARK INTER:                  -7.256
REMARK INTRA:                  -2.073
REMARK UNBOUND:                -2.310
REMARK SMILES CCCCCC=CCC=CCCCCCCCC(=O)[O-]
REMARK SMILES IDX 11 1 12 2 13 3 14 4 15 5 16 6 17 7 18 8 19 9 20 10 10 11
REMARK SMILES IDX 9 12 8 13 7 14 6 15 5 16 4 17 3 18 2 19 1 20
REMARK H PARENT
REMARK Flexibility Score: inf
ROOT
ATOM      1  C   UNL     1     173.349  33.326 113.801  1.00  0.00     0.027 C 
ENDROOT
BRANCH   1   2
ATOM      2  C   UNL     1     174.362  32.288 114.300  1.00  0.00     0.004 C 
BRANCH   2   3
ATOM      3  C   UNL     1     175.572  32.160 113.358  1.00  0.00     0.000 C 
BRANCH   3   4
ATOM      4  C   UNL     1     176.007  30.701 113.150  1.00  0.00     0.000 C 
BRANCH   4   5
ATOM      5  C   UNL     1     175.034  29.913 112.255  1.00  0.00     0.000 C 
BRANCH   5   6
ATOM      6  C   UNL     1     175.646  28.611 111.718  1.00  0.00     0.006 C 
BRANCH   6   7
ATOM      7  C   UNL     1     176.662  28.855 110.593  1.00  0.00     0.053 C 
BRANCH   7   8
ATOM      8  C   UNL     1     177.449  27.613 110.319  1.00  0.00     0.041 C 
ATOM      9  O   UNL     1     178.579  27.689 109.766  1.00  0.00    -0.550 OA
ATOM     10  O   UNL     1     176.953  26.374 110.707  1.00  0.00    -0.550 OA
ENDBRANCH   7   8
ENDBRANCH   6   7
ENDBRANCH   5   6
ENDBRANCH   4   5
ENDBRANCH   3   4
ENDBRANCH   2   3
ENDBRANCH   1   2
BRANCH   1  11
ATOM     11  C   UNL     1     173.080  33.164 112.329  1.00  0.00    -0.031 C 
ATOM     12  C   UNL     1     172.836  34.219 111.535  1.00  0.00    -0.027 C 
BRANCH  12  13
ATOM     13  C   UNL     1     172.643  34.047 110.056  1.00  0.00     0.054 C 
BRANCH  13  14
ATOM     14  C   UNL     1     173.053  32.668 109.622  1.00  0.00    -0.027 C 
ATOM     15  C   UNL     1     174.185  32.473 108.933  1.00  0.00    -0.031 C 
BRANCH  15  16
ATOM     16  C   UNL     1     174.585  31.108 108.439  1.00  0.00     0.027 C 
BRANCH  16  17
ATOM     17  C   UNL     1     173.587  30.005 108.833  1.00  0.00     0.004 C 
BRANCH  17  18
ATOM     18  C   UNL     1     172.829  29.392 107.639  1.00  0.00     0.000 C 
BRANCH  18  19
ATOM     19  C   UNL     1     172.884  27.856 107.619  1.00  0.00    -0.003 C 
ATOM     20  C   UNL     1     174.139  27.341 108.319  1.00  0.00     0.004 C 
ENDBRANCH  18  19
ENDBRANCH  17  18
ENDBRANCH  16  17
ENDBRANCH  15  16
ENDBRANCH  13  14
ENDBRANCH  12  13
ENDBRANCH   1  11
TORSDOF 14
ENDMDL
MODEL 4
REMARK VINA RESULT:    -3.839      3.698      7.204
REMARK INTER + INTRA:          -9.292
REMARK INTER:                  -7.220
REMARK INTRA:                  -2.072
REMARK UNBOUND:                -2.310
REMARK SMILES CCCCCC=CCC=CCCCCCCCC(=O)[O-]
REMARK SMILES IDX 11 1 12 2 13 3 14 4 15 5 16 6 17 7 18 8 19 9 20 10 10 11
REMARK SMILES IDX 9 12 8 13 7 14 6 15 5 16 4 17 3 18 2 19 1 20
REMARK H PARENT
REMARK Flexibility Score: inf
ROOT
ATOM      1  C   UNL     1     172.601  32.866 111.769  1.00  0.00     0.027 C 
ENDROOT
BRANCH   1   2
ATOM      2  C   UNL     1     174.075  33.285 111.841  1.00  0.00     0.004 C 
BRANCH   2   3
ATOM      3  C   UNL     1     174.995  32.106 112.202  1.00  0.00     0.000 C 
BRANCH   3   4
ATOM      4  C   UNL     1     174.389  30.746 111.824  1.00  0.00     0.000 C 
BRANCH   4   5
ATOM      5  C   UNL     1     175.310  29.920 110.908  1.00  0.00     0.000 C 
BRANCH   5   6
ATOM      6  C   UNL     1     175.328  30.441 109.463  1.00  0.00     0.006 C 
BRANCH   6   7
ATOM      7  C   UNL     1     173.919  30.685 108.905  1.00  0.00     0.053 C 
BRANCH   7   8
ATOM      8  C   UNL     1     173.949  31.742 107.847  1.00  0.00     0.041 C 
ATOM      9  O   UNL     1     173.952  31.418 106.628  1.00  0.00    -0.550 OA
ATOM     10  O   UNL     1     173.937  33.085 108.203  1.00  0.00    -0.550 OA
ENDBRANCH   7   8
ENDBRANCH   6   7
ENDBRANCH   5   6
ENDBRANCH   4   5
ENDBRANCH   3   4
ENDBRANCH   2   3
ENDBRANCH   1   2
BRANCH   1  11
ATOM     11  C   UNL     1     171.798  33.829 110.935  1.00  0.00    -0.031 C 
ATOM     12  C   UNL     1     172.310  34.998 110.517  1.00  0.00    -0.027 C 
BRANCH  12  13
ATOM     13  C   UNL     1     171.521  35.913 109.625  1.00  0.00     0.054 C 
BRANCH  13  14
ATOM     14  C   UNL     1     170.797  36.952 110.435  1.00  0.00    -0.027 C 
ATOM     15  C   UNL     1     169.634  36.667 111.035  1.00  0.00    -0.031 C 
BRANCH  15  16
ATOM     16  C   UNL     1     168.863  37.708 111.802  1.00  0.00     0.027 C 
BRANCH  16  17
ATOM     17  C   UNL     1     169.723  38.461 112.832  1.00  0.00     0.004 C 
BRANCH  17  18
ATOM     18  C   UNL     1     170.130  37.609 114.050  1.00  0.00     0.000 C 
BRANCH  18  19
ATOM     19  C   UNL     1     171.618  37.225 114.044  1.00  0.00    -0.003 C 
ATOM     20  C   UNL     1     171.797  35.712 114.124  1.00  0.00     0.004 C 
ENDBRANCH  18  19
ENDBRANCH  17  18
ENDBRANCH  16  17
ENDBRANCH  15  16
ENDBRANCH  13  14
ENDBRANCH  12  13
ENDBRANCH   1  11
TORSDOF 14
ENDMDL
MODEL 5
REMARK VINA RESULT:    -3.834      3.103      6.597
REMARK INTER + INTRA:          -9.283
REMARK INTER:                  -7.368
REMARK INTRA:                  -1.914
REMARK UNBOUND:                -2.310
REMARK SMILES CCCCCC=CCC=CCCCCCCCC(=O)[O-]
REMARK SMILES IDX 11 1 12 2 13 3 14 4 15 5 16 6 17 7 18 8 19 9 20 10 10 11
REMARK SMILES IDX 9 12 8 13 7 14 6 15 5 16 4 17 3 18 2 19 1 20
REMARK H PARENT
REMARK Flexibility Score: inf
ROOT
ATOM      1  C   UNL     1     174.207  31.394 107.612  1.00  0.00     0.027 C 
ENDROOT
BRANCH   1   2
ATOM      2  C   UNL     1     173.155  30.306 107.857  1.00  0.00     0.004 C 
BRANCH   2   3
ATOM      3  C   UNL     1     173.730  29.106 108.628  1.00  0.00     0.000 C 
BRANCH   3   4
ATOM      4  C   UNL     1     173.353  29.125 110.118  1.00  0.00     0.000 C 
BRANCH   4   5
ATOM      5  C   UNL     1     174.579  29.269 111.038  1.00  0.00     0.000 C 
BRANCH   5   6
ATOM      6  C   UNL     1     175.903  29.005 110.304  1.00  0.00     0.006 C 
BRANCH   6   7
ATOM      7  C   UNL     1     176.832  28.063 111.082  1.00  0.00     0.053 C 
BRANCH   7   8
ATOM      8  C   UNL     1     177.955  27.596 110.210  1.00  0.00     0.041 C 
ATOM      9  O   UNL     1     178.287  26.380 110.202  1.00  0.00    -0.550 OA
ATOM     10  O   UNL     1     178.611  28.496 109.378  1.00  0.00    -0.550 OA
ENDBRANCH   7   8
ENDBRANCH   6   7
ENDBRANCH   5   6
ENDBRANCH   4   5
ENDBRANCH   3   4
ENDBRANCH   2   3
ENDBRANCH   1   2
BRANCH   1  11
ATOM     11  C   UNL     1     173.874  32.656 108.362  1.00  0.00    -0.031 C 
ATOM     12  C   UNL     1     173.158  32.635 109.498  1.00  0.00    -0.027 C 
BRANCH  12  13
ATOM     13  C   UNL     1     172.896  33.895 110.272  1.00  0.00     0.054 C 
BRANCH  13  14
ATOM     14  C   UNL     1     173.559  33.839 111.620  1.00  0.00    -0.027 C 
ATOM     15  C   UNL     1     174.555  32.976 111.861  1.00  0.00    -0.031 C 
BRANCH  15  16
ATOM     16  C   UNL     1     175.192  32.862 113.220  1.00  0.00     0.027 C 
BRANCH  16  17
ATOM     17  C   UNL     1     176.090  31.621 113.365  1.00  0.00     0.004 C 
BRANCH  17  18
ATOM     18  C   UNL     1     175.721  30.718 114.558  1.00  0.00     0.000 C 
BRANCH  18  19
ATOM     19  C   UNL     1     174.885  31.445 115.624  1.00  0.00    -0.003 C 
ATOM     20  C   UNL     1     174.527  30.508 116.775  1.00  0.00     0.004 C 
ENDBRANCH  18  19
ENDBRANCH  17  18
ENDBRANCH  16  17
ENDBRANCH  15  16
ENDBRANCH  13  14
ENDBRANCH  12  13
ENDBRANCH   1  11
TORSDOF 14
ENDMDL
MODEL 6
REMARK VINA RESULT:    -3.830      2.553      5.201
REMARK INTER + INTRA:          -9.275
REMARK INTER:                  -7.745
REMARK INTRA:                  -1.530
REMARK UNBOUND:                -2.310
REMARK SMILES CCCCCC=CCC=CCCCCCCCC(=O)[O-]
REMARK SMILES IDX 11 1 12 2 13 3 14 4 15 5 16 6 17 7 18 8 19 9 20 10 10 11
REMARK SMILES IDX 9 12 8 13 7 14 6 15 5 16 4 17 3 18 2 19 1 20
REMARK H PARENT
REMARK Flexibility Score: inf
ROOT
ATOM      1  C   UNL     1     173.985  31.592 107.720  1.00  0.00     0.027 C 
ENDROOT
BRANCH   1   2
ATOM      2  C   UNL     1     173.765  32.858 108.557  1.00  0.00     0.004 C 
BRANCH   2   3
ATOM      3  C   UNL     1     173.250  32.536 109.971  1.00  0.00     0.000 C 
BRANCH   3   4
ATOM      4  C   UNL     1     172.302  33.616 110.515  1.00  0.00     0.000 C 
BRANCH   4   5
ATOM      5  C   UNL     1     172.288  34.886 109.645  1.00  0.00     0.000 C 
BRANCH   5   6
ATOM      6  C   UNL     1     171.250  35.915 110.118  1.00  0.00     0.006 C 
BRANCH   6   7
ATOM      7  C   UNL     1     171.680  36.641 111.401  1.00  0.00     0.053 C 
BRANCH   7   8
ATOM      8  C   UNL     1     170.579  37.525 111.896  1.00  0.00     0.041 C 
ATOM      9  O   UNL     1     170.791  38.328 112.845  1.00  0.00    -0.550 OA
ATOM     10  O   UNL     1     169.330  37.490 111.288  1.00  0.00    -0.550 OA
ENDBRANCH   7   8
ENDBRANCH   6   7
ENDBRANCH   5   6
ENDBRANCH   4   5
ENDBRANCH   3   4
ENDBRANCH   2   3
ENDBRANCH   1   2
BRANCH   1  11
ATOM     11  C   UNL     1     174.328  30.413 108.590  1.00  0.00    -0.031 C 
ATOM     12  C   UNL     1     175.594  29.995 108.748  1.00  0.00    -0.027 C 
BRANCH  12  13
ATOM     13  C   UNL     1     175.926  28.863 109.677  1.00  0.00     0.054 C 
BRANCH  13  14
ATOM     14  C   UNL     1     175.425  29.149 111.066  1.00  0.00    -0.027 C 
ATOM     15  C   UNL     1     176.220  29.721 111.979  1.00  0.00    -0.031 C 
BRANCH  15  16
ATOM     16  C   UNL     1     175.757  29.963 113.391  1.00  0.00     0.027 C 
BRANCH  16  17
ATOM     17  C   UNL     1     176.050  31.390 113.887  1.00  0.00     0.004 C 
BRANCH  17  18
ATOM     18  C   UNL     1     175.291  32.488 113.117  1.00  0.00     0.000 C 
BRANCH  18  19
ATOM     19  C   UNL     1     174.644  33.532 114.042  1.00  0.00    -0.003 C 
ATOM     20  C   UNL     1     173.128  33.364 114.086  1.00  0.00     0.004 C 
ENDBRANCH  18  19
ENDBRANCH  17  18
ENDBRANCH  16  17
ENDBRANCH  15  16
ENDBRANCH  13  14
ENDBRANCH  12  13
ENDBRANCH   1  11
TORSDOF 14
ENDMDL
MODEL 7
REMARK VINA RESULT:    -3.829      2.402      5.373
REMARK INTER + INTRA:          -9.272
REMARK INTER:                  -6.994
REMARK INTRA:                  -2.278
REMARK UNBOUND:                -2.310
REMARK SMILES CCCCCC=CCC=CCCCCCCCC(=O)[O-]
REMARK SMILES IDX 11 1 12 2 13 3 14 4 15 5 16 6 17 7 18 8 19 9 20 10 10 11
REMARK SMILES IDX 9 12 8 13 7 14 6 15 5 16 4 17 3 18 2 19 1 20
REMARK H PARENT
REMARK Flexibility Score: inf
ROOT
ATOM      1  C   UNL     1     175.546  28.335 112.253  1.00  0.00     0.027 C 
ENDROOT
BRANCH   1   2
ATOM      2  C   UNL     1     176.481  28.603 111.066  1.00  0.00     0.004 C 
BRANCH   2   3
ATOM      3  C   UNL     1     175.766  28.431 109.715  1.00  0.00     0.000 C 
BRANCH   3   4
ATOM      4  C   UNL     1     175.890  29.673 108.818  1.00  0.00     0.000 C 
BRANCH   4   5
ATOM      5  C   UNL     1     175.026  30.848 109.309  1.00  0.00     0.000 C 
BRANCH   5   6
ATOM      6  C   UNL     1     173.554  30.715 108.891  1.00  0.00     0.006 C 
BRANCH   6   7
ATOM      7  C   UNL     1     172.670  30.146 110.010  1.00  0.00     0.053 C 
BRANCH   7   8
ATOM      8  C   UNL     1     171.985  28.897 109.554  1.00  0.00     0.041 C 
ATOM      9  O   UNL     1     171.215  28.275 110.335  1.00  0.00    -0.550 OA
ATOM     10  O   UNL     1     172.168  28.437 108.255  1.00  0.00    -0.550 OA
ENDBRANCH   7   8
ENDBRANCH   6   7
ENDBRANCH   5   6
ENDBRANCH   4   5
ENDBRANCH   3   4
ENDBRANCH   2   3
ENDBRANCH   1   2
BRANCH   1  11
ATOM     11  C   UNL     1     175.083  29.620 112.886  1.00  0.00    -0.031 C 
ATOM     12  C   UNL     1     175.824  30.739 112.836  1.00  0.00    -0.027 C 
BRANCH  12  13
ATOM     13  C   UNL     1     175.315  32.031 113.409  1.00  0.00     0.054 C 
BRANCH  13  14
ATOM     14  C   UNL     1     174.909  32.976 112.313  1.00  0.00    -0.027 C 
ATOM     15  C   UNL     1     173.621  33.133 111.983  1.00  0.00    -0.031 C 
BRANCH  15  16
ATOM     16  C   UNL     1     173.198  34.029 110.849  1.00  0.00     0.027 C 
BRANCH  16  17
ATOM     17  C   UNL     1     171.686  34.313 110.834  1.00  0.00     0.004 C 
BRANCH  17  18
ATOM     18  C   UNL     1     171.313  35.690 110.251  1.00  0.00     0.000 C 
BRANCH  18  19
ATOM     19  C   UNL     1     170.839  36.687 111.321  1.00  0.00    -0.003 C 
ATOM     20  C   UNL     1     171.832  37.835 111.482  1.00  0.00     0.004 C 
ENDBRANCH  18  19
ENDBRANCH  17  18
ENDBRANCH  16  17
ENDBRANCH  15  16
ENDBRANCH  13  14
ENDBRANCH  12  13
ENDBRANCH   1  11
TORSDOF 14
ENDMDL
MODEL 8
REMARK VINA RESULT:    -3.783      3.065      6.024
REMARK INTER + INTRA:          -9.190
REMARK INTER:                  -6.541
REMARK INTRA:                  -2.649
REMARK UNBOUND:                -2.310
REMARK SMILES CCCCCC=CCC=CCCCCCCCC(=O)[O-]
REMARK SMILES IDX 11 1 12 2 13 3 14 4 15 5 16 6 17 7 18 8 19 9 20 10 10 11
REMARK SMILES IDX 9 12 8 13 7 14 6 15 5 16 4 17 3 18 2 19 1 20
REMARK H PARENT
REMARK Flexibility Score: inf
ROOT
ATOM      1  C   UNL     1     175.537  32.010 113.479  1.00  0.00     0.027 C 
ENDROOT
BRANCH   1   2
ATOM      2  C   UNL     1     174.490  30.892 113.563  1.00  0.00     0.004 C 
BRANCH   2   3
ATOM      3  C   UNL     1     173.858  30.585 112.194  1.00  0.00     0.000 C 
BRANCH   3   4
ATOM      4  C   UNL     1     172.370  30.964 112.131  1.00  0.00     0.000 C 
BRANCH   4   5
ATOM      5  C   UNL     1     172.048  31.907 110.958  1.00  0.00     0.000 C 
BRANCH   5   6
ATOM      6  C   UNL     1     173.231  32.815 110.587  1.00  0.00     0.006 C 
BRANCH   6   7
ATOM      7  C   UNL     1     173.350  33.041 109.073  1.00  0.00     0.053 C 
BRANCH   7   8
ATOM      8  C   UNL     1     174.287  32.046 108.466  1.00  0.00     0.041 C 
ATOM      9  O   UNL     1     175.248  31.587 109.141  1.00  0.00    -0.550 OA
ATOM     10  O   UNL     1     174.079  31.595 107.168  1.00  0.00    -0.550 OA
ENDBRANCH   7   8
ENDBRANCH   6   7
ENDBRANCH   5   6
ENDBRANCH   4   5
ENDBRANCH   3   4
ENDBRANCH   2   3
ENDBRANCH   1   2
BRANCH   1  11
ATOM     11  C   UNL     1     174.943  33.345 113.839  1.00  0.00    -0.031 C 
ATOM     12  C   UNL     1     173.773  33.445 114.492  1.00  0.00    -0.027 C 
BRANCH  12  13
ATOM     13  C   UNL     1     173.231  34.782 114.909  1.00  0.00     0.054 C 
BRANCH  13  14
ATOM     14  C   UNL     1     171.838  34.981 114.377  1.00  0.00    -0.027 C 
ATOM     15  C   UNL     1     171.104  33.938 113.968  1.00  0.00    -0.031 C 
BRANCH  15  16
ATOM     16  C   UNL     1     169.731  34.120 113.379  1.00  0.00     0.027 C 
BRANCH  16  17
ATOM     17  C   UNL     1     169.758  34.469 111.880  1.00  0.00     0.004 C 
BRANCH  17  18
ATOM     18  C   UNL     1     169.317  35.912 111.566  1.00  0.00     0.000 C 
BRANCH  18  19
ATOM     19  C   UNL     1     170.461  36.783 111.022  1.00  0.00    -0.003 C 
ATOM     20  C   UNL     1     171.297  36.018 110.000  1.00  0.00     0.004 C 
ENDBRANCH  18  19
ENDBRANCH  17  18
ENDBRANCH  16  17
ENDBRANCH  15  16
ENDBRANCH  13  14
ENDBRANCH  12  13
ENDBRANCH   1  11
TORSDOF 14
ENDMDL
MODEL 9
REMARK VINA RESULT:    -3.767      1.551      2.414
REMARK INTER + INTRA:          -9.159
REMARK INTER:                  -6.464
REMARK INTRA:                  -2.695
REMARK UNBOUND:                -2.310
REMARK SMILES CCCCCC=CCC=CCCCCCCCC(=O)[O-]
REMARK SMILES IDX 11 1 12 2 13 3 14 4 15 5 16 6 17 7 18 8 19 9 20 10 10 11
REMARK SMILES IDX 9 12 8 13 7 14 6 15 5 16 4 17 3 18 2 19 1 20
REMARK H PARENT
REMARK Flexibility Score: inf
ROOT
ATOM      1  C   UNL     1     173.656  27.965 112.872  1.00  0.00     0.027 C 
ENDROOT
BRANCH   1   2
ATOM      2  C   UNL     1     172.912  29.276 113.156  1.00  0.00     0.004 C 
BRANCH   2   3
ATOM      3  C   UNL     1     172.068  29.735 111.955  1.00  0.00     0.000 C 
BRANCH   3   4
ATOM      4  C   UNL     1     172.113  31.258 111.748  1.00  0.00     0.000 C 
BRANCH   4   5
ATOM      5  C   UNL     1     173.507  31.852 112.017  1.00  0.00     0.000 C 
BRANCH   5   6
ATOM      6  C   UNL     1     173.829  33.042 111.102  1.00  0.00     0.006 C 
BRANCH   6   7
ATOM      7  C   UNL     1     172.677  33.382 110.146  1.00  0.00     0.053 C 
BRANCH   7   8
ATOM      8  C   UNL     1     172.246  34.803 110.327  1.00  0.00     0.041 C 
ATOM      9  O   UNL     1     171.985  35.518 109.323  1.00  0.00    -0.550 OA
ATOM     10  O   UNL     1     172.097  35.328 111.605  1.00  0.00    -0.550 OA
ENDBRANCH   7   8
ENDBRANCH   6   7
ENDBRANCH   5   6
ENDBRANCH   4   5
ENDBRANCH   3   4
ENDBRANCH   2   3
ENDBRANCH   1   2
BRANCH   1  11
ATOM     11  C   UNL     1     174.614  28.119 111.721  1.00  0.00    -0.031 C 
ATOM     12  C   UNL     1     175.790  28.752 111.859  1.00  0.00    -0.027 C 
BRANCH  12  13
ATOM     13  C   UNL     1     176.765  28.832 110.720  1.00  0.00     0.054 C 
BRANCH  13  14
ATOM     14  C   UNL     1     176.057  29.157 109.434  1.00  0.00    -0.027 C 
ATOM     15  C   UNL     1     175.445  30.337 109.267  1.00  0.00    -0.031 C 
BRANCH  15  16
ATOM     16  C   UNL     1     174.681  30.660 108.011  1.00  0.00     0.027 C 
BRANCH  16  17
ATOM     17  C   UNL     1     173.159  30.490 108.168  1.00  0.00     0.004 C 
BRANCH  17  18
ATOM     18  C   UNL     1     172.728  29.068 108.577  1.00  0.00     0.000 C 
BRANCH  18  19
ATOM     19  C   UNL     1     172.822  28.058 107.423  1.00  0.00    -0.003 C 
ATOM     20  C   UNL     1     173.782  26.921 107.763  1.00  0.00     0.004 C 
ENDBRANCH  18  19
ENDBRANCH  17  18
ENDBRANCH  16  17
ENDBRANCH  15  16
ENDBRANCH  13  14
ENDBRANCH  12  13
ENDBRANCH   1  11
TORSDOF 14
ENDMDL
