MODEL 1
REMARK VINA RESULT:    -2.624      0.000      0.000
REMARK INTER + INTRA:          -2.941
REMARK INTER:                  -2.931
REMARK INTRA:                  -0.010
REMARK UNBOUND:                -0.010
REMARK SMILES CCCC(=O)[O-]
REMARK SMILES IDX 3 1 4 2 5 3 6 4 2 5 1 6
REMARK H PARENT
REMARK Flexibility Score: inf
ROOT
ATOM      1  C   UNL     1      19.838  22.830  45.647  1.00  0.00     0.052 C 
ENDROOT
BRANCH   1   2
ATOM      2  C   UNL     1      20.967  22.001  46.175  1.00  0.00     0.041 C 
ATOM      3  O   UNL     1      20.738  21.057  46.976  1.00  0.00    -0.550 OA
ATOM      4  O   UNL     1      22.275  22.301  45.819  1.00  0.00    -0.550 OA
ENDBRANCH   1   2
BRANCH   1   5
ATOM      5  C   UNL     1      18.912  23.261  46.787  1.00  0.00     0.003 C 
ATOM      6  C   UNL     1      17.613  23.852  46.247  1.00  0.00     0.004 C 
ENDBRANCH   1   5
TORSDOF 2
ENDMDL
MODEL 2
REMARK VINA RESULT:    -2.448      2.908      3.711
REMARK INTER + INTRA:          -2.744
REMARK INTER:                  -2.733
REMARK INTRA:                  -0.011
REMARK UNBOUND:                -0.010
REMARK SMILES CCCC(=O)[O-]
REMARK SMILES IDX 3 1 4 2 5 3 6 4 2 5 1 6
REMARK H PARENT
REMARK Flexibility Score: inf
ROOT
ATOM      1  C   UNL     1      19.529  23.229  45.390  1.00  0.00     0.052 C 
ENDROOT
BRANCH   1   2
ATOM      2  C   UNL     1      18.118  23.667  45.147  1.00  0.00     0.041 C 
ATOM      3  O   UNL     1      17.724  23.911  43.977  1.00  0.00    -0.550 OA
ATOM      4  O   UNL     1      17.254  23.850  46.218  1.00  0.00    -0.550 OA
ENDBRANCH   1   2
BRANCH   1   5
ATOM      5  C   UNL     1      19.665  22.612  46.785  1.00  0.00     0.003 C 
ATOM      6  C   UNL     1      20.696  21.487  46.790  1.00  0.00     0.004 C 
ENDBRANCH   1   5
TORSDOF 2
ENDMDL
MODEL 3
REMARK VINA RESULT:    -2.009     20.891     21.458
REMARK INTER + INTRA:          -2.254
REMARK INTER:                  -2.219
REMARK INTRA:                  -0.035
REMARK UNBOUND:                -0.010
REMARK SMILES CCCC(=O)[O-]
REMARK SMILES IDX 3 1 4 2 5 3 6 4 2 5 1 6
REMARK H PARENT
REMARK Flexibility Score: inf
ROOT
ATOM      1  C   UNL     1      32.072  22.922  27.622  1.00  0.00     0.052 C 
ENDROOT
BRANCH   1   2
ATOM      2  C   UNL     1      32.355  23.427  29.002  1.00  0.00     0.041 C 
ATOM      3  O   UNL     1      33.538  23.664  29.360  1.00  0.00    -0.550 OA
ATOM      4  O   UNL     1      31.315  23.591  29.908  1.00  0.00    -0.550 OA
ENDBRANCH   1   2
BRANCH   1   5
ATOM      5  C   UNL     1      31.564  21.479  27.674  1.00  0.00     0.003 C 
ATOM      6  C   UNL     1      30.062  21.415  27.419  1.00  0.00     0.004 C 
ENDBRANCH   1   5
TORSDOF 2
ENDMDL
MODEL 4
REMARK VINA RESULT:    -1.921     21.066     21.776
REMARK INTER + INTRA:          -2.156
REMARK INTER:                  -2.119
REMARK INTRA:                  -0.037
REMARK UNBOUND:                -0.010
REMARK SMILES CCCC(=O)[O-]
REMARK SMILES IDX 3 1 4 2 5 3 6 4 2 5 1 6
REMARK H PARENT
REMARK Flexibility Score: inf
ROOT
ATOM      1  C   UNL     1      31.132  22.924  28.548  1.00  0.00     0.052 C 
ENDROOT
BRANCH   1   2
ATOM      2  C   UNL     1      30.870  21.762  27.641  1.00  0.00     0.041 C 
ATOM      3  O   UNL     1      29.708  21.289  27.537  1.00  0.00    -0.550 OA
ATOM      4  O   UNL     1      31.919  21.173  26.947  1.00  0.00    -0.550 OA
ENDBRANCH   1   2
BRANCH   1   5
ATOM      5  C   UNL     1      32.356  23.710  28.071  1.00  0.00     0.003 C 
ATOM      6  C   UNL     1      33.446  23.730  29.138  1.00  0.00     0.004 C 
ENDBRANCH   1   5
TORSDOF 2
ENDMDL
MODEL 5
REMARK VINA RESULT:    -1.440      1.687      2.005
REMARK INTER + INTRA:          -1.618
REMARK INTER:                  -2.173
REMARK INTRA:                   0.555
REMARK UNBOUND:                -0.010
REMARK SMILES CCCC(=O)[O-]
REMARK SMILES IDX 3 1 4 2 5 3 6 4 2 5 1 6
REMARK H PARENT
REMARK Flexibility Score: inf
ROOT
ATOM      1  C   UNL     1      21.275  21.582  46.370  1.00  0.00     0.052 C 
ENDROOT
BRANCH   1   2
ATOM      2  C   UNL     1      22.086  22.578  45.602  1.00  0.00     0.041 C 
ATOM      3  O   UNL     1      21.532  23.333  44.761  1.00  0.00    -0.550 OA
ATOM      4  O   UNL     1      23.462  22.640  45.780  1.00  0.00    -0.550 OA
ENDBRANCH   1   2
BRANCH   1   5
ATOM      5  C   UNL     1      20.143  22.284  47.125  1.00  0.00     0.003 C 
ATOM      6  C   UNL     1      19.161  22.939  46.159  1.00  0.00     0.004 C 
ENDBRANCH   1   5
TORSDOF 2
ENDMDL
MODEL 6
REMARK VINA RESULT:    -1.351     22.170     23.008
REMARK INTER + INTRA:          -1.519
REMARK INTER:                  -1.481
REMARK INTRA:                  -0.038
REMARK UNBOUND:                -0.010
REMARK SMILES CCCC(=O)[O-]
REMARK SMILES IDX 3 1 4 2 5 3 6 4 2 5 1 6
REMARK H PARENT
REMARK Flexibility Score: inf
ROOT
ATOM      1  C   UNL     1      32.923  23.864  27.674  1.00  0.00     0.052 C 
ENDROOT
BRANCH   1   2
ATOM      2  C   UNL     1      34.380  23.662  27.945  1.00  0.00     0.041 C 
ATOM      3  O   UNL     1      35.098  23.041  27.118  1.00  0.00    -0.550 OA
ATOM      4  O   UNL     1      34.936  24.118  29.133  1.00  0.00    -0.550 OA
ENDBRANCH   1   2
BRANCH   1   5
ATOM      5  C   UNL     1      32.358  22.686  26.875  1.00  0.00     0.003 C 
ATOM      6  C   UNL     1      31.622  21.708  27.785  1.00  0.00     0.004 C 
ENDBRANCH   1   5
TORSDOF 2
ENDMDL
MODEL 7
REMARK VINA RESULT:    -1.238      1.844      3.451
REMARK INTER + INTRA:          -1.393
REMARK INTER:                  -1.379
REMARK INTRA:                  -0.014
REMARK UNBOUND:                -0.010
REMARK SMILES CCCC(=O)[O-]
REMARK SMILES IDX 3 1 4 2 5 3 6 4 2 5 1 6
REMARK H PARENT
REMARK Flexibility Score: inf
ROOT
ATOM      1  C   UNL     1      21.254  22.805  45.524  1.00  0.00     0.052 C 
ENDROOT
BRANCH   1   2
ATOM      2  C   UNL     1      20.160  22.330  46.427  1.00  0.00     0.041 C 
ATOM      3  O   UNL     1      19.125  23.028  46.591  1.00  0.00    -0.550 OA
ATOM      4  O   UNL     1      20.303  21.138  47.125  1.00  0.00    -0.550 OA
ENDBRANCH   1   2
BRANCH   1   5
ATOM      5  C   UNL     1      22.534  21.999  45.765  1.00  0.00     0.003 C 
ATOM      6  C   UNL     1      23.772  22.880  45.627  1.00  0.00     0.004 C 
ENDBRANCH   1   5
TORSDOF 2
ENDMDL
