MODEL 1
REMARK VINA RESULT:    -1.380      0.000      0.000
REMARK INTER + INTRA:          -5.347
REMARK INTER:                  -3.638
REMARK INTRA:                  -1.709
REMARK UNBOUND:                -1.709
REMARK SMILES CCCCCCCCCCCCCCCCCCCCCCCCCCCCCC(=O)[O-]
REMARK SMILES IDX 16 1 17 2 18 3 19 4 20 5 21 6 22 7 23 8 24 9 25 10 26 11
REMARK SMILES IDX 27 12 28 13 29 14 30 15 31 16 32 17 15 18 14 19 13 20 12 21
REMARK SMILES IDX 11 22 10 23 9 24 8 25 7 26 6 27 5 28 4 29 3 30 2 31 1 32
REMARK H PARENT
REMARK Flexibility Score: inf
ROOT
ATOM      1  C   UNL     1     -10.779  -5.139  -6.161  1.00  0.00     0.000 C 
ENDROOT
BRANCH   1   2
ATOM      2  C   UNL     1     -11.125  -4.788  -4.699  1.00  0.00     0.000 C 
BRANCH   2   3
ATOM      3  C   UNL     1     -10.021  -4.035  -3.922  1.00  0.00     0.000 C 
BRANCH   3   4
ATOM      4  C   UNL     1     -10.526  -2.818  -3.124  1.00  0.00     0.000 C 
BRANCH   4   5
ATOM      5  C   UNL     1     -10.602  -3.014  -1.598  1.00  0.00     0.000 C 
BRANCH   5   6
ATOM      6  C   UNL     1      -9.355  -2.563  -0.809  1.00  0.00     0.000 C 
BRANCH   6   7
ATOM      7  C   UNL     1      -8.115  -2.237  -1.661  1.00  0.00     0.000 C 
BRANCH   7   8
ATOM      8  C   UNL     1      -7.412  -0.941  -1.222  1.00  0.00     0.000 C 
BRANCH   8   9
ATOM      9  C   UNL     1      -8.398   0.146  -0.766  1.00  0.00     0.000 C 
BRANCH   9  10
ATOM     10  C   UNL     1      -7.776   1.525  -0.470  1.00  0.00     0.000 C 
BRANCH  10  11
ATOM     11  C   UNL     1      -8.763   2.705  -0.590  1.00  0.00     0.000 C 
BRANCH  11  12
ATOM     12  C   UNL     1      -8.855   3.538   0.698  1.00  0.00     0.000 C 
BRANCH  12  13
ATOM     13  C   UNL     1      -8.495   5.007   0.429  1.00  0.00     0.006 C 
BRANCH  13  14
ATOM     14  C   UNL     1      -8.841   5.444  -1.002  1.00  0.00     0.053 C 
BRANCH  14  15
ATOM     15  C   UNL     1      -9.284   6.876  -1.082  1.00  0.00     0.041 C 
ATOM     16  O   UNL     1     -10.149   7.234  -1.926  1.00  0.00    -0.550 OA
ATOM     17  O   UNL     1      -8.789   7.804  -0.171  1.00  0.00    -0.550 OA
ENDBRANCH  14  15
ENDBRANCH  13  14
ENDBRANCH  12  13
ENDBRANCH  11  12
ENDBRANCH  10  11
ENDBRANCH   9  10
ENDBRANCH   8   9
ENDBRANCH   7   8
ENDBRANCH   6   7
ENDBRANCH   5   6
ENDBRANCH   4   5
ENDBRANCH   3   4
ENDBRANCH   2   3
ENDBRANCH   1   2
BRANCH   1  18
ATOM     18  C   UNL     1     -11.083  -4.043  -7.205  1.00  0.00     0.000 C 
BRANCH  18  19
ATOM     19  C   UNL     1     -11.057  -4.509  -8.671  1.00  0.00     0.000 C 
BRANCH  19  20
ATOM     20  C   UNL     1     -10.042  -3.733  -9.521  1.00  0.00     0.000 C 
BRANCH  20  21
ATOM     21  C   UNL     1      -8.731  -4.522  -9.670  1.00  0.00     0.000 C 
BRANCH  21  22
ATOM     22  C   UNL     1      -8.966  -6.032  -9.832  1.00  0.00     0.000 C 
BRANCH  22  23
ATOM     23  C   UNL     1      -8.743  -6.811  -8.524  1.00  0.00     0.000 C 
BRANCH  23  24
ATOM     24  C   UNL     1      -7.513  -6.309  -7.739  1.00  0.00    -0.000 C 
BRANCH  24  25
ATOM     25  C   UNL     1      -7.828  -5.875  -6.295  1.00  0.00    -0.000 C 
BRANCH  25  26
ATOM     26  C   UNL     1      -6.787  -6.301  -5.242  1.00  0.00    -0.000 C 
BRANCH  26  27
ATOM     27  C   UNL     1      -5.346  -6.460  -5.770  1.00  0.00    -0.000 C 
BRANCH  27  28
ATOM     28  C   UNL     1      -4.607  -5.144  -6.078  1.00  0.00    -0.000 C 
BRANCH  28  29
ATOM     29  C   UNL     1      -3.107  -5.208  -5.745  1.00  0.00    -0.000 C 
BRANCH  29  30
ATOM     30  C   UNL     1      -2.568  -3.892  -5.154  1.00  0.00    -0.000 C 
BRANCH  30  31
ATOM     31  C   UNL     1      -3.524  -2.690  -5.254  1.00  0.00    -0.003 C 
ATOM     32  C   UNL     1      -2.905  -1.485  -5.961  1.00  0.00     0.004 C 
ENDBRANCH  30  31
ENDBRANCH  29  30
ENDBRANCH  28  29
ENDBRANCH  27  28
ENDBRANCH  26  27
ENDBRANCH  25  26
ENDBRANCH  24  25
ENDBRANCH  23  24
ENDBRANCH  22  23
ENDBRANCH  21  22
ENDBRANCH  20  21
ENDBRANCH  19  20
ENDBRANCH  18  19
ENDBRANCH   1  18
TORSDOF 28
ENDMDL
MODEL 2
REMARK VINA RESULT:    -0.598      3.791     10.642
REMARK INTER + INTRA:          -3.285
REMARK INTER:                  -1.804
REMARK INTRA:                  -1.481
REMARK UNBOUND:                -1.709
REMARK SMILES CCCCCCCCCCCCCCCCCCCCCCCCCCCCCC(=O)[O-]
REMARK SMILES IDX 16 1 17 2 18 3 19 4 20 5 21 6 22 7 23 8 24 9 25 10 26 11
REMARK SMILES IDX 27 12 28 13 29 14 30 15 31 16 32 17 15 18 14 19 13 20 12 21
REMARK SMILES IDX 11 22 10 23 9 24 8 25 7 26 6 27 5 28 4 29 3 30 2 31 1 32
REMARK H PARENT
REMARK Flexibility Score: inf
ROOT
ATOM      1  C   UNL     1     -10.332  -4.272  -4.069  1.00  0.00     0.000 C 
ENDROOT
BRANCH   1   2
ATOM      2  C   UNL     1     -11.093  -3.506  -5.170  1.00  0.00     0.000 C 
BRANCH   2   3
ATOM      3  C   UNL     1     -11.125  -4.197  -6.553  1.00  0.00     0.000 C 
BRANCH   3   4
ATOM      4  C   UNL     1     -10.512  -3.361  -7.692  1.00  0.00     0.000 C 
BRANCH   4   5
ATOM      5  C   UNL     1     -10.933  -3.774  -9.115  1.00  0.00     0.000 C 
BRANCH   5   6
ATOM      6  C   UNL     1      -9.799  -4.312 -10.012  1.00  0.00     0.000 C 
BRANCH   6   7
ATOM      7  C   UNL     1      -8.493  -4.675  -9.281  1.00  0.00     0.000 C 
BRANCH   7   8
ATOM      8  C   UNL     1      -7.885  -6.002  -9.766  1.00  0.00     0.000 C 
BRANCH   8   9
ATOM      9  C   UNL     1      -8.241  -7.188  -8.855  1.00  0.00     0.000 C 
BRANCH   9  10
ATOM     10  C   UNL     1      -9.311  -6.903  -7.784  1.00  0.00     0.000 C 
BRANCH  10  11
ATOM     11  C   UNL     1      -8.767  -6.227  -6.508  1.00  0.00     0.000 C 
BRANCH  11  12
ATOM     12  C   UNL     1      -8.277  -7.239  -5.460  1.00  0.00     0.000 C 
BRANCH  12  13
ATOM     13  C   UNL     1      -7.057  -6.696  -4.700  1.00  0.00     0.006 C 
BRANCH  13  14
ATOM     14  C   UNL     1      -5.739  -6.955  -5.444  1.00  0.00     0.053 C 
BRANCH  14  15
ATOM     15  C   UNL     1      -5.111  -5.696  -5.969  1.00  0.00     0.041 C 
ATOM     16  O   UNL     1      -5.825  -4.779  -6.456  1.00  0.00    -0.550 OA
ATOM     17  O   UNL     1      -3.737  -5.510  -5.853  1.00  0.00    -0.550 OA
ENDBRANCH  14  15
ENDBRANCH  13  14
ENDBRANCH  12  13
ENDBRANCH  11  12
ENDBRANCH  10  11
ENDBRANCH   9  10
ENDBRANCH   8   9
ENDBRANCH   7   8
ENDBRANCH   6   7
ENDBRANCH   5   6
ENDBRANCH   4   5
ENDBRANCH   3   4
ENDBRANCH   2   3
ENDBRANCH   1   2
BRANCH   1  18
ATOM     18  C   UNL     1     -11.010  -4.306  -2.682  1.00  0.00     0.000 C 
BRANCH  18  19
ATOM     19  C   UNL     1     -10.152  -3.778  -1.520  1.00  0.00     0.000 C 
BRANCH  19  20
ATOM     20  C   UNL     1      -8.784  -3.256  -1.983  1.00  0.00     0.000 C 
BRANCH  20  21
ATOM     21  C   UNL     1      -8.356  -2.029  -1.164  1.00  0.00     0.000 C 
BRANCH  21  22
ATOM     22  C   UNL     1      -7.356  -1.136  -1.916  1.00  0.00     0.000 C 
BRANCH  22  23
ATOM     23  C   UNL     1      -6.979   0.129  -1.126  1.00  0.00     0.000 C 
BRANCH  23  24
ATOM     24  C   UNL     1      -8.216   0.913  -0.639  1.00  0.00    -0.000 C 
BRANCH  24  25
ATOM     25  C   UNL     1      -7.994   2.435  -0.548  1.00  0.00    -0.000 C 
BRANCH  25  26
ATOM     26  C   UNL     1      -8.810   3.150   0.545  1.00  0.00    -0.000 C 
BRANCH  26  27
ATOM     27  C   UNL     1      -8.582   4.673   0.645  1.00  0.00    -0.000 C 
BRANCH  27  28
ATOM     28  C   UNL     1      -8.391   5.401  -0.700  1.00  0.00    -0.000 C 
BRANCH  28  29
ATOM     29  C   UNL     1      -9.627   6.212  -1.123  1.00  0.00    -0.000 C 
BRANCH  29  30
ATOM     30  C   UNL     1      -9.273   7.437  -1.985  1.00  0.00    -0.000 C 
BRANCH  30  31
ATOM     31  C   UNL     1      -9.061   8.747  -1.203  1.00  0.00    -0.003 C 
ATOM     32  C   UNL     1      -8.856   8.527   0.295  1.00  0.00     0.004 C 
ENDBRANCH  30  31
ENDBRANCH  29  30
ENDBRANCH  28  29
ENDBRANCH  27  28
ENDBRANCH  26  27
ENDBRANCH  25  26
ENDBRANCH  24  25
ENDBRANCH  23  24
ENDBRANCH  22  23
ENDBRANCH  21  22
ENDBRANCH  20  21
ENDBRANCH  19  20
ENDBRANCH  18  19
ENDBRANCH   1  18
TORSDOF 28
ENDMDL
MODEL 3
REMARK VINA RESULT:    -0.313      3.239      9.400
REMARK INTER + INTRA:          -2.535
REMARK INTER:                  -0.492
REMARK INTRA:                  -2.043
REMARK UNBOUND:                -1.709
REMARK SMILES CCCCCCCCCCCCCCCCCCCCCCCCCCCCCC(=O)[O-]
REMARK SMILES IDX 16 1 17 2 18 3 19 4 20 5 21 6 22 7 23 8 24 9 25 10 26 11
REMARK SMILES IDX 27 12 28 13 29 14 30 15 31 16 32 17 15 18 14 19 13 20 12 21
REMARK SMILES IDX 11 22 10 23 9 24 8 25 7 26 6 27 5 28 4 29 3 30 2 31 1 32
REMARK H PARENT
REMARK Flexibility Score: inf
ROOT
ATOM      1  C   UNL     1     -11.124  -4.730  -6.329  1.00  0.00     0.000 C 
ENDROOT
BRANCH   1   2
ATOM      2  C   UNL     1     -10.746  -3.575  -7.278  1.00  0.00     0.000 C 
BRANCH   2   3
ATOM      3  C   UNL     1     -10.797  -3.915  -8.785  1.00  0.00     0.000 C 
BRANCH   3   4
ATOM      4  C   UNL     1      -9.481  -3.645  -9.540  1.00  0.00     0.000 C 
BRANCH   4   5
ATOM      5  C   UNL     1      -8.788  -4.890 -10.125  1.00  0.00     0.000 C 
BRANCH   5   6
ATOM      6  C   UNL     1      -7.482  -5.313  -9.421  1.00  0.00     0.000 C 
BRANCH   6   7
ATOM      7  C   UNL     1      -7.485  -5.184  -7.887  1.00  0.00     0.000 C 
BRANCH   7   8
ATOM      8  C   UNL     1      -8.147  -6.385  -7.188  1.00  0.00     0.000 C 
BRANCH   8   9
ATOM      9  C   UNL     1      -7.833  -6.444  -5.684  1.00  0.00     0.000 C 
BRANCH   9  10
ATOM     10  C   UNL     1      -6.839  -7.542  -5.257  1.00  0.00     0.000 C 
BRANCH  10  11
ATOM     11  C   UNL     1      -5.443  -7.015  -4.867  1.00  0.00     0.000 C 
BRANCH  11  12
ATOM     12  C   UNL     1      -5.289  -5.504  -5.100  1.00  0.00     0.000 C 
BRANCH  12  13
ATOM     13  C   UNL     1      -4.358  -5.222  -6.289  1.00  0.00     0.006 C 
BRANCH  13  14
ATOM     14  C   UNL     1      -3.056  -4.528  -5.863  1.00  0.00     0.053 C 
BRANCH  14  15
ATOM     15  C   UNL     1      -3.277  -3.123  -5.382  1.00  0.00     0.041 C 
ATOM     16  O   UNL     1      -3.119  -2.829  -4.167  1.00  0.00    -0.550 OA
ATOM     17  O   UNL     1      -3.589  -2.122  -6.296  1.00  0.00    -0.550 OA
ENDBRANCH  14  15
ENDBRANCH  13  14
ENDBRANCH  12  13
ENDBRANCH  11  12
ENDBRANCH  10  11
ENDBRANCH   9  10
ENDBRANCH   8   9
ENDBRANCH   7   8
ENDBRANCH   6   7
ENDBRANCH   5   6
ENDBRANCH   4   5
ENDBRANCH   3   4
ENDBRANCH   2   3
ENDBRANCH   1   2
BRANCH   1  18
ATOM     18  C   UNL     1     -10.283  -4.843  -5.038  1.00  0.00     0.000 C 
BRANCH  18  19
ATOM     19  C   UNL     1     -11.037  -5.382  -3.810  1.00  0.00     0.000 C 
BRANCH  19  20
ATOM     20  C   UNL     1     -11.029  -4.397  -2.633  1.00  0.00     0.000 C 
BRANCH  20  21
ATOM     21  C   UNL     1     -10.109  -3.200  -2.922  1.00  0.00     0.000 C 
BRANCH  21  22
ATOM     22  C   UNL     1      -8.694  -3.392  -2.355  1.00  0.00     0.000 C 
BRANCH  22  23
ATOM     23  C   UNL     1      -8.415  -2.495  -1.136  1.00  0.00     0.000 C 
BRANCH  23  24
ATOM     24  C   UNL     1      -8.337  -1.000  -1.507  1.00  0.00    -0.000 C 
BRANCH  24  25
ATOM     25  C   UNL     1      -6.935  -0.386  -1.332  1.00  0.00    -0.000 C 
BRANCH  25  26
ATOM     26  C   UNL     1      -6.912   1.139  -1.114  1.00  0.00    -0.000 C 
BRANCH  26  27
ATOM     27  C   UNL     1      -8.118   1.711  -0.340  1.00  0.00    -0.000 C 
BRANCH  27  28
ATOM     28  C   UNL     1      -8.457   3.183  -0.640  1.00  0.00    -0.000 C 
BRANCH  28  29
ATOM     29  C   UNL     1      -8.690   4.015   0.632  1.00  0.00    -0.000 C 
BRANCH  29  30
ATOM     30  C   UNL     1      -8.809   5.524   0.348  1.00  0.00    -0.000 C 
BRANCH  30  31
ATOM     31  C   UNL     1      -8.772   5.913  -1.141  1.00  0.00    -0.003 C 
ATOM     32  C   UNL     1      -9.453   7.250  -1.431  1.00  0.00     0.004 C 
ENDBRANCH  30  31
ENDBRANCH  29  30
ENDBRANCH  28  29
ENDBRANCH  27  28
ENDBRANCH  26  27
ENDBRANCH  25  26
ENDBRANCH  24  25
ENDBRANCH  23  24
ENDBRANCH  22  23
ENDBRANCH  21  22
ENDBRANCH  20  21
ENDBRANCH  19  20
ENDBRANCH  18  19
ENDBRANCH   1  18
TORSDOF 28
ENDMDL
MODEL 4
REMARK VINA RESULT:     0.346      5.937     14.151
REMARK INTER + INTRA:          -0.797
REMARK INTER:                   0.312
REMARK INTRA:                  -1.109
REMARK UNBOUND:                -1.709
REMARK SMILES CCCCCCCCCCCCCCCCCCCCCCCCCCCCCC(=O)[O-]
REMARK SMILES IDX 16 1 17 2 18 3 19 4 20 5 21 6 22 7 23 8 24 9 25 10 26 11
REMARK SMILES IDX 27 12 28 13 29 14 30 15 31 16 32 17 15 18 14 19 13 20 12 21
REMARK SMILES IDX 11 22 10 23 9 24 8 25 7 26 6 27 5 28 4 29 3 30 2 31 1 32
REMARK H PARENT
REMARK Flexibility Score: inf
ROOT
ATOM      1  C   UNL     1      -8.119   2.075   0.014  1.00  0.00     0.000 C 
ENDROOT
BRANCH   1   2
ATOM      2  C   UNL     1      -8.599   0.951  -0.927  1.00  0.00     0.000 C 
BRANCH   2   3
ATOM      3  C   UNL     1      -7.705  -0.310  -0.958  1.00  0.00     0.000 C 
BRANCH   3   4
ATOM      4  C   UNL     1      -8.454  -1.625  -0.671  1.00  0.00     0.000 C 
BRANCH   4   5
ATOM      5  C   UNL     1      -8.452  -2.651  -1.820  1.00  0.00     0.000 C 
BRANCH   5   6
ATOM      6  C   UNL     1      -9.537  -3.744  -1.735  1.00  0.00     0.000 C 
BRANCH   6   7
ATOM      7  C   UNL     1     -10.683  -3.619  -2.755  1.00  0.00     0.000 C 
BRANCH   7   8
ATOM      8  C   UNL     1     -10.894  -4.902  -3.578  1.00  0.00     0.000 C 
BRANCH   8   9
ATOM      9  C   UNL     1     -10.777  -4.665  -5.092  1.00  0.00     0.000 C 
BRANCH   9  10
ATOM     10  C   UNL     1     -10.069  -5.779  -5.885  1.00  0.00     0.000 C 
BRANCH  10  11
ATOM     11  C   UNL     1     -10.376  -5.774  -7.397  1.00  0.00     0.000 C 
BRANCH  11  12
ATOM     12  C   UNL     1     -10.538  -4.356  -7.967  1.00  0.00     0.000 C 
BRANCH  12  13
ATOM     13  C   UNL     1      -9.752  -4.197  -9.278  1.00  0.00     0.006 C 
BRANCH  13  14
ATOM     14  C   UNL     1      -9.229  -5.537  -9.815  1.00  0.00     0.053 C 
BRANCH  14  15
ATOM     15  C   UNL     1      -7.792  -5.786  -9.457  1.00  0.00     0.041 C 
ATOM     16  O   UNL     1      -7.220  -6.852  -9.809  1.00  0.00    -0.550 OA
ATOM     17  O   UNL     1      -7.065  -4.802  -8.795  1.00  0.00    -0.550 OA
ENDBRANCH  14  15
ENDBRANCH  13  14
ENDBRANCH  12  13
ENDBRANCH  11  12
ENDBRANCH  10  11
ENDBRANCH   9  10
ENDBRANCH   8   9
ENDBRANCH   7   8
ENDBRANCH   6   7
ENDBRANCH   5   6
ENDBRANCH   4   5
ENDBRANCH   3   4
ENDBRANCH   2   3
ENDBRANCH   1   2
BRANCH   1  18
ATOM     18  C   UNL     1      -8.513   3.510  -0.398  1.00  0.00     0.000 C 
BRANCH  18  19
ATOM     19  C   UNL     1      -8.539   4.537   0.747  1.00  0.00     0.000 C 
BRANCH  19  20
ATOM     20  C   UNL     1      -9.031   5.918   0.292  1.00  0.00     0.000 C 
BRANCH  20  21
ATOM     21  C   UNL     1      -9.618   6.710   1.471  1.00  0.00     0.000 C 
BRANCH  21  22
ATOM     22  C   UNL     1     -10.049   5.804   2.634  1.00  0.00     0.000 C 
BRANCH  22  23
ATOM     23  C   UNL     1      -9.939   6.501   4.002  1.00  0.00     0.000 C 
BRANCH  23  24
ATOM     24  C   UNL     1     -10.792   7.784   4.082  1.00  0.00    -0.000 C 
BRANCH  24  25
ATOM     25  C   UNL     1     -11.113   8.233   5.520  1.00  0.00    -0.000 C 
BRANCH  25  26
ATOM     26  C   UNL     1     -10.316   7.511   6.623  1.00  0.00    -0.000 C 
BRANCH  26  27
ATOM     27  C   UNL     1     -10.477   8.097   8.041  1.00  0.00    -0.000 C 
BRANCH  27  28
ATOM     28  C   UNL     1      -9.268   7.902   8.976  1.00  0.00    -0.000 C 
BRANCH  28  29
ATOM     29  C   UNL     1      -7.978   8.534   8.427  1.00  0.00    -0.000 C 
BRANCH  29  30
ATOM     30  C   UNL     1      -6.920   7.488   8.029  1.00  0.00    -0.000 C 
BRANCH  30  31
ATOM     31  C   UNL     1      -5.557   7.640   8.729  1.00  0.00    -0.003 C 
ATOM     32  C   UNL     1      -5.654   8.313  10.097  1.00  0.00     0.004 C 
ENDBRANCH  30  31
ENDBRANCH  29  30
ENDBRANCH  28  29
ENDBRANCH  27  28
ENDBRANCH  26  27
ENDBRANCH  25  26
ENDBRANCH  24  25
ENDBRANCH  23  24
ENDBRANCH  22  23
ENDBRANCH  21  22
ENDBRANCH  20  21
ENDBRANCH  19  20
ENDBRANCH  18  19
ENDBRANCH   1  18
TORSDOF 28
ENDMDL
MODEL 5
REMARK VINA RESULT:     0.403      5.558     13.554
REMARK INTER + INTRA:          -0.647
REMARK INTER:                   0.684
REMARK INTRA:                  -1.331
REMARK UNBOUND:                -1.709
REMARK SMILES CCCCCCCCCCCCCCCCCCCCCCCCCCCCCC(=O)[O-]
REMARK SMILES IDX 16 1 17 2 18 3 19 4 20 5 21 6 22 7 23 8 24 9 25 10 26 11
REMARK SMILES IDX 27 12 28 13 29 14 30 15 31 16 32 17 15 18 14 19 13 20 12 21
REMARK SMILES IDX 11 22 10 23 9 24 8 25 7 26 6 27 5 28 4 29 3 30 2 31 1 32
REMARK H PARENT
REMARK Flexibility Score: inf
ROOT
ATOM      1  C   UNL     1      -7.007  -0.316  -1.339  1.00  0.00     0.000 C 
ENDROOT
BRANCH   1   2
ATOM      2  C   UNL     1      -8.387  -0.958  -1.090  1.00  0.00     0.000 C 
BRANCH   2   3
ATOM      3  C   UNL     1      -8.608  -2.330  -1.769  1.00  0.00     0.000 C 
BRANCH   3   4
ATOM      4  C   UNL     1      -9.889  -3.058  -1.321  1.00  0.00     0.000 C 
BRANCH   4   5
ATOM      5  C   UNL     1     -10.104  -4.455  -1.935  1.00  0.00     0.000 C 
BRANCH   5   6
ATOM      6  C   UNL     1     -11.113  -4.519  -3.100  1.00  0.00     0.000 C 
BRANCH   6   7
ATOM      7  C   UNL     1     -10.655  -3.849  -4.409  1.00  0.00     0.000 C 
BRANCH   7   8
ATOM      8  C   UNL     1     -11.124  -4.606  -5.664  1.00  0.00     0.000 C 
BRANCH   8   9
ATOM      9  C   UNL     1      -9.986  -5.371  -6.358  1.00  0.00     0.000 C 
BRANCH   9  10
ATOM     10  C   UNL     1     -10.403  -6.660  -7.091  1.00  0.00     0.000 C 
BRANCH  10  11
ATOM     11  C   UNL     1     -10.846  -6.444  -8.553  1.00  0.00     0.000 C 
BRANCH  11  12
ATOM     12  C   UNL     1     -10.599  -5.009  -9.044  1.00  0.00     0.000 C 
BRANCH  12  13
ATOM     13  C   UNL     1      -9.478  -4.972 -10.093  1.00  0.00     0.006 C 
BRANCH  13  14
ATOM     14  C   UNL     1      -8.137  -4.510  -9.503  1.00  0.00     0.053 C 
BRANCH  14  15
ATOM     15  C   UNL     1      -7.282  -5.653  -9.037  1.00  0.00     0.041 C 
ATOM     16  O   UNL     1      -7.008  -6.607  -9.814  1.00  0.00    -0.550 OA
ATOM     17  O   UNL     1      -6.728  -5.625  -7.761  1.00  0.00    -0.550 OA
ENDBRANCH  14  15
ENDBRANCH  13  14
ENDBRANCH  12  13
ENDBRANCH  11  12
ENDBRANCH  10  11
ENDBRANCH   9  10
ENDBRANCH   8   9
ENDBRANCH   7   8
ENDBRANCH   6   7
ENDBRANCH   5   6
ENDBRANCH   4   5
ENDBRANCH   3   4
ENDBRANCH   2   3
ENDBRANCH   1   2
BRANCH   1  18
ATOM     18  C   UNL     1      -6.870   1.166  -0.924  1.00  0.00     0.000 C 
BRANCH  18  19
ATOM     19  C   UNL     1      -8.197   1.894  -0.649  1.00  0.00     0.000 C 
BRANCH  19  20
ATOM     20  C   UNL     1      -8.019   3.130   0.244  1.00  0.00     0.000 C 
BRANCH  20  21
ATOM     21  C   UNL     1      -9.012   4.237  -0.143  1.00  0.00     0.000 C 
BRANCH  21  22
ATOM     22  C   UNL     1      -8.789   5.534   0.650  1.00  0.00     0.000 C 
BRANCH  22  23
ATOM     23  C   UNL     1      -9.237   5.416   2.118  1.00  0.00     0.000 C 
BRANCH  23  24
ATOM     24  C   UNL     1     -10.232   6.524   2.523  1.00  0.00    -0.000 C 
BRANCH  24  25
ATOM     25  C   UNL     1     -10.348   6.733   4.046  1.00  0.00    -0.000 C 
BRANCH  25  26
ATOM     26  C   UNL     1     -10.928   8.093   4.476  1.00  0.00    -0.000 C 
BRANCH  26  27
ATOM     27  C   UNL     1     -10.743   8.444   5.968  1.00  0.00    -0.000 C 
BRANCH  27  28
ATOM     28  C   UNL     1      -9.979   7.398   6.801  1.00  0.00    -0.000 C 
BRANCH  28  29
ATOM     29  C   UNL     1      -9.583   7.916   8.194  1.00  0.00    -0.000 C 
BRANCH  29  30
ATOM     30  C   UNL     1      -8.366   7.179   8.784  1.00  0.00    -0.000 C 
BRANCH  30  31
ATOM     31  C   UNL     1      -7.022   7.914   8.636  1.00  0.00    -0.003 C 
ATOM     32  C   UNL     1      -6.665   8.767   9.854  1.00  0.00     0.004 C 
ENDBRANCH  30  31
ENDBRANCH  29  30
ENDBRANCH  28  29
ENDBRANCH  27  28
ENDBRANCH  26  27
ENDBRANCH  25  26
ENDBRANCH  24  25
ENDBRANCH  23  24
ENDBRANCH  22  23
ENDBRANCH  21  22
ENDBRANCH  20  21
ENDBRANCH  19  20
ENDBRANCH  18  19
ENDBRANCH   1  18
TORSDOF 28
ENDMDL
MODEL 6
REMARK VINA RESULT:     0.484      3.475      5.863
REMARK INTER + INTRA:          -0.434
REMARK INTER:                   0.904
REMARK INTRA:                  -1.338
REMARK UNBOUND:                -1.709
REMARK SMILES CCCCCCCCCCCCCCCCCCCCCCCCCCCCCC(=O)[O-]
REMARK SMILES IDX 16 1 17 2 18 3 19 4 20 5 21 6 22 7 23 8 24 9 25 10 26 11
REMARK SMILES IDX 27 12 28 13 29 14 30 15 31 16 32 17 15 18 14 19 13 20 12 21
REMARK SMILES IDX 11 22 10 23 9 24 8 25 7 26 6 27 5 28 4 29 3 30 2 31 1 32
REMARK H PARENT
REMARK Flexibility Score: inf
ROOT
ATOM      1  C   UNL     1      -8.627  -2.020  -1.872  1.00  0.00     0.000 C 
ENDROOT
BRANCH   1   2
ATOM      2  C   UNL     1      -7.825  -1.129  -0.901  1.00  0.00     0.000 C 
BRANCH   2   3
ATOM      3  C   UNL     1      -6.993  -0.009  -1.568  1.00  0.00     0.000 C 
BRANCH   3   4
ATOM      4  C   UNL     1      -7.014   1.332  -0.810  1.00  0.00     0.000 C 
BRANCH   4   5
ATOM      5  C   UNL     1      -8.412   1.854  -0.430  1.00  0.00     0.000 C 
BRANCH   5   6
ATOM      6  C   UNL     1      -8.431   3.155   0.398  1.00  0.00     0.000 C 
BRANCH   6   7
ATOM      7  C   UNL     1      -8.671   4.447  -0.404  1.00  0.00     0.000 C 
BRANCH   7   8
ATOM      8  C   UNL     1      -9.013   5.651   0.490  1.00  0.00     0.000 C 
BRANCH   8   9
ATOM      9  C   UNL     1      -9.168   5.269   1.970  1.00  0.00     0.000 C 
BRANCH   9  10
ATOM     10  C   UNL     1     -10.266   6.029   2.740  1.00  0.00     0.000 C 
BRANCH  10  11
ATOM     11  C   UNL     1      -9.823   6.553   4.122  1.00  0.00     0.000 C 
BRANCH  11  12
ATOM     12  C   UNL     1     -10.777   7.617   4.688  1.00  0.00     0.000 C 
BRANCH  12  13
ATOM     13  C   UNL     1     -10.378   8.006   6.120  1.00  0.00     0.006 C 
BRANCH  13  14
ATOM     14  C   UNL     1      -9.927   6.797   6.953  1.00  0.00     0.053 C 
BRANCH  14  15
ATOM     15  C   UNL     1      -8.892   7.152   7.981  1.00  0.00     0.041 C 
ATOM     16  O   UNL     1      -7.683   6.840   7.808  1.00  0.00    -0.550 OA
ATOM     17  O   UNL     1      -9.257   7.894   9.100  1.00  0.00    -0.550 OA
ENDBRANCH  14  15
ENDBRANCH  13  14
ENDBRANCH  12  13
ENDBRANCH  11  12
ENDBRANCH  10  11
ENDBRANCH   9  10
ENDBRANCH   8   9
ENDBRANCH   7   8
ENDBRANCH   6   7
ENDBRANCH   5   6
ENDBRANCH   4   5
ENDBRANCH   3   4
ENDBRANCH   2   3
ENDBRANCH   1   2
BRANCH   1  18
ATOM     18  C   UNL     1      -9.024  -3.413  -1.334  1.00  0.00     0.000 C 
BRANCH  18  19
ATOM     19  C   UNL     1     -10.383  -3.941  -1.823  1.00  0.00     0.000 C 
BRANCH  19  20
ATOM     20  C   UNL     1     -10.569  -3.784  -3.339  1.00  0.00     0.000 C 
BRANCH  20  21
ATOM     21  C   UNL     1      -9.856  -4.912  -4.101  1.00  0.00     0.000 C 
BRANCH  21  22
ATOM     22  C   UNL     1     -10.683  -5.439  -5.285  1.00  0.00     0.000 C 
BRANCH  22  23
ATOM     23  C   UNL     1     -10.918  -4.371  -6.367  1.00  0.00     0.000 C 
BRANCH  23  24
ATOM     24  C   UNL     1     -11.014  -4.975  -7.783  1.00  0.00    -0.000 C 
BRANCH  24  25
ATOM     25  C   UNL     1      -9.881  -4.533  -8.729  1.00  0.00    -0.000 C 
BRANCH  25  26
ATOM     26  C   UNL     1      -8.668  -5.481  -8.784  1.00  0.00    -0.000 C 
BRANCH  26  27
ATOM     27  C   UNL     1      -8.000  -5.772  -7.423  1.00  0.00    -0.000 C 
BRANCH  27  28
ATOM     28  C   UNL     1      -6.461  -5.698  -7.415  1.00  0.00    -0.000 C 
BRANCH  28  29
ATOM     29  C   UNL     1      -5.869  -5.706  -5.996  1.00  0.00    -0.000 C 
BRANCH  29  30
ATOM     30  C   UNL     1      -4.383  -5.303  -5.964  1.00  0.00    -0.000 C 
BRANCH  30  31
ATOM     31  C   UNL     1      -4.119  -3.788  -5.882  1.00  0.00    -0.003 C 
ATOM     32  C   UNL     1      -2.855  -3.440  -5.096  1.00  0.00     0.004 C 
ENDBRANCH  30  31
ENDBRANCH  29  30
ENDBRANCH  28  29
ENDBRANCH  27  28
ENDBRANCH  26  27
ENDBRANCH  25  26
ENDBRANCH  24  25
ENDBRANCH  23  24
ENDBRANCH  22  23
ENDBRANCH  21  22
ENDBRANCH  20  21
ENDBRANCH  19  20
ENDBRANCH  18  19
ENDBRANCH   1  18
TORSDOF 28
ENDMDL
MODEL 7
REMARK VINA RESULT:     0.528      5.510     13.630
REMARK INTER + INTRA:          -0.316
REMARK INTER:                   1.008
REMARK INTRA:                  -1.324
REMARK UNBOUND:                -1.709
REMARK SMILES CCCCCCCCCCCCCCCCCCCCCCCCCCCCCC(=O)[O-]
REMARK SMILES IDX 16 1 17 2 18 3 19 4 20 5 21 6 22 7 23 8 24 9 25 10 26 11
REMARK SMILES IDX 27 12 28 13 29 14 30 15 31 16 32 17 15 18 14 19 13 20 12 21
REMARK SMILES IDX 11 22 10 23 9 24 8 25 7 26 6 27 5 28 4 29 3 30 2 31 1 32
REMARK H PARENT
REMARK Flexibility Score: inf
ROOT
ATOM      1  C   UNL     1      -6.898   0.551  -1.480  1.00  0.00     0.000 C 
ENDROOT
BRANCH   1   2
ATOM      2  C   UNL     1      -7.032  -0.951  -1.803  1.00  0.00     0.000 C 
BRANCH   2   3
ATOM      3  C   UNL     1      -8.053  -1.724  -0.936  1.00  0.00     0.000 C 
BRANCH   3   4
ATOM      4  C   UNL     1      -8.680  -2.945  -1.634  1.00  0.00     0.000 C 
BRANCH   4   5
ATOM      5  C   UNL     1     -10.220  -2.974  -1.658  1.00  0.00     0.000 C 
BRANCH   5   6
ATOM      6  C   UNL     1     -10.854  -3.383  -3.004  1.00  0.00     0.000 C 
BRANCH   6   7
ATOM      7  C   UNL     1     -10.119  -4.499  -3.770  1.00  0.00     0.000 C 
BRANCH   7   8
ATOM      8  C   UNL     1     -10.606  -4.649  -5.221  1.00  0.00     0.000 C 
BRANCH   8   9
ATOM      9  C   UNL     1     -11.005  -6.093  -5.568  1.00  0.00     0.000 C 
BRANCH   9  10
ATOM     10  C   UNL     1     -10.487  -6.617  -6.921  1.00  0.00     0.000 C 
BRANCH  10  11
ATOM     11  C   UNL     1      -8.950  -6.721  -7.014  1.00  0.00     0.000 C 
BRANCH  11  12
ATOM     12  C   UNL     1      -8.310  -5.499  -7.692  1.00  0.00     0.000 C 
BRANCH  12  13
ATOM     13  C   UNL     1      -6.777  -5.574  -7.625  1.00  0.00     0.006 C 
BRANCH  13  14
ATOM     14  C   UNL     1      -6.263  -5.826  -6.200  1.00  0.00     0.053 C 
BRANCH  14  15
ATOM     15  C   UNL     1      -4.883  -5.279  -5.974  1.00  0.00     0.041 C 
ATOM     16  O   UNL     1      -4.670  -4.038  -6.022  1.00  0.00    -0.550 OA
ATOM     17  O   UNL     1      -3.845  -6.142  -5.639  1.00  0.00    -0.550 OA
ENDBRANCH  14  15
ENDBRANCH  13  14
ENDBRANCH  12  13
ENDBRANCH  11  12
ENDBRANCH  10  11
ENDBRANCH   9  10
ENDBRANCH   8   9
ENDBRANCH   7   8
ENDBRANCH   6   7
ENDBRANCH   5   6
ENDBRANCH   4   5
ENDBRANCH   3   4
ENDBRANCH   2   3
ENDBRANCH   1   2
BRANCH   1  18
ATOM     18  C   UNL     1      -7.878   1.102  -0.421  1.00  0.00     0.000 C 
BRANCH  18  19
ATOM     19  C   UNL     1      -8.507   2.465  -0.756  1.00  0.00     0.000 C 
BRANCH  19  20
ATOM     20  C   UNL     1      -8.491   3.432   0.436  1.00  0.00     0.000 C 
BRANCH  20  21
ATOM     21  C   UNL     1      -8.853   4.859  -0.007  1.00  0.00     0.000 C 
BRANCH  21  22
ATOM     22  C   UNL     1      -8.718   5.883   1.130  1.00  0.00     0.000 C 
BRANCH  22  23
ATOM     23  C   UNL     1     -10.070   6.230   1.779  1.00  0.00     0.000 C 
BRANCH  23  24
ATOM     24  C   UNL     1      -9.989   6.289   3.319  1.00  0.00    -0.000 C 
BRANCH  24  25
ATOM     25  C   UNL     1     -10.725   7.494   3.937  1.00  0.00    -0.000 C 
BRANCH  25  26
ATOM     26  C   UNL     1     -10.508   7.686   5.450  1.00  0.00    -0.000 C 
BRANCH  26  27
ATOM     27  C   UNL     1     -10.836   9.095   5.987  1.00  0.00    -0.000 C 
BRANCH  27  28
ATOM     28  C   UNL     1     -10.738   9.257   7.516  1.00  0.00    -0.000 C 
BRANCH  28  29
ATOM     29  C   UNL     1      -9.734   8.284   8.157  1.00  0.00    -0.000 C 
BRANCH  29  30
ATOM     30  C   UNL     1      -9.091   8.846   9.439  1.00  0.00    -0.000 C 
BRANCH  30  31
ATOM     31  C   UNL     1      -7.599   8.513   9.621  1.00  0.00    -0.003 C 
ATOM     32  C   UNL     1      -7.123   7.371   8.723  1.00  0.00     0.004 C 
ENDBRANCH  30  31
ENDBRANCH  29  30
ENDBRANCH  28  29
ENDBRANCH  27  28
ENDBRANCH  26  27
ENDBRANCH  25  26
ENDBRANCH  24  25
ENDBRANCH  23  24
ENDBRANCH  22  23
ENDBRANCH  21  22
ENDBRANCH  20  21
ENDBRANCH  19  20
ENDBRANCH  18  19
ENDBRANCH   1  18
TORSDOF 28
ENDMDL
MODEL 8
REMARK VINA RESULT:     0.597      4.156      7.220
REMARK INTER + INTRA:          -0.136
REMARK INTER:                   1.692
REMARK INTRA:                  -1.828
REMARK UNBOUND:                -1.709
REMARK SMILES CCCCCCCCCCCCCCCCCCCCCCCCCCCCCC(=O)[O-]
REMARK SMILES IDX 16 1 17 2 18 3 19 4 20 5 21 6 22 7 23 8 24 9 25 10 26 11
REMARK SMILES IDX 27 12 28 13 29 14 30 15 31 16 32 17 15 18 14 19 13 20 12 21
REMARK SMILES IDX 11 22 10 23 9 24 8 25 7 26 6 27 5 28 4 29 3 30 2 31 1 32
REMARK H PARENT
REMARK Flexibility Score: inf
ROOT
ATOM      1  C   UNL     1      -7.824  -1.014  -1.520  1.00  0.00     0.000 C 
ENDROOT
BRANCH   1   2
ATOM      2  C   UNL     1      -7.453   0.277  -0.760  1.00  0.00     0.000 C 
BRANCH   2   3
ATOM      3  C   UNL     1      -8.544   1.372  -0.749  1.00  0.00     0.000 C 
BRANCH   3   4
ATOM      4  C   UNL     1      -8.132   2.670  -0.029  1.00  0.00     0.000 C 
BRANCH   4   5
ATOM      5  C   UNL     1      -8.837   3.949  -0.516  1.00  0.00     0.000 C 
BRANCH   5   6
ATOM      6  C   UNL     1      -8.699   5.175   0.410  1.00  0.00     0.000 C 
BRANCH   6   7
ATOM      7  C   UNL     1      -9.145   4.958   1.867  1.00  0.00     0.000 C 
BRANCH   7   8
ATOM      8  C   UNL     1     -10.123   6.038   2.361  1.00  0.00     0.000 C 
BRANCH   8   9
ATOM      9  C   UNL     1      -9.921   6.390   3.844  1.00  0.00     0.000 C 
BRANCH   9  10
ATOM     10  C   UNL     1     -10.691   7.629   4.342  1.00  0.00     0.000 C 
BRANCH  10  11
ATOM     11  C   UNL     1     -10.550   7.896   5.855  1.00  0.00     0.000 C 
BRANCH  11  12
ATOM     12  C   UNL     1      -9.736   6.812   6.579  1.00  0.00     0.000 C 
BRANCH  12  13
ATOM     13  C   UNL     1      -9.242   7.315   7.944  1.00  0.00     0.006 C 
BRANCH  13  14
ATOM     14  C   UNL     1      -7.733   7.106   8.134  1.00  0.00     0.053 C 
BRANCH  14  15
ATOM     15  C   UNL     1      -7.080   8.229   8.887  1.00  0.00     0.041 C 
ATOM     16  O   UNL     1      -5.862   8.165   9.206  1.00  0.00    -0.550 OA
ATOM     17  O   UNL     1      -7.806   9.381   9.174  1.00  0.00    -0.550 OA
ENDBRANCH  14  15
ENDBRANCH  13  14
ENDBRANCH  12  13
ENDBRANCH  11  12
ENDBRANCH  10  11
ENDBRANCH   9  10
ENDBRANCH   8   9
ENDBRANCH   7   8
ENDBRANCH   6   7
ENDBRANCH   5   6
ENDBRANCH   4   5
ENDBRANCH   3   4
ENDBRANCH   2   3
ENDBRANCH   1   2
BRANCH   1  18
ATOM     18  C   UNL     1      -8.619  -2.064  -0.714  1.00  0.00     0.000 C 
BRANCH  18  19
ATOM     19  C   UNL     1     -10.104  -2.194  -1.092  1.00  0.00     0.000 C 
BRANCH  19  20
ATOM     20  C   UNL     1     -10.485  -3.620  -1.514  1.00  0.00     0.000 C 
BRANCH  20  21
ATOM     21  C   UNL     1     -10.755  -3.694  -3.026  1.00  0.00     0.000 C 
BRANCH  21  22
ATOM     22  C   UNL     1     -10.246  -5.000  -3.654  1.00  0.00     0.000 C 
BRANCH  22  23
ATOM     23  C   UNL     1     -10.877  -5.283  -5.029  1.00  0.00     0.000 C 
BRANCH  23  24
ATOM     24  C   UNL     1     -10.865  -4.046  -5.950  1.00  0.00    -0.000 C 
BRANCH  24  25
ATOM     25  C   UNL     1     -10.476  -4.357  -7.409  1.00  0.00    -0.000 C 
BRANCH  25  26
ATOM     26  C   UNL     1     -11.019  -5.688  -7.960  1.00  0.00    -0.000 C 
BRANCH  26  27
ATOM     27  C   UNL     1      -9.945  -6.731  -8.336  1.00  0.00    -0.000 C 
BRANCH  27  28
ATOM     28  C   UNL     1      -8.526  -6.432  -7.816  1.00  0.00    -0.000 C 
BRANCH  28  29
ATOM     29  C   UNL     1      -8.194  -7.185  -6.517  1.00  0.00    -0.000 C 
BRANCH  29  30
ATOM     30  C   UNL     1      -7.427  -6.318  -5.501  1.00  0.00    -0.000 C 
BRANCH  30  31
ATOM     31  C   UNL     1      -5.894  -6.373  -5.621  1.00  0.00    -0.003 C 
ATOM     32  C   UNL     1      -5.304  -5.170  -6.358  1.00  0.00     0.004 C 
ENDBRANCH  30  31
ENDBRANCH  29  30
ENDBRANCH  28  29
ENDBRANCH  27  28
ENDBRANCH  26  27
ENDBRANCH  25  26
ENDBRANCH  24  25
ENDBRANCH  23  24
ENDBRANCH  22  23
ENDBRANCH  21  22
ENDBRANCH  20  21
ENDBRANCH  19  20
ENDBRANCH  18  19
ENDBRANCH   1  18
TORSDOF 28
ENDMDL
MODEL 9
REMARK VINA RESULT:     0.840      4.727      8.408
REMARK INTER + INTRA:           0.507
REMARK INTER:                   0.785
REMARK INTRA:                  -0.279
REMARK UNBOUND:                -1.709
REMARK SMILES CCCCCCCCCCCCCCCCCCCCCCCCCCCCCC(=O)[O-]
REMARK SMILES IDX 16 1 17 2 18 3 19 4 20 5 21 6 22 7 23 8 24 9 25 10 26 11
REMARK SMILES IDX 27 12 28 13 29 14 30 15 31 16 32 17 15 18 14 19 13 20 12 21
REMARK SMILES IDX 11 22 10 23 9 24 8 25 7 26 6 27 5 28 4 29 3 30 2 31 1 32
REMARK H PARENT
REMARK Flexibility Score: inf
ROOT
ATOM      1  C   UNL     1      -7.017   1.613  -1.119  1.00  0.00     0.000 C 
ENDROOT
BRANCH   1   2
ATOM      2  C   UNL     1      -8.124   2.082  -0.152  1.00  0.00     0.000 C 
BRANCH   2   3
ATOM      3  C   UNL     1      -9.138   3.086  -0.747  1.00  0.00     0.000 C 
BRANCH   3   4
ATOM      4  C   UNL     1      -8.863   4.556  -0.378  1.00  0.00     0.000 C 
BRANCH   4   5
ATOM      5  C   UNL     1      -8.789   4.856   1.130  1.00  0.00     0.000 C 
BRANCH   5   6
ATOM      6  C   UNL     1      -9.722   5.979   1.630  1.00  0.00     0.000 C 
BRANCH   6   7
ATOM      7  C   UNL     1      -9.995   5.987   3.145  1.00  0.00     0.000 C 
BRANCH   7   8
ATOM      8  C   UNL     1     -10.429   7.367   3.667  1.00  0.00     0.000 C 
BRANCH   8   9
ATOM      9  C   UNL     1     -10.493   7.430   5.202  1.00  0.00     0.000 C 
BRANCH   9  10
ATOM     10  C   UNL     1     -11.088   8.724   5.789  1.00  0.00     0.000 C 
BRANCH  10  11
ATOM     11  C   UNL     1     -11.066   8.790   7.330  1.00  0.00     0.000 C 
BRANCH  11  12
ATOM     12  C   UNL     1     -10.445   7.540   7.971  1.00  0.00     0.000 C 
BRANCH  12  13
ATOM     13  C   UNL     1     -10.245   7.738   9.482  1.00  0.00     0.006 C 
BRANCH  13  14
ATOM     14  C   UNL     1      -9.052   6.939  10.025  1.00  0.00     0.053 C 
BRANCH  14  15
ATOM     15  C   UNL     1      -7.789   7.179   9.249  1.00  0.00     0.041 C 
ATOM     16  O   UNL     1      -6.754   7.608   9.827  1.00  0.00    -0.550 OA
ATOM     17  O   UNL     1      -7.738   6.860   7.896  1.00  0.00    -0.550 OA
ENDBRANCH  14  15
ENDBRANCH  13  14
ENDBRANCH  12  13
ENDBRANCH  11  12
ENDBRANCH  10  11
ENDBRANCH   9  10
ENDBRANCH   8   9
ENDBRANCH   7   8
ENDBRANCH   6   7
ENDBRANCH   5   6
ENDBRANCH   4   5
ENDBRANCH   3   4
ENDBRANCH   2   3
ENDBRANCH   1   2
BRANCH   1  18
ATOM     18  C   UNL     1      -6.968   0.096  -1.400  1.00  0.00     0.000 C 
BRANCH  18  19
ATOM     19  C   UNL     1      -8.098  -0.727  -0.758  1.00  0.00     0.000 C 
BRANCH  19  20
ATOM     20  C   UNL     1      -8.108  -2.188  -1.229  1.00  0.00     0.000 C 
BRANCH  20  21
ATOM     21  C   UNL     1      -9.542  -2.735  -1.297  1.00  0.00     0.000 C 
BRANCH  21  22
ATOM     22  C   UNL     1      -9.672  -3.935  -2.249  1.00  0.00     0.000 C 
BRANCH  22  23
ATOM     23  C   UNL     1     -10.786  -3.745  -3.294  1.00  0.00     0.000 C 
BRANCH  23  24
ATOM     24  C   UNL     1     -10.791  -4.859  -4.361  1.00  0.00    -0.000 C 
BRANCH  24  25
ATOM     25  C   UNL     1     -10.706  -4.338  -5.809  1.00  0.00    -0.000 C 
BRANCH  25  26
ATOM     26  C   UNL     1     -10.737  -5.426  -6.898  1.00  0.00    -0.000 C 
BRANCH  26  27
ATOM     27  C   UNL     1      -9.869  -6.669  -6.610  1.00  0.00    -0.000 C 
BRANCH  27  28
ATOM     28  C   UNL     1      -8.430  -6.376  -6.144  1.00  0.00    -0.000 C 
BRANCH  28  29
ATOM     29  C   UNL     1      -7.500  -5.968  -7.299  1.00  0.00    -0.000 C 
BRANCH  29  30
ATOM     30  C   UNL     1      -8.265  -5.584  -8.578  1.00  0.00    -0.000 C 
BRANCH  30  31
ATOM     31  C   UNL     1      -7.965  -6.462  -9.807  1.00  0.00    -0.003 C 
ATOM     32  C   UNL     1      -9.023  -7.537 -10.052  1.00  0.00     0.004 C 
ENDBRANCH  30  31
ENDBRANCH  29  30
ENDBRANCH  28  29
ENDBRANCH  27  28
ENDBRANCH  26  27
ENDBRANCH  25  26
ENDBRANCH  24  25
ENDBRANCH  23  24
ENDBRANCH  22  23
ENDBRANCH  21  22
ENDBRANCH  20  21
ENDBRANCH  19  20
ENDBRANCH  18  19
ENDBRANCH   1  18
TORSDOF 28
ENDMDL
