MODEL 1
REMARK VINA RESULT:    -2.725      0.000      0.000
REMARK INTER + INTRA:          -5.299
REMARK INTER:                  -4.158
REMARK INTRA:                  -1.141
REMARK UNBOUND:                -1.141
REMARK SMILES CCCCCCCCCCC(=O)[O-]
REMARK SMILES IDX 7 1 8 2 9 3 10 4 11 5 12 6 13 7 6 8 5 9 4 10 3 11 2 12 1 13
REMARK H PARENT
REMARK Flexibility Score: inf
ROOT
ATOM      1  C   UNL     1     147.276 165.506 153.933  1.00  0.00     0.000 C 
ENDROOT
BRANCH   1   2
ATOM      2  C   UNL     1     145.936 165.388 154.678  1.00  0.00     0.000 C 
BRANCH   2   3
ATOM      3  C   UNL     1     146.012 164.431 155.879  1.00  0.00     0.006 C 
BRANCH   3   4
ATOM      4  C   UNL     1     147.225 163.493 155.812  1.00  0.00     0.053 C 
BRANCH   4   5
ATOM      5  C   UNL     1     146.863 162.136 156.331  1.00  0.00     0.041 C 
ATOM      6  O   UNL     1     147.416 161.108 155.860  1.00  0.00    -0.550 OA
ATOM      7  O   UNL     1     145.879 162.005 157.304  1.00  0.00    -0.550 OA
ENDBRANCH   4   5
ENDBRANCH   3   4
ENDBRANCH   2   3
ENDBRANCH   1   2
BRANCH   1   8
ATOM      8  C   UNL     1     147.134 166.197 152.567  1.00  0.00     0.000 C 
BRANCH   8   9
ATOM      9  C   UNL     1     146.258 165.400 151.584  1.00  0.00    -0.000 C 
BRANCH   9  10
ATOM     10  C   UNL     1     146.961 164.118 151.088  1.00  0.00    -0.000 C 
BRANCH  10  11
ATOM     11  C   UNL     1     146.114 162.846 151.260  1.00  0.00    -0.000 C 
BRANCH  11  12
ATOM     12  C   UNL     1     146.531 162.011 152.479  1.00  0.00    -0.003 C 
ATOM     13  C   UNL     1     148.004 161.619 152.398  1.00  0.00     0.004 C 
ENDBRANCH  11  12
ENDBRANCH  10  11
ENDBRANCH   9  10
ENDBRANCH   8   9
ENDBRANCH   1   8
TORSDOF 9
ENDMDL
MODEL 2
REMARK VINA RESULT:    -2.721      1.608      3.865
REMARK INTER + INTRA:          -5.294
REMARK INTER:                  -4.229
REMARK INTRA:                  -1.065
REMARK UNBOUND:                -1.141
REMARK SMILES CCCCCCCCCCC(=O)[O-]
REMARK SMILES IDX 7 1 8 2 9 3 10 4 11 5 12 6 13 7 6 8 5 9 4 10 3 11 2 12 1 13
REMARK H PARENT
REMARK Flexibility Score: inf
ROOT
ATOM      1  C   UNL     1     146.895 163.907 151.352  1.00  0.00     0.000 C 
ENDROOT
BRANCH   1   2
ATOM      2  C   UNL     1     146.192 162.549 151.524  1.00  0.00     0.000 C 
BRANCH   2   3
ATOM      3  C   UNL     1     147.003 161.572 152.390  1.00  0.00     0.006 C 
BRANCH   3   4
ATOM      4  C   UNL     1     148.362 161.218 151.768  1.00  0.00     0.053 C 
BRANCH   4   5
ATOM      5  C   UNL     1     149.299 160.710 152.819  1.00  0.00     0.041 C 
ATOM      6  O   UNL     1     150.466 160.354 152.510  1.00  0.00    -0.550 OA
ATOM      7  O   UNL     1     148.866 160.584 154.133  1.00  0.00    -0.550 OA
ENDBRANCH   4   5
ENDBRANCH   3   4
ENDBRANCH   2   3
ENDBRANCH   1   2
BRANCH   1   8
ATOM      8  C   UNL     1     146.088 165.070 151.951  1.00  0.00     0.000 C 
BRANCH   8   9
ATOM      9  C   UNL     1     146.978 166.128 152.626  1.00  0.00    -0.000 C 
BRANCH   9  10
ATOM     10  C   UNL     1     147.077 165.916 154.152  1.00  0.00    -0.000 C 
BRANCH  10  11
ATOM     11  C   UNL     1     145.882 165.150 154.745  1.00  0.00    -0.000 C 
BRANCH  11  12
ATOM     12  C   UNL     1     146.286 163.810 155.375  1.00  0.00    -0.003 C 
ATOM     13  C   UNL     1     147.804 163.669 155.441  1.00  0.00     0.004 C 
ENDBRANCH  11  12
ENDBRANCH  10  11
ENDBRANCH   9  10
ENDBRANCH   8   9
ENDBRANCH   1   8
TORSDOF 9
ENDMDL
MODEL 3
REMARK VINA RESULT:    -2.721      1.691      3.820
REMARK INTER + INTRA:          -5.294
REMARK INTER:                  -4.290
REMARK INTRA:                  -1.004
REMARK UNBOUND:                -1.141
REMARK SMILES CCCCCCCCCCC(=O)[O-]
REMARK SMILES IDX 7 1 8 2 9 3 10 4 11 5 12 6 13 7 6 8 5 9 4 10 3 11 2 12 1 13
REMARK H PARENT
REMARK Flexibility Score: inf
ROOT
ATOM      1  C   UNL     1     146.097 162.615 151.841  1.00  0.00     0.000 C 
ENDROOT
BRANCH   1   2
ATOM      2  C   UNL     1     146.976 161.361 151.703  1.00  0.00     0.000 C 
BRANCH   2   3
ATOM      3  C   UNL     1     148.119 161.327 152.730  1.00  0.00     0.006 C 
BRANCH   3   4
ATOM      4  C   UNL     1     147.731 161.970 154.069  1.00  0.00     0.053 C 
BRANCH   4   5
ATOM      5  C   UNL     1     148.936 162.558 154.733  1.00  0.00     0.041 C 
ATOM      6  O   UNL     1     149.349 163.700 154.401  1.00  0.00    -0.550 OA
ATOM      7  O   UNL     1     149.632 161.824 155.686  1.00  0.00    -0.550 OA
ENDBRANCH   4   5
ENDBRANCH   3   4
ENDBRANCH   2   3
ENDBRANCH   1   2
BRANCH   1   8
ATOM      8  C   UNL     1     146.564 163.768 150.938  1.00  0.00     0.000 C 
BRANCH   8   9
ATOM      9  C   UNL     1     146.241 165.154 151.524  1.00  0.00    -0.000 C 
BRANCH   9  10
ATOM     10  C   UNL     1     146.116 165.119 153.062  1.00  0.00    -0.000 C 
BRANCH  10  11
ATOM     11  C   UNL     1     147.016 166.143 153.775  1.00  0.00    -0.000 C 
BRANCH  11  12
ATOM     12  C   UNL     1     146.886 166.089 155.304  1.00  0.00    -0.003 C 
ATOM     13  C   UNL     1     145.996 164.929 155.738  1.00  0.00     0.004 C 
ENDBRANCH  11  12
ENDBRANCH  10  11
ENDBRANCH   9  10
ENDBRANCH   8   9
ENDBRANCH   1   8
TORSDOF 9
ENDMDL
MODEL 4
REMARK VINA RESULT:    -2.708      7.947     10.653
REMARK INTER + INTRA:          -5.274
REMARK INTER:                  -4.197
REMARK INTRA:                  -1.077
REMARK UNBOUND:                -1.141
REMARK SMILES CCCCCCCCCCC(=O)[O-]
REMARK SMILES IDX 7 1 8 2 9 3 10 4 11 5 12 6 13 7 6 8 5 9 4 10 3 11 2 12 1 13
REMARK H PARENT
REMARK Flexibility Score: inf
ROOT
ATOM      1  C   UNL     1     147.545 156.371 162.585  1.00  0.00     0.000 C 
ENDROOT
BRANCH   1   2
ATOM      2  C   UNL     1     146.153 155.784 162.292  1.00  0.00     0.000 C 
BRANCH   2   3
ATOM      3  C   UNL     1     145.875 155.649 160.787  1.00  0.00     0.006 C 
BRANCH   3   4
ATOM      4  C   UNL     1     145.876 154.188 160.314  1.00  0.00     0.053 C 
BRANCH   4   5
ATOM      5  C   UNL     1     147.177 153.856 159.652  1.00  0.00     0.041 C 
ATOM      6  O   UNL     1     147.902 154.772 159.183  1.00  0.00    -0.550 OA
ATOM      7  O   UNL     1     147.566 152.529 159.511  1.00  0.00    -0.550 OA
ENDBRANCH   4   5
ENDBRANCH   3   4
ENDBRANCH   2   3
ENDBRANCH   1   2
BRANCH   1   8
ATOM      8  C   UNL     1     147.478 157.671 163.403  1.00  0.00     0.000 C 
BRANCH   8   9
ATOM      9  C   UNL     1     146.214 158.497 163.109  1.00  0.00    -0.000 C 
BRANCH   9  10
ATOM     10  C   UNL     1     146.499 159.676 162.156  1.00  0.00    -0.000 C 
BRANCH  10  11
ATOM     11  C   UNL     1     146.292 159.331 160.671  1.00  0.00    -0.000 C 
BRANCH  11  12
ATOM     12  C   UNL     1     147.612 159.215 159.896  1.00  0.00    -0.003 C 
ATOM     13  C   UNL     1     147.441 158.357 158.646  1.00  0.00     0.004 C 
ENDBRANCH  11  12
ENDBRANCH  10  11
ENDBRANCH   9  10
ENDBRANCH   8   9
ENDBRANCH   1   8
TORSDOF 9
ENDMDL
MODEL 5
REMARK VINA RESULT:    -2.693      2.983      4.942
REMARK INTER + INTRA:          -5.251
REMARK INTER:                  -3.978
REMARK INTRA:                  -1.272
REMARK UNBOUND:                -1.141
REMARK SMILES CCCCCCCCCCC(=O)[O-]
REMARK SMILES IDX 7 1 8 2 9 3 10 4 11 5 12 6 13 7 6 8 5 9 4 10 3 11 2 12 1 13
REMARK H PARENT
REMARK Flexibility Score: inf
ROOT
ATOM      1  C   UNL     1     145.995 162.479 151.735  1.00  0.00     0.000 C 
ENDROOT
BRANCH   1   2
ATOM      2  C   UNL     1     146.681 163.803 151.358  1.00  0.00     0.000 C 
BRANCH   2   3
ATOM      3  C   UNL     1     145.957 165.028 151.939  1.00  0.00     0.006 C 
BRANCH   3   4
ATOM      4  C   UNL     1     146.846 165.849 152.884  1.00  0.00     0.053 C 
BRANCH   4   5
ATOM      5  C   UNL     1     147.937 166.526 152.114  1.00  0.00     0.041 C 
ATOM      6  O   UNL     1     149.107 166.566 152.576  1.00  0.00    -0.550 OA
ATOM      7  O   UNL     1     147.650 167.154 150.909  1.00  0.00    -0.550 OA
ENDBRANCH   4   5
ENDBRANCH   3   4
ENDBRANCH   2   3
ENDBRANCH   1   2
BRANCH   1   8
ATOM      8  C   UNL     1     146.984 161.306 151.824  1.00  0.00     0.000 C 
BRANCH   8   9
ATOM      9  C   UNL     1     148.300 161.687 152.526  1.00  0.00    -0.000 C 
BRANCH   9  10
ATOM     10  C   UNL     1     148.155 161.705 154.062  1.00  0.00    -0.000 C 
BRANCH  10  11
ATOM     11  C   UNL     1     148.475 163.070 154.695  1.00  0.00    -0.000 C 
BRANCH  11  12
ATOM     12  C   UNL     1     147.454 163.488 155.762  1.00  0.00    -0.003 C 
ATOM     13  C   UNL     1     146.038 163.096 155.350  1.00  0.00     0.004 C 
ENDBRANCH  11  12
ENDBRANCH  10  11
ENDBRANCH   9  10
ENDBRANCH   8   9
ENDBRANCH   1   8
TORSDOF 9
ENDMDL
MODEL 6
REMARK VINA RESULT:    -2.677      1.337      1.635
REMARK INTER + INTRA:          -5.226
REMARK INTER:                  -3.967
REMARK INTRA:                  -1.258
REMARK UNBOUND:                -1.141
REMARK SMILES CCCCCCCCCCC(=O)[O-]
REMARK SMILES IDX 7 1 8 2 9 3 10 4 11 5 12 6 13 7 6 8 5 9 4 10 3 11 2 12 1 13
REMARK H PARENT
REMARK Flexibility Score: inf
ROOT
ATOM      1  C   UNL     1     146.977 166.241 153.514  1.00  0.00     0.000 C 
ENDROOT
BRANCH   1   2
ATOM      2  C   UNL     1     146.102 165.303 154.362  1.00  0.00     0.000 C 
BRANCH   2   3
ATOM      3  C   UNL     1     146.843 164.760 155.594  1.00  0.00     0.006 C 
BRANCH   3   4
ATOM      4  C   UNL     1     147.090 163.247 155.518  1.00  0.00     0.053 C 
BRANCH   4   5
ATOM      5  C   UNL     1     148.550 162.966 155.340  1.00  0.00     0.041 C 
ATOM      6  O   UNL     1     149.307 163.839 154.841  1.00  0.00    -0.550 OA
ATOM      7  O   UNL     1     149.064 161.722 155.682  1.00  0.00    -0.550 OA
ENDBRANCH   4   5
ENDBRANCH   3   4
ENDBRANCH   2   3
ENDBRANCH   1   2
BRANCH   1   8
ATOM      8  C   UNL     1     147.380 165.616 152.168  1.00  0.00     0.000 C 
BRANCH   8   9
ATOM      9  C   UNL     1     146.186 165.008 151.411  1.00  0.00    -0.000 C 
BRANCH   9  10
ATOM     10  C   UNL     1     146.485 163.580 150.908  1.00  0.00    -0.000 C 
BRANCH  10  11
ATOM     11  C   UNL     1     146.002 162.476 151.865  1.00  0.00    -0.000 C 
BRANCH  11  12
ATOM     12  C   UNL     1     147.106 161.472 152.224  1.00  0.00    -0.003 C 
ATOM     13  C   UNL     1     148.456 161.918 151.668  1.00  0.00     0.004 C 
ENDBRANCH  11  12
ENDBRANCH  10  11
ENDBRANCH   9  10
ENDBRANCH   8   9
ENDBRANCH   1   8
TORSDOF 9
ENDMDL
MODEL 7
REMARK VINA RESULT:    -2.665      2.289      4.156
REMARK INTER + INTRA:          -5.207
REMARK INTER:                  -3.935
REMARK INTRA:                  -1.273
REMARK UNBOUND:                -1.141
REMARK SMILES CCCCCCCCCCC(=O)[O-]
REMARK SMILES IDX 7 1 8 2 9 3 10 4 11 5 12 6 13 7 6 8 5 9 4 10 3 11 2 12 1 13
REMARK H PARENT
REMARK Flexibility Score: inf
ROOT
ATOM      1  C   UNL     1     146.989 165.989 152.046  1.00  0.00     0.000 C 
ENDROOT
BRANCH   1   2
ATOM      2  C   UNL     1     148.176 165.096 151.646  1.00  0.00     0.000 C 
BRANCH   2   3
ATOM      3  C   UNL     1     147.749 163.651 151.344  1.00  0.00     0.006 C 
BRANCH   3   4
ATOM      4  C   UNL     1     148.912 162.655 151.454  1.00  0.00     0.053 C 
BRANCH   4   5
ATOM      5  C   UNL     1     148.408 161.311 151.879  1.00  0.00     0.041 C 
ATOM      6  O   UNL     1     147.232 160.957 151.601  1.00  0.00    -0.550 OA
ATOM      7  O   UNL     1     149.222 160.467 152.625  1.00  0.00    -0.550 OA
ENDBRANCH   4   5
ENDBRANCH   3   4
ENDBRANCH   2   3
ENDBRANCH   1   2
BRANCH   1   8
ATOM      8  C   UNL     1     146.309 165.524 153.344  1.00  0.00     0.000 C 
BRANCH   8   9
ATOM      9  C   UNL     1     146.914 166.175 154.600  1.00  0.00    -0.000 C 
BRANCH   9  10
ATOM     10  C   UNL     1     147.384 165.125 155.629  1.00  0.00    -0.000 C 
BRANCH  10  11
ATOM     11  C   UNL     1     148.782 164.555 155.333  1.00  0.00    -0.000 C 
BRANCH  11  12
ATOM     12  C   UNL     1     148.791 163.025 155.217  1.00  0.00    -0.003 C 
ATOM     13  C   UNL     1     147.372 162.464 155.237  1.00  0.00     0.004 C 
ENDBRANCH  11  12
ENDBRANCH  10  11
ENDBRANCH   9  10
ENDBRANCH   8   9
ENDBRANCH   1   8
TORSDOF 9
ENDMDL
MODEL 8
REMARK VINA RESULT:    -2.652      2.971      5.139
REMARK INTER + INTRA:          -5.188
REMARK INTER:                  -4.047
REMARK INTRA:                  -1.141
REMARK UNBOUND:                -1.141
REMARK SMILES CCCCCCCCCCC(=O)[O-]
REMARK SMILES IDX 7 1 8 2 9 3 10 4 11 5 12 6 13 7 6 8 5 9 4 10 3 11 2 12 1 13
REMARK H PARENT
REMARK Flexibility Score: inf
ROOT
ATOM      1  C   UNL     1     147.381 161.853 152.284  1.00  0.00     0.000 C 
ENDROOT
BRANCH   1   2
ATOM      2  C   UNL     1     146.210 162.592 151.616  1.00  0.00     0.000 C 
BRANCH   2   3
ATOM      3  C   UNL     1     145.916 163.949 152.276  1.00  0.00     0.006 C 
BRANCH   3   4
ATOM      4  C   UNL     1     145.879 165.103 151.265  1.00  0.00     0.053 C 
BRANCH   4   5
ATOM      5  C   UNL     1     147.196 165.814 151.237  1.00  0.00     0.041 C 
ATOM      6  O   UNL     1     148.157 165.343 150.575  1.00  0.00    -0.550 OA
ATOM      7  O   UNL     1     147.376 166.972 151.983  1.00  0.00    -0.550 OA
ENDBRANCH   4   5
ENDBRANCH   3   4
ENDBRANCH   2   3
ENDBRANCH   1   2
BRANCH   1   8
ATOM      8  C   UNL     1     148.222 162.771 153.187  1.00  0.00     0.000 C 
BRANCH   8   9
ATOM      9  C   UNL     1     148.233 162.315 154.657  1.00  0.00    -0.000 C 
BRANCH   9  10
ATOM     10  C   UNL     1     147.887 163.466 155.625  1.00  0.00    -0.000 C 
BRANCH  10  11
ATOM     11  C   UNL     1     146.384 163.577 155.937  1.00  0.00    -0.000 C 
BRANCH  11  12
ATOM     12  C   UNL     1     145.875 165.025 155.912  1.00  0.00    -0.003 C 
ATOM     13  C   UNL     1     146.924 165.966 155.326  1.00  0.00     0.004 C 
ENDBRANCH  11  12
ENDBRANCH  10  11
ENDBRANCH   9  10
ENDBRANCH   8   9
ENDBRANCH   1   8
TORSDOF 9
ENDMDL
MODEL 9
REMARK VINA RESULT:    -2.640      2.073      3.636
REMARK INTER + INTRA:          -5.170
REMARK INTER:                  -4.105
REMARK INTRA:                  -1.066
REMARK UNBOUND:                -1.141
REMARK SMILES CCCCCCCCCCC(=O)[O-]
REMARK SMILES IDX 7 1 8 2 9 3 10 4 11 5 12 6 13 7 6 8 5 9 4 10 3 11 2 12 1 13
REMARK H PARENT
REMARK Flexibility Score: inf
ROOT
ATOM      1  C   UNL     1     146.352 163.834 151.468  1.00  0.00     0.000 C 
ENDROOT
BRANCH   1   2
ATOM      2  C   UNL     1     145.875 165.114 152.176  1.00  0.00     0.000 C 
BRANCH   2   3
ATOM      3  C   UNL     1     147.037 166.049 152.547  1.00  0.00     0.006 C 
BRANCH   3   4
ATOM      4  C   UNL     1     147.943 165.463 153.639  1.00  0.00     0.053 C 
BRANCH   4   5
ATOM      5  C   UNL     1     147.206 165.383 154.939  1.00  0.00     0.041 C 
ATOM      6  O   UNL     1     146.953 166.431 155.590  1.00  0.00    -0.550 OA
ATOM      7  O   UNL     1     146.841 164.146 155.456  1.00  0.00    -0.550 OA
ENDBRANCH   4   5
ENDBRANCH   3   4
ENDBRANCH   2   3
ENDBRANCH   1   2
BRANCH   1   8
ATOM      8  C   UNL     1     145.997 162.559 152.251  1.00  0.00     0.000 C 
BRANCH   8   9
ATOM      9  C   UNL     1     146.878 161.358 151.864  1.00  0.00    -0.000 C 
BRANCH   9  10
ATOM     10  C   UNL     1     148.283 161.440 152.497  1.00  0.00    -0.000 C 
BRANCH  10  11
ATOM     11  C   UNL     1     149.424 161.439 151.465  1.00  0.00    -0.000 C 
BRANCH  11  12
ATOM     12  C   UNL     1     150.015 162.836 151.228  1.00  0.00    -0.003 C 
ATOM     13  C   UNL     1     149.597 163.386 149.867  1.00  0.00     0.004 C 
ENDBRANCH  11  12
ENDBRANCH  10  11
ENDBRANCH   9  10
ENDBRANCH   8   9
ENDBRANCH   1   8
TORSDOF 9
ENDMDL
