MODEL 1
REMARK VINA RESULT:    -4.407      0.000      0.000
REMARK INTER + INTRA:          -5.216
REMARK INTER:                  -5.179
REMARK INTRA:                  -0.036
REMARK UNBOUND:                -0.036
REMARK SMILES CCCCC(=O)[O-]
REMARK SMILES IDX 4 1 5 2 6 3 7 4 3 5 2 6 1 7
REMARK H PARENT
REMARK Flexibility Score: inf
ROOT
ATOM      1  C   UNL     1      11.720  -0.799  64.696  1.00  0.00     0.053 C 
ENDROOT
BRANCH   1   2
ATOM      2  C   UNL     1      12.188   0.386  65.485  1.00  0.00     0.041 C 
ATOM      3  O   UNL     1      12.202   0.344  66.743  1.00  0.00    -0.550 OA
ATOM      4  O   UNL     1      12.580   1.545  64.830  1.00  0.00    -0.550 OA
ENDBRANCH   1   2
BRANCH   1   5
ATOM      5  C   UNL     1      11.539  -2.042  65.581  1.00  0.00     0.006 C 
BRANCH   5   6
ATOM      6  C   UNL     1      10.691  -3.154  64.939  1.00  0.00    -0.003 C 
ATOM      7  C   UNL     1      10.111  -2.752  63.583  1.00  0.00     0.004 C 
ENDBRANCH   5   6
ENDBRANCH   1   5
TORSDOF 3
ENDMDL
MODEL 2
REMARK VINA RESULT:    -4.151      2.598      3.950
REMARK INTER + INTRA:          -4.915
REMARK INTER:                  -4.896
REMARK INTRA:                  -0.019
REMARK UNBOUND:                -0.036
REMARK SMILES CCCCC(=O)[O-]
REMARK SMILES IDX 4 1 5 2 6 3 7 4 3 5 2 6 1 7
REMARK H PARENT
REMARK Flexibility Score: inf
ROOT
ATOM      1  C   UNL     1      11.663  -1.692  65.614  1.00  0.00     0.053 C 
ENDROOT
BRANCH   1   2
ATOM      2  C   UNL     1      10.868  -2.760  64.927  1.00  0.00     0.041 C 
ATOM      3  O   UNL     1      10.733  -3.892  65.461  1.00  0.00    -0.550 OA
ATOM      4  O   UNL     1      10.304  -2.514  63.683  1.00  0.00    -0.550 OA
ENDBRANCH   1   2
BRANCH   1   5
ATOM      5  C   UNL     1      11.915  -0.485  64.696  1.00  0.00     0.006 C 
BRANCH   5   6
ATOM      6  C   UNL     1      12.653   0.681  65.378  1.00  0.00    -0.003 C 
ATOM      7  C   UNL     1      11.994   2.036  65.116  1.00  0.00     0.004 C 
ENDBRANCH   5   6
ENDBRANCH   1   5
TORSDOF 3
ENDMDL
MODEL 3
REMARK VINA RESULT:    -4.079      2.459      4.119
REMARK INTER + INTRA:          -4.830
REMARK INTER:                  -4.805
REMARK INTRA:                  -0.025
REMARK UNBOUND:                -0.036
REMARK SMILES CCCCC(=O)[O-]
REMARK SMILES IDX 4 1 5 2 6 3 7 4 3 5 2 6 1 7
REMARK H PARENT
REMARK Flexibility Score: inf
ROOT
ATOM      1  C   UNL     1      11.919  -1.295  65.647  1.00  0.00     0.053 C 
ENDROOT
BRANCH   1   2
ATOM      2  C   UNL     1      11.196  -2.419  64.969  1.00  0.00     0.041 C 
ATOM      3  O   UNL     1      10.541  -2.206  63.915  1.00  0.00    -0.550 OA
ATOM      4  O   UNL     1      11.222  -3.693  65.519  1.00  0.00    -0.550 OA
ENDBRANCH   1   2
BRANCH   1   5
ATOM      5  C   UNL     1      11.901  -0.010  64.803  1.00  0.00     0.006 C 
BRANCH   5   6
ATOM      6  C   UNL     1      12.812   1.108  65.340  1.00  0.00    -0.003 C 
ATOM      7  C   UNL     1      12.680   1.310  66.849  1.00  0.00     0.004 C 
ENDBRANCH   5   6
ENDBRANCH   1   5
TORSDOF 3
ENDMDL
MODEL 4
REMARK VINA RESULT:    -4.038      1.256      2.027
REMARK INTER + INTRA:          -4.783
REMARK INTER:                  -4.731
REMARK INTRA:                  -0.052
REMARK UNBOUND:                -0.036
REMARK SMILES CCCCC(=O)[O-]
REMARK SMILES IDX 4 1 5 2 6 3 7 4 3 5 2 6 1 7
REMARK H PARENT
REMARK Flexibility Score: inf
ROOT
ATOM      1  C   UNL     1      12.410   0.481  64.973  1.00  0.00     0.053 C 
ENDROOT
BRANCH   1   2
ATOM      2  C   UNL     1      11.550   1.511  65.639  1.00  0.00     0.041 C 
ATOM      3  O   UNL     1      10.824   2.274  64.948  1.00  0.00    -0.550 OA
ATOM      4  O   UNL     1      11.574   1.649  67.020  1.00  0.00    -0.550 OA
ENDBRANCH   1   2
BRANCH   1   5
ATOM      5  C   UNL     1      11.631  -0.809  64.672  1.00  0.00     0.006 C 
BRANCH   5   6
ATOM      6  C   UNL     1      11.641  -1.833  65.820  1.00  0.00    -0.003 C 
ATOM      7  C   UNL     1      11.058  -3.187  65.414  1.00  0.00     0.004 C 
ENDBRANCH   5   6
ENDBRANCH   1   5
TORSDOF 3
ENDMDL
MODEL 5
REMARK VINA RESULT:    -3.464      2.172      3.409
REMARK INTER + INTRA:          -4.108
REMARK INTER:                  -4.004
REMARK INTRA:                  -0.104
REMARK UNBOUND:                -0.036
REMARK SMILES CCCCC(=O)[O-]
REMARK SMILES IDX 4 1 5 2 6 3 7 4 3 5 2 6 1 7
REMARK H PARENT
REMARK Flexibility Score: inf
ROOT
ATOM      1  C   UNL     1      12.210   2.239  66.532  1.00  0.00     0.053 C 
ENDROOT
BRANCH   1   2
ATOM      2  C   UNL     1      11.040   1.951  67.421  1.00  0.00     0.041 C 
ATOM      3  O   UNL     1      10.181   2.843  67.648  1.00  0.00    -0.550 OA
ATOM      4  O   UNL     1      10.914   0.707  68.023  1.00  0.00    -0.550 OA
ENDBRANCH   1   2
BRANCH   1   5
ATOM      5  C   UNL     1      12.035   1.623  65.135  1.00  0.00     0.006 C 
BRANCH   5   6
ATOM      6  C   UNL     1      12.648   0.220  64.985  1.00  0.00    -0.003 C 
ATOM      7  C   UNL     1      11.604  -0.857  64.688  1.00  0.00     0.004 C 
ENDBRANCH   5   6
ENDBRANCH   1   5
TORSDOF 3
ENDMDL
MODEL 6
REMARK VINA RESULT:    -3.268      2.164      2.995
REMARK INTER + INTRA:          -3.878
REMARK INTER:                  -3.991
REMARK INTRA:                   0.113
REMARK UNBOUND:                -0.036
REMARK SMILES CCCCC(=O)[O-]
REMARK SMILES IDX 4 1 5 2 6 3 7 4 3 5 2 6 1 7
REMARK H PARENT
REMARK Flexibility Score: inf
ROOT
ATOM      1  C   UNL     1      11.171  -1.773  64.399  1.00  0.00     0.053 C 
ENDROOT
BRANCH   1   2
ATOM      2  C   UNL     1      11.459  -2.489  65.683  1.00  0.00     0.041 C 
ATOM      3  O   UNL     1      11.595  -1.840  66.754  1.00  0.00    -0.550 OA
ATOM      4  O   UNL     1      11.608  -3.869  65.691  1.00  0.00    -0.550 OA
ENDBRANCH   1   2
BRANCH   1   5
ATOM      5  C   UNL     1       9.934  -2.345  63.688  1.00  0.00     0.006 C 
BRANCH   5   6
ATOM      6  C   UNL     1      10.219  -3.594  62.837  1.00  0.00    -0.003 C 
ATOM      7  C   UNL     1      10.078  -3.337  61.337  1.00  0.00     0.004 C 
ENDBRANCH   5   6
ENDBRANCH   1   5
TORSDOF 3
ENDMDL
MODEL 7
REMARK VINA RESULT:    -2.935     18.239     19.421
REMARK INTER + INTRA:          -3.486
REMARK INTER:                  -3.427
REMARK INTRA:                  -0.059
REMARK UNBOUND:                -0.036
REMARK SMILES CCCCC(=O)[O-]
REMARK SMILES IDX 4 1 5 2 6 3 7 4 3 5 2 6 1 7
REMARK H PARENT
REMARK Flexibility Score: inf
ROOT
ATOM      1  C   UNL     1      -4.813 -11.820  64.319  1.00  0.00     0.053 C 
ENDROOT
BRANCH   1   2
ATOM      2  C   UNL     1      -3.642 -11.076  64.885  1.00  0.00     0.041 C 
ATOM      3  O   UNL     1      -3.308 -11.242  66.088  1.00  0.00    -0.550 OA
ATOM      4  O   UNL     1      -2.940 -10.178  64.094  1.00  0.00    -0.550 OA
ENDBRANCH   1   2
BRANCH   1   5
ATOM      5  C   UNL     1      -4.928 -13.238  64.900  1.00  0.00     0.006 C 
BRANCH   5   6
ATOM      6  C   UNL     1      -4.473 -14.351  63.941  1.00  0.00    -0.003 C 
ATOM      7  C   UNL     1      -4.905 -14.104  62.496  1.00  0.00     0.004 C 
ENDBRANCH   5   6
ENDBRANCH   1   5
TORSDOF 3
ENDMDL
MODEL 8
REMARK VINA RESULT:    -2.923     18.840     20.080
REMARK INTER + INTRA:          -3.472
REMARK INTER:                  -3.420
REMARK INTRA:                  -0.052
REMARK UNBOUND:                -0.036
REMARK SMILES CCCCC(=O)[O-]
REMARK SMILES IDX 4 1 5 2 6 3 7 4 3 5 2 6 1 7
REMARK H PARENT
REMARK Flexibility Score: inf
ROOT
ATOM      1  C   UNL     1      -4.869 -12.495  64.033  1.00  0.00     0.053 C 
ENDROOT
BRANCH   1   2
ATOM      2  C   UNL     1      -4.656 -13.878  63.498  1.00  0.00     0.041 C 
ATOM      3  O   UNL     1      -4.135 -14.766  64.224  1.00  0.00    -0.550 OA
ATOM      4  O   UNL     1      -5.003 -14.177  62.188  1.00  0.00    -0.550 OA
ENDBRANCH   1   2
BRANCH   1   5
ATOM      5  C   UNL     1      -4.244 -12.317  65.426  1.00  0.00     0.006 C 
BRANCH   5   6
ATOM      6  C   UNL     1      -3.572 -10.950  65.644  1.00  0.00    -0.003 C 
ATOM      7  C   UNL     1      -3.228 -10.241  64.334  1.00  0.00     0.004 C 
ENDBRANCH   5   6
ENDBRANCH   1   5
TORSDOF 3
ENDMDL
MODEL 9
REMARK VINA RESULT:    -2.794     20.553     21.287
REMARK INTER + INTRA:          -3.320
REMARK INTER:                  -3.214
REMARK INTRA:                  -0.106
REMARK UNBOUND:                -0.036
REMARK SMILES CCCCC(=O)[O-]
REMARK SMILES IDX 4 1 5 2 6 3 7 4 3 5 2 6 1 7
REMARK H PARENT
REMARK Flexibility Score: inf
ROOT
ATOM      1  C   UNL     1      -4.096 -14.631  64.356  1.00  0.00     0.053 C 
ENDROOT
BRANCH   1   2
ATOM      2  C   UNL     1      -4.801 -13.775  63.347  1.00  0.00     0.041 C 
ATOM      3  O   UNL     1      -4.986 -14.199  62.176  1.00  0.00    -0.550 OA
ATOM      4  O   UNL     1      -5.223 -12.500  63.693  1.00  0.00    -0.550 OA
ENDBRANCH   1   2
BRANCH   1   5
ATOM      5  C   UNL     1      -4.140 -14.013  65.762  1.00  0.00     0.006 C 
BRANCH   5   6
ATOM      6  C   UNL     1      -5.094 -14.728  66.735  1.00  0.00    -0.003 C 
ATOM      7  C   UNL     1      -6.534 -14.224  66.634  1.00  0.00     0.004 C 
ENDBRANCH   5   6
ENDBRANCH   1   5
TORSDOF 3
ENDMDL
