MODEL 1
REMARK VINA RESULT:    -6.448      0.000      0.000
REMARK INTER + INTRA:          -7.605
REMARK INTER:                  -7.391
REMARK INTRA:                  -0.215
REMARK UNBOUND:                -0.215
REMARK SMILES O=C([O-])C=Cc1ccc(O)cc1
REMARK SMILES IDX 6 1 7 2 12 3 8 4 11 5 9 6 5 7 4 8 2 9 1 10 3 11 10 12
REMARK H PARENT 10 13
REMARK Flexibility Score: inf
ROOT
ATOM      1  C   UNL     1      34.102  26.661  21.001  1.00  0.00    -0.025 A 
ATOM      2  C   UNL     1      33.371  27.172  19.919  1.00  0.00     0.012 A 
ATOM      3  C   UNL     1      34.826  25.466  20.840  1.00  0.00     0.012 A 
ATOM      4  C   UNL     1      33.404  26.529  18.678  1.00  0.00     0.047 A 
ATOM      5  C   UNL     1      34.858  24.825  19.597  1.00  0.00     0.047 A 
ATOM      6  C   UNL     1      34.149  25.357  18.512  1.00  0.00     0.115 A 
ENDROOT
BRANCH   1   7
ATOM      7  C   UNL     1      34.009  27.328  22.316  1.00  0.00     0.010 C 
ATOM      8  C   UNL     1      35.020  27.948  22.946  1.00  0.00     0.025 C 
BRANCH   8   9
ATOM      9  C   UNL     1      36.342  28.240  22.361  1.00  0.00     0.064 C 
ATOM     10  O   UNL     1      36.502  29.299  21.702  1.00  0.00    -0.545 OA
ATOM     11  O   UNL     1      37.395  27.337  22.458  1.00  0.00    -0.545 OA
ENDBRANCH   8   9
ENDBRANCH   1   7
BRANCH   6  12
ATOM     12  O   UNL     1      34.175  24.728  17.269  1.00  0.00    -0.508 OA
ATOM     13  H   UNL     1      35.008  24.262  16.929  1.00  0.00     0.293 HD
ENDBRANCH   6  12
TORSDOF 3
ENDMDL
MODEL 2
REMARK VINA RESULT:    -6.423      0.999      1.416
REMARK INTER + INTRA:          -7.576
REMARK INTER:                  -7.323
REMARK INTRA:                  -0.253
REMARK UNBOUND:                -0.215
REMARK SMILES O=C([O-])C=Cc1ccc(O)cc1
REMARK SMILES IDX 6 1 7 2 12 3 8 4 11 5 9 6 5 7 4 8 2 9 1 10 3 11 10 12
REMARK H PARENT 10 13
REMARK Flexibility Score: inf
ROOT
ATOM      1  C   UNL     1      34.408  26.194  21.023  1.00  0.00    -0.025 A 
ATOM      2  C   UNL     1      33.640  27.269  20.555  1.00  0.00     0.012 A 
ATOM      3  C   UNL     1      34.763  25.164  20.134  1.00  0.00     0.012 A 
ATOM      4  C   UNL     1      33.275  27.344  19.207  1.00  0.00     0.047 A 
ATOM      5  C   UNL     1      34.398  25.240  18.786  1.00  0.00     0.047 A 
ATOM      6  C   UNL     1      33.656  26.332  18.318  1.00  0.00     0.115 A 
ENDROOT
BRANCH   1   7
ATOM      7  C   UNL     1      34.735  26.110  22.461  1.00  0.00     0.010 C 
ATOM      8  C   UNL     1      35.836  26.618  23.038  1.00  0.00     0.025 C 
BRANCH   8   9
ATOM      9  C   UNL     1      36.812  27.508  22.382  1.00  0.00     0.064 C 
ATOM     10  O   UNL     1      37.990  27.103  22.205  1.00  0.00    -0.545 OA
ATOM     11  O   UNL     1      36.482  28.809  22.022  1.00  0.00    -0.545 OA
ENDBRANCH   8   9
ENDBRANCH   1   7
BRANCH   6  12
ATOM     12  O   UNL     1      33.288  26.420  16.977  1.00  0.00    -0.508 OA
ATOM     13  H   UNL     1      33.850  26.929  16.306  1.00  0.00     0.293 HD
ENDBRANCH   6  12
TORSDOF 3
ENDMDL
MODEL 3
REMARK VINA RESULT:    -6.309      1.383      1.916
REMARK INTER + INTRA:          -7.446
REMARK INTER:                  -7.869
REMARK INTRA:                   0.423
REMARK UNBOUND:                -0.215
REMARK SMILES O=C([O-])C=Cc1ccc(O)cc1
REMARK SMILES IDX 6 1 7 2 12 3 8 4 11 5 9 6 5 7 4 8 2 9 1 10 3 11 10 12
REMARK H PARENT 10 13
REMARK Flexibility Score: inf
ROOT
ATOM      1  C   UNL     1      33.502  27.015  19.593  1.00  0.00    -0.025 A 
ATOM      2  C   UNL     1      33.132  27.574  18.362  1.00  0.00     0.012 A 
ATOM      3  C   UNL     1      34.019  25.707  19.628  1.00  0.00     0.012 A 
ATOM      4  C   UNL     1      33.322  26.859  17.176  1.00  0.00     0.047 A 
ATOM      5  C   UNL     1      34.210  24.994  18.440  1.00  0.00     0.047 A 
ATOM      6  C   UNL     1      33.864  25.570  17.210  1.00  0.00     0.115 A 
ENDROOT
BRANCH   1   7
ATOM      7  C   UNL     1      33.242  27.768  20.837  1.00  0.00     0.010 C 
ATOM      8  C   UNL     1      33.848  27.554  22.016  1.00  0.00     0.025 C 
BRANCH   8   9
ATOM      9  C   UNL     1      35.008  26.669  22.234  1.00  0.00     0.064 C 
ATOM     10  O   UNL     1      34.843  25.576  22.834  1.00  0.00    -0.545 OA
ATOM     11  O   UNL     1      36.291  27.048  21.856  1.00  0.00    -0.545 OA
ENDBRANCH   8   9
ENDBRANCH   1   7
BRANCH   6  12
ATOM     12  O   UNL     1      34.051  24.869  16.020  1.00  0.00    -0.508 OA
ATOM     13  H   UNL     1      33.280  24.410  15.550  1.00  0.00     0.293 HD
ENDBRANCH   6  12
TORSDOF 3
ENDMDL
MODEL 4
REMARK VINA RESULT:    -6.233      2.252      2.757
REMARK INTER + INTRA:          -7.359
REMARK INTER:                  -7.133
REMARK INTRA:                  -0.226
REMARK UNBOUND:                -0.215
REMARK SMILES O=C([O-])C=Cc1ccc(O)cc1
REMARK SMILES IDX 6 1 7 2 12 3 8 4 11 5 9 6 5 7 4 8 2 9 1 10 3 11 10 12
REMARK H PARENT 10 13
REMARK Flexibility Score: inf
ROOT
ATOM      1  C   UNL     1      34.953  26.329  20.857  1.00  0.00    -0.025 A 
ATOM      2  C   UNL     1      35.170  25.122  20.177  1.00  0.00     0.012 A 
ATOM      3  C   UNL     1      33.934  27.192  20.417  1.00  0.00     0.012 A 
ATOM      4  C   UNL     1      34.348  24.756  19.107  1.00  0.00     0.047 A 
ATOM      5  C   UNL     1      33.112  26.824  19.346  1.00  0.00     0.047 A 
ATOM      6  C   UNL     1      33.316  25.603  18.690  1.00  0.00     0.115 A 
ENDROOT
BRANCH   1   7
ATOM      7  C   UNL     1      35.867  26.718  21.950  1.00  0.00     0.010 C 
ATOM      8  C   UNL     1      35.668  26.470  23.255  1.00  0.00     0.025 C 
BRANCH   8   9
ATOM      9  C   UNL     1      34.609  25.606  23.809  1.00  0.00     0.064 C 
ATOM     10  O   UNL     1      33.780  26.093  24.620  1.00  0.00    -0.545 OA
ATOM     11  O   UNL     1      34.550  24.249  23.513  1.00  0.00    -0.545 OA
ENDBRANCH   8   9
ENDBRANCH   1   7
BRANCH   6  12
ATOM     12  O   UNL     1      32.504  25.225  17.623  1.00  0.00    -0.508 OA
ATOM     13  H   UNL     1      31.710  24.609  17.754  1.00  0.00     0.293 HD
ENDBRANCH   6  12
TORSDOF 3
ENDMDL
MODEL 5
REMARK VINA RESULT:    -6.019      3.167      3.844
REMARK INTER + INTRA:          -7.113
REMARK INTER:                  -7.419
REMARK INTRA:                   0.306
REMARK UNBOUND:                -0.215
REMARK SMILES O=C([O-])C=Cc1ccc(O)cc1
REMARK SMILES IDX 6 1 7 2 12 3 8 4 11 5 9 6 5 7 4 8 2 9 1 10 3 11 10 12
REMARK H PARENT 10 13
REMARK Flexibility Score: inf
ROOT
ATOM      1  C   UNL     1      33.793  26.901  19.438  1.00  0.00    -0.025 A 
ATOM      2  C   UNL     1      34.295  25.696  19.948  1.00  0.00     0.012 A 
ATOM      3  C   UNL     1      33.350  26.952  18.105  1.00  0.00     0.012 A 
ATOM      4  C   UNL     1      34.307  24.544  19.156  1.00  0.00     0.047 A 
ATOM      5  C   UNL     1      33.361  25.799  17.314  1.00  0.00     0.047 A 
ATOM      6  C   UNL     1      33.837  24.591  17.839  1.00  0.00     0.115 A 
ENDROOT
BRANCH   1   7
ATOM      7  C   UNL     1      33.840  28.117  20.276  1.00  0.00     0.010 C 
ATOM      8  C   UNL     1      32.981  29.146  20.202  1.00  0.00     0.025 C 
BRANCH   8   9
ATOM      9  C   UNL     1      31.734  29.164  19.414  1.00  0.00     0.064 C 
ATOM     10  O   UNL     1      30.744  28.499  19.814  1.00  0.00    -0.545 OA
ATOM     11  O   UNL     1      31.651  29.839  18.202  1.00  0.00    -0.545 OA
ENDBRANCH   8   9
ENDBRANCH   1   7
BRANCH   6  12
ATOM     12  O   UNL     1      33.852  23.435  17.062  1.00  0.00    -0.508 OA
ATOM     13  H   UNL     1      34.110  22.536  17.453  1.00  0.00     0.293 HD
ENDBRANCH   6  12
TORSDOF 3
ENDMDL
MODEL 6
REMARK VINA RESULT:    -5.993      2.621      3.601
REMARK INTER + INTRA:          -7.084
REMARK INTER:                  -8.044
REMARK INTRA:                   0.960
REMARK UNBOUND:                -0.215
REMARK SMILES O=C([O-])C=Cc1ccc(O)cc1
REMARK SMILES IDX 6 1 7 2 12 3 8 4 11 5 9 6 5 7 4 8 2 9 1 10 3 11 10 12
REMARK H PARENT 10 13
REMARK Flexibility Score: inf
ROOT
ATOM      1  C   UNL     1      33.643  26.292  18.219  1.00  0.00    -0.025 A 
ATOM      2  C   UNL     1      33.195  27.541  17.768  1.00  0.00     0.012 A 
ATOM      3  C   UNL     1      33.739  25.225  17.308  1.00  0.00     0.012 A 
ATOM      4  C   UNL     1      32.897  27.739  16.416  1.00  0.00     0.047 A 
ATOM      5  C   UNL     1      33.441  25.424  15.956  1.00  0.00     0.047 A 
ATOM      6  C   UNL     1      33.023  26.683  15.506  1.00  0.00     0.115 A 
ENDROOT
BRANCH   1   7
ATOM      7  C   UNL     1      33.900  26.093  19.660  1.00  0.00     0.010 C 
ATOM      8  C   UNL     1      33.735  27.024  20.614  1.00  0.00     0.025 C 
BRANCH   8   9
ATOM      9  C   UNL     1      33.093  28.338  20.426  1.00  0.00     0.064 C 
ATOM     10  O   UNL     1      33.789  29.381  20.516  1.00  0.00    -0.545 OA
ATOM     11  O   UNL     1      31.722  28.453  20.223  1.00  0.00    -0.545 OA
ENDBRANCH   8   9
ENDBRANCH   1   7
BRANCH   6  12
ATOM     12  O   UNL     1      32.725  26.894  14.162  1.00  0.00    -0.508 OA
ATOM     13  H   UNL     1      33.420  26.755  13.437  1.00  0.00     0.293 HD
ENDBRANCH   6  12
TORSDOF 3
ENDMDL
MODEL 7
REMARK VINA RESULT:    -5.962      2.282      3.290
REMARK INTER + INTRA:          -7.048
REMARK INTER:                  -7.411
REMARK INTRA:                   0.363
REMARK UNBOUND:                -0.215
REMARK SMILES O=C([O-])C=Cc1ccc(O)cc1
REMARK SMILES IDX 6 1 7 2 12 3 8 4 11 5 9 6 5 7 4 8 2 9 1 10 3 11 10 12
REMARK H PARENT 10 13
REMARK Flexibility Score: inf
ROOT
ATOM      1  C   UNL     1      33.606  26.453  19.238  1.00  0.00    -0.025 A 
ATOM      2  C   UNL     1      33.592  26.735  17.865  1.00  0.00     0.012 A 
ATOM      3  C   UNL     1      32.997  27.352  20.131  1.00  0.00     0.012 A 
ATOM      4  C   UNL     1      32.934  27.871  17.383  1.00  0.00     0.047 A 
ATOM      5  C   UNL     1      32.338  28.488  19.648  1.00  0.00     0.047 A 
ATOM      6  C   UNL     1      32.303  28.748  18.272  1.00  0.00     0.115 A 
ENDROOT
BRANCH   1   7
ATOM      7  C   UNL     1      34.353  25.276  19.727  1.00  0.00     0.010 C 
ATOM      8  C   UNL     1      35.119  25.245  20.829  1.00  0.00     0.025 C 
BRANCH   8   9
ATOM      9  C   UNL     1      35.200  26.311  21.845  1.00  0.00     0.064 C 
ATOM     10  O   UNL     1      36.068  27.214  21.721  1.00  0.00    -0.545 OA
ATOM     11  O   UNL     1      34.389  26.302  22.974  1.00  0.00    -0.545 OA
ENDBRANCH   8   9
ENDBRANCH   1   7
BRANCH   6  12
ATOM     12  O   UNL     1      31.649  29.875  17.779  1.00  0.00    -0.508 OA
ATOM     13  H   UNL     1      31.393  30.647  18.384  1.00  0.00     0.293 HD
ENDBRANCH   6  12
TORSDOF 3
ENDMDL
MODEL 8
REMARK VINA RESULT:    -5.962      3.490      4.577
REMARK INTER + INTRA:          -7.048
REMARK INTER:                  -7.748
REMARK INTRA:                   0.700
REMARK UNBOUND:                -0.215
REMARK SMILES O=C([O-])C=Cc1ccc(O)cc1
REMARK SMILES IDX 6 1 7 2 12 3 8 4 11 5 9 6 5 7 4 8 2 9 1 10 3 11 10 12
REMARK H PARENT 10 13
REMARK Flexibility Score: inf
ROOT
ATOM      1  C   UNL     1      32.844  27.993  16.797  1.00  0.00    -0.025 A 
ATOM      2  C   UNL     1      33.267  27.363  17.976  1.00  0.00     0.012 A 
ATOM      3  C   UNL     1      32.851  27.270  15.591  1.00  0.00     0.012 A 
ATOM      4  C   UNL     1      33.643  26.017  17.963  1.00  0.00     0.047 A 
ATOM      5  C   UNL     1      33.227  25.923  15.579  1.00  0.00     0.047 A 
ATOM      6  C   UNL     1      33.621  25.292  16.766  1.00  0.00     0.115 A 
ENDROOT
BRANCH   1   7
ATOM      7  C   UNL     1      32.503  29.430  16.826  1.00  0.00     0.010 C 
ATOM      8  C   UNL     1      32.102  30.111  17.911  1.00  0.00     0.025 C 
BRANCH   8   9
ATOM      9  C   UNL     1      32.114  29.600  19.295  1.00  0.00     0.064 C 
ATOM     10  O   UNL     1      31.092  29.020  19.745  1.00  0.00    -0.545 OA
ATOM     11  O   UNL     1      33.200  29.809  20.136  1.00  0.00    -0.545 OA
ENDBRANCH   8   9
ENDBRANCH   1   7
BRANCH   6  12
ATOM     12  O   UNL     1      33.995  23.950  16.767  1.00  0.00    -0.508 OA
ATOM     13  H   UNL     1      33.363  23.223  16.453  1.00  0.00     0.293 HD
ENDBRANCH   6  12
TORSDOF 3
ENDMDL
MODEL 9
REMARK VINA RESULT:    -5.925      3.350      4.320
REMARK INTER + INTRA:          -7.006
REMARK INTER:                  -7.599
REMARK INTRA:                   0.593
REMARK UNBOUND:                -0.215
REMARK SMILES O=C([O-])C=Cc1ccc(O)cc1
REMARK SMILES IDX 6 1 7 2 12 3 8 4 11 5 9 6 5 7 4 8 2 9 1 10 3 11 10 12
REMARK H PARENT 10 13
REMARK Flexibility Score: inf
ROOT
ATOM      1  C   UNL     1      33.136  27.497  17.059  1.00  0.00    -0.025 A 
ATOM      2  C   UNL     1      33.037  26.701  15.909  1.00  0.00     0.012 A 
ATOM      3  C   UNL     1      33.456  26.894  18.288  1.00  0.00     0.012 A 
ATOM      4  C   UNL     1      33.306  25.330  15.973  1.00  0.00     0.047 A 
ATOM      5  C   UNL     1      33.726  25.522  18.351  1.00  0.00     0.047 A 
ATOM      6  C   UNL     1      33.654  24.738  17.192  1.00  0.00     0.115 A 
ENDROOT
BRANCH   1   7
ATOM      7  C   UNL     1      32.795  28.932  16.976  1.00  0.00     0.010 C 
ATOM      8  C   UNL     1      32.226  29.653  17.956  1.00  0.00     0.025 C 
BRANCH   8   9
ATOM      9  C   UNL     1      32.015  29.197  19.342  1.00  0.00     0.064 C 
ATOM     10  O   UNL     1      32.928  29.368  20.191  1.00  0.00    -0.545 OA
ATOM     11  O   UNL     1      30.862  28.517  19.715  1.00  0.00    -0.545 OA
ENDBRANCH   8   9
ENDBRANCH   1   7
BRANCH   6  12
ATOM     12  O   UNL     1      33.921  23.371  17.242  1.00  0.00    -0.508 OA
ATOM     13  H   UNL     1      34.228  22.861  16.422  1.00  0.00     0.293 HD
ENDBRANCH   6  12
TORSDOF 3
ENDMDL
