MODEL 1
REMARK VINA RESULT:    -4.191      0.000      0.000
REMARK INTER + INTRA:          -5.027
REMARK INTER:                  -4.926
REMARK INTRA:                  -0.101
REMARK UNBOUND:                -0.101
REMARK SMILES O=C([O-])CCC(=O)[O-]
REMARK SMILES IDX 4 1 2 2 1 3 3 4 5 5 6 6 7 7 8 8
REMARK H PARENT
REMARK Flexibility Score: inf
ROOT
ATOM      1  C   UNL     1      88.530  -6.568  -6.366  1.00  0.00     0.059 C 
ENDROOT
BRANCH   1   2
ATOM      2  C   UNL     1      88.526  -5.132  -5.935  1.00  0.00     0.042 C 
ATOM      3  O   UNL     1      88.506  -4.839  -4.710  1.00  0.00    -0.550 OA
ATOM      4  O   UNL     1      88.585  -4.120  -6.885  1.00  0.00    -0.550 OA
ENDBRANCH   1   2
BRANCH   1   5
ATOM      5  C   UNL     1      89.770  -7.308  -5.851  1.00  0.00     0.059 C 
BRANCH   5   6
ATOM      6  C   UNL     1      89.423  -8.283  -4.768  1.00  0.00     0.042 C 
ATOM      7  O   UNL     1      88.842  -9.363  -5.050  1.00  0.00    -0.550 OA
ATOM      8  O   UNL     1      89.778  -8.016  -3.451  1.00  0.00    -0.550 OA
ENDBRANCH   5   6
ENDBRANCH   1   5
TORSDOF 3
ENDMDL
MODEL 2
REMARK VINA RESULT:    -4.183     20.037     21.071
REMARK INTER + INTRA:          -5.018
REMARK INTER:                  -4.935
REMARK INTRA:                  -0.083
REMARK UNBOUND:                -0.101
REMARK SMILES O=C([O-])CCC(=O)[O-]
REMARK SMILES IDX 4 1 2 2 1 3 3 4 5 5 6 6 7 7 8 8
REMARK H PARENT
REMARK Flexibility Score: inf
ROOT
ATOM      1  C   UNL     1      92.787   7.409  10.264  1.00  0.00     0.059 C 
ENDROOT
BRANCH   1   2
ATOM      2  C   UNL     1      91.827   6.624  11.106  1.00  0.00     0.042 C 
ATOM      3  O   UNL     1      91.789   6.800  12.353  1.00  0.00    -0.550 OA
ATOM      4  O   UNL     1      90.948   5.729  10.510  1.00  0.00    -0.550 OA
ENDBRANCH   1   2
BRANCH   1   5
ATOM      5  C   UNL     1      94.237   6.975  10.506  1.00  0.00     0.059 C 
BRANCH   5   6
ATOM      6  C   UNL     1      94.844   6.368   9.278  1.00  0.00     0.042 C 
ATOM      7  O   UNL     1      94.360   5.316   8.786  1.00  0.00    -0.550 OA
ATOM      8  O   UNL     1      95.920   6.988   8.654  1.00  0.00    -0.550 OA
ENDBRANCH   5   6
ENDBRANCH   1   5
TORSDOF 3
ENDMDL
MODEL 3
REMARK VINA RESULT:    -4.175      0.108      4.023
REMARK INTER + INTRA:          -5.008
REMARK INTER:                  -4.926
REMARK INTRA:                  -0.082
REMARK UNBOUND:                -0.101
REMARK SMILES O=C([O-])CCC(=O)[O-]
REMARK SMILES IDX 4 1 2 2 1 3 3 4 5 5 6 6 7 7 8 8
REMARK H PARENT
REMARK Flexibility Score: inf
ROOT
ATOM      1  C   UNL     1      89.772  -7.326  -5.726  1.00  0.00     0.059 C 
ENDROOT
BRANCH   1   2
ATOM      2  C   UNL     1      89.432  -8.345  -4.680  1.00  0.00     0.042 C 
ATOM      3  O   UNL     1      88.834  -9.406  -5.001  1.00  0.00    -0.550 OA
ATOM      4  O   UNL     1      89.811  -8.141  -3.360  1.00  0.00    -0.550 OA
ENDBRANCH   1   2
BRANCH   1   5
ATOM      5  C   UNL     1      88.518  -6.619  -6.254  1.00  0.00     0.059 C 
BRANCH   5   6
ATOM      6  C   UNL     1      88.523  -5.159  -5.917  1.00  0.00     0.042 C 
ATOM      7  O   UNL     1      88.449  -4.786  -4.718  1.00  0.00    -0.550 OA
ATOM      8  O   UNL     1      88.653  -4.212  -6.926  1.00  0.00    -0.550 OA
ENDBRANCH   5   6
ENDBRANCH   1   5
TORSDOF 3
ENDMDL
MODEL 4
REMARK VINA RESULT:    -4.165     20.098     21.138
REMARK INTER + INTRA:          -4.997
REMARK INTER:                  -4.907
REMARK INTRA:                  -0.089
REMARK UNBOUND:                -0.101
REMARK SMILES O=C([O-])CCC(=O)[O-]
REMARK SMILES IDX 4 1 2 2 1 3 3 4 5 5 6 6 7 7 8 8
REMARK H PARENT
REMARK Flexibility Score: inf
ROOT
ATOM      1  C   UNL     1      94.213   7.050  10.532  1.00  0.00     0.059 C 
ENDROOT
BRANCH   1   2
ATOM      2  C   UNL     1      94.817   6.336   9.361  1.00  0.00     0.042 C 
ATOM      3  O   UNL     1      94.361   5.219   8.997  1.00  0.00    -0.550 OA
ATOM      4  O   UNL     1      95.854   6.921   8.647  1.00  0.00    -0.550 OA
ENDBRANCH   1   2
BRANCH   1   5
ATOM      5  C   UNL     1      92.752   7.432  10.268  1.00  0.00     0.059 C 
BRANCH   5   6
ATOM      6  C   UNL     1      91.810   6.640  11.122  1.00  0.00     0.042 C 
ATOM      7  O   UNL     1      91.788   6.812  12.369  1.00  0.00    -0.550 OA
ATOM      8  O   UNL     1      90.928   5.739  10.537  1.00  0.00    -0.550 OA
ENDBRANCH   5   6
ENDBRANCH   1   5
TORSDOF 3
ENDMDL
MODEL 5
REMARK VINA RESULT:    -4.152     20.028     21.083
REMARK INTER + INTRA:          -4.981
REMARK INTER:                  -4.905
REMARK INTRA:                  -0.076
REMARK UNBOUND:                -0.101
REMARK SMILES O=C([O-])CCC(=O)[O-]
REMARK SMILES IDX 4 1 2 2 1 3 3 4 5 5 6 6 7 7 8 8
REMARK H PARENT
REMARK Flexibility Score: inf
ROOT
ATOM      1  C   UNL     1      92.712   7.430  10.275  1.00  0.00     0.059 C 
ENDROOT
BRANCH   1   2
ATOM      2  C   UNL     1      91.743   6.666  11.126  1.00  0.00     0.042 C 
ATOM      3  O   UNL     1      91.744   6.816  12.377  1.00  0.00    -0.550 OA
ATOM      4  O   UNL     1      90.814   5.820  10.535  1.00  0.00    -0.550 OA
ENDBRANCH   1   2
BRANCH   1   5
ATOM      5  C   UNL     1      94.158   6.988  10.529  1.00  0.00     0.059 C 
BRANCH   5   6
ATOM      6  C   UNL     1      94.763   6.352   9.315  1.00  0.00     0.042 C 
ATOM      7  O   UNL     1      95.725   6.905   8.722  1.00  0.00    -0.550 OA
ATOM      8  O   UNL     1      94.290   5.125   8.864  1.00  0.00    -0.550 OA
ENDBRANCH   5   6
ENDBRANCH   1   5
TORSDOF 3
ENDMDL
MODEL 6
REMARK VINA RESULT:    -4.088     20.434     21.373
REMARK INTER + INTRA:          -4.907
REMARK INTER:                  -4.872
REMARK INTRA:                  -0.034
REMARK UNBOUND:                -0.101
REMARK SMILES O=C([O-])CCC(=O)[O-]
REMARK SMILES IDX 4 1 2 2 1 3 3 4 5 5 6 6 7 7 8 8
REMARK H PARENT
REMARK Flexibility Score: inf
ROOT
ATOM      1  C   UNL     1      93.431   6.169  10.101  1.00  0.00     0.059 C 
ENDROOT
BRANCH   1   2
ATOM      2  C   UNL     1      94.754   6.870  10.027  1.00  0.00     0.042 C 
ATOM      3  O   UNL     1      95.212   7.465  11.038  1.00  0.00    -0.550 OA
ATOM      4  O   UNL     1      95.498   6.831   8.855  1.00  0.00    -0.550 OA
ENDBRANCH   1   2
BRANCH   1   5
ATOM      5  C   UNL     1      92.315   7.115  10.560  1.00  0.00     0.059 C 
BRANCH   5   6
ATOM      6  C   UNL     1      91.203   6.371  11.234  1.00  0.00     0.042 C 
ATOM      7  O   UNL     1      90.870   6.660  12.412  1.00  0.00    -0.550 OA
ATOM      8  O   UNL     1      90.506   5.386  10.544  1.00  0.00    -0.550 OA
ENDBRANCH   5   6
ENDBRANCH   1   5
TORSDOF 3
ENDMDL
MODEL 7
REMARK VINA RESULT:    -3.649      9.980     10.875
REMARK INTER + INTRA:          -4.391
REMARK INTER:                  -4.206
REMARK INTRA:                  -0.185
REMARK UNBOUND:                -0.101
REMARK SMILES O=C([O-])CCC(=O)[O-]
REMARK SMILES IDX 4 1 2 2 1 3 3 4 5 5 6 6 7 7 8 8
REMARK H PARENT
REMARK Flexibility Score: inf
ROOT
ATOM      1  C   UNL     1      81.330  -3.351   2.733  1.00  0.00     0.059 C 
ENDROOT
BRANCH   1   2
ATOM      2  C   UNL     1      82.764  -2.915   2.700  1.00  0.00     0.042 C 
ATOM      3  O   UNL     1      83.687  -3.773   2.725  1.00  0.00    -0.550 OA
ATOM      4  O   UNL     1      83.081  -1.567   2.601  1.00  0.00    -0.550 OA
ENDBRANCH   1   2
BRANCH   1   5
ATOM      5  C   UNL     1      80.572  -2.892   1.482  1.00  0.00     0.059 C 
BRANCH   5   6
ATOM      6  C   UNL     1      81.222  -3.391   0.228  1.00  0.00     0.042 C 
ATOM      7  O   UNL     1      81.292  -4.626  -0.001  1.00  0.00    -0.550 OA
ATOM      8  O   UNL     1      81.713  -2.489  -0.709  1.00  0.00    -0.550 OA
ENDBRANCH   5   6
ENDBRANCH   1   5
TORSDOF 3
ENDMDL
MODEL 8
REMARK VINA RESULT:    -3.637      9.956     10.731
REMARK INTER + INTRA:          -4.377
REMARK INTER:                  -4.196
REMARK INTRA:                  -0.180
REMARK UNBOUND:                -0.101
REMARK SMILES O=C([O-])CCC(=O)[O-]
REMARK SMILES IDX 4 1 2 2 1 3 3 4 5 5 6 6 7 7 8 8
REMARK H PARENT
REMARK Flexibility Score: inf
ROOT
ATOM      1  C   UNL     1      80.592  -2.959   1.498  1.00  0.00     0.059 C 
ENDROOT
BRANCH   1   2
ATOM      2  C   UNL     1      81.231  -3.466   0.240  1.00  0.00     0.042 C 
ATOM      3  O   UNL     1      81.349  -4.704   0.044  1.00  0.00    -0.550 OA
ATOM      4  O   UNL     1      81.657  -2.571  -0.734  1.00  0.00    -0.550 OA
ENDBRANCH   1   2
BRANCH   1   5
ATOM      5  C   UNL     1      81.386  -3.374   2.741  1.00  0.00     0.059 C 
BRANCH   5   6
ATOM      6  C   UNL     1      82.809  -2.910   2.669  1.00  0.00     0.042 C 
ATOM      7  O   UNL     1      83.750  -3.745   2.684  1.00  0.00    -0.550 OA
ATOM      8  O   UNL     1      83.093  -1.555   2.544  1.00  0.00    -0.550 OA
ENDBRANCH   5   6
ENDBRANCH   1   5
TORSDOF 3
ENDMDL
MODEL 9
REMARK VINA RESULT:    -3.620     16.249     17.379
REMARK INTER + INTRA:          -4.356
REMARK INTER:                  -4.170
REMARK INTRA:                  -0.187
REMARK UNBOUND:                -0.101
REMARK SMILES O=C([O-])CCC(=O)[O-]
REMARK SMILES IDX 4 1 2 2 1 3 3 4 5 5 6 6 7 7 8 8
REMARK H PARENT
REMARK Flexibility Score: inf
ROOT
ATOM      1  C   UNL     1      96.342  -4.509  10.871  1.00  0.00     0.059 C 
ENDROOT
BRANCH   1   2
ATOM      2  C   UNL     1      96.438  -3.040  11.155  1.00  0.00     0.042 C 
ATOM      3  O   UNL     1      95.762  -2.531  12.088  1.00  0.00    -0.550 OA
ATOM      4  O   UNL     1      97.302  -2.243  10.415  1.00  0.00    -0.550 OA
ENDBRANCH   1   2
BRANCH   1   5
ATOM      5  C   UNL     1      94.920  -4.916  10.470  1.00  0.00     0.059 C 
BRANCH   5   6
ATOM      6  C   UNL     1      94.455  -4.174   9.254  1.00  0.00     0.042 C 
ATOM      7  O   UNL     1      93.421  -3.459   9.305  1.00  0.00    -0.550 OA
ATOM      8  O   UNL     1      95.189  -4.239   8.076  1.00  0.00    -0.550 OA
ENDBRANCH   5   6
ENDBRANCH   1   5
TORSDOF 3
ENDMDL
