MODEL 1
REMARK VINA RESULT:     3.872      0.000      0.000
REMARK INTER + INTRA:           4.243
REMARK INTER:                   4.551
REMARK INTRA:                  -0.308
REMARK UNBOUND:                -0.308
REMARK SMILES O=c1c(O)c(-c2ccc(O)c(O)c2)oc2cc(O)ccc12
REMARK SMILES IDX 5 1 3 2 2 3 1 4 21 5 15 6 14 7 16 8 17 9 19 10 20 11 6 12
REMARK SMILES IDX 7 13 8 14 9 15 13 16 11 17 10 18 12 20 4 22 18 24
REMARK H PARENT 10 19 12 21 4 23 18 25
REMARK Flexibility Score: inf
ROOT
ATOM      1  C   UNL     1      -8.766  -3.210  10.345  1.00  0.00     0.180 A 
ATOM      2  C   UNL     1     -10.165  -3.147  10.518  1.00  0.00     0.208 A 
ATOM      3  C   UNL     1     -10.873  -4.337  10.748  1.00  0.00     0.235 A 
ATOM      4  O   UNL     1     -12.125  -4.308  10.896  1.00  0.00    -0.285 OA
ATOM      5  C   UNL     1     -10.173  -5.552  10.820  1.00  0.00     0.069 A 
ATOM      6  C   UNL     1      -8.772  -5.528  10.660  1.00  0.00     0.142 A 
ATOM      7  O   UNL     1      -8.141  -4.381  10.435  1.00  0.00    -0.452 OA
ATOM      8  C   UNL     1      -8.038  -6.718  10.734  1.00  0.00     0.094 A 
ATOM      9  C   UNL     1      -8.691  -7.936  10.967  1.00  0.00     0.119 A 
ATOM     10  C   UNL     1     -10.081  -7.962  11.125  1.00  0.00     0.047 A 
ATOM     11  C   UNL     1     -10.822  -6.779  11.053  1.00  0.00     0.020 A 
ENDROOT
BRANCH   1  12
ATOM     12  C   UNL     1      -7.952  -2.002  10.080  1.00  0.00     0.025 A 
ATOM     13  C   UNL     1      -7.331  -1.294  11.125  1.00  0.00     0.016 A 
ATOM     14  C   UNL     1      -6.587  -0.143  10.852  1.00  0.00     0.051 A 
ATOM     15  C   UNL     1      -6.461   0.325   9.541  1.00  0.00     0.157 A 
ATOM     16  C   UNL     1      -7.840  -1.518   8.767  1.00  0.00     0.062 A 
ATOM     17  C   UNL     1      -7.093  -0.363   8.491  1.00  0.00     0.158 A 
BRANCH  15  18
ATOM     18  O   UNL     1      -5.710   1.475   9.300  1.00  0.00    -0.504 OA
ATOM     19  H   UNL     1      -4.701   1.486   9.389  1.00  0.00     0.293 HD
ENDBRANCH  15  18
BRANCH  17  20
ATOM     20  O   UNL     1      -6.979   0.101   7.182  1.00  0.00    -0.504 OA
ATOM     21  H   UNL     1      -6.362   0.869   6.944  1.00  0.00     0.293 HD
ENDBRANCH  17  20
ENDBRANCH   1  12
BRANCH   2  22
ATOM     22  O   UNL     1     -10.826  -1.917  10.491  1.00  0.00    -0.502 OA
ATOM     23  H   UNL     1     -11.775  -1.819  10.146  1.00  0.00     0.293 HD
ENDBRANCH   2  22
BRANCH   9  24
ATOM     24  O   UNL     1      -7.969  -9.124  11.042  1.00  0.00    -0.508 OA
ATOM     25  H   UNL     1      -7.721  -9.647  10.210  1.00  0.00     0.293 HD
ENDBRANCH   9  24
TORSDOF 5
ENDMDL
