MODEL 1
REMARK VINA RESULT:    -5.754      0.000      0.000
REMARK INTER + INTRA:         -10.036
REMARK INTER:                  -8.445
REMARK INTRA:                  -1.591
REMARK UNBOUND:                -1.591
REMARK SMILES Cc1cc2c(C(C)C)c(O)c(O)c(C=O)c2c(O)c1-c1c(C)cc2c(C(C)C)c(O)c(O)c(C=O)c2c1O
REMARK SMILES IDX 1 1 2 2 3 3 4 4 16 5 13 6 11 7 9 8 5 9 17 10 19 11 20 12
REMARK SMILES IDX 37 13 21 14 36 15 23 16 22 17 24 18 33 19 25 20 31 21 29 22
REMARK SMILES IDX 38 23 34 25 35 26 26 27 27 28 28 29 32 30 30 32 18 34 6 36
REMARK SMILES IDX 7 37 8 38 14 39 15 40 10 41 12 43
REMARK H PARENT 38 24 32 31 30 33 18 35 10 42 12 44
REMARK Flexibility Score: inf
ROOT
ATOM      1  C   UNL     1      67.989  28.489  62.023  1.00  0.00     0.045 C 
ATOM      2  C   UNL     1      68.302  28.839  60.588  1.00  0.00    -0.039 A 
ATOM      3  C   UNL     1      69.582  29.283  60.254  1.00  0.00     0.013 A 
ATOM      4  C   UNL     1      69.945  29.607  58.930  1.00  0.00    -0.006 A 
ATOM      5  C   UNL     1      68.959  29.476  57.903  1.00  0.00     0.039 A 
ATOM      6  C   UNL     1      69.330  29.728  56.552  1.00  0.00     0.072 A 
ATOM      7  C   UNL     1      70.601  30.246  56.256  1.00  0.00     0.169 A 
ATOM      8  C   UNL     1      71.529  30.492  57.282  1.00  0.00     0.162 A 
ATOM      9  C   UNL     1      71.259  30.082  58.609  1.00  0.00     0.008 A 
ATOM     10  C   UNL     1      67.624  29.126  58.266  1.00  0.00     0.132 A 
ATOM     11  C   UNL     1      67.314  28.769  59.594  1.00  0.00     0.031 A 
ENDROOT
BRANCH  11  12
ATOM     12  C   UNL     1      65.941  28.324  59.952  1.00  0.00     0.031 A 
ATOM     13  C   UNL     1      64.954  29.269  60.306  1.00  0.00     0.132 A 
ATOM     14  C   UNL     1      65.624  26.958  59.909  1.00  0.00    -0.039 A 
ATOM     15  C   UNL     1      63.642  28.842  60.681  1.00  0.00     0.039 A 
ATOM     16  C   UNL     1      64.341  26.537  60.259  1.00  0.00     0.013 A 
ATOM     17  C   UNL     1      66.639  25.937  59.450  1.00  0.00     0.045 C 
ATOM     18  C   UNL     1      63.356  27.442  60.709  1.00  0.00    -0.006 A 
ATOM     19  C   UNL     1      62.597  29.765  60.989  1.00  0.00     0.072 A 
ATOM     20  C   UNL     1      62.077  26.977  61.144  1.00  0.00     0.008 A 
ATOM     21  C   UNL     1      61.298  29.290  61.264  1.00  0.00     0.169 A 
ATOM     22  C   UNL     1      61.037  27.917  61.307  1.00  0.00     0.162 A 
BRANCH  13  23
ATOM     23  O   UNL     1      65.276  30.630  60.272  1.00  0.00    -0.507 OA
ATOM     24  H   UNL     1      65.745  31.120  61.023  1.00  0.00     0.293 HD
ENDBRANCH  13  23
BRANCH  19  25
ATOM     25  C   UNL     1      62.823  31.223  61.014  1.00  0.00     0.264 C 
ATOM     26  O   UNL     1      62.411  31.950  60.071  1.00  0.00    -0.298 OA
ENDBRANCH  19  25
BRANCH  20  27
ATOM     27  C   UNL     1      61.807  25.487  61.418  1.00  0.00     0.017 C 
ATOM     28  C   UNL     1      60.835  24.908  60.386  1.00  0.00     0.012 C 
ATOM     29  C   UNL     1      61.335  25.194  62.856  1.00  0.00     0.012 C 
ENDBRANCH  20  27
BRANCH  21  30
ATOM     30  O   UNL     1      60.239  30.166  61.531  1.00  0.00    -0.504 OA
ATOM     31  H   UNL     1      59.479  30.352  60.891  1.00  0.00     0.293 HD
ENDBRANCH  21  30
BRANCH  22  32
ATOM     32  O   UNL     1      59.728  27.478  61.517  1.00  0.00    -0.504 OA
ATOM     33  H   UNL     1      59.302  26.733  60.979  1.00  0.00     0.293 HD
ENDBRANCH  22  32
ENDBRANCH  11  12
BRANCH  10  34
ATOM     34  O   UNL     1      66.597  29.177  57.316  1.00  0.00    -0.507 OA
ATOM     35  H   UNL     1      66.725  28.967  56.334  1.00  0.00     0.293 HD
ENDBRANCH  10  34
BRANCH   9  36
ATOM     36  C   UNL     1      72.402  30.213  59.639  1.00  0.00     0.017 C 
ATOM     37  C   UNL     1      72.188  31.394  60.598  1.00  0.00     0.012 C 
ATOM     38  C   UNL     1      72.752  28.895  60.363  1.00  0.00     0.012 C 
ENDBRANCH   9  36
BRANCH   6  39
ATOM     39  C   UNL     1      68.458  29.349  55.413  1.00  0.00     0.264 C 
ATOM     40  O   UNL     1      67.862  30.225  54.731  1.00  0.00    -0.298 OA
ENDBRANCH   6  39
BRANCH   8  41
ATOM     41  O   UNL     1      72.732  31.151  57.004  1.00  0.00    -0.504 OA
ATOM     42  H   UNL     1      73.213  31.756  57.656  1.00  0.00     0.293 HD
ENDBRANCH   8  41
BRANCH   7  43
ATOM     43  O   UNL     1      70.940  30.467  54.915  1.00  0.00    -0.504 OA
ATOM     44  H   UNL     1      71.887  30.507  54.567  1.00  0.00     0.293 HD
ENDBRANCH   7  43
TORSDOF 11
ENDMDL
MODEL 2
REMARK VINA RESULT:    -5.562      9.545     14.074
REMARK INTER + INTRA:          -9.754
REMARK INTER:                  -8.148
REMARK INTRA:                  -1.606
REMARK UNBOUND:                -1.591
REMARK SMILES Cc1cc2c(C(C)C)c(O)c(O)c(C=O)c2c(O)c1-c1c(C)cc2c(C(C)C)c(O)c(O)c(C=O)c2c1O
REMARK SMILES IDX 1 1 2 2 3 3 4 4 16 5 13 6 11 7 9 8 5 9 17 10 19 11 20 12
REMARK SMILES IDX 37 13 21 14 36 15 23 16 22 17 24 18 33 19 25 20 31 21 29 22
REMARK SMILES IDX 38 23 34 25 35 26 26 27 27 28 28 29 32 30 30 32 18 34 6 36
REMARK SMILES IDX 7 37 8 38 14 39 15 40 10 41 12 43
REMARK H PARENT 38 24 32 31 30 33 18 35 10 42 12 44
REMARK Flexibility Score: inf
ROOT
ATOM      1  C   UNL     1      60.755  21.789  49.003  1.00  0.00     0.045 C 
ATOM      2  C   UNL     1      60.368  21.533  50.439  1.00  0.00    -0.039 A 
ATOM      3  C   UNL     1      59.788  20.312  50.786  1.00  0.00     0.013 A 
ATOM      4  C   UNL     1      59.421  20.002  52.112  1.00  0.00    -0.006 A 
ATOM      5  C   UNL     1      59.652  20.981  53.128  1.00  0.00     0.039 A 
ATOM      6  C   UNL     1      59.355  20.657  54.482  1.00  0.00     0.072 A 
ATOM      7  C   UNL     1      58.703  19.452  54.791  1.00  0.00     0.169 A 
ATOM      8  C   UNL     1      58.365  18.543  53.774  1.00  0.00     0.162 A 
ATOM      9  C   UNL     1      58.808  18.750  52.446  1.00  0.00     0.008 A 
ATOM     10  C   UNL     1      60.143  22.267  52.751  1.00  0.00     0.132 A 
ATOM     11  C   UNL     1      60.538  22.520  51.421  1.00  0.00     0.031 A 
ENDROOT
BRANCH  11  12
ATOM     12  C   UNL     1      61.128  23.834  51.049  1.00  0.00     0.031 A 
ATOM     13  C   UNL     1      60.294  24.916  50.696  1.00  0.00     0.132 A 
ATOM     14  C   UNL     1      62.521  23.998  51.079  1.00  0.00    -0.039 A 
ATOM     15  C   UNL     1      60.860  26.171  50.307  1.00  0.00     0.039 A 
ATOM     16  C   UNL     1      63.077  25.225  50.716  1.00  0.00     0.013 A 
ATOM     17  C   UNL     1      63.428  22.881  51.536  1.00  0.00     0.045 C 
ATOM     18  C   UNL     1      62.282  26.301  50.266  1.00  0.00    -0.006 A 
ATOM     19  C   UNL     1      60.055  27.310  49.999  1.00  0.00     0.072 A 
ATOM     20  C   UNL     1      62.881  27.518  49.817  1.00  0.00     0.008 A 
ATOM     21  C   UNL     1      60.667  28.547  49.710  1.00  0.00     0.169 A 
ATOM     22  C   UNL     1      62.060  28.654  49.654  1.00  0.00     0.162 A 
BRANCH  13  23
ATOM     23  O   UNL     1      58.906  24.747  50.743  1.00  0.00    -0.507 OA
ATOM     24  H   UNL     1      58.437  23.865  50.581  1.00  0.00     0.293 HD
ENDBRANCH  13  23
BRANCH  19  25
ATOM     25  C   UNL     1      58.580  27.245  49.988  1.00  0.00     0.264 C 
ATOM     26  O   UNL     1      57.913  27.691  50.960  1.00  0.00    -0.298 OA
ENDBRANCH  19  25
BRANCH  20  27
ATOM     27  C   UNL     1      64.390  27.620  49.528  1.00  0.00     0.017 C 
ATOM     28  C   UNL     1      65.099  28.444  50.608  1.00  0.00     0.012 C 
ATOM     29  C   UNL     1      64.720  28.146  48.118  1.00  0.00     0.012 C 
ENDBRANCH  20  27
BRANCH  21  30
ATOM     30  O   UNL     1      59.910  29.694  49.443  1.00  0.00    -0.504 OA
ATOM     31  H   UNL     1      59.779  30.087  48.521  1.00  0.00     0.293 HD
ENDBRANCH  21  30
BRANCH  22  32
ATOM     32  O   UNL     1      62.639  29.906  49.430  1.00  0.00    -0.504 OA
ATOM     33  H   UNL     1      63.239  30.365  50.105  1.00  0.00     0.293 HD
ENDBRANCH  22  32
ENDBRANCH  11  12
BRANCH  10  34
ATOM     34  O   UNL     1      60.198  23.306  53.688  1.00  0.00    -0.507 OA
ATOM     35  H   UNL     1      60.808  24.110  53.606  1.00  0.00     0.293 HD
ENDBRANCH  10  34
BRANCH   9  36
ATOM     36  C   UNL     1      58.561  17.615  51.430  1.00  0.00     0.017 C 
ATOM     37  C   UNL     1      57.470  17.975  50.410  1.00  0.00     0.012 C 
ATOM     38  C   UNL     1      59.846  17.061  50.778  1.00  0.00     0.012 C 
ENDBRANCH   9  36
BRANCH   6  39
ATOM     39  C   UNL     1      59.820  21.498  55.613  1.00  0.00     0.264 C 
ATOM     40  O   UNL     1      59.010  22.195  56.280  1.00  0.00    -0.298 OA
ENDBRANCH   6  39
BRANCH   8  41
ATOM     41  O   UNL     1      57.580  17.421  54.063  1.00  0.00    -0.504 OA
ATOM     42  H   UNL     1      57.522  16.600  53.475  1.00  0.00     0.293 HD
ENDBRANCH   8  41
BRANCH   7  43
ATOM     43  O   UNL     1      58.442  19.156  56.134  1.00  0.00    -0.504 OA
ATOM     44  H   UNL     1      57.547  19.290  56.582  1.00  0.00     0.293 HD
ENDBRANCH   7  43
TORSDOF 11
ENDMDL
MODEL 3
REMARK VINA RESULT:    -5.252      0.528      8.879
REMARK INTER + INTRA:          -9.299
REMARK INTER:                  -7.879
REMARK INTRA:                  -1.421
REMARK UNBOUND:                -1.591
REMARK SMILES Cc1cc2c(C(C)C)c(O)c(O)c(C=O)c2c(O)c1-c1c(C)cc2c(C(C)C)c(O)c(O)c(C=O)c2c1O
REMARK SMILES IDX 1 1 2 2 3 3 4 4 16 5 13 6 11 7 9 8 5 9 17 10 19 11 20 12
REMARK SMILES IDX 37 13 21 14 36 15 23 16 22 17 24 18 33 19 25 20 31 21 29 22
REMARK SMILES IDX 38 23 34 25 35 26 26 27 27 28 28 29 32 30 30 32 18 34 6 36
REMARK SMILES IDX 7 37 8 38 14 39 15 40 10 41 12 43
REMARK H PARENT 38 24 32 31 30 33 18 35 10 42 12 44
REMARK Flexibility Score: inf
ROOT
ATOM      1  C   UNL     1      66.702  26.046  59.638  1.00  0.00     0.045 C 
ATOM      2  C   UNL     1      65.657  27.083  59.973  1.00  0.00    -0.039 A 
ATOM      3  C   UNL     1      64.360  26.675  60.284  1.00  0.00     0.013 A 
ATOM      4  C   UNL     1      63.343  27.591  60.624  1.00  0.00    -0.006 A 
ATOM      5  C   UNL     1      63.663  28.984  60.644  1.00  0.00     0.039 A 
ATOM      6  C   UNL     1      62.668  29.917  61.057  1.00  0.00     0.072 A 
ATOM      7  C   UNL     1      61.353  29.485  61.290  1.00  0.00     0.169 A 
ATOM      8  C   UNL     1      61.011  28.129  61.149  1.00  0.00     0.162 A 
ATOM      9  C   UNL     1      62.011  27.154  60.921  1.00  0.00     0.008 A 
ATOM     10  C   UNL     1      64.959  29.403  60.221  1.00  0.00     0.132 A 
ATOM     11  C   UNL     1      65.959  28.452  59.930  1.00  0.00     0.031 A 
ENDROOT
BRANCH  11  12
ATOM     12  C   UNL     1      67.333  28.892  59.570  1.00  0.00     0.031 A 
ATOM     13  C   UNL     1      67.625  29.319  58.256  1.00  0.00     0.132 A 
ATOM     14  C   UNL     1      68.334  28.907  60.554  1.00  0.00    -0.039 A 
ATOM     15  C   UNL     1      68.952  29.712  57.899  1.00  0.00     0.039 A 
ATOM     16  C   UNL     1      69.627  29.304  60.214  1.00  0.00     0.013 A 
ATOM     17  C   UNL     1      68.025  28.537  61.985  1.00  0.00     0.045 C 
ATOM     18  C   UNL     1      69.980  29.647  58.891  1.00  0.00    -0.006 A 
ATOM     19  C   UNL     1      69.280  30.206  56.600  1.00  0.00     0.072 A 
ATOM     20  C   UNL     1      71.330  29.968  58.551  1.00  0.00     0.008 A 
ATOM     21  C   UNL     1      70.586  30.665  56.331  1.00  0.00     0.169 A 
ATOM     22  C   UNL     1      71.585  30.577  57.304  1.00  0.00     0.162 A 
BRANCH  13  23
ATOM     23  O   UNL     1      66.593  29.362  57.313  1.00  0.00    -0.507 OA
ATOM     24  H   UNL     1      65.892  28.640  57.205  1.00  0.00     0.293 HD
ENDBRANCH  13  23
BRANCH  19  25
ATOM     25  C   UNL     1      68.282  30.272  55.514  1.00  0.00     0.264 C 
ATOM     26  O   UNL     1      67.763  31.374  55.189  1.00  0.00    -0.298 OA
ENDBRANCH  19  25
BRANCH  20  27
ATOM     27  C   UNL     1      72.497  29.681  59.513  1.00  0.00     0.017 C 
ATOM     28  C   UNL     1      72.681  28.174  59.716  1.00  0.00     0.012 C 
ATOM     29  C   UNL     1      72.388  30.417  60.862  1.00  0.00     0.012 C 
ENDBRANCH  20  27
BRANCH  21  30
ATOM     30  O   UNL     1      70.933  31.193  55.081  1.00  0.00    -0.504 OA
ATOM     31  H   UNL     1      71.728  31.797  54.920  1.00  0.00     0.293 HD
ENDBRANCH  21  30
BRANCH  22  32
ATOM     32  O   UNL     1      72.852  31.099  57.031  1.00  0.00    -0.504 OA
ATOM     33  H   UNL     1      73.166  31.323  56.095  1.00  0.00     0.293 HD
ENDBRANCH  22  32
ENDBRANCH  11  12
BRANCH  10  34
ATOM     34  O   UNL     1      65.241  30.764  60.045  1.00  0.00    -0.507 OA
ATOM     35  H   UNL     1      65.141  31.460  60.774  1.00  0.00     0.293 HD
ENDBRANCH  10  34
BRANCH   9  36
ATOM     36  C   UNL     1      61.581  25.672  60.970  1.00  0.00     0.017 C 
ATOM     37  C   UNL     1      61.573  25.024  59.577  1.00  0.00     0.012 C 
ATOM     38  C   UNL     1      62.329  24.834  62.028  1.00  0.00     0.012 C 
ENDBRANCH   9  36
BRANCH   6  39
ATOM     39  C   UNL     1      62.996  31.329  61.371  1.00  0.00     0.264 C 
ATOM     40  O   UNL     1      62.624  32.266  60.616  1.00  0.00    -0.298 OA
ENDBRANCH   6  39
BRANCH   8  41
ATOM     41  O   UNL     1      59.672  27.727  61.229  1.00  0.00    -0.504 OA
ATOM     42  H   UNL     1      58.947  28.033  60.595  1.00  0.00     0.293 HD
ENDBRANCH   8  41
BRANCH   7  43
ATOM     43  O   UNL     1      60.404  30.425  61.711  1.00  0.00    -0.504 OA
ATOM     44  H   UNL     1      60.467  31.416  61.530  1.00  0.00     0.293 HD
ENDBRANCH   7  43
TORSDOF 11
ENDMDL
MODEL 4
REMARK VINA RESULT:    -5.243      9.606     12.310
REMARK INTER + INTRA:          -9.286
REMARK INTER:                  -7.953
REMARK INTRA:                  -1.333
REMARK UNBOUND:                -1.591
REMARK SMILES Cc1cc2c(C(C)C)c(O)c(O)c(C=O)c2c(O)c1-c1c(C)cc2c(C(C)C)c(O)c(O)c(C=O)c2c1O
REMARK SMILES IDX 1 1 2 2 3 3 4 4 16 5 13 6 11 7 9 8 5 9 17 10 19 11 20 12
REMARK SMILES IDX 37 13 21 14 36 15 23 16 22 17 24 18 33 19 25 20 31 21 29 22
REMARK SMILES IDX 38 23 34 25 35 26 26 27 27 28 28 29 32 30 30 32 18 34 6 36
REMARK SMILES IDX 7 37 8 38 14 39 15 40 10 41 12 43
REMARK H PARENT 38 24 32 31 30 33 18 35 10 42 12 44
REMARK Flexibility Score: inf
ROOT
ATOM      1  C   UNL     1      63.333  22.556  51.528  1.00  0.00     0.045 C 
ATOM      2  C   UNL     1      62.387  23.662  51.128  1.00  0.00    -0.039 A 
ATOM      3  C   UNL     1      62.902  24.899  50.739  1.00  0.00     0.013 A 
ATOM      4  C   UNL     1      62.075  25.967  50.336  1.00  0.00    -0.006 A 
ATOM      5  C   UNL     1      60.659  25.766  50.332  1.00  0.00     0.039 A 
ATOM      6  C   UNL     1      59.813  26.809  49.857  1.00  0.00     0.072 A 
ATOM      7  C   UNL     1      60.354  28.067  49.546  1.00  0.00     0.169 A 
ATOM      8  C   UNL     1      61.734  28.301  49.668  1.00  0.00     0.162 A 
ATOM      9  C   UNL     1      62.622  27.238  49.959  1.00  0.00     0.008 A 
ATOM     10  C   UNL     1      60.133  24.538  50.833  1.00  0.00     0.132 A 
ATOM     11  C   UNL     1      60.997  23.481  51.186  1.00  0.00     0.031 A 
ENDROOT
BRANCH  11  12
ATOM     12  C   UNL     1      60.443  22.174  51.628  1.00  0.00     0.031 A 
ATOM     13  C   UNL     1      60.111  21.961  52.983  1.00  0.00     0.132 A 
ATOM     14  C   UNL     1      60.227  21.160  50.682  1.00  0.00    -0.039 A 
ATOM     15  C   UNL     1      59.608  20.694  53.416  1.00  0.00     0.039 A 
ATOM     16  C   UNL     1      59.722  19.927  51.097  1.00  0.00     0.013 A 
ATOM     17  C   UNL     1      60.494  21.394  49.214  1.00  0.00     0.045 C 
ATOM     18  C   UNL     1      59.467  19.645  52.456  1.00  0.00    -0.006 A 
ATOM     19  C   UNL     1      59.204  20.452  54.765  1.00  0.00     0.072 A 
ATOM     20  C   UNL     1      59.032  18.347  52.867  1.00  0.00     0.008 A 
ATOM     21  C   UNL     1      58.630  19.213  55.116  1.00  0.00     0.169 A 
ATOM     22  C   UNL     1      58.517  18.189  54.171  1.00  0.00     0.162 A 
BRANCH  13  23
ATOM     23  O   UNL     1      60.269  23.011  53.893  1.00  0.00    -0.507 OA
ATOM     24  H   UNL     1      60.370  23.982  53.626  1.00  0.00     0.293 HD
ENDBRANCH  13  23
BRANCH  19  25
ATOM     25  C   UNL     1      59.350  21.475  55.820  1.00  0.00     0.264 C 
ATOM     26  O   UNL     1      58.356  22.154  56.194  1.00  0.00    -0.298 OA
ENDBRANCH  19  25
BRANCH  20  27
ATOM     27  C   UNL     1      59.097  17.134  51.921  1.00  0.00     0.017 C 
ATOM     28  C   UNL     1      60.535  16.879  51.458  1.00  0.00     0.012 C 
ATOM     29  C   UNL     1      58.132  17.225  50.723  1.00  0.00     0.012 C 
ENDBRANCH  20  27
BRANCH  21  30
ATOM     30  O   UNL     1      58.185  18.955  56.418  1.00  0.00    -0.504 OA
ATOM     31  H   UNL     1      57.279  19.227  56.775  1.00  0.00     0.293 HD
ENDBRANCH  21  30
BRANCH  22  32
ATOM     32  O   UNL     1      57.885  16.996  54.531  1.00  0.00    -0.504 OA
ATOM     33  H   UNL     1      57.055  16.649  54.065  1.00  0.00     0.293 HD
ENDBRANCH  22  32
ENDBRANCH  11  12
BRANCH  10  34
ATOM     34  O   UNL     1      58.754  24.384  51.022  1.00  0.00    -0.507 OA
ATOM     35  H   UNL     1      58.190  23.701  50.532  1.00  0.00     0.293 HD
ENDBRANCH  10  34
BRANCH   9  36
ATOM     36  C   UNL     1      64.135  27.536  49.888  1.00  0.00     0.017 C 
ATOM     37  C   UNL     1      64.563  28.039  48.501  1.00  0.00     0.012 C 
ATOM     38  C   UNL     1      64.660  28.414  51.044  1.00  0.00     0.012 C 
ENDBRANCH   9  36
BRANCH   6  39
ATOM     39  C   UNL     1      58.377  26.583  49.560  1.00  0.00     0.264 C 
ATOM     40  O   UNL     1      57.477  27.080  50.289  1.00  0.00    -0.298 OA
ENDBRANCH   6  39
BRANCH   8  41
ATOM     41  O   UNL     1      62.248  29.593  49.509  1.00  0.00    -0.504 OA
ATOM     42  H   UNL     1      61.842  30.422  49.919  1.00  0.00     0.293 HD
ENDBRANCH   8  41
BRANCH   7  43
ATOM     43  O   UNL     1      59.497  29.065  49.065  1.00  0.00    -0.504 OA
ATOM     44  H   UNL     1      59.692  29.641  48.260  1.00  0.00     0.293 HD
ENDBRANCH   7  43
TORSDOF 11
ENDMDL
MODEL 5
REMARK VINA RESULT:    -5.111      9.218     10.724
REMARK INTER + INTRA:          -9.093
REMARK INTER:                  -7.947
REMARK INTRA:                  -1.147
REMARK UNBOUND:                -1.591
REMARK SMILES Cc1cc2c(C(C)C)c(O)c(O)c(C=O)c2c(O)c1-c1c(C)cc2c(C(C)C)c(O)c(O)c(C=O)c2c1O
REMARK SMILES IDX 1 1 2 2 3 3 4 4 16 5 13 6 11 7 9 8 5 9 17 10 19 11 20 12
REMARK SMILES IDX 37 13 21 14 36 15 23 16 22 17 24 18 33 19 25 20 31 21 29 22
REMARK SMILES IDX 38 23 34 25 35 26 26 27 27 28 28 29 32 30 30 32 18 34 6 36
REMARK SMILES IDX 7 37 8 38 14 39 15 40 10 41 12 43
REMARK H PARENT 38 24 32 31 30 33 18 35 10 42 12 44
REMARK Flexibility Score: inf
ROOT
ATOM      1  C   UNL     1      62.862  31.356  52.708  1.00  0.00     0.045 C 
ATOM      2  C   UNL     1      63.660  31.788  51.502  1.00  0.00    -0.039 A 
ATOM      3  C   UNL     1      64.206  33.072  51.464  1.00  0.00     0.013 A 
ATOM      4  C   UNL     1      64.977  33.531  50.377  1.00  0.00    -0.006 A 
ATOM      5  C   UNL     1      65.198  32.644  49.278  1.00  0.00     0.039 A 
ATOM      6  C   UNL     1      66.035  33.065  48.205  1.00  0.00     0.072 A 
ATOM      7  C   UNL     1      66.508  34.387  48.159  1.00  0.00     0.169 A 
ATOM      8  C   UNL     1      66.186  35.296  49.181  1.00  0.00     0.162 A 
ATOM      9  C   UNL     1      65.513  34.860  50.347  1.00  0.00     0.008 A 
ATOM     10  C   UNL     1      64.548  31.374  49.272  1.00  0.00     0.132 A 
ATOM     11  C   UNL     1      63.821  30.937  50.399  1.00  0.00     0.031 A 
ENDROOT
BRANCH  11  12
ATOM     12  C   UNL     1      63.216  29.579  50.422  1.00  0.00     0.031 A 
ATOM     13  C   UNL     1      61.867  29.392  50.050  1.00  0.00     0.132 A 
ATOM     14  C   UNL     1      64.003  28.478  50.792  1.00  0.00    -0.039 A 
ATOM     15  C   UNL     1      61.273  28.092  50.102  1.00  0.00     0.039 A 
ATOM     16  C   UNL     1      63.433  27.205  50.830  1.00  0.00     0.013 A 
ATOM     17  C   UNL     1      65.470  28.641  51.111  1.00  0.00     0.045 C 
ATOM     18  C   UNL     1      62.065  26.992  50.556  1.00  0.00    -0.006 A 
ATOM     19  C   UNL     1      59.931  27.847  49.679  1.00  0.00     0.072 A 
ATOM     20  C   UNL     1      61.484  25.693  50.685  1.00  0.00     0.008 A 
ATOM     21  C   UNL     1      59.427  26.530  49.666  1.00  0.00     0.169 A 
ATOM     22  C   UNL     1      60.206  25.467  50.132  1.00  0.00     0.162 A 
BRANCH  13  23
ATOM     23  O   UNL     1      61.124  30.496  49.617  1.00  0.00    -0.507 OA
ATOM     24  H   UNL     1      60.597  30.521  48.754  1.00  0.00     0.293 HD
ENDBRANCH  13  23
BRANCH  19  25
ATOM     25  C   UNL     1      59.042  28.936  49.229  1.00  0.00     0.264 C 
ATOM     26  O   UNL     1      58.137  29.377  49.987  1.00  0.00    -0.298 OA
ENDBRANCH  19  25
BRANCH  20  27
ATOM     27  C   UNL     1      62.223  24.542  51.392  1.00  0.00     0.017 C 
ATOM     28  C   UNL     1      62.218  23.277  50.529  1.00  0.00     0.012 C 
ATOM     29  C   UNL     1      61.706  24.251  52.814  1.00  0.00     0.012 C 
ENDBRANCH  20  27
BRANCH  21  30
ATOM     30  O   UNL     1      58.131  26.247  49.220  1.00  0.00    -0.504 OA
ATOM     31  H   UNL     1      57.291  26.446  49.747  1.00  0.00     0.293 HD
ENDBRANCH  21  30
BRANCH  22  32
ATOM     32  O   UNL     1      59.704  24.166  50.047  1.00  0.00    -0.504 OA
ATOM     33  H   UNL     1      60.193  23.416  49.573  1.00  0.00     0.293 HD
ENDBRANCH  22  32
ENDBRANCH  11  12
BRANCH  10  34
ATOM     34  O   UNL     1      64.588  30.564  48.130  1.00  0.00    -0.507 OA
ATOM     35  H   UNL     1      64.026  29.731  48.008  1.00  0.00     0.293 HD
ENDBRANCH  10  34
BRANCH   9  36
ATOM     36  C   UNL     1      65.367  35.873  51.503  1.00  0.00     0.017 C 
ATOM     37  C   UNL     1      63.903  36.271  51.745  1.00  0.00     0.012 C 
ATOM     38  C   UNL     1      66.110  35.467  52.794  1.00  0.00     0.012 C 
ENDBRANCH   9  36
BRANCH   6  39
ATOM     39  C   UNL     1      66.536  32.118  47.179  1.00  0.00     0.264 C 
ATOM     40  O   UNL     1      67.766  31.871  47.068  1.00  0.00    -0.298 OA
ENDBRANCH   6  39
BRANCH   8  41
ATOM     41  O   UNL     1      66.525  36.648  49.056  1.00  0.00    -0.504 OA
ATOM     42  H   UNL     1      66.007  37.316  48.501  1.00  0.00     0.293 HD
ENDBRANCH   8  41
BRANCH   7  43
ATOM     43  O   UNL     1      67.343  34.764  47.100  1.00  0.00    -0.504 OA
ATOM     44  H   UNL     1      68.149  34.236  46.797  1.00  0.00     0.293 HD
ENDBRANCH   7  43
TORSDOF 11
ENDMDL
MODEL 6
REMARK VINA RESULT:    -5.018      4.240     11.542
REMARK INTER + INTRA:          -8.956
REMARK INTER:                  -7.746
REMARK INTRA:                  -1.210
REMARK UNBOUND:                -1.591
REMARK SMILES Cc1cc2c(C(C)C)c(O)c(O)c(C=O)c2c(O)c1-c1c(C)cc2c(C(C)C)c(O)c(O)c(C=O)c2c1O
REMARK SMILES IDX 1 1 2 2 3 3 4 4 16 5 13 6 11 7 9 8 5 9 17 10 19 11 20 12
REMARK SMILES IDX 37 13 21 14 36 15 23 16 22 17 24 18 33 19 25 20 31 21 29 22
REMARK SMILES IDX 38 23 34 25 35 26 26 27 27 28 28 29 32 30 30 32 18 34 6 36
REMARK SMILES IDX 7 37 8 38 14 39 15 40 10 41 12 43
REMARK H PARENT 38 24 32 31 30 33 18 35 10 42 12 44
REMARK Flexibility Score: inf
ROOT
ATOM      1  C   UNL     1      58.458  27.337  58.127  1.00  0.00     0.045 C 
ATOM      2  C   UNL     1      57.966  26.559  59.324  1.00  0.00    -0.039 A 
ATOM      3  C   UNL     1      56.632  26.152  59.376  1.00  0.00     0.013 A 
ATOM      4  C   UNL     1      56.114  25.407  60.455  1.00  0.00    -0.006 A 
ATOM      5  C   UNL     1      56.993  25.065  61.529  1.00  0.00     0.039 A 
ATOM      6  C   UNL     1      56.505  24.250  62.591  1.00  0.00     0.072 A 
ATOM      7  C   UNL     1      55.142  23.920  62.654  1.00  0.00     0.169 A 
ATOM      8  C   UNL     1      54.253  24.362  61.660  1.00  0.00     0.162 A 
ATOM      9  C   UNL     1      54.736  25.014  60.501  1.00  0.00     0.008 A 
ATOM     10  C   UNL     1      58.326  25.576  61.523  1.00  0.00     0.132 A 
ATOM     11  C   UNL     1      58.816  26.281  60.404  1.00  0.00     0.031 A 
ENDROOT
BRANCH  11  12
ATOM     12  C   UNL     1      60.230  26.739  60.365  1.00  0.00     0.031 A 
ATOM     13  C   UNL     1      60.569  28.044  60.783  1.00  0.00     0.132 A 
ATOM     14  C   UNL     1      61.231  25.855  59.935  1.00  0.00    -0.039 A 
ATOM     15  C   UNL     1      61.924  28.498  60.717  1.00  0.00     0.039 A 
ATOM     16  C   UNL     1      62.556  26.288  59.883  1.00  0.00     0.013 A 
ATOM     17  C   UNL     1      60.904  24.428  59.565  1.00  0.00     0.045 C 
ATOM     18  C   UNL     1      62.921  27.614  60.203  1.00  0.00    -0.006 A 
ATOM     19  C   UNL     1      62.321  29.788  61.184  1.00  0.00     0.072 A 
ATOM     20  C   UNL     1      64.272  28.058  60.059  1.00  0.00     0.008 A 
ATOM     21  C   UNL     1      63.685  30.149  61.179  1.00  0.00     0.169 A 
ATOM     22  C   UNL     1      64.647  29.281  60.654  1.00  0.00     0.162 A 
BRANCH  13  23
ATOM     23  O   UNL     1      59.562  28.881  61.275  1.00  0.00    -0.507 OA
ATOM     24  H   UNL     1      58.884  29.355  60.692  1.00  0.00     0.293 HD
ENDBRANCH  13  23
BRANCH  19  25
ATOM     25  C   UNL     1      61.345  30.769  61.698  1.00  0.00     0.264 C 
ATOM     26  O   UNL     1      60.968  31.733  60.979  1.00  0.00    -0.298 OA
ENDBRANCH  19  25
BRANCH  20  27
ATOM     27  C   UNL     1      65.319  27.230  59.292  1.00  0.00     0.017 C 
ATOM     28  C   UNL     1      65.097  27.334  57.780  1.00  0.00     0.012 C 
ATOM     29  C   UNL     1      65.405  25.760  59.745  1.00  0.00     0.012 C 
ENDBRANCH  20  27
BRANCH  21  30
ATOM     30  O   UNL     1      64.116  31.388  61.666  1.00  0.00    -0.504 OA
ATOM     31  H   UNL     1      64.874  31.924  61.266  1.00  0.00     0.293 HD
ENDBRANCH  21  30
BRANCH  22  32
ATOM     32  O   UNL     1      65.996  29.637  60.722  1.00  0.00    -0.504 OA
ATOM     33  H   UNL     1      66.489  30.082  59.956  1.00  0.00     0.293 HD
ENDBRANCH  22  32
ENDBRANCH  11  12
BRANCH  10  34
ATOM     34  O   UNL     1      59.148  25.422  62.646  1.00  0.00    -0.507 OA
ATOM     35  H   UNL     1      59.469  24.527  62.992  1.00  0.00     0.293 HD
ENDBRANCH  10  34
BRANCH   9  36
ATOM     36  C   UNL     1      53.723  25.296  59.370  1.00  0.00     0.017 C 
ATOM     37  C   UNL     1      53.489  26.800  59.162  1.00  0.00     0.012 C 
ATOM     38  C   UNL     1      54.016  24.537  58.058  1.00  0.00     0.012 C 
ENDBRANCH   9  36
BRANCH   6  39
ATOM     39  C   UNL     1      57.413  23.627  63.585  1.00  0.00     0.264 C 
ATOM     40  O   UNL     1      57.542  22.375  63.652  1.00  0.00    -0.298 OA
ENDBRANCH   6  39
BRANCH   8  41
ATOM     41  O   UNL     1      52.875  24.165  61.806  1.00  0.00    -0.504 OA
ATOM     42  H   UNL     1      52.288  23.719  61.116  1.00  0.00     0.293 HD
ENDBRANCH   8  41
BRANCH   7  43
ATOM     43  O   UNL     1      54.699  23.103  63.702  1.00  0.00    -0.504 OA
ATOM     44  H   UNL     1      53.786  22.674  63.740  1.00  0.00     0.293 HD
ENDBRANCH   7  43
TORSDOF 11
ENDMDL
MODEL 7
REMARK VINA RESULT:    -4.997      5.508      9.918
REMARK INTER + INTRA:          -8.926
REMARK INTER:                  -7.604
REMARK INTRA:                  -1.322
REMARK UNBOUND:                -1.591
REMARK SMILES Cc1cc2c(C(C)C)c(O)c(O)c(C=O)c2c(O)c1-c1c(C)cc2c(C(C)C)c(O)c(O)c(C=O)c2c1O
REMARK SMILES IDX 1 1 2 2 3 3 4 4 16 5 13 6 11 7 9 8 5 9 17 10 19 11 20 12
REMARK SMILES IDX 37 13 21 14 36 15 23 16 22 17 24 18 33 19 25 20 31 21 29 22
REMARK SMILES IDX 38 23 34 25 35 26 26 27 27 28 28 29 32 30 30 32 18 34 6 36
REMARK SMILES IDX 7 37 8 38 14 39 15 40 10 41 12 43
REMARK H PARENT 38 24 32 31 30 33 18 35 10 42 12 44
REMARK Flexibility Score: inf
ROOT
ATOM      1  C   UNL     1      63.356  28.544  60.891  1.00  0.00     0.045 C 
ATOM      2  C   UNL     1      61.923  28.069  60.917  1.00  0.00    -0.039 A 
ATOM      3  C   UNL     1      61.636  26.776  61.355  1.00  0.00     0.013 A 
ATOM      4  C   UNL     1      60.319  26.278  61.421  1.00  0.00    -0.006 A 
ATOM      5  C   UNL     1      59.247  27.135  61.019  1.00  0.00     0.039 A 
ATOM      6  C   UNL     1      57.906  26.674  61.150  1.00  0.00     0.072 A 
ATOM      7  C   UNL     1      57.652  25.343  61.521  1.00  0.00     0.169 A 
ATOM      8  C   UNL     1      58.713  24.465  61.797  1.00  0.00     0.162 A 
ATOM      9  C   UNL     1      60.045  24.940  61.855  1.00  0.00     0.008 A 
ATOM     10  C   UNL     1      59.554  28.416  60.470  1.00  0.00     0.132 A 
ATOM     11  C   UNL     1      60.881  28.892  60.462  1.00  0.00     0.031 A 
ENDROOT
BRANCH  11  12
ATOM     12  C   UNL     1      61.186  30.260  59.966  1.00  0.00     0.031 A 
ATOM     13  C   UNL     1      61.568  30.464  58.623  1.00  0.00     0.132 A 
ATOM     14  C   UNL     1      61.065  31.353  60.838  1.00  0.00    -0.039 A 
ATOM     15  C   UNL     1      61.893  31.774  58.152  1.00  0.00     0.039 A 
ATOM     16  C   UNL     1      61.366  32.636  60.379  1.00  0.00     0.013 A 
ATOM     17  C   UNL     1      60.576  31.170  62.255  1.00  0.00     0.045 C 
ATOM     18  C   UNL     1      61.841  32.868  59.070  1.00  0.00    -0.006 A 
ATOM     19  C   UNL     1      62.226  32.036  56.788  1.00  0.00     0.072 A 
ATOM     20  C   UNL     1      62.224  34.179  58.651  1.00  0.00     0.008 A 
ATOM     21  C   UNL     1      62.448  33.361  56.359  1.00  0.00     0.169 A 
ATOM     22  C   UNL     1      62.414  34.418  57.273  1.00  0.00     0.162 A 
BRANCH  13  23
ATOM     23  O   UNL     1      61.612  29.366  57.757  1.00  0.00    -0.507 OA
ATOM     24  H   UNL     1      60.886  28.664  57.694  1.00  0.00     0.293 HD
ENDBRANCH  13  23
BRANCH  19  25
ATOM     25  C   UNL     1      62.331  30.955  55.788  1.00  0.00     0.264 C 
ATOM     26  O   UNL     1      61.411  30.771  54.946  1.00  0.00    -0.298 OA
ENDBRANCH  19  25
BRANCH  20  27
ATOM     27  C   UNL     1      62.416  35.328  59.657  1.00  0.00     0.017 C 
ATOM     28  C   UNL     1      63.446  34.952  60.726  1.00  0.00     0.012 C 
ATOM     29  C   UNL     1      61.103  35.822  60.296  1.00  0.00     0.012 C 
ENDBRANCH  20  27
BRANCH  21  30
ATOM     30  O   UNL     1      62.737  33.659  55.022  1.00  0.00    -0.504 OA
ATOM     31  H   UNL     1      63.041  34.566  54.695  1.00  0.00     0.293 HD
ENDBRANCH  21  30
BRANCH  22  32
ATOM     32  O   UNL     1      62.574  35.726  56.809  1.00  0.00    -0.504 OA
ATOM     33  H   UNL     1      62.177  36.054  55.937  1.00  0.00     0.293 HD
ENDBRANCH  22  32
ENDBRANCH  11  12
BRANCH  10  34
ATOM     34  O   UNL     1      58.546  29.197  59.893  1.00  0.00    -0.507 OA
ATOM     35  H   UNL     1      58.582  30.207  59.826  1.00  0.00     0.293 HD
ENDBRANCH  10  34
BRANCH   9  36
ATOM     36  C   UNL     1      61.128  23.957  62.350  1.00  0.00     0.017 C 
ATOM     37  C   UNL     1      62.212  23.705  61.291  1.00  0.00     0.012 C 
ATOM     38  C   UNL     1      61.703  24.302  63.741  1.00  0.00     0.012 C 
ENDBRANCH   9  36
BRANCH   6  39
ATOM     39  C   UNL     1      56.744  27.588  61.023  1.00  0.00     0.264 C 
ATOM     40  O   UNL     1      56.269  28.179  62.029  1.00  0.00    -0.298 OA
ENDBRANCH   6  39
BRANCH   8  41
ATOM     41  O   UNL     1      58.465  23.104  62.013  1.00  0.00    -0.504 OA
ATOM     42  H   UNL     1      58.740  22.601  62.846  1.00  0.00     0.293 HD
ENDBRANCH   8  41
BRANCH   7  43
ATOM     43  O   UNL     1      56.322  24.928  61.657  1.00  0.00    -0.504 OA
ATOM     44  H   UNL     1      56.010  23.975  61.537  1.00  0.00     0.293 HD
ENDBRANCH   7  43
TORSDOF 11
ENDMDL
MODEL 8
REMARK VINA RESULT:    -4.974      3.628     11.374
REMARK INTER + INTRA:          -8.892
REMARK INTER:                  -7.919
REMARK INTRA:                  -0.972
REMARK UNBOUND:                -1.591
REMARK SMILES Cc1cc2c(C(C)C)c(O)c(O)c(C=O)c2c(O)c1-c1c(C)cc2c(C(C)C)c(O)c(O)c(C=O)c2c1O
REMARK SMILES IDX 1 1 2 2 3 3 4 4 16 5 13 6 11 7 9 8 5 9 17 10 19 11 20 12
REMARK SMILES IDX 37 13 21 14 36 15 23 16 22 17 24 18 33 19 25 20 31 21 29 22
REMARK SMILES IDX 38 23 34 25 35 26 26 27 27 28 28 29 32 30 30 32 18 34 6 36
REMARK SMILES IDX 7 37 8 38 14 39 15 40 10 41 12 43
REMARK H PARENT 38 24 32 31 30 33 18 35 10 42 12 44
REMARK Flexibility Score: inf
ROOT
ATOM      1  C   UNL     1      59.204  26.122  58.868  1.00  0.00     0.045 C 
ATOM      2  C   UNL     1      58.925  25.384  60.155  1.00  0.00    -0.039 A 
ATOM      3  C   UNL     1      57.677  24.790  60.350  1.00  0.00     0.013 A 
ATOM      4  C   UNL     1      57.360  24.070  61.520  1.00  0.00    -0.006 A 
ATOM      5  C   UNL     1      58.357  23.954  62.538  1.00  0.00     0.039 A 
ATOM      6  C   UNL     1      58.079  23.168  63.693  1.00  0.00     0.072 A 
ATOM      7  C   UNL     1      56.790  22.647  63.895  1.00  0.00     0.169 A 
ATOM      8  C   UNL     1      55.774  22.868  62.950  1.00  0.00     0.162 A 
ATOM      9  C   UNL     1      56.066  23.485  61.710  1.00  0.00     0.008 A 
ATOM     10  C   UNL     1      59.591  24.653  62.381  1.00  0.00     0.132 A 
ATOM     11  C   UNL     1      59.884  25.326  61.177  1.00  0.00     0.031 A 
ENDROOT
BRANCH  11  12
ATOM     12  C   UNL     1      61.204  25.983  60.986  1.00  0.00     0.031 A 
ATOM     13  C   UNL     1      61.345  27.374  61.182  1.00  0.00     0.132 A 
ATOM     14  C   UNL     1      62.318  25.205  60.634  1.00  0.00    -0.039 A 
ATOM     15  C   UNL     1      62.606  28.012  60.968  1.00  0.00     0.039 A 
ATOM     16  C   UNL     1      63.554  25.821  60.438  1.00  0.00     0.013 A 
ATOM     17  C   UNL     1      62.211  23.704  60.502  1.00  0.00     0.045 C 
ATOM     18  C   UNL     1      63.714  27.221  60.533  1.00  0.00    -0.006 A 
ATOM     19  C   UNL     1      62.809  29.405  61.211  1.00  0.00     0.072 A 
ATOM     20  C   UNL     1      64.970  27.837  60.245  1.00  0.00     0.008 A 
ATOM     21  C   UNL     1      64.096  29.964  61.071  1.00  0.00     0.169 A 
ATOM     22  C   UNL     1      65.166  29.182  60.625  1.00  0.00     0.162 A 
BRANCH  13  23
ATOM     23  O   UNL     1      60.235  28.114  61.602  1.00  0.00    -0.507 OA
ATOM     24  H   UNL     1      59.315  28.039  61.188  1.00  0.00     0.293 HD
ENDBRANCH  13  23
BRANCH  19  25
ATOM     25  C   UNL     1      61.707  30.294  61.630  1.00  0.00     0.264 C 
ATOM     26  O   UNL     1      61.173  31.083  60.804  1.00  0.00    -0.298 OA
ENDBRANCH  19  25
BRANCH  20  27
ATOM     27  C   UNL     1      66.109  27.069  59.549  1.00  0.00     0.017 C 
ATOM     28  C   UNL     1      67.363  27.037  60.428  1.00  0.00     0.012 C 
ATOM     29  C   UNL     1      66.432  27.582  58.133  1.00  0.00     0.012 C 
ENDBRANCH  20  27
BRANCH  21  30
ATOM     30  O   UNL     1      64.340  31.316  61.339  1.00  0.00    -0.504 OA
ATOM     31  H   UNL     1      63.747  31.898  61.915  1.00  0.00     0.293 HD
ENDBRANCH  21  30
BRANCH  22  32
ATOM     32  O   UNL     1      66.442  29.746  60.558  1.00  0.00    -0.504 OA
ATOM     33  H   UNL     1      66.788  30.231  59.739  1.00  0.00     0.293 HD
ENDBRANCH  22  32
ENDBRANCH  11  12
BRANCH  10  34
ATOM     34  O   UNL     1      60.506  24.717  63.438  1.00  0.00    -0.507 OA
ATOM     35  H   UNL     1      60.755  23.926  64.019  1.00  0.00     0.293 HD
ENDBRANCH  10  34
BRANCH   9  36
ATOM     36  C   UNL     1      54.942  23.518  60.653  1.00  0.00     0.017 C 
ATOM     37  C   UNL     1      54.502  22.108  60.228  1.00  0.00     0.012 C 
ATOM     38  C   UNL     1      53.759  24.441  61.017  1.00  0.00     0.012 C 
ENDBRANCH   9  36
BRANCH   6  39
ATOM     39  C   UNL     1      59.141  22.771  64.649  1.00  0.00     0.264 C 
ATOM     40  O   UNL     1      59.448  21.560  64.813  1.00  0.00    -0.298 OA
ENDBRANCH   6  39
BRANCH   8  41
ATOM     41  O   UNL     1      54.457  22.483  63.227  1.00  0.00    -0.504 OA
ATOM     42  H   UNL     1      53.916  21.853  62.651  1.00  0.00     0.293 HD
ENDBRANCH   8  41
BRANCH   7  43
ATOM     43  O   UNL     1      56.555  21.865  65.033  1.00  0.00    -0.504 OA
ATOM     44  H   UNL     1      56.701  22.182  65.980  1.00  0.00     0.293 HD
ENDBRANCH   7  43
TORSDOF 11
ENDMDL
MODEL 9
REMARK VINA RESULT:    -4.962      5.131      7.062
REMARK INTER + INTRA:          -8.874
REMARK INTER:                  -7.433
REMARK INTRA:                  -1.441
REMARK UNBOUND:                -1.591
REMARK SMILES Cc1cc2c(C(C)C)c(O)c(O)c(C=O)c2c(O)c1-c1c(C)cc2c(C(C)C)c(O)c(O)c(C=O)c2c1O
REMARK SMILES IDX 1 1 2 2 3 3 4 4 16 5 13 6 11 7 9 8 5 9 17 10 19 11 20 12
REMARK SMILES IDX 37 13 21 14 36 15 23 16 22 17 24 18 33 19 25 20 31 21 29 22
REMARK SMILES IDX 38 23 34 25 35 26 26 27 27 28 28 29 32 30 30 32 18 34 6 36
REMARK SMILES IDX 7 37 8 38 14 39 15 40 10 41 12 43
REMARK H PARENT 38 24 32 31 30 33 18 35 10 42 12 44
REMARK Flexibility Score: inf
ROOT
ATOM      1  C   UNL     1      60.579  31.321  62.263  1.00  0.00     0.045 C 
ATOM      2  C   UNL     1      61.113  31.529  60.867  1.00  0.00    -0.039 A 
ATOM      3  C   UNL     1      61.291  32.827  60.387  1.00  0.00     0.013 A 
ATOM      4  C   UNL     1      61.804  33.090  59.100  1.00  0.00    -0.006 A 
ATOM      5  C   UNL     1      62.146  31.982  58.265  1.00  0.00     0.039 A 
ATOM      6  C   UNL     1      62.734  32.230  56.991  1.00  0.00     0.072 A 
ATOM      7  C   UNL     1      62.830  33.544  56.505  1.00  0.00     0.169 A 
ATOM      8  C   UNL     1      62.379  34.626  57.278  1.00  0.00     0.162 A 
ATOM      9  C   UNL     1      61.961  34.430  58.616  1.00  0.00     0.008 A 
ATOM     10  C   UNL     1      61.860  30.659  58.718  1.00  0.00     0.132 A 
ATOM     11  C   UNL     1      61.388  30.439  60.028  1.00  0.00     0.031 A 
ENDROOT
BRANCH  11  12
ATOM     12  C   UNL     1      61.170  29.054  60.526  1.00  0.00     0.031 A 
ATOM     13  C   UNL     1      59.881  28.481  60.501  1.00  0.00     0.132 A 
ATOM     14  C   UNL     1      62.263  28.310  60.996  1.00  0.00    -0.039 A 
ATOM     15  C   UNL     1      59.664  27.162  61.009  1.00  0.00     0.039 A 
ATOM     16  C   UNL     1      62.059  27.017  61.478  1.00  0.00     0.013 A 
ATOM     17  C   UNL     1      63.665  28.871  60.952  1.00  0.00     0.045 C 
ATOM     18  C   UNL     1      60.771  26.444  61.557  1.00  0.00    -0.006 A 
ATOM     19  C   UNL     1      58.389  26.520  60.950  1.00  0.00     0.072 A 
ATOM     20  C   UNL     1      60.577  25.152  62.134  1.00  0.00     0.008 A 
ATOM     21  C   UNL     1      58.253  25.185  61.382  1.00  0.00     0.169 A 
ATOM     22  C   UNL     1      59.341  24.502  61.934  1.00  0.00     0.162 A 
BRANCH  13  23
ATOM     23  O   UNL     1      58.822  29.218  59.962  1.00  0.00    -0.507 OA
ATOM     24  H   UNL     1      58.683  30.208  60.117  1.00  0.00     0.293 HD
ENDBRANCH  13  23
BRANCH  19  25
ATOM     25  C   UNL     1      57.191  27.207  60.428  1.00  0.00     0.264 C 
ATOM     26  O   UNL     1      56.337  27.691  61.218  1.00  0.00    -0.298 OA
ENDBRANCH  19  25
BRANCH  20  27
ATOM     27  C   UNL     1      61.683  24.452  62.945  1.00  0.00     0.017 C 
ATOM     28  C   UNL     1      62.275  23.276  62.162  1.00  0.00     0.012 C 
ATOM     29  C   UNL     1      61.241  24.018  64.356  1.00  0.00     0.012 C 
ENDBRANCH  20  27
BRANCH  21  30
ATOM     30  O   UNL     1      57.029  24.510  61.302  1.00  0.00    -0.504 OA
ATOM     31  H   UNL     1      56.764  23.898  60.541  1.00  0.00     0.293 HD
ENDBRANCH  21  30
BRANCH  22  32
ATOM     32  O   UNL     1      59.193  23.160  62.293  1.00  0.00    -0.504 OA
ATOM     33  H   UNL     1      58.294  22.696  62.336  1.00  0.00     0.293 HD
ENDBRANCH  22  32
ENDBRANCH  11  12
BRANCH  10  34
ATOM     34  O   UNL     1      62.004  29.568  57.852  1.00  0.00    -0.507 OA
ATOM     35  H   UNL     1      61.428  29.417  57.033  1.00  0.00     0.293 HD
ENDBRANCH  10  34
BRANCH   9  36
ATOM     36  C   UNL     1      61.663  35.689  59.458  1.00  0.00     0.017 C 
ATOM     37  C   UNL     1      60.156  35.923  59.642  1.00  0.00     0.012 C 
ATOM     38  C   UNL     1      62.457  35.767  60.780  1.00  0.00     0.012 C 
ENDBRANCH   9  36
BRANCH   6  39
ATOM     39  C   UNL     1      63.367  31.151  56.193  1.00  0.00     0.264 C 
ATOM     40  O   UNL     1      62.828  30.721  55.139  1.00  0.00    -0.298 OA
ENDBRANCH   6  39
BRANCH   8  41
ATOM     41  O   UNL     1      62.332  35.914  56.732  1.00  0.00    -0.504 OA
ATOM     42  H   UNL     1      61.515  36.508  56.746  1.00  0.00     0.293 HD
ENDBRANCH   8  41
BRANCH   7  43
ATOM     43  O   UNL     1      63.429  33.754  55.256  1.00  0.00    -0.504 OA
ATOM     44  H   UNL     1      64.380  34.069  55.128  1.00  0.00     0.293 HD
ENDBRANCH   7  43
TORSDOF 11
ENDMDL
