MODEL 1
REMARK VINA RESULT:    -3.895      0.000      0.000
REMARK INTER + INTRA:          -5.883
REMARK INTER:                  -5.489
REMARK INTRA:                  -0.394
REMARK UNBOUND:                -0.394
REMARK SMILES C=CCCCCCCC(=O)[O-]
REMARK SMILES IDX 6 1 7 2 8 3 9 4 10 5 11 6 5 7 4 8 3 9 2 10 1 11
REMARK H PARENT
REMARK Flexibility Score: inf
ROOT
ATOM      1  C   UNL     1      88.002 -76.852   3.906  1.00  0.00     0.000 C 
ENDROOT
BRANCH   1   2
ATOM      2  C   UNL     1      87.790 -75.435   4.466  1.00  0.00     0.006 C 
BRANCH   2   3
ATOM      3  C   UNL     1      88.161 -74.348   3.448  1.00  0.00     0.053 C 
BRANCH   3   4
ATOM      4  C   UNL     1      87.053 -73.358   3.259  1.00  0.00     0.041 C 
ATOM      5  O   UNL     1      87.315 -72.171   2.928  1.00  0.00    -0.550 OA
ATOM      6  O   UNL     1      85.731 -73.753   3.417  1.00  0.00    -0.550 OA
ENDBRANCH   3   4
ENDBRANCH   2   3
ENDBRANCH   1   2
BRANCH   1   7
ATOM      7  C   UNL     1      88.567 -76.845   2.477  1.00  0.00     0.000 C 
BRANCH   7   8
ATOM      8  C   UNL     1      88.115 -78.063   1.654  1.00  0.00     0.004 C 
BRANCH   8   9
ATOM      9  C   UNL     1      87.230 -79.014   2.472  1.00  0.00     0.027 C 
BRANCH   9  10
ATOM     10  C   UNL     1      85.860 -79.154   1.863  1.00  0.00    -0.035 C 
ATOM     11  C   UNL     1      85.031 -80.142   2.210  1.00  0.00     0.004 C 
ENDBRANCH   9  10
ENDBRANCH   8   9
ENDBRANCH   7   8
ENDBRANCH   1   7
TORSDOF 7
ENDMDL
MODEL 2
REMARK VINA RESULT:    -3.828     13.061     14.793
REMARK INTER + INTRA:          -5.788
REMARK INTER:                  -5.377
REMARK INTRA:                  -0.411
REMARK UNBOUND:                -0.394
REMARK SMILES C=CCCCCCCC(=O)[O-]
REMARK SMILES IDX 6 1 7 2 8 3 9 4 10 5 11 6 5 7 4 8 3 9 2 10 1 11
REMARK H PARENT
REMARK Flexibility Score: inf
ROOT
ATOM      1  C   UNL     1      84.684 -69.157  14.544  1.00  0.00     0.000 C 
ENDROOT
BRANCH   1   2
ATOM      2  C   UNL     1      84.454 -67.987  15.516  1.00  0.00     0.006 C 
BRANCH   2   3
ATOM      3  C   UNL     1      83.046 -68.009  16.125  1.00  0.00     0.053 C 
BRANCH   3   4
ATOM      4  C   UNL     1      82.300 -66.739  15.853  1.00  0.00     0.041 C 
ATOM      5  O   UNL     1      82.902 -65.741  15.376  1.00  0.00    -0.550 OA
ATOM      6  O   UNL     1      80.934 -66.667  16.096  1.00  0.00    -0.550 OA
ENDBRANCH   3   4
ENDBRANCH   2   3
ENDBRANCH   1   2
BRANCH   1   7
ATOM      7  C   UNL     1      85.500 -68.747  13.307  1.00  0.00     0.000 C 
BRANCH   7   8
ATOM      8  C   UNL     1      87.017 -68.868  13.530  1.00  0.00     0.004 C 
BRANCH   8   9
ATOM      9  C   UNL     1      87.524 -70.295  13.279  1.00  0.00     0.027 C 
BRANCH   9  10
ATOM     10  C   UNL     1      87.957 -70.961  14.558  1.00  0.00    -0.035 C 
ATOM     11  C   UNL     1      88.338 -70.256  15.627  1.00  0.00     0.004 C 
ENDBRANCH   9  10
ENDBRANCH   8   9
ENDBRANCH   7   8
ENDBRANCH   1   7
TORSDOF 7
ENDMDL
MODEL 3
REMARK VINA RESULT:    -3.810     13.113     15.318
REMARK INTER + INTRA:          -5.762
REMARK INTER:                  -5.548
REMARK INTRA:                  -0.214
REMARK UNBOUND:                -0.394
REMARK SMILES C=CCCCCCCC(=O)[O-]
REMARK SMILES IDX 6 1 7 2 8 3 9 4 10 5 11 6 5 7 4 8 3 9 2 10 1 11
REMARK H PARENT
REMARK Flexibility Score: inf
ROOT
ATOM      1  C   UNL     1      85.623 -68.374  14.834  1.00  0.00     0.000 C 
ENDROOT
BRANCH   1   2
ATOM      2  C   UNL     1      86.277 -68.788  13.504  1.00  0.00     0.006 C 
BRANCH   2   3
ATOM      3  C   UNL     1      86.757 -70.245  13.524  1.00  0.00     0.053 C 
BRANCH   3   4
ATOM      4  C   UNL     1      88.030 -70.405  14.296  1.00  0.00     0.041 C 
ATOM      5  O   UNL     1      89.108 -69.938  13.843  1.00  0.00    -0.550 OA
ATOM      6  O   UNL     1      88.021 -71.042  15.531  1.00  0.00    -0.550 OA
ENDBRANCH   3   4
ENDBRANCH   2   3
ENDBRANCH   1   2
BRANCH   1   7
ATOM      7  C   UNL     1      84.096 -68.547  14.821  1.00  0.00     0.000 C 
BRANCH   7   8
ATOM      8  C   UNL     1      83.397 -67.727  15.919  1.00  0.00     0.004 C 
BRANCH   8   9
ATOM      9  C   UNL     1      82.780 -66.434  15.369  1.00  0.00     0.027 C 
BRANCH   9  10
ATOM     10  C   UNL     1      81.536 -66.050  16.125  1.00  0.00    -0.035 C 
ATOM     11  C   UNL     1      80.398 -65.737  15.500  1.00  0.00     0.004 C 
ENDBRANCH   9  10
ENDBRANCH   8   9
ENDBRANCH   7   8
ENDBRANCH   1   7
TORSDOF 7
ENDMDL
MODEL 4
REMARK VINA RESULT:    -3.520      1.165      2.066
REMARK INTER + INTRA:          -5.353
REMARK INTER:                  -4.919
REMARK INTRA:                  -0.434
REMARK UNBOUND:                -0.394
REMARK SMILES C=CCCCCCCC(=O)[O-]
REMARK SMILES IDX 6 1 7 2 8 3 9 4 10 5 11 6 5 7 4 8 3 9 2 10 1 11
REMARK H PARENT
REMARK Flexibility Score: inf
ROOT
ATOM      1  C   UNL     1      88.010 -77.096   4.259  1.00  0.00     0.000 C 
ENDROOT
BRANCH   1   2
ATOM      2  C   UNL     1      87.377 -75.720   4.528  1.00  0.00     0.006 C 
BRANCH   2   3
ATOM      3  C   UNL     1      88.023 -74.612   3.686  1.00  0.00     0.053 C 
BRANCH   3   4
ATOM      4  C   UNL     1      87.046 -73.530   3.341  1.00  0.00     0.041 C 
ATOM      5  O   UNL     1      85.809 -73.734   3.456  1.00  0.00    -0.550 OA
ATOM      6  O   UNL     1      87.502 -72.287   2.922  1.00  0.00    -0.550 OA
ENDBRANCH   3   4
ENDBRANCH   2   3
ENDBRANCH   1   2
BRANCH   1   7
ATOM      7  C   UNL     1      88.716 -77.167   2.896  1.00  0.00     0.000 C 
BRANCH   7   8
ATOM      8  C   UNL     1      88.175 -78.300   2.006  1.00  0.00     0.004 C 
BRANCH   8   9
ATOM      9  C   UNL     1      86.873 -77.903   1.297  1.00  0.00     0.027 C 
BRANCH   9  10
ATOM     10  C   UNL     1      87.117 -77.539  -0.143  1.00  0.00    -0.035 C 
ATOM     11  C   UNL     1      88.242 -77.881  -0.777  1.00  0.00     0.004 C 
ENDBRANCH   9  10
ENDBRANCH   8   9
ENDBRANCH   7   8
ENDBRANCH   1   7
TORSDOF 7
ENDMDL
MODEL 5
REMARK VINA RESULT:    -3.519     11.518     12.772
REMARK INTER + INTRA:          -5.353
REMARK INTER:                  -4.805
REMARK INTRA:                  -0.547
REMARK UNBOUND:                -0.394
REMARK SMILES C=CCCCCCCC(=O)[O-]
REMARK SMILES IDX 6 1 7 2 8 3 9 4 10 5 11 6 5 7 4 8 3 9 2 10 1 11
REMARK H PARENT
REMARK Flexibility Score: inf
ROOT
ATOM      1  C   UNL     1      77.501 -74.164  -3.734  1.00  0.00     0.000 C 
ENDROOT
BRANCH   1   2
ATOM      2  C   UNL     1      77.838 -74.180  -2.233  1.00  0.00     0.006 C 
BRANCH   2   3
ATOM      3  C   UNL     1      78.574 -75.461  -1.819  1.00  0.00     0.053 C 
BRANCH   3   4
ATOM      4  C   UNL     1      77.768 -76.285  -0.863  1.00  0.00     0.041 C 
ATOM      5  O   UNL     1      76.846 -75.754  -0.190  1.00  0.00    -0.550 OA
ATOM      6  O   UNL     1      78.013 -77.647  -0.739  1.00  0.00    -0.550 OA
ENDBRANCH   3   4
ENDBRANCH   2   3
ENDBRANCH   1   2
BRANCH   1   7
ATOM      7  C   UNL     1      76.065 -73.689  -4.013  1.00  0.00     0.000 C 
BRANCH   7   8
ATOM      8  C   UNL     1      75.924 -72.159  -3.951  1.00  0.00     0.004 C 
BRANCH   8   9
ATOM      9  C   UNL     1      74.886 -71.718  -2.910  1.00  0.00     0.027 C 
BRANCH   9  10
ATOM     10  C   UNL     1      74.368 -72.887  -2.116  1.00  0.00    -0.035 C 
ATOM     11  C   UNL     1      74.518 -72.964  -0.792  1.00  0.00     0.004 C 
ENDBRANCH   9  10
ENDBRANCH   8   9
ENDBRANCH   7   8
ENDBRANCH   1   7
TORSDOF 7
ENDMDL
MODEL 6
REMARK VINA RESULT:    -3.519     12.924     13.940
REMARK INTER + INTRA:          -5.352
REMARK INTER:                  -4.690
REMARK INTRA:                  -0.663
REMARK UNBOUND:                -0.394
REMARK SMILES C=CCCCCCCC(=O)[O-]
REMARK SMILES IDX 6 1 7 2 8 3 9 4 10 5 11 6 5 7 4 8 3 9 2 10 1 11
REMARK H PARENT
REMARK Flexibility Score: inf
ROOT
ATOM      1  C   UNL     1      75.091 -73.694  -0.611  1.00  0.00     0.000 C 
ENDROOT
BRANCH   1   2
ATOM      2  C   UNL     1      73.808 -72.892  -0.891  1.00  0.00     0.006 C 
BRANCH   2   3
ATOM      3  C   UNL     1      74.062 -71.379  -0.898  1.00  0.00     0.053 C 
BRANCH   3   4
ATOM      4  C   UNL     1      73.248 -70.671   0.142  1.00  0.00     0.041 C 
ATOM      5  O   UNL     1      72.128 -71.129   0.489  1.00  0.00    -0.550 OA
ATOM      6  O   UNL     1      73.740 -69.522   0.749  1.00  0.00    -0.550 OA
ENDBRANCH   3   4
ENDBRANCH   2   3
ENDBRANCH   1   2
BRANCH   1   7
ATOM      7  C   UNL     1      75.474 -74.623  -1.775  1.00  0.00     0.000 C 
BRANCH   7   8
ATOM      8  C   UNL     1      76.959 -74.512  -2.158  1.00  0.00     0.004 C 
BRANCH   8   9
ATOM      9  C   UNL     1      77.281 -73.174  -2.837  1.00  0.00     0.027 C 
BRANCH   9  10
ATOM     10  C   UNL     1      76.310 -72.869  -3.946  1.00  0.00    -0.035 C 
ATOM     11  C   UNL     1      75.756 -71.662  -4.089  1.00  0.00     0.004 C 
ENDBRANCH   9  10
ENDBRANCH   8   9
ENDBRANCH   7   8
ENDBRANCH   1   7
TORSDOF 7
ENDMDL
MODEL 7
REMARK VINA RESULT:    -3.468     11.532     12.740
REMARK INTER + INTRA:          -5.281
REMARK INTER:                  -4.572
REMARK INTRA:                  -0.710
REMARK UNBOUND:                -0.394
REMARK SMILES C=CCCCCCCC(=O)[O-]
REMARK SMILES IDX 6 1 7 2 8 3 9 4 10 5 11 6 5 7 4 8 3 9 2 10 1 11
REMARK H PARENT
REMARK Flexibility Score: inf
ROOT
ATOM      1  C   UNL     1      77.399 -73.050  -3.481  1.00  0.00     0.000 C 
ENDROOT
BRANCH   1   2
ATOM      2  C   UNL     1      77.475 -74.544  -3.123  1.00  0.00     0.006 C 
BRANCH   2   3
ATOM      3  C   UNL     1      78.293 -74.794  -1.849  1.00  0.00     0.053 C 
BRANCH   3   4
ATOM      4  C   UNL     1      78.184 -76.213  -1.384  1.00  0.00     0.041 C 
ATOM      5  O   UNL     1      78.859 -77.117  -1.944  1.00  0.00    -0.550 OA
ATOM      6  O   UNL     1      77.360 -76.534  -0.312  1.00  0.00    -0.550 OA
ENDBRANCH   3   4
ENDBRANCH   2   3
ENDBRANCH   1   2
BRANCH   1   7
ATOM      7  C   UNL     1      76.036 -72.650  -4.068  1.00  0.00     0.000 C 
BRANCH   7   8
ATOM      8  C   UNL     1      74.855 -73.215  -3.263  1.00  0.00     0.004 C 
BRANCH   8   9
ATOM      9  C   UNL     1      74.419 -72.267  -2.137  1.00  0.00     0.027 C 
BRANCH   9  10
ATOM     10  C   UNL     1      74.584 -72.905  -0.783  1.00  0.00    -0.035 C 
ATOM     11  C   UNL     1      74.757 -74.221  -0.638  1.00  0.00     0.004 C 
ENDBRANCH   9  10
ENDBRANCH   8   9
ENDBRANCH   7   8
ENDBRANCH   1   7
TORSDOF 7
ENDMDL
MODEL 8
REMARK VINA RESULT:    -3.452     11.791     12.824
REMARK INTER + INTRA:          -5.258
REMARK INTER:                  -4.753
REMARK INTRA:                  -0.505
REMARK UNBOUND:                -0.394
REMARK SMILES C=CCCCCCCC(=O)[O-]
REMARK SMILES IDX 6 1 7 2 8 3 9 4 10 5 11 6 5 7 4 8 3 9 2 10 1 11
REMARK H PARENT
REMARK Flexibility Score: inf
ROOT
ATOM      1  C   UNL     1      76.176 -72.490  -3.708  1.00  0.00     0.000 C 
ENDROOT
BRANCH   1   2
ATOM      2  C   UNL     1      74.975 -73.448  -3.627  1.00  0.00     0.006 C 
BRANCH   2   3
ATOM      3  C   UNL     1      73.839 -72.880  -2.766  1.00  0.00     0.053 C 
BRANCH   3   4
ATOM      4  C   UNL     1      74.324 -72.443  -1.418  1.00  0.00     0.041 C 
ATOM      5  O   UNL     1      74.910 -73.260  -0.660  1.00  0.00    -0.550 OA
ATOM      6  O   UNL     1      74.158 -71.125  -1.012  1.00  0.00    -0.550 OA
ENDBRANCH   3   4
ENDBRANCH   2   3
ENDBRANCH   1   2
BRANCH   1   7
ATOM      7  C   UNL     1      77.513 -73.191  -3.418  1.00  0.00     0.000 C 
BRANCH   7   8
ATOM      8  C   UNL     1      77.329 -74.631  -2.911  1.00  0.00     0.004 C 
BRANCH   8   9
ATOM      9  C   UNL     1      78.397 -75.019  -1.879  1.00  0.00     0.027 C 
BRANCH   9  10
ATOM     10  C   UNL     1      77.979 -76.223  -1.078  1.00  0.00    -0.035 C 
ATOM     11  C   UNL     1      76.890 -76.214  -0.305  1.00  0.00     0.004 C 
ENDBRANCH   9  10
ENDBRANCH   8   9
ENDBRANCH   7   8
ENDBRANCH   1   7
TORSDOF 7
ENDMDL
MODEL 9
REMARK VINA RESULT:    -3.445     12.880     13.874
REMARK INTER + INTRA:          -5.249
REMARK INTER:                  -4.524
REMARK INTRA:                  -0.725
REMARK UNBOUND:                -0.394
REMARK SMILES C=CCCCCCCC(=O)[O-]
REMARK SMILES IDX 6 1 7 2 8 3 9 4 10 5 11 6 5 7 4 8 3 9 2 10 1 11
REMARK H PARENT
REMARK Flexibility Score: inf
ROOT
ATOM      1  C   UNL     1      74.517 -73.018  -3.604  1.00  0.00     0.000 C 
ENDROOT
BRANCH   1   2
ATOM      2  C   UNL     1      73.575 -72.867  -2.396  1.00  0.00     0.006 C 
BRANCH   2   3
ATOM      3  C   UNL     1      74.290 -72.271  -1.176  1.00  0.00     0.053 C 
BRANCH   3   4
ATOM      4  C   UNL     1      73.433 -71.276  -0.457  1.00  0.00     0.041 C 
ATOM      5  O   UNL     1      72.192 -71.465  -0.355  1.00  0.00    -0.550 OA
ATOM      6  O   UNL     1      74.008 -70.154   0.128  1.00  0.00    -0.550 OA
ENDBRANCH   3   4
ENDBRANCH   2   3
ENDBRANCH   1   2
BRANCH   1   7
ATOM      7  C   UNL     1      75.628 -71.956  -3.624  1.00  0.00     0.000 C 
BRANCH   7   8
ATOM      8  C   UNL     1      77.037 -72.572  -3.653  1.00  0.00     0.004 C 
BRANCH   8   9
ATOM      9  C   UNL     1      77.001 -74.099  -3.504  1.00  0.00     0.027 C 
BRANCH   9  10
ATOM     10  C   UNL     1      77.553 -74.538  -2.174  1.00  0.00    -0.035 C 
ATOM     11  C   UNL     1      76.792 -75.146  -1.260  1.00  0.00     0.004 C 
ENDBRANCH   9  10
ENDBRANCH   8   9
ENDBRANCH   7   8
ENDBRANCH   1   7
TORSDOF 7
ENDMDL
