MODEL 1
REMARK VINA RESULT:    -3.490      0.000      0.000
REMARK INTER + INTRA:          -3.490
REMARK INTER:                  -3.490
REMARK INTRA:                   0.000
REMARK UNBOUND:                 0.000
REMARK SMILES CC1(C)[C@@H]2CC[C@@]1(C)C(=O)C2
REMARK SMILES IDX 1 1 2 2 4 3 5 4 6 5 7 6 9 7 10 8 11 9 8 10 3 11
REMARK H PARENT
REMARK Flexibility Score: inf
ROOT
ATOM      1  C   UNL     1       5.705  -3.968  -6.967  1.00  0.00     0.012 C 
ATOM      2  C   UNL     1       5.899  -5.062  -5.875  1.00  0.00    -0.020 C 
ATOM      3  C   UNL     1       4.613  -5.386  -5.078  1.00  0.00     0.003 C 
ATOM      4  C   UNL     1       4.321  -4.049  -4.343  1.00  0.00     0.005 C 
ATOM      5  C   UNL     1       5.740  -3.519  -4.011  1.00  0.00     0.015 C 
ATOM      6  C   UNL     1       6.657  -4.612  -4.609  1.00  0.00     0.032 C 
ATOM      7  C   UNL     1       6.454  -5.814  -3.719  1.00  0.00     0.139 C 
ATOM      8  O   UNL     1       7.225  -6.208  -2.857  1.00  0.00    -0.299 OA
ATOM      9  C   UNL     1       5.098  -6.387  -3.993  1.00  0.00     0.080 C 
ATOM     10  C   UNL     1       8.119  -4.189  -4.801  1.00  0.00     0.020 C 
ATOM     11  C   UNL     1       6.515  -6.302  -6.597  1.00  0.00     0.012 C 
ENDROOT
TORSDOF 0
ENDMDL
MODEL 2
REMARK VINA RESULT:    -3.449      1.467      3.108
REMARK INTER + INTRA:          -3.449
REMARK INTER:                  -3.449
REMARK INTRA:                   0.000
REMARK UNBOUND:                 0.000
REMARK SMILES CC1(C)[C@@H]2CC[C@@]1(C)C(=O)C2
REMARK SMILES IDX 1 1 2 2 4 3 5 4 6 5 7 6 9 7 10 8 11 9 8 10 3 11
REMARK H PARENT
REMARK Flexibility Score: inf
ROOT
ATOM      1  C   UNL     1       5.934  -3.595  -6.381  1.00  0.00     0.012 C 
ATOM      2  C   UNL     1       5.549  -4.612  -5.265  1.00  0.00    -0.020 C 
ATOM      3  C   UNL     1       6.727  -5.500  -4.795  1.00  0.00     0.003 C 
ATOM      4  C   UNL     1       7.065  -6.321  -6.070  1.00  0.00     0.005 C 
ATOM      5  C   UNL     1       5.673  -6.555  -6.711  1.00  0.00     0.015 C 
ATOM      6  C   UNL     1       4.722  -5.829  -5.730  1.00  0.00     0.032 C 
ATOM      7  C   UNL     1       4.741  -6.674  -4.480  1.00  0.00     0.139 C 
ATOM      8  O   UNL     1       3.865  -7.447  -4.122  1.00  0.00    -0.299 OA
ATOM      9  C   UNL     1       6.061  -6.490  -3.799  1.00  0.00     0.080 C 
ATOM     10  C   UNL     1       3.325  -5.533  -6.290  1.00  0.00     0.020 C 
ATOM     11  C   UNL     1       4.897  -3.782  -4.116  1.00  0.00     0.012 C 
ENDROOT
TORSDOF 0
ENDMDL
MODEL 3
REMARK VINA RESULT:    -3.410      1.993      3.274
REMARK INTER + INTRA:          -3.410
REMARK INTER:                  -3.410
REMARK INTRA:                   0.000
REMARK UNBOUND:                 0.000
REMARK SMILES CC1(C)[C@@H]2CC[C@@]1(C)C(=O)C2
REMARK SMILES IDX 1 1 2 2 4 3 5 4 6 5 7 6 9 7 10 8 11 9 8 10 3 11
REMARK H PARENT
REMARK Flexibility Score: inf
ROOT
ATOM      1  C   UNL     1       6.684  -5.752  -3.541  1.00  0.00     0.012 C 
ATOM      2  C   UNL     1       6.238  -5.373  -4.985  1.00  0.00    -0.020 C 
ATOM      3  C   UNL     1       6.342  -3.860  -5.296  1.00  0.00     0.003 C 
ATOM      4  C   UNL     1       5.309  -3.238  -4.317  1.00  0.00     0.005 C 
ATOM      5  C   UNL     1       4.179  -4.299  -4.286  1.00  0.00     0.015 C 
ATOM      6  C   UNL     1       4.716  -5.394  -5.238  1.00  0.00     0.032 C 
ATOM      7  C   UNL     1       4.652  -4.773  -6.612  1.00  0.00     0.139 C 
ATOM      8  O   UNL     1       3.813  -5.008  -7.469  1.00  0.00    -0.299 OA
ATOM      9  C   UNL     1       5.728  -3.737  -6.719  1.00  0.00     0.080 C 
ATOM     10  C   UNL     1       4.020  -6.754  -5.111  1.00  0.00     0.020 C 
ATOM     11  C   UNL     1       7.072  -6.268  -5.954  1.00  0.00     0.012 C 
ENDROOT
TORSDOF 0
ENDMDL
MODEL 4
REMARK VINA RESULT:    -3.409      1.668      2.974
REMARK INTER + INTRA:          -3.409
REMARK INTER:                  -3.409
REMARK INTRA:                   0.000
REMARK UNBOUND:                 0.000
REMARK SMILES CC1(C)[C@@H]2CC[C@@]1(C)C(=O)C2
REMARK SMILES IDX 1 1 2 2 4 3 5 4 6 5 7 6 9 7 10 8 11 9 8 10 3 11
REMARK H PARENT
REMARK Flexibility Score: inf
ROOT
ATOM      1  C   UNL     1       4.836  -7.211  -4.127  1.00  0.00     0.012 C 
ATOM      2  C   UNL     1       5.565  -5.858  -4.387  1.00  0.00    -0.020 C 
ATOM      3  C   UNL     1       4.630  -4.625  -4.342  1.00  0.00     0.003 C 
ATOM      4  C   UNL     1       3.679  -4.874  -5.544  1.00  0.00     0.005 C 
ATOM      5  C   UNL     1       4.610  -5.535  -6.593  1.00  0.00     0.015 C 
ATOM      6  C   UNL     1       5.967  -5.590  -5.852  1.00  0.00     0.032 C 
ATOM      7  C   UNL     1       6.415  -4.152  -5.761  1.00  0.00     0.139 C 
ATOM      8  O   UNL     1       7.271  -3.621  -6.451  1.00  0.00    -0.299 OA
ATOM      9  C   UNL     1       5.559  -3.449  -4.753  1.00  0.00     0.080 C 
ATOM     10  C   UNL     1       6.994  -6.549  -6.466  1.00  0.00     0.020 C 
ATOM     11  C   UNL     1       6.742  -5.787  -3.365  1.00  0.00     0.012 C 
ENDROOT
TORSDOF 0
ENDMDL
MODEL 5
REMARK VINA RESULT:    -3.198      1.418      1.914
REMARK INTER + INTRA:          -3.198
REMARK INTER:                  -3.198
REMARK INTRA:                   0.000
REMARK UNBOUND:                 0.000
REMARK SMILES CC1(C)[C@@H]2CC[C@@]1(C)C(=O)C2
REMARK SMILES IDX 1 1 2 2 4 3 5 4 6 5 7 6 9 7 10 8 11 9 8 10 3 11
REMARK H PARENT
REMARK Flexibility Score: inf
ROOT
ATOM      1  C   UNL     1       7.578  -4.529  -6.460  1.00  0.00     0.012 C 
ATOM      2  C   UNL     1       6.247  -5.261  -6.112  1.00  0.00    -0.020 C 
ATOM      3  C   UNL     1       5.041  -4.310  -5.919  1.00  0.00     0.003 C 
ATOM      4  C   UNL     1       5.453  -3.486  -4.668  1.00  0.00     0.005 C 
ATOM      5  C   UNL     1       6.209  -4.525  -3.801  1.00  0.00     0.015 C 
ATOM      6  C   UNL     1       6.144  -5.803  -4.671  1.00  0.00     0.032 C 
ATOM      7  C   UNL     1       4.694  -6.220  -4.633  1.00  0.00     0.139 C 
ATOM      8  O   UNL     1       4.226  -7.134  -3.971  1.00  0.00    -0.299 OA
ATOM      9  C   UNL     1       3.898  -5.259  -5.462  1.00  0.00     0.080 C 
ATOM     10  C   UNL     1       7.142  -6.899  -4.279  1.00  0.00     0.020 C 
ATOM     11  C   UNL     1       6.027  -6.330  -7.228  1.00  0.00     0.012 C 
ENDROOT
TORSDOF 0
ENDMDL
MODEL 6
REMARK VINA RESULT:    -3.177      2.512      3.570
REMARK INTER + INTRA:          -3.177
REMARK INTER:                  -3.177
REMARK INTRA:                   0.000
REMARK UNBOUND:                 0.000
REMARK SMILES CC1(C)[C@@H]2CC[C@@]1(C)C(=O)C2
REMARK SMILES IDX 1 1 2 2 4 3 5 4 6 5 7 6 9 7 10 8 11 9 8 10 3 11
REMARK H PARENT
REMARK Flexibility Score: inf
ROOT
ATOM      1  C   UNL     1       6.594  -6.396  -6.352  1.00  0.00     0.012 C 
ATOM      2  C   UNL     1       5.076  -6.728  -6.468  1.00  0.00    -0.020 C 
ATOM      3  C   UNL     1       4.150  -5.508  -6.244  1.00  0.00     0.003 C 
ATOM      4  C   UNL     1       4.428  -5.137  -4.761  1.00  0.00     0.005 C 
ATOM      5  C   UNL     1       4.641  -6.518  -4.091  1.00  0.00     0.015 C 
ATOM      6  C   UNL     1       4.471  -7.499  -5.276  1.00  0.00     0.032 C 
ATOM      7  C   UNL     1       3.003  -7.436  -5.619  1.00  0.00     0.139 C 
ATOM      8  O   UNL     1       2.161  -8.273  -5.331  1.00  0.00    -0.299 OA
ATOM      9  C   UNL     1       2.723  -6.122  -6.282  1.00  0.00     0.080 C 
ATOM     10  C   UNL     1       5.016  -8.910  -5.026  1.00  0.00     0.020 C 
ATOM     11  C   UNL     1       4.879  -7.414  -7.856  1.00  0.00     0.012 C 
ENDROOT
TORSDOF 0
ENDMDL
MODEL 7
REMARK VINA RESULT:    -3.159      1.399      2.735
REMARK INTER + INTRA:          -3.159
REMARK INTER:                  -3.159
REMARK INTRA:                   0.000
REMARK UNBOUND:                 0.000
REMARK SMILES CC1(C)[C@@H]2CC[C@@]1(C)C(=O)C2
REMARK SMILES IDX 1 1 2 2 4 3 5 4 6 5 7 6 9 7 10 8 11 9 8 10 3 11
REMARK H PARENT
REMARK Flexibility Score: inf
ROOT
ATOM      1  C   UNL     1       2.756  -5.837  -6.176  1.00  0.00     0.012 C 
ATOM      2  C   UNL     1       4.308  -5.725  -6.240  1.00  0.00    -0.020 C 
ATOM      3  C   UNL     1       5.032  -7.091  -6.317  1.00  0.00     0.003 C 
ATOM      4  C   UNL     1       4.674  -7.744  -4.954  1.00  0.00     0.005 C 
ATOM      5  C   UNL     1       4.663  -6.537  -3.982  1.00  0.00     0.015 C 
ATOM      6  C   UNL     1       5.004  -5.350  -4.915  1.00  0.00     0.032 C 
ATOM      7  C   UNL     1       6.451  -5.558  -5.290  1.00  0.00     0.139 C 
ATOM      8  O   UNL     1       7.406  -4.948  -4.833  1.00  0.00    -0.299 OA
ATOM      9  C   UNL     1       6.537  -6.712  -6.240  1.00  0.00     0.080 C 
ATOM     10  C   UNL     1       4.677  -3.966  -4.339  1.00  0.00     0.020 C 
ATOM     11  C   UNL     1       4.634  -4.779  -7.438  1.00  0.00     0.012 C 
ENDROOT
TORSDOF 0
ENDMDL
MODEL 8
REMARK VINA RESULT:    -3.079      1.583      3.050
REMARK INTER + INTRA:          -3.079
REMARK INTER:                  -3.079
REMARK INTRA:                   0.000
REMARK UNBOUND:                 0.000
REMARK SMILES CC1(C)[C@@H]2CC[C@@]1(C)C(=O)C2
REMARK SMILES IDX 1 1 2 2 4 3 5 4 6 5 7 6 9 7 10 8 11 9 8 10 3 11
REMARK H PARENT
REMARK Flexibility Score: inf
ROOT
ATOM      1  C   UNL     1       6.059  -7.296  -6.717  1.00  0.00     0.012 C 
ATOM      2  C   UNL     1       5.980  -5.938  -5.957  1.00  0.00    -0.020 C 
ATOM      3  C   UNL     1       6.829  -5.894  -4.664  1.00  0.00     0.003 C 
ATOM      4  C   UNL     1       6.144  -6.963  -3.769  1.00  0.00     0.005 C 
ATOM      5  C   UNL     1       4.644  -6.807  -4.128  1.00  0.00     0.015 C 
ATOM      6  C   UNL     1       4.666  -5.681  -5.189  1.00  0.00     0.032 C 
ATOM      7  C   UNL     1       5.032  -4.435  -4.420  1.00  0.00     0.139 C 
ATOM      8  O   UNL     1       4.262  -3.548  -4.082  1.00  0.00    -0.299 OA
ATOM      9  C   UNL     1       6.479  -4.512  -4.044  1.00  0.00     0.080 C 
ATOM     10  C   UNL     1       3.391  -5.569  -6.034  1.00  0.00     0.020 C 
ATOM     11  C   UNL     1       6.358  -4.831  -6.990  1.00  0.00     0.012 C 
ENDROOT
TORSDOF 0
ENDMDL
MODEL 9
REMARK VINA RESULT:    -3.067      1.487      2.112
REMARK INTER + INTRA:          -3.067
REMARK INTER:                  -3.067
REMARK INTRA:                   0.000
REMARK UNBOUND:                 0.000
REMARK SMILES CC1(C)[C@@H]2CC[C@@]1(C)C(=O)C2
REMARK SMILES IDX 1 1 2 2 4 3 5 4 6 5 7 6 9 7 10 8 11 9 8 10 3 11
REMARK H PARENT
REMARK Flexibility Score: inf
ROOT
ATOM      1  C   UNL     1       4.142  -5.652  -6.225  1.00  0.00     0.012 C 
ATOM      2  C   UNL     1       5.571  -5.488  -5.624  1.00  0.00    -0.020 C 
ATOM      3  C   UNL     1       5.579  -5.108  -4.124  1.00  0.00     0.003 C 
ATOM      4  C   UNL     1       4.915  -3.703  -4.123  1.00  0.00     0.005 C 
ATOM      5  C   UNL     1       5.436  -3.073  -5.440  1.00  0.00     0.015 C 
ATOM      6  C   UNL     1       6.318  -4.200  -6.029  1.00  0.00     0.032 C 
ATOM      7  C   UNL     1       7.514  -4.271  -5.111  1.00  0.00     0.139 C 
ATOM      8  O   UNL     1       8.628  -3.828  -5.347  1.00  0.00    -0.299 OA
ATOM      9  C   UNL     1       7.085  -4.882  -3.813  1.00  0.00     0.080 C 
ATOM     10  C   UNL     1       6.653  -4.042  -7.517  1.00  0.00     0.020 C 
ATOM     11  C   UNL     1       6.336  -6.811  -5.937  1.00  0.00     0.012 C 
ENDROOT
TORSDOF 0
ENDMDL
