MODEL 1
REMARK VINA RESULT:    -8.471      0.000      0.000
REMARK INTER + INTRA:         -10.362
REMARK INTER:                 -10.205
REMARK INTRA:                  -0.158
REMARK UNBOUND:                -0.158
REMARK SMILES Oc1cc(O)c2cc(O)c(-c3ccc(O)c(O)c3)[o+]c2c1.[Cl-]
REMARK SMILES IDX 10 1 19 2 20 3 21 4 2 5 3 6 4 7 6 8 7 9 8 10 11 11 12 12
REMARK SMILES IDX 13 13 14 14 18 15 16 16 15 17 17 19 9 21 1 23 5 25
REMARK H PARENT 15 18 17 20 9 22 1 24 5 26
REMARK Flexibility Score: inf
ROOT
ATOM      1  C   UNL     1     -34.386  44.241  40.107  1.00  0.00     0.402 A 
ATOM      2  O   UNL     1     -33.988  42.982  40.266  1.00  0.00    -0.202 OA
ATOM      3  C   UNL     1     -34.307  42.243  41.324  1.00  0.00     0.368 A 
ATOM      4  C   UNL     1     -33.843  40.928  41.399  1.00  0.00     0.162 A 
ATOM      5  C   UNL     1     -34.165  40.128  42.499  1.00  0.00     0.128 A 
ATOM      6  C   UNL     1     -34.957  40.646  43.526  1.00  0.00     0.093 A 
ATOM      7  C   UNL     1     -35.435  41.961  43.475  1.00  0.00     0.136 A 
ATOM      8  C   UNL     1     -35.107  42.779  42.361  1.00  0.00     0.125 A 
ATOM      9  C   UNL     1     -35.530  44.111  42.230  1.00  0.00     0.078 A 
ATOM     10  C   UNL     1     -35.163  44.856  41.107  1.00  0.00     0.223 A 
ENDROOT
BRANCH   1  11
ATOM     11  C   UNL     1     -33.972  44.956  38.878  1.00  0.00     0.087 A 
ATOM     12  C   UNL     1     -32.617  45.203  38.596  1.00  0.00     0.022 A 
ATOM     13  C   UNL     1     -32.251  45.902  37.442  1.00  0.00     0.051 A 
ATOM     14  C   UNL     1     -33.233  46.374  36.561  1.00  0.00     0.157 A 
ATOM     15  C   UNL     1     -34.952  45.451  38.002  1.00  0.00     0.068 A 
ATOM     16  C   UNL     1     -34.586  46.151  36.844  1.00  0.00     0.158 A 
BRANCH  14  17
ATOM     17  O   UNL     1     -32.872  47.069  35.408  1.00  0.00    -0.504 OA
ATOM     18  H   UNL     1     -31.958  46.955  34.985  1.00  0.00     0.293 HD
ENDBRANCH  14  17
BRANCH  16  19
ATOM     19  O   UNL     1     -35.561  46.628  35.969  1.00  0.00    -0.504 OA
ATOM     20  H   UNL     1     -36.500  46.246  35.961  1.00  0.00     0.293 HD
ENDBRANCH  16  19
ENDBRANCH   1  11
BRANCH  10  21
ATOM     21  O   UNL     1     -35.540  46.194  41.000  1.00  0.00    -0.500 OA
ATOM     22  H   UNL     1     -35.108  46.916  41.565  1.00  0.00     0.294 HD
ENDBRANCH  10  21
BRANCH   5  23
ATOM     23  O   UNL     1     -33.706  38.815  42.581  1.00  0.00    -0.507 OA
ATOM     24  H   UNL     1     -34.347  38.031  42.627  1.00  0.00     0.293 HD
ENDBRANCH   5  23
BRANCH   7  25
ATOM     25  O   UNL     1     -36.222  42.402  44.542  1.00  0.00    -0.507 OA
ATOM     26  H   UNL     1     -36.159  42.046  45.484  1.00  0.00     0.293 HD
ENDBRANCH   7  25
TORSDOF 6
ENDMDL
MODEL 2
REMARK VINA RESULT:    -7.838      4.780      6.548
REMARK INTER + INTRA:          -9.599
REMARK INTER:                  -9.371
REMARK INTRA:                  -0.229
REMARK UNBOUND:                -0.158
REMARK SMILES Oc1cc(O)c2cc(O)c(-c3ccc(O)c(O)c3)[o+]c2c1.[Cl-]
REMARK SMILES IDX 10 1 19 2 20 3 21 4 2 5 3 6 4 7 6 8 7 9 8 10 11 11 12 12
REMARK SMILES IDX 13 13 14 14 18 15 16 16 15 17 17 19 9 21 1 23 5 25
REMARK H PARENT 15 18 17 20 9 22 1 24 5 26
REMARK Flexibility Score: inf
ROOT
ATOM      1  C   UNL     1     -36.311  39.849  43.348  1.00  0.00     0.402 A 
ATOM      2  O   UNL     1     -36.160  39.428  44.600  1.00  0.00    -0.202 OA
ATOM      3  C   UNL     1     -37.181  39.166  45.411  1.00  0.00     0.368 A 
ATOM      4  C   UNL     1     -36.921  38.725  46.710  1.00  0.00     0.162 A 
ATOM      5  C   UNL     1     -37.976  38.439  47.583  1.00  0.00     0.128 A 
ATOM      6  C   UNL     1     -39.295  38.594  47.151  1.00  0.00     0.093 A 
ATOM      7  C   UNL     1     -39.582  39.034  45.853  1.00  0.00     0.136 A 
ATOM      8  C   UNL     1     -38.514  39.329  44.965  1.00  0.00     0.125 A 
ATOM      9  C   UNL     1     -38.706  39.787  43.652  1.00  0.00     0.078 A 
ATOM     10  C   UNL     1     -37.605  40.061  42.837  1.00  0.00     0.223 A 
ENDROOT
BRANCH   1  11
ATOM     11  C   UNL     1     -35.094  40.098  42.542  1.00  0.00     0.087 A 
ATOM     12  C   UNL     1     -34.229  41.168  42.833  1.00  0.00     0.022 A 
ATOM     13  C   UNL     1     -33.099  41.398  42.043  1.00  0.00     0.051 A 
ATOM     14  C   UNL     1     -32.824  40.572  40.946  1.00  0.00     0.157 A 
ATOM     15  C   UNL     1     -34.824  39.287  41.427  1.00  0.00     0.068 A 
ATOM     16  C   UNL     1     -33.690  39.517  40.636  1.00  0.00     0.158 A 
BRANCH  14  17
ATOM     17  O   UNL     1     -31.697  40.797  40.157  1.00  0.00    -0.504 OA
ATOM     18  H   UNL     1     -31.124  40.032  39.822  1.00  0.00     0.293 HD
ENDBRANCH  14  17
BRANCH  16  19
ATOM     19  O   UNL     1     -33.418  38.700  39.538  1.00  0.00    -0.504 OA
ATOM     20  H   UNL     1     -32.945  37.810  39.644  1.00  0.00     0.293 HD
ENDBRANCH  16  19
ENDBRANCH   1  11
BRANCH  10  21
ATOM     21  O   UNL     1     -37.794  40.565  41.550  1.00  0.00    -0.500 OA
ATOM     22  H   UNL     1     -38.044  41.534  41.389  1.00  0.00     0.294 HD
ENDBRANCH  10  21
BRANCH   5  23
ATOM     23  O   UNL     1     -37.724  37.999  48.880  1.00  0.00    -0.507 OA
ATOM     24  H   UNL     1     -38.471  37.890  49.556  1.00  0.00     0.293 HD
ENDBRANCH   5  23
BRANCH   7  25
ATOM     25  O   UNL     1     -40.928  39.160  45.499  1.00  0.00    -0.507 OA
ATOM     26  H   UNL     1     -41.427  40.036  45.455  1.00  0.00     0.293 HD
ENDBRANCH   7  25
TORSDOF 6
ENDMDL
MODEL 3
REMARK VINA RESULT:    -7.810      1.906      7.172
REMARK INTER + INTRA:          -9.566
REMARK INTER:                  -9.214
REMARK INTRA:                  -0.352
REMARK UNBOUND:                -0.158
REMARK SMILES Oc1cc(O)c2cc(O)c(-c3ccc(O)c(O)c3)[o+]c2c1.[Cl-]
REMARK SMILES IDX 10 1 19 2 20 3 21 4 2 5 3 6 4 7 6 8 7 9 8 10 11 11 12 12
REMARK SMILES IDX 13 13 14 14 18 15 16 16 15 17 17 19 9 21 1 23 5 25
REMARK H PARENT 15 18 17 20 9 22 1 24 5 26
REMARK Flexibility Score: inf
ROOT
ATOM      1  C   UNL     1     -35.117  41.527  42.055  1.00  0.00     0.402 A 
ATOM      2  O   UNL     1     -34.702  41.719  40.805  1.00  0.00    -0.202 OA
ATOM      3  C   UNL     1     -34.698  42.908  40.211  1.00  0.00     0.368 A 
ATOM      4  C   UNL     1     -34.240  43.008  38.896  1.00  0.00     0.162 A 
ATOM      5  C   UNL     1     -34.222  44.247  38.247  1.00  0.00     0.128 A 
ATOM      6  C   UNL     1     -34.662  45.389  38.920  1.00  0.00     0.093 A 
ATOM      7  C   UNL     1     -35.125  45.315  40.239  1.00  0.00     0.136 A 
ATOM      8  C   UNL     1     -35.149  44.059  40.900  1.00  0.00     0.125 A 
ATOM      9  C   UNL     1     -35.608  43.887  42.216  1.00  0.00     0.078 A 
ATOM     10  C   UNL     1     -35.606  42.617  42.799  1.00  0.00     0.223 A 
ENDROOT
BRANCH   1  11
ATOM     11  C   UNL     1     -35.065  40.155  42.607  1.00  0.00     0.087 A 
ATOM     12  C   UNL     1     -33.925  39.680  43.280  1.00  0.00     0.022 A 
ATOM     13  C   UNL     1     -33.889  38.372  43.773  1.00  0.00     0.051 A 
ATOM     14  C   UNL     1     -34.984  37.518  43.590  1.00  0.00     0.157 A 
ATOM     15  C   UNL     1     -36.151  39.287  42.409  1.00  0.00     0.068 A 
ATOM     16  C   UNL     1     -36.116  37.976  42.904  1.00  0.00     0.158 A 
BRANCH  14  17
ATOM     17  O   UNL     1     -34.953  36.214  44.081  1.00  0.00    -0.504 OA
ATOM     18  H   UNL     1     -35.417  35.963  44.947  1.00  0.00     0.293 HD
ENDBRANCH  14  17
BRANCH  16  19
ATOM     19  O   UNL     1     -37.202  37.121  42.717  1.00  0.00    -0.504 OA
ATOM     20  H   UNL     1     -37.317  36.281  43.271  1.00  0.00     0.293 HD
ENDBRANCH  16  19
ENDBRANCH   1  11
BRANCH  10  21
ATOM     21  O   UNL     1     -36.109  42.437  44.088  1.00  0.00    -0.500 OA
ATOM     22  H   UNL     1     -35.522  42.539  44.907  1.00  0.00     0.294 HD
ENDBRANCH  10  21
BRANCH   5  23
ATOM     23  O   UNL     1     -33.766  44.355  36.935  1.00  0.00    -0.507 OA
ATOM     24  H   UNL     1     -33.448  43.545  36.417  1.00  0.00     0.293 HD
ENDBRANCH   5  23
BRANCH   7  25
ATOM     25  O   UNL     1     -35.545  46.504  40.842  1.00  0.00    -0.507 OA
ATOM     26  H   UNL     1     -36.298  47.083  40.499  1.00  0.00     0.293 HD
ENDBRANCH   7  25
TORSDOF 6
ENDMDL
MODEL 4
REMARK VINA RESULT:    -7.767      4.487      9.963
REMARK INTER + INTRA:          -9.514
REMARK INTER:                  -9.198
REMARK INTRA:                  -0.316
REMARK UNBOUND:                -0.158
REMARK SMILES Oc1cc(O)c2cc(O)c(-c3ccc(O)c(O)c3)[o+]c2c1.[Cl-]
REMARK SMILES IDX 10 1 19 2 20 3 21 4 2 5 3 6 4 7 6 8 7 9 8 10 11 11 12 12
REMARK SMILES IDX 13 13 14 14 18 15 16 16 15 17 17 19 9 21 1 23 5 25
REMARK H PARENT 15 18 17 20 9 22 1 24 5 26
REMARK Flexibility Score: inf
ROOT
ATOM      1  C   UNL     1     -37.716  39.350  44.962  1.00  0.00     0.402 A 
ATOM      2  O   UNL     1     -37.579  40.645  44.693  1.00  0.00    -0.202 OA
ATOM      3  C   UNL     1     -36.756  41.116  43.762  1.00  0.00     0.368 A 
ATOM      4  C   UNL     1     -36.685  42.494  43.551  1.00  0.00     0.162 A 
ATOM      5  C   UNL     1     -35.830  43.016  42.576  1.00  0.00     0.128 A 
ATOM      6  C   UNL     1     -35.045  42.153  41.808  1.00  0.00     0.093 A 
ATOM      7  C   UNL     1     -35.097  40.768  41.999  1.00  0.00     0.136 A 
ATOM      8  C   UNL     1     -35.962  40.234  42.991  1.00  0.00     0.125 A 
ATOM      9  C   UNL     1     -36.071  38.860  43.261  1.00  0.00     0.078 A 
ATOM     10  C   UNL     1     -36.941  38.409  44.257  1.00  0.00     0.223 A 
ENDROOT
BRANCH   1  11
ATOM     11  C   UNL     1     -38.673  38.950  46.018  1.00  0.00     0.087 A 
ATOM     12  C   UNL     1     -40.057  38.905  45.772  1.00  0.00     0.022 A 
ATOM     13  C   UNL     1     -40.945  38.548  46.792  1.00  0.00     0.051 A 
ATOM     14  C   UNL     1     -40.464  38.244  48.072  1.00  0.00     0.157 A 
ATOM     15  C   UNL     1     -38.200  38.665  47.309  1.00  0.00     0.068 A 
ATOM     16  C   UNL     1     -39.090  38.306  48.331  1.00  0.00     0.158 A 
BRANCH  14  17
ATOM     17  O   UNL     1     -41.346  37.886  49.090  1.00  0.00    -0.504 OA
ATOM     18  H   UNL     1     -41.113  37.164  49.763  1.00  0.00     0.293 HD
ENDBRANCH  14  17
BRANCH  16  19
ATOM     19  O   UNL     1     -38.615  38.011  49.609  1.00  0.00    -0.504 OA
ATOM     20  H   UNL     1     -37.909  38.583  50.058  1.00  0.00     0.293 HD
ENDBRANCH  16  19
ENDBRANCH   1  11
BRANCH  10  21
ATOM     21  O   UNL     1     -37.013  37.049  44.561  1.00  0.00    -0.500 OA
ATOM     22  H   UNL     1     -36.314  36.595  45.137  1.00  0.00     0.294 HD
ENDBRANCH  10  21
BRANCH   5  23
ATOM     23  O   UNL     1     -35.753  44.390  42.360  1.00  0.00    -0.507 OA
ATOM     24  H   UNL     1     -36.350  44.854  41.685  1.00  0.00     0.293 HD
ENDBRANCH   5  23
BRANCH   7  25
ATOM     25  O   UNL     1     -34.282  39.974  41.188  1.00  0.00    -0.507 OA
ATOM     26  H   UNL     1     -33.480  39.456  41.517  1.00  0.00     0.293 HD
ENDBRANCH   7  25
TORSDOF 6
ENDMDL
MODEL 5
REMARK VINA RESULT:    -7.760      4.043      9.242
REMARK INTER + INTRA:          -9.505
REMARK INTER:                  -9.253
REMARK INTRA:                  -0.252
REMARK UNBOUND:                -0.158
REMARK SMILES Oc1cc(O)c2cc(O)c(-c3ccc(O)c(O)c3)[o+]c2c1.[Cl-]
REMARK SMILES IDX 10 1 19 2 20 3 21 4 2 5 3 6 4 7 6 8 7 9 8 10 11 11 12 12
REMARK SMILES IDX 13 13 14 14 18 15 16 16 15 17 17 19 9 21 1 23 5 25
REMARK H PARENT 15 18 17 20 9 22 1 24 5 26
REMARK Flexibility Score: inf
ROOT
ATOM      1  C   UNL     1     -37.146  39.464  44.083  1.00  0.00     0.402 A 
ATOM      2  O   UNL     1     -35.851  39.763  44.131  1.00  0.00    -0.202 OA
ATOM      3  C   UNL     1     -35.221  40.441  43.178  1.00  0.00     0.368 A 
ATOM      4  C   UNL     1     -33.858  40.709  43.321  1.00  0.00     0.162 A 
ATOM      5  C   UNL     1     -33.171  41.423  42.334  1.00  0.00     0.128 A 
ATOM      6  C   UNL     1     -33.853  41.874  41.202  1.00  0.00     0.093 A 
ATOM      7  C   UNL     1     -35.220  41.619  41.035  1.00  0.00     0.136 A 
ATOM      8  C   UNL     1     -35.920  40.891  42.032  1.00  0.00     0.125 A 
ATOM      9  C   UNL     1     -37.286  40.578  41.944  1.00  0.00     0.078 A 
ATOM     10  C   UNL     1     -37.906  39.852  42.964  1.00  0.00     0.223 A 
ENDROOT
BRANCH   1  11
ATOM     11  C   UNL     1     -37.734  38.710  45.213  1.00  0.00     0.087 A 
ATOM     12  C   UNL     1     -38.683  39.296  46.070  1.00  0.00     0.022 A 
ATOM     13  C   UNL     1     -39.206  38.572  47.145  1.00  0.00     0.051 A 
ATOM     14  C   UNL     1     -38.781  37.260  47.387  1.00  0.00     0.157 A 
ATOM     15  C   UNL     1     -37.296  37.401  45.474  1.00  0.00     0.068 A 
ATOM     16  C   UNL     1     -37.822  36.675  46.551  1.00  0.00     0.158 A 
BRANCH  14  17
ATOM     17  O   UNL     1     -39.302  36.534  48.457  1.00  0.00    -0.504 OA
ATOM     18  H   UNL     1     -38.910  35.641  48.731  1.00  0.00     0.293 HD
ENDBRANCH  14  17
BRANCH  16  19
ATOM     19  O   UNL     1     -37.395  35.370  46.799  1.00  0.00    -0.504 OA
ATOM     20  H   UNL     1     -37.736  34.843  47.593  1.00  0.00     0.293 HD
ENDBRANCH  16  19
ENDBRANCH   1  11
BRANCH  10  21
ATOM     21  O   UNL     1     -39.251  39.497  42.853  1.00  0.00    -0.500 OA
ATOM     22  H   UNL     1     -39.651  38.747  43.405  1.00  0.00     0.294 HD
ENDBRANCH  10  21
BRANCH   5  23
ATOM     23  O   UNL     1     -31.811  41.694  42.470  1.00  0.00    -0.507 OA
ATOM     24  H   UNL     1     -31.214  41.123  43.057  1.00  0.00     0.293 HD
ENDBRANCH   5  23
BRANCH   7  25
ATOM     25  O   UNL     1     -35.829  42.106  39.874  1.00  0.00    -0.507 OA
ATOM     26  H   UNL     1     -36.331  42.980  39.817  1.00  0.00     0.293 HD
ENDBRANCH   7  25
TORSDOF 6
ENDMDL
MODEL 6
REMARK VINA RESULT:    -7.725      2.476      4.108
REMARK INTER + INTRA:          -9.463
REMARK INTER:                  -9.158
REMARK INTRA:                  -0.305
REMARK UNBOUND:                -0.158
REMARK SMILES Oc1cc(O)c2cc(O)c(-c3ccc(O)c(O)c3)[o+]c2c1.[Cl-]
REMARK SMILES IDX 10 1 19 2 20 3 21 4 2 5 3 6 4 7 6 8 7 9 8 10 11 11 12 12
REMARK SMILES IDX 13 13 14 14 18 15 16 16 15 17 17 19 9 21 1 23 5 25
REMARK H PARENT 15 18 17 20 9 22 1 24 5 26
REMARK Flexibility Score: inf
ROOT
ATOM      1  C   UNL     1     -35.417  42.087  42.213  1.00  0.00     0.402 A 
ATOM      2  O   UNL     1     -36.686  41.807  42.499  1.00  0.00    -0.202 OA
ATOM      3  C   UNL     1     -37.048  40.919  43.419  1.00  0.00     0.368 A 
ATOM      4  C   UNL     1     -38.407  40.697  43.651  1.00  0.00     0.162 A 
ATOM      5  C   UNL     1     -38.817  39.770  44.614  1.00  0.00     0.128 A 
ATOM      6  C   UNL     1     -37.861  39.066  45.350  1.00  0.00     0.093 A 
ATOM      7  C   UNL     1     -36.493  39.271  45.138  1.00  0.00     0.136 A 
ATOM      8  C   UNL     1     -36.072  40.208  44.158  1.00  0.00     0.125 A 
ATOM      9  C   UNL     1     -34.723  40.469  43.867  1.00  0.00     0.078 A 
ATOM     10  C   UNL     1     -34.387  41.403  42.884  1.00  0.00     0.223 A 
ENDROOT
BRANCH   1  11
ATOM     11  C   UNL     1     -35.142  43.104  41.173  1.00  0.00     0.087 A 
ATOM     12  C   UNL     1     -35.273  44.479  41.440  1.00  0.00     0.022 A 
ATOM     13  C   UNL     1     -35.031  45.420  40.434  1.00  0.00     0.051 A 
ATOM     14  C   UNL     1     -34.667  45.002  39.148  1.00  0.00     0.157 A 
ATOM     15  C   UNL     1     -34.798  42.691  39.875  1.00  0.00     0.068 A 
ATOM     16  C   UNL     1     -34.554  43.634  38.867  1.00  0.00     0.158 A 
BRANCH  14  17
ATOM     17  O   UNL     1     -34.424  45.937  38.144  1.00  0.00    -0.504 OA
ATOM     18  H   UNL     1     -33.484  46.125  37.812  1.00  0.00     0.293 HD
ENDBRANCH  14  17
BRANCH  16  19
ATOM     19  O   UNL     1     -34.199  43.221  37.584  1.00  0.00    -0.504 OA
ATOM     20  H   UNL     1     -34.855  43.263  36.813  1.00  0.00     0.293 HD
ENDBRANCH  16  19
ENDBRANCH   1  11
BRANCH  10  21
ATOM     21  O   UNL     1     -33.048  41.627  42.560  1.00  0.00    -0.500 OA
ATOM     22  H   UNL     1     -32.556  41.038  41.897  1.00  0.00     0.294 HD
ENDBRANCH  10  21
BRANCH   5  23
ATOM     23  O   UNL     1     -40.171  39.543  44.851  1.00  0.00    -0.507 OA
ATOM     24  H   UNL     1     -40.485  38.769  45.425  1.00  0.00     0.293 HD
ENDBRANCH   5  23
BRANCH   7  25
ATOM     25  O   UNL     1     -35.601  38.528  45.917  1.00  0.00    -0.507 OA
ATOM     26  H   UNL     1     -35.808  37.624  46.315  1.00  0.00     0.293 HD
ENDBRANCH   7  25
TORSDOF 6
ENDMDL
MODEL 7
REMARK VINA RESULT:    -7.675      3.782      6.586
REMARK INTER + INTRA:          -9.404
REMARK INTER:                  -9.062
REMARK INTRA:                  -0.341
REMARK UNBOUND:                -0.158
REMARK SMILES Oc1cc(O)c2cc(O)c(-c3ccc(O)c(O)c3)[o+]c2c1.[Cl-]
REMARK SMILES IDX 10 1 19 2 20 3 21 4 2 5 3 6 4 7 6 8 7 9 8 10 11 11 12 12
REMARK SMILES IDX 13 13 14 14 18 15 16 16 15 17 17 19 9 21 1 23 5 25
REMARK H PARENT 15 18 17 20 9 22 1 24 5 26
REMARK Flexibility Score: inf
ROOT
ATOM      1  C   UNL     1     -36.225  39.992  43.891  1.00  0.00     0.402 A 
ATOM      2  O   UNL     1     -37.546  39.906  44.029  1.00  0.00    -0.202 OA
ATOM      3  C   UNL     1     -38.136  39.434  45.122  1.00  0.00     0.368 A 
ATOM      4  C   UNL     1     -39.531  39.386  45.174  1.00  0.00     0.162 A 
ATOM      5  C   UNL     1     -40.179  38.897  46.312  1.00  0.00     0.128 A 
ATOM      6  C   UNL     1     -39.427  38.456  47.403  1.00  0.00     0.093 A 
ATOM      7  C   UNL     1     -38.028  38.494  47.377  1.00  0.00     0.136 A 
ATOM      8  C   UNL     1     -37.365  38.987  46.222  1.00  0.00     0.125 A 
ATOM      9  C   UNL     1     -35.968  39.050  46.100  1.00  0.00     0.078 A 
ATOM     10  C   UNL     1     -35.388  39.543  44.929  1.00  0.00     0.223 A 
ENDROOT
BRANCH   1  11
ATOM     11  C   UNL     1     -35.688  40.545  42.627  1.00  0.00     0.087 A 
ATOM     12  C   UNL     1     -35.258  41.882  42.536  1.00  0.00     0.022 A 
ATOM     13  C   UNL     1     -34.778  42.388  41.326  1.00  0.00     0.051 A 
ATOM     14  C   UNL     1     -34.729  41.573  40.188  1.00  0.00     0.157 A 
ATOM     15  C   UNL     1     -35.658  39.740  41.477  1.00  0.00     0.068 A 
ATOM     16  C   UNL     1     -35.174  40.247  40.263  1.00  0.00     0.158 A 
BRANCH  14  17
ATOM     17  O   UNL     1     -34.249  42.074  38.979  1.00  0.00    -0.504 OA
ATOM     18  H   UNL     1     -34.359  43.050  38.729  1.00  0.00     0.293 HD
ENDBRANCH  14  17
BRANCH  16  19
ATOM     19  O   UNL     1     -35.132  39.440  39.127  1.00  0.00    -0.504 OA
ATOM     20  H   UNL     1     -34.569  39.686  38.322  1.00  0.00     0.293 HD
ENDBRANCH  16  19
ENDBRANCH   1  11
BRANCH  10  21
ATOM     21  O   UNL     1     -34.000  39.559  44.788  1.00  0.00    -0.500 OA
ATOM     22  H   UNL     1     -33.539  39.101  44.010  1.00  0.00     0.294 HD
ENDBRANCH  10  21
BRANCH   5  23
ATOM     23  O   UNL     1     -41.570  38.846  46.371  1.00  0.00    -0.507 OA
ATOM     24  H   UNL     1     -42.141  39.634  46.089  1.00  0.00     0.293 HD
ENDBRANCH   5  23
BRANCH   7  25
ATOM     25  O   UNL     1     -37.349  38.037  48.510  1.00  0.00    -0.507 OA
ATOM     26  H   UNL     1     -37.731  38.042  49.445  1.00  0.00     0.293 HD
ENDBRANCH   7  25
TORSDOF 6
ENDMDL
MODEL 8
REMARK VINA RESULT:    -7.631      3.527      5.786
REMARK INTER + INTRA:          -9.350
REMARK INTER:                  -9.009
REMARK INTRA:                  -0.341
REMARK UNBOUND:                -0.158
REMARK SMILES Oc1cc(O)c2cc(O)c(-c3ccc(O)c(O)c3)[o+]c2c1.[Cl-]
REMARK SMILES IDX 10 1 19 2 20 3 21 4 2 5 3 6 4 7 6 8 7 9 8 10 11 11 12 12
REMARK SMILES IDX 13 13 14 14 18 15 16 16 15 17 17 19 9 21 1 23 5 25
REMARK H PARENT 15 18 17 20 9 22 1 24 5 26
REMARK Flexibility Score: inf
ROOT
ATOM      1  C   UNL     1     -35.648  40.344  44.042  1.00  0.00     0.402 A 
ATOM      2  O   UNL     1     -35.764  39.020  44.070  1.00  0.00    -0.202 OA
ATOM      3  C   UNL     1     -36.444  38.365  45.006  1.00  0.00     0.368 A 
ATOM      4  C   UNL     1     -36.511  36.971  44.947  1.00  0.00     0.162 A 
ATOM      5  C   UNL     1     -37.222  36.257  45.917  1.00  0.00     0.128 A 
ATOM      6  C   UNL     1     -37.869  36.943  46.947  1.00  0.00     0.093 A 
ATOM      7  C   UNL     1     -37.818  38.339  47.029  1.00  0.00     0.136 A 
ATOM      8  C   UNL     1     -37.094  39.068  46.048  1.00  0.00     0.125 A 
ATOM      9  C   UNL     1     -36.977  40.467  46.056  1.00  0.00     0.078 A 
ATOM     10  C   UNL     1     -36.243  41.115  45.059  1.00  0.00     0.223 A 
ENDROOT
BRANCH   1  11
ATOM     11  C   UNL     1     -34.871  40.957  42.941  1.00  0.00     0.087 A 
ATOM     12  C   UNL     1     -33.474  41.099  43.022  1.00  0.00     0.022 A 
ATOM     13  C   UNL     1     -32.764  41.702  41.980  1.00  0.00     0.051 A 
ATOM     14  C   UNL     1     -33.438  42.182  40.850  1.00  0.00     0.157 A 
ATOM     15  C   UNL     1     -35.543  41.459  41.815  1.00  0.00     0.068 A 
ATOM     16  C   UNL     1     -34.832  42.063  40.770  1.00  0.00     0.158 A 
BRANCH  14  17
ATOM     17  O   UNL     1     -32.734  42.782  39.808  1.00  0.00    -0.504 OA
ATOM     18  H   UNL     1     -32.182  43.619  39.955  1.00  0.00     0.293 HD
ENDBRANCH  14  17
BRANCH  16  19
ATOM     19  O   UNL     1     -35.502  42.549  39.647  1.00  0.00    -0.504 OA
ATOM     20  H   UNL     1     -35.992  43.435  39.665  1.00  0.00     0.293 HD
ENDBRANCH  16  19
ENDBRANCH   1  11
BRANCH  10  21
ATOM     21  O   UNL     1     -36.084  42.500  45.094  1.00  0.00    -0.500 OA
ATOM     22  H   UNL     1     -35.254  42.931  45.487  1.00  0.00     0.294 HD
ENDBRANCH  10  21
BRANCH   5  23
ATOM     23  O   UNL     1     -37.293  34.867  45.865  1.00  0.00    -0.507 OA
ATOM     24  H   UNL     1     -36.841  34.341  45.127  1.00  0.00     0.293 HD
ENDBRANCH   5  23
BRANCH   7  25
ATOM     25  O   UNL     1     -38.494  38.949  48.089  1.00  0.00    -0.507 OA
ATOM     26  H   UNL     1     -39.085  39.762  47.997  1.00  0.00     0.293 HD
ENDBRANCH   7  25
TORSDOF 6
ENDMDL
MODEL 9
REMARK VINA RESULT:    -7.609      3.505      8.609
REMARK INTER + INTRA:          -9.323
REMARK INTER:                  -8.989
REMARK INTRA:                  -0.334
REMARK UNBOUND:                -0.158
REMARK SMILES Oc1cc(O)c2cc(O)c(-c3ccc(O)c(O)c3)[o+]c2c1.[Cl-]
REMARK SMILES IDX 10 1 19 2 20 3 21 4 2 5 3 6 4 7 6 8 7 9 8 10 11 11 12 12
REMARK SMILES IDX 13 13 14 14 18 15 16 16 15 17 17 19 9 21 1 23 5 25
REMARK H PARENT 15 18 17 20 9 22 1 24 5 26
REMARK Flexibility Score: inf
ROOT
ATOM      1  C   UNL     1     -36.293  39.671  43.386  1.00  0.00     0.402 A 
ATOM      2  O   UNL     1     -34.989  39.934  43.345  1.00  0.00    -0.202 OA
ATOM      3  C   UNL     1     -34.424  40.676  42.398  1.00  0.00     0.368 A 
ATOM      4  C   UNL     1     -33.046  40.900  42.442  1.00  0.00     0.162 A 
ATOM      5  C   UNL     1     -32.426  41.679  41.460  1.00  0.00     0.128 A 
ATOM      6  C   UNL     1     -33.189  42.239  40.433  1.00  0.00     0.093 A 
ATOM      7  C   UNL     1     -34.572  42.030  40.367  1.00  0.00     0.136 A 
ATOM      8  C   UNL     1     -35.206  41.237  41.359  1.00  0.00     0.125 A 
ATOM      9  C   UNL     1     -36.583  40.964  41.367  1.00  0.00     0.078 A 
ATOM     10  C   UNL     1     -37.134  40.169  42.375  1.00  0.00     0.223 A 
ENDROOT
BRANCH   1  11
ATOM     11  C   UNL     1     -36.803  38.838  44.498  1.00  0.00     0.087 A 
ATOM     12  C   UNL     1     -36.759  37.433  44.441  1.00  0.00     0.022 A 
ATOM     13  C   UNL     1     -37.269  36.667  45.493  1.00  0.00     0.051 A 
ATOM     14  C   UNL     1     -37.841  37.290  46.609  1.00  0.00     0.157 A 
ATOM     15  C   UNL     1     -37.397  39.456  45.611  1.00  0.00     0.068 A 
ATOM     16  C   UNL     1     -37.908  38.688  46.666  1.00  0.00     0.158 A 
BRANCH  14  17
ATOM     17  O   UNL     1     -38.349  36.530  47.661  1.00  0.00    -0.504 OA
ATOM     18  H   UNL     1     -38.601  36.953  48.547  1.00  0.00     0.293 HD
ENDBRANCH  14  17
BRANCH  16  19
ATOM     19  O   UNL     1     -38.484  39.307  47.775  1.00  0.00    -0.504 OA
ATOM     20  H   UNL     1     -39.477  39.237  47.964  1.00  0.00     0.293 HD
ENDBRANCH  16  19
ENDBRANCH   1  11
BRANCH  10  21
ATOM     21  O   UNL     1     -38.494  39.856  42.354  1.00  0.00    -0.500 OA
ATOM     22  H   UNL     1     -39.169  40.445  41.880  1.00  0.00     0.294 HD
ENDBRANCH  10  21
BRANCH   5  23
ATOM     23  O   UNL     1     -31.052  41.906  41.497  1.00  0.00    -0.507 OA
ATOM     24  H   UNL     1     -30.442  41.586  40.753  1.00  0.00     0.293 HD
ENDBRANCH   5  23
BRANCH   7  25
ATOM     25  O   UNL     1     -35.264  42.627  39.309  1.00  0.00    -0.507 OA
ATOM     26  H   UNL     1     -35.988  43.321  39.420  1.00  0.00     0.293 HD
ENDBRANCH   7  25
TORSDOF 6
ENDMDL
