MODEL 1
REMARK VINA RESULT:    -3.735      0.000      0.000
REMARK INTER + INTRA:          -4.889
REMARK INTER:                  -5.045
REMARK INTRA:                   0.156
REMARK UNBOUND:                 0.156
REMARK SMILES C=C1C(=O)O[C@@H]2[C@@H]1CCC(C)=CCC[C@]1(C)O[C@H]21
REMARK SMILES IDX 6 1 7 2 2 3 1 4 3 5 4 6 5 7 8 8 9 9 10 10 11 11 12 12 18 14
REMARK SMILES IDX 15 15 17 16 16 17 14 18 13 19
REMARK H PARENT
REMARK Flexibility Score: 70.00
ROOT
ATOM      1  C   UNL     1      19.798  -0.881   5.192  1.00  0.00     0.216 C 
ATOM      2  C   UNL     1      19.213  -2.179   5.861  1.00  0.00     0.070 C 
ATOM      3  C   UNL     1      18.294  -2.706   4.801  1.00  0.00     0.037 C 
ATOM      4  C   UNL     1      17.360  -3.643   4.960  1.00  0.00     0.021 C 
ATOM      5  C   UNL     1      18.629  -2.044   3.568  1.00  0.00     0.334 C 
ATOM      6  O   UNL     1      18.157  -2.313   2.432  1.00  0.00    -0.247 OA
ATOM      7  O   UNL     1      19.569  -1.064   3.794  1.00  0.00    -0.455 OA
ENDROOT
BRANCH   2   8
ATOM      8  C   UNL     1      20.303  -3.249   6.131  1.00  0.00     0.017 C 
BRANCH   8   9
ATOM      9  C   UNL     1      21.617  -2.729   6.739  1.00  0.00     0.031 C 
BRANCH   9  10
ATOM     10  C   UNL     1      21.519  -2.462   8.229  1.00  0.00    -0.077 C 
ATOM     11  C   UNL     1      21.546  -3.640   9.169  1.00  0.00     0.039 C 
ATOM     12  C   UNL     1      21.428  -1.224   8.767  1.00  0.00    -0.028 CG0
ATOM     13  G   UNL     1      21.250   0.062   7.997  1.00  0.00     0.000 G0
ENDBRANCH   9  10
ENDBRANCH   8   9
ENDBRANCH   2   8
BRANCH   1  14
ATOM     14  C   UNL     1      19.158   0.485   5.562  1.00  0.00     0.192 C 
ATOM     15  C   UNL     1      19.201   1.170   6.899  1.00  0.00     0.096 C 
ATOM     16  O   UNL     1      18.102   0.376   6.488  1.00  0.00    -0.362 OA
ATOM     17  C   UNL     1      18.820   2.654   6.918  1.00  0.00     0.045 C 
BRANCH  15  18
ATOM     18  C   UNL     1      19.819   0.608   8.195  1.00  0.00     0.042 C 
BRANCH  18  19
ATOM     19  C   UNL     1      21.244   0.071   8.000  1.00  0.00     0.030 CG0
ATOM     20  G   UNL     1      21.418  -1.219   8.764  1.00  0.00     0.000 G0
ENDBRANCH  18  19
ENDBRANCH  15  18
ENDBRANCH   1  14
TORSDOF 0
ENDMDL
MODEL 2
REMARK VINA RESULT:    -3.664      1.596      3.812
REMARK INTER + INTRA:          -4.793
REMARK INTER:                  -4.950
REMARK INTRA:                   0.157
REMARK UNBOUND:                 0.156
REMARK SMILES C=C1C(=O)O[C@@H]2[C@@H]1CCC(C)=CCC[C@]1(C)O[C@H]21
REMARK SMILES IDX 6 1 7 2 2 3 1 4 3 5 4 6 5 7 8 8 9 9 10 10 11 11 12 12 18 14
REMARK SMILES IDX 15 15 17 16 16 17 14 18 13 19
REMARK H PARENT
REMARK Flexibility Score: 70.00
ROOT
ATOM      1  C   UNL     1      18.970  -2.249   5.847  1.00  0.00     0.216 C 
ATOM      2  C   UNL     1      18.842  -1.210   4.673  1.00  0.00     0.070 C 
ATOM      3  C   UNL     1      18.225  -2.029   3.579  1.00  0.00     0.037 C 
ATOM      4  C   UNL     1      18.146  -1.695   2.292  1.00  0.00     0.021 C 
ATOM      5  C   UNL     1      17.698  -3.227   4.179  1.00  0.00     0.334 C 
ATOM      6  O   UNL     1      17.000  -4.099   3.598  1.00  0.00    -0.247 OA
ATOM      7  O   UNL     1      18.052  -3.288   5.508  1.00  0.00    -0.455 OA
ENDROOT
BRANCH   2   8
ATOM      8  C   UNL     1      17.872  -0.049   5.013  1.00  0.00     0.017 C 
BRANCH   8   9
ATOM      9  C   UNL     1      17.996   0.535   6.430  1.00  0.00     0.031 C 
BRANCH   9  10
ATOM     10  C   UNL     1      19.166   1.490   6.581  1.00  0.00    -0.077 C 
ATOM     11  C   UNL     1      19.028   2.882   6.021  1.00  0.00     0.039 C 
ATOM     12  C   UNL     1      20.322   1.169   7.207  1.00  0.00    -0.028 CG0
ATOM     13  G   UNL     1      20.704  -0.201   7.709  1.00  0.00     0.000 G0
ENDBRANCH   9  10
ENDBRANCH   8   9
ENDBRANCH   2   8
BRANCH   1  14
ATOM     14  C   UNL     1      20.345  -2.939   6.067  1.00  0.00     0.192 C 
ATOM     15  C   UNL     1      21.611  -2.293   6.554  1.00  0.00     0.096 C 
ATOM     16  O   UNL     1      21.342  -2.495   5.178  1.00  0.00    -0.362 OA
ATOM     17  C   UNL     1      22.718  -3.238   7.034  1.00  0.00     0.045 C 
BRANCH  15  18
ATOM     18  C   UNL     1      21.818  -0.794   6.850  1.00  0.00     0.042 C 
BRANCH  18  19
ATOM     19  C   UNL     1      20.710  -0.194   7.727  1.00  0.00     0.030 CG0
ATOM     20  G   UNL     1      20.320   1.167   7.205  1.00  0.00     0.000 G0
ENDBRANCH  18  19
ENDBRANCH  15  18
ENDBRANCH   1  14
TORSDOF 0
ENDMDL
MODEL 3
REMARK VINA RESULT:    -3.624      2.769      5.156
REMARK INTER + INTRA:          -4.739
REMARK INTER:                  -5.239
REMARK INTRA:                   0.501
REMARK UNBOUND:                 0.156
REMARK SMILES C=C1C(=O)O[C@@H]2[C@@H]1CCC(C)=CCC[C@]1(C)O[C@H]21
REMARK SMILES IDX 6 1 7 2 2 3 1 4 3 5 4 6 5 7 8 8 9 9 10 10 11 11 12 12 18 14
REMARK SMILES IDX 15 15 17 16 16 17 14 18 13 19
REMARK H PARENT
REMARK Flexibility Score: 70.00
ROOT
ATOM      1  C   UNL     1      18.373  -0.125   4.936  1.00  0.00     0.216 C 
ATOM      2  C   UNL     1      19.440  -1.170   5.431  1.00  0.00     0.070 C 
ATOM      3  C   UNL     1      19.960  -0.536   6.686  1.00  0.00     0.037 C 
ATOM      4  C   UNL     1      21.060  -0.886   7.351  1.00  0.00     0.021 C 
ATOM      5  C   UNL     1      19.032   0.498   7.066  1.00  0.00     0.334 C 
ATOM      6  O   UNL     1      19.066   1.166   8.133  1.00  0.00    -0.247 OA
ATOM      7  O   UNL     1      18.069   0.652   6.095  1.00  0.00    -0.455 OA
ENDROOT
BRANCH   2   8
ATOM      8  C   UNL     1      18.804  -2.533   5.807  1.00  0.00     0.017 C 
BRANCH   8   9
ATOM      9  C   UNL     1      18.871  -3.625   4.726  1.00  0.00     0.031 C 
BRANCH   9  10
ATOM     10  C   UNL     1      17.695  -3.588   3.767  1.00  0.00    -0.077 C 
ATOM     11  C   UNL     1      16.534  -4.514   4.026  1.00  0.00     0.039 C 
ATOM     12  C   UNL     1      17.620  -2.758   2.701  1.00  0.00    -0.028 CG0
ATOM     13  G   UNL     1      18.726  -1.863   2.199  1.00  0.00     0.000 G0
ENDBRANCH   9  10
ENDBRANCH   8   9
ENDBRANCH   2   8
BRANCH   1  14
ATOM     14  C   UNL     1      18.794   0.885   3.834  1.00  0.00     0.192 C 
ATOM     15  C   UNL     1      18.661   0.707   2.348  1.00  0.00     0.096 C 
ATOM     16  O   UNL     1      19.866   0.432   3.040  1.00  0.00    -0.362 OA
ATOM     17  C   UNL     1      18.803   1.971   1.494  1.00  0.00     0.045 C 
BRANCH  15  18
ATOM     18  C   UNL     1      18.156  -0.555   1.619  1.00  0.00     0.042 C 
BRANCH  18  19
ATOM     19  C   UNL     1      18.736  -1.855   2.193  1.00  0.00     0.030 CG0
ATOM     20  G   UNL     1      17.620  -2.745   2.683  1.00  0.00     0.000 G0
ENDBRANCH  18  19
ENDBRANCH  15  18
ENDBRANCH   1  14
TORSDOF 0
ENDMDL
MODEL 4
REMARK VINA RESULT:    -3.472      2.707      4.596
REMARK INTER + INTRA:          -4.534
REMARK INTER:                  -5.023
REMARK INTRA:                   0.489
REMARK UNBOUND:                 0.156
REMARK SMILES C=C1C(=O)O[C@@H]2[C@@H]1CCC(C)=CCC[C@]1(C)O[C@H]21
REMARK SMILES IDX 6 1 7 2 2 3 1 4 3 5 4 6 5 7 8 8 9 9 10 10 11 11 12 12 18 14
REMARK SMILES IDX 15 15 17 16 16 17 14 18 13 19
REMARK H PARENT
REMARK Flexibility Score: 70.00
ROOT
ATOM      1  C   UNL     1      21.046  -2.125   2.942  1.00  0.00     0.216 C 
ATOM      2  C   UNL     1      19.915  -1.114   2.525  1.00  0.00     0.070 C 
ATOM      3  C   UNL     1      20.388  -0.631   1.186  1.00  0.00     0.037 C 
ATOM      4  C   UNL     1      19.927   0.428   0.522  1.00  0.00     0.021 C 
ATOM      5  C   UNL     1      21.405  -1.542   0.731  1.00  0.00     0.334 C 
ATOM      6  O   UNL     1      21.950  -1.534  -0.405  1.00  0.00    -0.247 OA
ATOM      7  O   UNL     1      21.701  -2.456   1.716  1.00  0.00    -0.455 OA
ENDROOT
BRANCH   2   8
ATOM      8  C   UNL     1      18.542  -1.808   2.330  1.00  0.00     0.017 C 
BRANCH   8   9
ATOM      9  C   UNL     1      17.590  -1.761   3.536  1.00  0.00     0.031 C 
BRANCH   9  10
ATOM     10  C   UNL     1      17.811  -2.900   4.515  1.00  0.00    -0.077 C 
ATOM     11  C   UNL     1      16.938  -4.123   4.396  1.00  0.00     0.039 C 
ATOM     12  C   UNL     1      18.760  -2.888   5.480  1.00  0.00    -0.028 CG0
ATOM     13  G   UNL     1      19.634  -1.714   5.846  1.00  0.00     0.000 G0
ENDBRANCH   9  10
ENDBRANCH   8   9
ENDBRANCH   2   8
BRANCH   1  14
ATOM     14  C   UNL     1      22.156  -1.625   3.906  1.00  0.00     0.192 C 
ATOM     15  C   UNL     1      22.158  -1.717   5.406  1.00  0.00     0.096 C 
ATOM     16  O   UNL     1      21.749  -0.548   4.717  1.00  0.00    -0.362 OA
ATOM     17  C   UNL     1      23.505  -1.492   6.101  1.00  0.00     0.045 C 
BRANCH  15  18
ATOM     18  C   UNL     1      21.014  -2.251   6.291  1.00  0.00     0.042 C 
BRANCH  18  19
ATOM     19  C   UNL     1      19.632  -1.732   5.869  1.00  0.00     0.030 CG0
ATOM     20  G   UNL     1      18.743  -2.888   5.481  1.00  0.00     0.000 G0
ENDBRANCH  18  19
ENDBRANCH  15  18
ENDBRANCH   1  14
TORSDOF 0
ENDMDL
MODEL 5
REMARK VINA RESULT:    -3.459      2.312      4.279
REMARK INTER + INTRA:          -4.516
REMARK INTER:                  -4.679
REMARK INTRA:                   0.163
REMARK UNBOUND:                 0.156
REMARK SMILES C=C1C(=O)O[C@@H]2[C@@H]1CCC(C)=CCC[C@]1(C)O[C@H]21
REMARK SMILES IDX 6 1 7 2 2 3 1 4 3 5 4 6 5 7 8 8 9 9 10 10 11 11 12 12 18 14
REMARK SMILES IDX 15 15 17 16 16 17 14 18 13 19
REMARK H PARENT
REMARK Flexibility Score: 70.00
ROOT
ATOM      1  C   UNL     1      18.428  -0.753   3.242  1.00  0.00     0.216 C 
ATOM      2  C   UNL     1      19.964  -0.790   2.902  1.00  0.00     0.070 C 
ATOM      3  C   UNL     1      19.983  -0.448   1.442  1.00  0.00     0.037 C 
ATOM      4  C   UNL     1      21.011  -0.599   0.609  1.00  0.00     0.021 C 
ATOM      5  C   UNL     1      18.697   0.110   1.110  1.00  0.00     0.334 C 
ATOM      6  O   UNL     1      18.378   0.628   0.007  1.00  0.00    -0.247 OA
ATOM      7  O   UNL     1      17.847   0.017   2.188  1.00  0.00    -0.455 OA
ENDROOT
BRANCH   2   8
ATOM      8  C   UNL     1      20.765   0.298   3.662  1.00  0.00     0.017 C 
BRANCH   8   9
ATOM      9  C   UNL     1      20.601   0.305   5.191  1.00  0.00     0.031 C 
BRANCH   9  10
ATOM     10  C   UNL     1      21.328  -0.839   5.875  1.00  0.00    -0.077 C 
ATOM     11  C   UNL     1      22.817  -0.719   6.077  1.00  0.00     0.039 C 
ATOM     12  C   UNL     1      20.714  -1.955   6.330  1.00  0.00    -0.028 CG0
ATOM     13  G   UNL     1      19.267  -2.322   6.105  1.00  0.00     0.000 G0
ENDBRANCH   9  10
ENDBRANCH   8   9
ENDBRANCH   2   8
BRANCH   1  14
ATOM     14  C   UNL     1      17.653  -2.098   3.275  1.00  0.00     0.192 C 
ATOM     15  C   UNL     1      17.965  -3.299   4.124  1.00  0.00     0.096 C 
ATOM     16  O   UNL     1      18.399  -3.186   2.779  1.00  0.00    -0.362 OA
ATOM     17  C   UNL     1      16.859  -4.351   4.249  1.00  0.00     0.045 C 
BRANCH  15  18
ATOM     18  C   UNL     1      19.172  -3.461   5.069  1.00  0.00     0.042 C 
BRANCH  18  19
ATOM     19  C   UNL     1      19.268  -2.349   6.122  1.00  0.00     0.030 CG0
ATOM     20  G   UNL     1      20.710  -1.954   6.326  1.00  0.00     0.000 G0
ENDBRANCH  18  19
ENDBRANCH  15  18
ENDBRANCH   1  14
TORSDOF 0
ENDMDL
MODEL 6
REMARK VINA RESULT:    -3.429      3.052      4.868
REMARK INTER + INTRA:          -4.476
REMARK INTER:                  -4.650
REMARK INTRA:                   0.174
REMARK UNBOUND:                 0.156
REMARK SMILES C=C1C(=O)O[C@@H]2[C@@H]1CCC(C)=CCC[C@]1(C)O[C@H]21
REMARK SMILES IDX 6 1 7 2 2 3 1 4 3 5 4 6 5 7 8 8 9 9 10 10 11 11 12 12 18 14
REMARK SMILES IDX 15 15 17 16 16 17 14 18 13 19
REMARK H PARENT
REMARK Flexibility Score: 70.00
ROOT
ATOM      1  C   UNL     1      19.974  -1.343   2.521  1.00  0.00     0.216 C 
ATOM      2  C   UNL     1      21.117  -0.963   3.533  1.00  0.00     0.070 C 
ATOM      3  C   UNL     1      22.333  -1.563   2.892  1.00  0.00     0.037 C 
ATOM      4  C   UNL     1      23.519  -1.750   3.469  1.00  0.00     0.021 C 
ATOM      5  C   UNL     1      21.997  -1.866   1.525  1.00  0.00     0.334 C 
ATOM      6  O   UNL     1      22.797  -2.266   0.639  1.00  0.00    -0.247 OA
ATOM      7  O   UNL     1      20.658  -1.639   1.303  1.00  0.00    -0.455 OA
ENDROOT
BRANCH   2   8
ATOM      8  C   UNL     1      21.332   0.569   3.635  1.00  0.00     0.017 C 
BRANCH   8   9
ATOM      9  C   UNL     1      20.066   1.410   3.872  1.00  0.00     0.031 C 
BRANCH   9  10
ATOM     10  C   UNL     1      19.561   1.337   5.302  1.00  0.00    -0.077 C 
ATOM     11  C   UNL     1      20.265   2.159   6.350  1.00  0.00     0.039 C 
ATOM     12  C   UNL     1      18.502   0.588   5.688  1.00  0.00    -0.028 CG0
ATOM     13  G   UNL     1      17.757  -0.400   4.824  1.00  0.00     0.000 G0
ENDBRANCH   9  10
ENDBRANCH   8   9
ENDBRANCH   2   8
BRANCH   1  14
ATOM     14  C   UNL     1      19.098  -2.586   2.840  1.00  0.00     0.192 C 
ATOM     15  C   UNL     1      18.218  -2.785   4.041  1.00  0.00     0.096 C 
ATOM     16  O   UNL     1      19.535  -3.303   3.971  1.00  0.00    -0.362 OA
ATOM     17  C   UNL     1      17.186  -3.914   3.952  1.00  0.00     0.045 C 
BRANCH  15  18
ATOM     18  C   UNL     1      18.077  -1.827   5.241  1.00  0.00     0.042 C 
BRANCH  18  19
ATOM     19  C   UNL     1      17.739  -0.388   4.828  1.00  0.00     0.030 CG0
ATOM     20  G   UNL     1      18.494   0.589   5.696  1.00  0.00     0.000 G0
ENDBRANCH  18  19
ENDBRANCH  15  18
ENDBRANCH   1  14
TORSDOF 0
ENDMDL
MODEL 7
REMARK VINA RESULT:    -3.403      2.896      5.712
REMARK INTER + INTRA:          -4.441
REMARK INTER:                  -4.574
REMARK INTRA:                   0.133
REMARK UNBOUND:                 0.156
REMARK SMILES C=C1C(=O)O[C@@H]2[C@@H]1CCC(C)=CCC[C@]1(C)O[C@H]21
REMARK SMILES IDX 6 1 7 2 2 3 1 4 3 5 4 6 5 7 8 8 9 9 10 10 11 11 12 12 18 14
REMARK SMILES IDX 15 15 17 16 16 17 14 18 13 19
REMARK H PARENT
REMARK Flexibility Score: 70.00
ROOT
ATOM      1  C   UNL     1      19.956  -0.957   5.470  1.00  0.00     0.216 C 
ATOM      2  C   UNL     1      19.552   0.525   5.128  1.00  0.00     0.070 C 
ATOM      3  C   UNL     1      19.350   1.129   6.485  1.00  0.00     0.037 C 
ATOM      4  C   UNL     1      18.750   2.289   6.752  1.00  0.00     0.021 C 
ATOM      5  C   UNL     1      19.956   0.247   7.448  1.00  0.00     0.334 C 
ATOM      6  O   UNL     1      20.097   0.479   8.678  1.00  0.00    -0.247 OA
ATOM      7  O   UNL     1      20.389  -0.905   6.830  1.00  0.00    -0.455 OA
ENDROOT
BRANCH   2   8
ATOM      8  C   UNL     1      20.692   1.301   4.419  1.00  0.00     0.017 C 
BRANCH   8   9
ATOM      9  C   UNL     1      21.384   0.564   3.259  1.00  0.00     0.031 C 
BRANCH   9  10
ATOM     10  C   UNL     1      20.567   0.567   1.980  1.00  0.00    -0.077 C 
ATOM     11  C   UNL     1      20.545   1.825   1.150  1.00  0.00     0.039 C 
ATOM     12  C   UNL     1      19.870  -0.502   1.531  1.00  0.00    -0.028 CG0
ATOM     13  G   UNL     1      19.657  -1.795   2.279  1.00  0.00     0.000 G0
ENDBRANCH   9  10
ENDBRANCH   8   9
ENDBRANCH   2   8
BRANCH   1  14
ATOM     14  C   UNL     1      18.853  -2.049   5.407  1.00  0.00     0.192 C 
ATOM     15  C   UNL     1      18.096  -2.497   4.189  1.00  0.00     0.096 C 
ATOM     16  O   UNL     1      17.578  -1.539   5.095  1.00  0.00    -0.362 OA
ATOM     17  C   UNL     1      17.335  -3.822   4.308  1.00  0.00     0.045 C 
BRANCH  15  18
ATOM     18  C   UNL     1      18.205  -1.898   2.773  1.00  0.00     0.042 C 
BRANCH  18  19
ATOM     19  C   UNL     1      19.651  -1.809   2.264  1.00  0.00     0.030 CG0
ATOM     20  G   UNL     1      19.860  -0.507   1.531  1.00  0.00     0.000 G0
ENDBRANCH  18  19
ENDBRANCH  15  18
ENDBRANCH   1  14
TORSDOF 0
ENDMDL
MODEL 8
REMARK VINA RESULT:    -3.303      2.919      5.264
REMARK INTER + INTRA:          -4.305
REMARK INTER:                  -4.447
REMARK INTRA:                   0.141
REMARK UNBOUND:                 0.156
REMARK SMILES C=C1C(=O)O[C@@H]2[C@@H]1CCC(C)=CCC[C@]1(C)O[C@H]21
REMARK SMILES IDX 6 1 7 2 2 3 1 4 3 5 4 6 5 7 8 8 9 9 10 10 11 11 12 12 18 14
REMARK SMILES IDX 15 15 17 16 16 17 14 18 13 19
REMARK H PARENT
REMARK Flexibility Score: 70.00
ROOT
ATOM      1  C   UNL     1      20.551  -0.853   5.400  1.00  0.00     0.216 C 
ATOM      2  C   UNL     1      20.353  -2.397   5.625  1.00  0.00     0.070 C 
ATOM      3  C   UNL     1      21.115  -2.643   6.892  1.00  0.00     0.037 C 
ATOM      4  C   UNL     1      21.479  -3.829   7.377  1.00  0.00     0.021 C 
ATOM      5  C   UNL     1      21.349  -1.365   7.512  1.00  0.00     0.334 C 
ATOM      6  O   UNL     1      21.851  -1.177   8.652  1.00  0.00    -0.247 OA
ATOM      7  O   UNL     1      20.928  -0.350   6.683  1.00  0.00    -0.455 OA
ENDROOT
BRANCH   2   8
ATOM      8  C   UNL     1      18.869  -2.774   5.873  1.00  0.00     0.017 C 
BRANCH   8   9
ATOM      9  C   UNL     1      17.840  -2.074   4.970  1.00  0.00     0.031 C 
BRANCH   9  10
ATOM     10  C   UNL     1      17.750  -2.685   3.583  1.00  0.00    -0.077 C 
ATOM     11  C   UNL     1      17.012  -3.989   3.424  1.00  0.00     0.039 C 
ATOM     12  C   UNL     1      18.280  -2.116   2.476  1.00  0.00    -0.028 CG0
ATOM     13  G   UNL     1      19.165  -0.894   2.448  1.00  0.00     0.000 G0
ENDBRANCH   9  10
ENDBRANCH   8   9
ENDBRANCH   2   8
BRANCH   1  14
ATOM     14  C   UNL     1      21.657  -0.393   4.412  1.00  0.00     0.192 C 
ATOM     15  C   UNL     1      21.660  -0.562   2.919  1.00  0.00     0.096 C 
ATOM     16  O   UNL     1      22.328  -1.462   3.786  1.00  0.00    -0.362 OA
ATOM     17  C   UNL     1      22.669   0.286   2.138  1.00  0.00     0.045 C 
BRANCH  15  18
ATOM     18  C   UNL     1      20.601  -1.306   2.080  1.00  0.00     0.042 C 
BRANCH  18  19
ATOM     19  C   UNL     1      19.163  -0.891   2.420  1.00  0.00     0.030 CG0
ATOM     20  G   UNL     1      18.276  -2.111   2.485  1.00  0.00     0.000 G0
ENDBRANCH  18  19
ENDBRANCH  15  18
ENDBRANCH   1  14
TORSDOF 0
ENDMDL
MODEL 9
REMARK VINA RESULT:    -3.274      2.956      4.179
REMARK INTER + INTRA:          -4.267
REMARK INTER:                  -4.432
REMARK INTRA:                   0.165
REMARK UNBOUND:                 0.156
REMARK SMILES C=C1C(=O)O[C@@H]2[C@@H]1CCC(C)=CCC[C@]1(C)O[C@H]21
REMARK SMILES IDX 6 1 7 2 2 3 1 4 3 5 4 6 5 7 8 8 9 9 10 10 11 11 12 12 18 14
REMARK SMILES IDX 15 15 17 16 16 17 14 18 13 19
REMARK H PARENT
REMARK Flexibility Score: 70.00
ROOT
ATOM      1  C   UNL     1      18.668  -1.052   3.837  1.00  0.00     0.216 C 
ATOM      2  C   UNL     1      19.879  -2.015   4.119  1.00  0.00     0.070 C 
ATOM      3  C   UNL     1      19.240  -3.123   4.902  1.00  0.00     0.037 C 
ATOM      4  C   UNL     1      19.874  -4.060   5.605  1.00  0.00     0.021 C 
ATOM      5  C   UNL     1      17.815  -3.013   4.725  1.00  0.00     0.334 C 
ATOM      6  O   UNL     1      16.954  -3.839   5.129  1.00  0.00    -0.247 OA
ATOM      7  O   UNL     1      17.510  -1.868   4.025  1.00  0.00    -0.455 OA
ENDROOT
BRANCH   2   8
ATOM      8  C   UNL     1      20.468  -2.621   2.819  1.00  0.00     0.017 C 
BRANCH   8   9
ATOM      9  C   UNL     1      20.792  -1.618   1.699  1.00  0.00     0.031 C 
BRANCH   9  10
ATOM     10  C   UNL     1      22.056  -0.820   1.960  1.00  0.00    -0.077 C 
ATOM     11  C   UNL     1      23.385  -1.492   1.728  1.00  0.00     0.039 C 
ATOM     12  C   UNL     1      22.060   0.468   2.373  1.00  0.00    -0.028 CG0
ATOM     13  G   UNL     1      20.849   1.266   2.789  1.00  0.00     0.000 G0
ENDBRANCH   9  10
ENDBRANCH   8   9
ENDBRANCH   2   8
BRANCH   1  14
ATOM     14  C   UNL     1      18.483   0.182   4.764  1.00  0.00     0.192 C 
ATOM     15  C   UNL     1      19.445   1.321   4.951  1.00  0.00     0.096 C 
ATOM     16  O   UNL     1      19.394   0.216   5.837  1.00  0.00    -0.362 OA
ATOM     17  C   UNL     1      18.888   2.580   5.623  1.00  0.00     0.045 C 
BRANCH  15  18
ATOM     18  C   UNL     1      20.848   1.446   4.324  1.00  0.00     0.042 C 
BRANCH  18  19
ATOM     19  C   UNL     1      20.844   1.272   2.798  1.00  0.00     0.030 CG0
ATOM     20  G   UNL     1      22.056   0.483   2.367  1.00  0.00     0.000 G0
ENDBRANCH  18  19
ENDBRANCH  15  18
ENDBRANCH   1  14
TORSDOF 0
ENDMDL
