MODEL 1
REMARK VINA RESULT:    -4.203      0.000      0.000
REMARK INTER + INTRA:          -6.732
REMARK INTER:                  -6.415
REMARK INTRA:                  -0.317
REMARK UNBOUND:                -0.317
REMARK SMILES CC1=CCC[C@@H](C)C(=O)C[C@@H](C(C)C)C(=O)C1
REMARK SMILES IDX 8 1 9 2 6 3 7 4 5 5 4 6 3 7 2 8 1 9 10 11 11 12 15 13 16 14
REMARK SMILES IDX 17 15 12 17 13 18 14 19
REMARK H PARENT
REMARK Flexibility Score: 70.00
ROOT
ATOM      1  C   UNL     1      18.802  29.973  36.139  1.00  0.00     0.136 C 
ATOM      2  O   UNL     1      18.411  30.472  35.093  1.00  0.00    -0.299 OA
ENDROOT
BRANCH   1   3
ATOM      3  C   UNL     1      18.052  30.284  37.423  1.00  0.00     0.053 C 
ATOM      4  C   UNL     1      16.622  29.735  37.356  1.00  0.00     0.016 C 
BRANCH   3   5
ATOM      5  C   UNL     1      18.049  31.791  37.749  1.00  0.00     0.015 C 
BRANCH   5   6
ATOM      6  C   UNL     1      19.248  32.186  38.630  1.00  0.00     0.028 C 
BRANCH   6   7
ATOM      7  C   UNL     1      20.168  33.183  37.972  1.00  0.00    -0.028 C 
ATOM      8  C   UNL     1      21.494  33.014  37.741  1.00  0.00    -0.070 CG0
ATOM      9  C   UNL     1      22.253  34.196  37.187  1.00  0.00     0.039 C 
ATOM     10  G   UNL     1      22.243  31.697  37.928  1.00  0.00     0.000 G0
ENDBRANCH   6   7
ENDBRANCH   5   6
ENDBRANCH   3   5
ENDBRANCH   1   3
BRANCH   1  11
ATOM     11  C   UNL     1      20.047  29.115  36.117  1.00  0.00     0.087 C 
BRANCH  11  12
ATOM     12  C   UNL     1      21.020  29.426  37.288  1.00  0.00     0.066 C 
BRANCH  12  13
ATOM     13  C   UNL     1      21.955  30.581  36.946  1.00  0.00     0.140 C 
ATOM     14  O   UNL     1      22.365  30.692  35.799  1.00  0.00    -0.299 OA
BRANCH  13  15
ATOM     15  C   UNL     1      22.252  31.674  37.947  1.00  0.00     0.106 CG0
ATOM     16  G   UNL     1      21.487  32.976  37.726  1.00  0.00     0.000 G0
ENDBRANCH  13  15
ENDBRANCH  12  13
BRANCH  12  17
ATOM     17  C   UNL     1      21.842  28.171  37.734  1.00  0.00    -0.006 C 
ATOM     18  C   UNL     1      21.131  26.849  37.393  1.00  0.00     0.008 C 
ATOM     19  C   UNL     1      22.125  28.202  39.248  1.00  0.00     0.008 C 
ENDBRANCH  12  17
ENDBRANCH  11  12
ENDBRANCH   1  11
TORSDOF 1
ENDMDL
MODEL 2
REMARK VINA RESULT:    -4.096      1.996      4.196
REMARK INTER + INTRA:          -6.569
REMARK INTER:                  -6.251
REMARK INTRA:                  -0.318
REMARK UNBOUND:                -0.317
REMARK SMILES CC1=CCC[C@@H](C)C(=O)C[C@@H](C(C)C)C(=O)C1
REMARK SMILES IDX 8 1 9 2 6 3 7 4 5 5 4 6 3 7 2 8 1 9 10 11 11 12 15 13 16 14
REMARK SMILES IDX 17 15 12 17 13 18 14 19
REMARK H PARENT
REMARK Flexibility Score: 70.00
ROOT
ATOM      1  C   UNL     1      19.659  30.599  37.048  1.00  0.00     0.136 C 
ATOM      2  O   UNL     1      19.292  30.470  38.207  1.00  0.00    -0.299 OA
ENDROOT
BRANCH   1   3
ATOM      3  C   UNL     1      19.413  29.462  36.071  1.00  0.00     0.053 C 
ATOM      4  C   UNL     1      17.917  29.332  35.765  1.00  0.00     0.016 C 
BRANCH   3   5
ATOM      5  C   UNL     1      19.992  28.124  36.573  1.00  0.00     0.015 C 
BRANCH   5   6
ATOM      6  C   UNL     1      21.531  28.122  36.547  1.00  0.00     0.028 C 
BRANCH   6   7
ATOM      7  C   UNL     1      22.149  28.062  37.921  1.00  0.00    -0.028 C 
ATOM      8  C   UNL     1      23.120  28.883  38.396  1.00  0.00    -0.070 CG0
ATOM      9  C   UNL     1      23.688  28.562  39.757  1.00  0.00     0.039 C 
ATOM     10  G   UNL     1      23.613  30.141  37.684  1.00  0.00     0.000 G0
ENDBRANCH   6   7
ENDBRANCH   5   6
ENDBRANCH   3   5
ENDBRANCH   1   3
BRANCH   1  11
ATOM     11  C   UNL     1      20.392  31.861  36.651  1.00  0.00     0.087 C 
BRANCH  11  12
ATOM     12  C   UNL     1      21.896  31.620  36.345  1.00  0.00     0.066 C 
BRANCH  12  13
ATOM     13  C   UNL     1      22.683  31.310  37.614  1.00  0.00     0.140 C 
ATOM     14  O   UNL     1      22.437  31.942  38.632  1.00  0.00    -0.299 OA
BRANCH  13  15
ATOM     15  C   UNL     1      23.636  30.139  37.682  1.00  0.00     0.106 CG0
ATOM     16  G   UNL     1      23.089  28.903  38.393  1.00  0.00     0.000 G0
ENDBRANCH  13  15
ENDBRANCH  12  13
BRANCH  12  17
ATOM     17  C   UNL     1      22.551  32.813  35.574  1.00  0.00    -0.006 C 
ATOM     18  C   UNL     1      21.526  33.893  35.179  1.00  0.00     0.008 C 
ATOM     19  C   UNL     1      23.268  32.327  34.300  1.00  0.00     0.008 C 
ENDBRANCH  12  17
ENDBRANCH  11  12
ENDBRANCH   1  11
TORSDOF 1
ENDMDL
MODEL 3
REMARK VINA RESULT:    -4.001      1.857      4.452
REMARK INTER + INTRA:          -6.423
REMARK INTER:                  -5.949
REMARK INTRA:                  -0.474
REMARK UNBOUND:                -0.317
REMARK SMILES CC1=CCC[C@@H](C)C(=O)C[C@@H](C(C)C)C(=O)C1
REMARK SMILES IDX 8 1 9 2 6 3 7 4 5 5 4 6 3 7 2 8 1 9 10 11 11 12 15 13 16 14
REMARK SMILES IDX 17 15 12 17 13 18 14 19
REMARK H PARENT
REMARK Flexibility Score: 70.00
ROOT
ATOM      1  C   UNL     1      22.750  29.654  36.667  1.00  0.00     0.136 C 
ATOM      2  O   UNL     1      23.513  28.924  36.051  1.00  0.00    -0.299 OA
ENDROOT
BRANCH   1   3
ATOM      3  C   UNL     1      21.802  29.034  37.680  1.00  0.00     0.053 C 
ATOM      4  C   UNL     1      22.579  28.530  38.902  1.00  0.00     0.016 C 
BRANCH   3   5
ATOM      5  C   UNL     1      20.946  27.907  37.068  1.00  0.00     0.015 C 
BRANCH   5   6
ATOM      6  C   UNL     1      19.910  28.456  36.071  1.00  0.00     0.028 C 
BRANCH   6   7
ATOM      7  C   UNL     1      18.859  29.321  36.720  1.00  0.00    -0.028 C 
ATOM      8  C   UNL     1      18.752  30.669  36.603  1.00  0.00    -0.070 CG0
ATOM      9  C   UNL     1      17.702  31.351  37.446  1.00  0.00     0.039 C 
ATOM     10  G   UNL     1      19.562  31.520  35.628  1.00  0.00     0.000 G0
ENDBRANCH   6   7
ENDBRANCH   5   6
ENDBRANCH   3   5
ENDBRANCH   1   3
BRANCH   1  11
ATOM     11  C   UNL     1      22.742  31.133  36.352  1.00  0.00     0.087 C 
BRANCH  11  12
ATOM     12  C   UNL     1      21.679  31.923  37.165  1.00  0.00     0.066 C 
BRANCH  12  13
ATOM     13  C   UNL     1      20.567  32.451  36.266  1.00  0.00     0.140 C 
ATOM     14  O   UNL     1      20.570  33.633  35.952  1.00  0.00    -0.299 OA
BRANCH  13  15
ATOM     15  C   UNL     1      19.563  31.518  35.627  1.00  0.00     0.106 CG0
ATOM     16  G   UNL     1      18.749  30.678  36.608  1.00  0.00     0.000 G0
ENDBRANCH  13  15
ENDBRANCH  12  13
BRANCH  12  17
ATOM     17  C   UNL     1      22.306  33.088  38.000  1.00  0.00    -0.006 C 
ATOM     18  C   UNL     1      23.767  32.806  38.401  1.00  0.00     0.008 C 
ATOM     19  C   UNL     1      21.489  33.359  39.278  1.00  0.00     0.008 C 
ENDBRANCH  12  17
ENDBRANCH  11  12
ENDBRANCH   1  11
TORSDOF 1
ENDMDL
MODEL 4
REMARK VINA RESULT:    -3.961      1.879      3.077
REMARK INTER + INTRA:          -6.362
REMARK INTER:                  -6.180
REMARK INTRA:                  -0.182
REMARK UNBOUND:                -0.317
REMARK SMILES CC1=CCC[C@@H](C)C(=O)C[C@@H](C(C)C)C(=O)C1
REMARK SMILES IDX 8 1 9 2 6 3 7 4 5 5 4 6 3 7 2 8 1 9 10 11 11 12 15 13 16 14
REMARK SMILES IDX 17 15 12 17 13 18 14 19
REMARK H PARENT
REMARK Flexibility Score: 70.00
ROOT
ATOM      1  C   UNL     1      19.802  31.787  37.895  1.00  0.00     0.136 C 
ATOM      2  O   UNL     1      19.066  31.174  38.654  1.00  0.00    -0.299 OA
ENDROOT
BRANCH   1   3
ATOM      3  C   UNL     1      20.051  33.264  38.150  1.00  0.00     0.053 C 
ATOM      4  C   UNL     1      20.479  33.967  36.856  1.00  0.00     0.016 C 
BRANCH   3   5
ATOM      5  C   UNL     1      21.082  33.498  39.272  1.00  0.00     0.015 C 
BRANCH   5   6
ATOM      6  C   UNL     1      22.482  33.797  38.706  1.00  0.00     0.028 C 
BRANCH   6   7
ATOM      7  C   UNL     1      23.520  32.783  39.119  1.00  0.00    -0.028 C 
ATOM      8  C   UNL     1      23.838  31.647  38.448  1.00  0.00    -0.070 CG0
ATOM      9  C   UNL     1      24.815  30.707  39.110  1.00  0.00     0.039 C 
ATOM     10  G   UNL     1      23.337  31.302  37.048  1.00  0.00     0.000 G0
ENDBRANCH   6   7
ENDBRANCH   5   6
ENDBRANCH   3   5
ENDBRANCH   1   3
BRANCH   1  11
ATOM     11  C   UNL     1      20.385  31.063  36.702  1.00  0.00     0.087 C 
BRANCH  11  12
ATOM     12  C   UNL     1      21.147  29.766  37.091  1.00  0.00     0.066 C 
BRANCH  12  13
ATOM     13  C   UNL     1      22.654  29.933  36.931  1.00  0.00     0.140 C 
ATOM     14  O   UNL     1      23.321  28.973  36.569  1.00  0.00    -0.299 OA
BRANCH  13  15
ATOM     15  C   UNL     1      23.311  31.289  37.050  1.00  0.00     0.106 CG0
ATOM     16  G   UNL     1      23.831  31.633  38.443  1.00  0.00     0.000 G0
ENDBRANCH  13  15
ENDBRANCH  12  13
BRANCH  12  17
ATOM     17  C   UNL     1      20.648  28.515  36.294  1.00  0.00    -0.006 C 
ATOM     18  C   UNL     1      19.173  28.636  35.869  1.00  0.00     0.008 C 
ATOM     19  C   UNL     1      20.819  27.225  37.118  1.00  0.00     0.008 C 
ENDBRANCH  12  17
ENDBRANCH  11  12
ENDBRANCH   1  11
TORSDOF 1
ENDMDL
MODEL 5
REMARK VINA RESULT:    -3.911      2.838      4.986
REMARK INTER + INTRA:          -6.286
REMARK INTER:                  -6.031
REMARK INTRA:                  -0.255
REMARK UNBOUND:                -0.317
REMARK SMILES CC1=CCC[C@@H](C)C(=O)C[C@@H](C(C)C)C(=O)C1
REMARK SMILES IDX 8 1 9 2 6 3 7 4 5 5 4 6 3 7 2 8 1 9 10 11 11 12 15 13 16 14
REMARK SMILES IDX 17 15 12 17 13 18 14 19
REMARK H PARENT
REMARK Flexibility Score: 70.00
ROOT
ATOM      1  C   UNL     1      23.160  28.798  39.592  1.00  0.00     0.136 C 
ATOM      2  O   UNL     1      22.464  28.215  40.412  1.00  0.00    -0.299 OA
ENDROOT
BRANCH   1   3
ATOM      3  C   UNL     1      24.665  28.599  39.636  1.00  0.00     0.053 C 
ATOM      4  C   UNL     1      25.052  27.688  40.807  1.00  0.00     0.016 C 
BRANCH   3   5
ATOM      5  C   UNL     1      25.431  29.935  39.701  1.00  0.00     0.015 C 
BRANCH   5   6
ATOM      6  C   UNL     1      26.256  30.183  38.426  1.00  0.00     0.028 C 
BRANCH   6   7
ATOM      7  C   UNL     1      25.907  31.476  37.732  1.00  0.00    -0.028 C 
ATOM      8  C   UNL     1      25.218  31.597  36.569  1.00  0.00    -0.070 CG0
ATOM      9  C   UNL     1      25.094  32.983  35.984  1.00  0.00     0.039 C 
ATOM     10  G   UNL     1      24.501  30.448  35.866  1.00  0.00     0.000 G0
ENDBRANCH   6   7
ENDBRANCH   5   6
ENDBRANCH   3   5
ENDBRANCH   1   3
BRANCH   1  11
ATOM     11  C   UNL     1      22.497  29.735  38.608  1.00  0.00     0.087 C 
BRANCH  11  12
ATOM     12  C   UNL     1      22.541  29.214  37.146  1.00  0.00     0.066 C 
BRANCH  12  13
ATOM     13  C   UNL     1      23.018  30.294  36.181  1.00  0.00     0.140 C 
ATOM     14  O   UNL     1      22.216  31.128  35.782  1.00  0.00    -0.299 OA
BRANCH  13  15
ATOM     15  C   UNL     1      24.482  30.452  35.839  1.00  0.00     0.106 CG0
ATOM     16  G   UNL     1      25.192  31.596  36.560  1.00  0.00     0.000 G0
ENDBRANCH  13  15
ENDBRANCH  12  13
BRANCH  12  17
ATOM     17  C   UNL     1      21.168  28.629  36.675  1.00  0.00    -0.006 C 
ATOM     18  C   UNL     1      19.968  29.367  37.297  1.00  0.00     0.008 C 
ATOM     19  C   UNL     1      21.055  27.131  37.017  1.00  0.00     0.008 C 
ENDBRANCH  12  17
ENDBRANCH  11  12
ENDBRANCH   1  11
TORSDOF 1
ENDMDL
MODEL 6
REMARK VINA RESULT:    -3.826      1.737      3.768
REMARK INTER + INTRA:          -6.156
REMARK INTER:                  -5.930
REMARK INTRA:                  -0.226
REMARK UNBOUND:                -0.317
REMARK SMILES CC1=CCC[C@@H](C)C(=O)C[C@@H](C(C)C)C(=O)C1
REMARK SMILES IDX 8 1 9 2 6 3 7 4 5 5 4 6 3 7 2 8 1 9 10 11 11 12 15 13 16 14
REMARK SMILES IDX 17 15 12 17 13 18 14 19
REMARK H PARENT
REMARK Flexibility Score: 70.00
ROOT
ATOM      1  C   UNL     1      21.782  29.708  38.514  1.00  0.00     0.136 C 
ATOM      2  O   UNL     1      21.742  28.719  39.232  1.00  0.00    -0.299 OA
ENDROOT
BRANCH   1   3
ATOM      3  C   UNL     1      23.136  30.288  38.142  1.00  0.00     0.053 C 
ATOM      4  C   UNL     1      24.205  29.189  38.131  1.00  0.00     0.016 C 
BRANCH   3   5
ATOM      5  C   UNL     1      23.549  31.449  39.067  1.00  0.00     0.015 C 
BRANCH   5   6
ATOM      6  C   UNL     1      22.605  32.657  38.924  1.00  0.00     0.028 C 
BRANCH   6   7
ATOM      7  C   UNL     1      22.747  33.370  37.603  1.00  0.00    -0.028 C 
ATOM      8  C   UNL     1      21.809  33.430  36.624  1.00  0.00    -0.070 CG0
ATOM      9  C   UNL     1      22.211  34.087  35.326  1.00  0.00     0.039 C 
ATOM     10  G   UNL     1      20.368  32.951  36.777  1.00  0.00     0.000 G0
ENDBRANCH   6   7
ENDBRANCH   5   6
ENDBRANCH   3   5
ENDBRANCH   1   3
BRANCH   1  11
ATOM     11  C   UNL     1      20.482  30.344  38.076  1.00  0.00     0.087 C 
BRANCH  11  12
ATOM     12  C   UNL     1      20.270  30.298  36.538  1.00  0.00     0.066 C 
BRANCH  12  13
ATOM     13  C   UNL     1      20.025  31.691  35.965  1.00  0.00     0.140 C 
ATOM     14  O   UNL     1      19.433  31.798  34.901  1.00  0.00    -0.299 OA
BRANCH  13  15
ATOM     15  C   UNL     1      20.352  32.935  36.760  1.00  0.00     0.106 CG0
ATOM     16  G   UNL     1      21.789  33.431  36.619  1.00  0.00     0.000 G0
ENDBRANCH  13  15
ENDBRANCH  12  13
BRANCH  12  17
ATOM     17  C   UNL     1      19.119  29.325  36.119  1.00  0.00    -0.006 C 
ATOM     18  C   UNL     1      17.862  29.488  36.993  1.00  0.00     0.008 C 
ATOM     19  C   UNL     1      19.579  27.857  36.186  1.00  0.00     0.008 C 
ENDBRANCH  12  17
ENDBRANCH  11  12
ENDBRANCH   1  11
TORSDOF 1
ENDMDL
MODEL 7
REMARK VINA RESULT:    -3.689      1.889      4.089
REMARK INTER + INTRA:          -5.948
REMARK INTER:                  -5.832
REMARK INTRA:                  -0.116
REMARK UNBOUND:                -0.317
REMARK SMILES CC1=CCC[C@@H](C)C(=O)C[C@@H](C(C)C)C(=O)C1
REMARK SMILES IDX 8 1 9 2 6 3 7 4 5 5 4 6 3 7 2 8 1 9 10 11 11 12 15 13 16 14
REMARK SMILES IDX 17 15 12 17 13 18 14 19
REMARK H PARENT
REMARK Flexibility Score: 70.00
ROOT
ATOM      1  C   UNL     1      23.507  29.892  37.660  1.00  0.00     0.136 C 
ATOM      2  O   UNL     1      23.891  29.032  36.880  1.00  0.00    -0.299 OA
ENDROOT
BRANCH   1   3
ATOM      3  C   UNL     1      24.423  31.064  37.967  1.00  0.00     0.053 C 
ATOM      4  C   UNL     1      24.005  31.741  39.278  1.00  0.00     0.016 C 
BRANCH   3   5
ATOM      5  C   UNL     1      24.475  32.085  36.812  1.00  0.00     0.015 C 
BRANCH   5   6
ATOM      6  C   UNL     1      23.448  33.215  37.003  1.00  0.00     0.028 C 
BRANCH   6   7
ATOM      7  C   UNL     1      22.344  33.197  35.976  1.00  0.00    -0.028 C 
ATOM      8  C   UNL     1      21.055  32.836  36.196  1.00  0.00    -0.070 CG0
ATOM      9  C   UNL     1      20.145  32.764  34.994  1.00  0.00     0.039 C 
ATOM     10  G   UNL     1      20.453  32.578  37.575  1.00  0.00     0.000 G0
ENDBRANCH   6   7
ENDBRANCH   5   6
ENDBRANCH   3   5
ENDBRANCH   1   3
BRANCH   1  11
ATOM     11  C   UNL     1      22.161  29.720  38.328  1.00  0.00     0.087 C 
BRANCH  11  12
ATOM     12  C   UNL     1      20.967  29.966  37.364  1.00  0.00     0.066 C 
BRANCH  12  13
ATOM     13  C   UNL     1      20.087  31.114  37.847  1.00  0.00     0.140 C 
ATOM     14  O   UNL     1      19.142  30.866  38.584  1.00  0.00    -0.299 OA
BRANCH  13  15
ATOM     15  C   UNL     1      20.451  32.555  37.568  1.00  0.00     0.106 CG0
ATOM     16  G   UNL     1      21.059  32.811  36.192  1.00  0.00     0.000 G0
ENDBRANCH  13  15
ENDBRANCH  12  13
BRANCH  12  17
ATOM     17  C   UNL     1      20.109  28.679  37.131  1.00  0.00    -0.006 C 
ATOM     18  C   UNL     1      20.974  27.423  36.922  1.00  0.00     0.008 C 
ATOM     19  C   UNL     1      19.178  28.844  35.915  1.00  0.00     0.008 C 
ENDBRANCH  12  17
ENDBRANCH  11  12
ENDBRANCH   1  11
TORSDOF 1
ENDMDL
MODEL 8
REMARK VINA RESULT:    -3.669      2.344      4.332
REMARK INTER + INTRA:          -5.917
REMARK INTER:                  -5.515
REMARK INTRA:                  -0.402
REMARK UNBOUND:                -0.317
REMARK SMILES CC1=CCC[C@@H](C)C(=O)C[C@@H](C(C)C)C(=O)C1
REMARK SMILES IDX 8 1 9 2 6 3 7 4 5 5 4 6 3 7 2 8 1 9 10 11 11 12 15 13 16 14
REMARK SMILES IDX 17 15 12 17 13 18 14 19
REMARK H PARENT
REMARK Flexibility Score: 70.00
ROOT
ATOM      1  C   UNL     1      21.953  29.632  37.949  1.00  0.00     0.136 C 
ATOM      2  O   UNL     1      21.450  28.633  38.443  1.00  0.00    -0.299 OA
ENDROOT
BRANCH   1   3
ATOM      3  C   UNL     1      23.457  29.663  37.732  1.00  0.00     0.053 C 
ATOM      4  C   UNL     1      24.134  30.535  38.796  1.00  0.00     0.016 C 
BRANCH   3   5
ATOM      5  C   UNL     1      23.833  30.133  36.313  1.00  0.00     0.015 C 
BRANCH   5   6
ATOM      6  C   UNL     1      24.334  31.588  36.307  1.00  0.00     0.028 C 
BRANCH   6   7
ATOM      7  C   UNL     1      23.994  32.330  35.039  1.00  0.00    -0.028 C 
ATOM      8  C   UNL     1      22.787  32.867  34.728  1.00  0.00    -0.070 CG0
ATOM      9  C   UNL     1      22.630  33.453  33.346  1.00  0.00     0.039 C 
ATOM     10  G   UNL     1      21.617  32.987  35.702  1.00  0.00     0.000 G0
ENDBRANCH   6   7
ENDBRANCH   5   6
ENDBRANCH   3   5
ENDBRANCH   1   3
BRANCH   1  11
ATOM     11  C   UNL     1      21.065  30.813  37.630  1.00  0.00     0.087 C 
BRANCH  11  12
ATOM     12  C   UNL     1      20.393  30.710  36.234  1.00  0.00     0.066 C 
BRANCH  12  13
ATOM     13  C   UNL     1      20.462  32.034  35.480  1.00  0.00     0.140 C 
ATOM     14  O   UNL     1      19.513  32.371  34.787  1.00  0.00    -0.299 OA
BRANCH  13  15
ATOM     15  C   UNL     1      21.601  33.004  35.700  1.00  0.00     0.106 CG0
ATOM     16  G   UNL     1      22.772  32.855  34.732  1.00  0.00     0.000 G0
ENDBRANCH  13  15
ENDBRANCH  12  13
BRANCH  12  17
ATOM     17  C   UNL     1      18.914  30.205  36.315  1.00  0.00    -0.006 C 
ATOM     18  C   UNL     1      18.235  30.580  37.645  1.00  0.00     0.008 C 
ATOM     19  C   UNL     1      18.838  28.676  36.137  1.00  0.00     0.008 C 
ENDBRANCH  12  17
ENDBRANCH  11  12
ENDBRANCH   1  11
TORSDOF 1
ENDMDL
MODEL 9
REMARK VINA RESULT:    -3.526      2.639      3.836
REMARK INTER + INTRA:          -5.698
REMARK INTER:                  -5.576
REMARK INTRA:                  -0.123
REMARK UNBOUND:                -0.317
REMARK SMILES CC1=CCC[C@@H](C)C(=O)C[C@@H](C(C)C)C(=O)C1
REMARK SMILES IDX 8 1 9 2 6 3 7 4 5 5 4 6 3 7 2 8 1 9 10 11 11 12 15 13 16 14
REMARK SMILES IDX 17 15 12 17 13 18 14 19
REMARK H PARENT
REMARK Flexibility Score: 70.00
ROOT
ATOM      1  C   UNL     1      22.355  28.573  38.750  1.00  0.00     0.136 C 
ATOM      2  O   UNL     1      22.353  27.981  39.821  1.00  0.00    -0.299 OA
ENDROOT
BRANCH   1   3
ATOM      3  C   UNL     1      21.075  28.609  37.932  1.00  0.00     0.053 C 
ATOM      4  C   UNL     1      21.259  27.843  36.616  1.00  0.00     0.016 C 
BRANCH   3   5
ATOM      5  C   UNL     1      20.590  30.049  37.669  1.00  0.00     0.015 C 
BRANCH   5   6
ATOM      6  C   UNL     1      21.217  30.638  36.393  1.00  0.00     0.028 C 
BRANCH   6   7
ATOM      7  C   UNL     1      21.522  32.111  36.505  1.00  0.00    -0.028 C 
ATOM      8  C   UNL     1      22.688  32.654  36.940  1.00  0.00    -0.070 CG0
ATOM      9  C   UNL     1      22.732  34.154  37.097  1.00  0.00     0.039 C 
ATOM     10  G   UNL     1      23.966  31.861  37.201  1.00  0.00     0.000 G0
ENDBRANCH   6   7
ENDBRANCH   5   6
ENDBRANCH   3   5
ENDBRANCH   1   3
BRANCH   1  11
ATOM     11  C   UNL     1      23.645  29.192  38.262  1.00  0.00     0.087 C 
BRANCH  11  12
ATOM     12  C   UNL     1      24.242  30.222  39.260  1.00  0.00     0.066 C 
BRANCH  12  13
ATOM     13  C   UNL     1      24.295  31.621  38.655  1.00  0.00     0.140 C 
ATOM     14  O   UNL     1      24.727  32.543  39.333  1.00  0.00    -0.299 OA
BRANCH  13  15
ATOM     15  C   UNL     1      23.980  31.858  37.195  1.00  0.00     0.106 CG0
ATOM     16  G   UNL     1      22.699  32.645  36.932  1.00  0.00     0.000 G0
ENDBRANCH  13  15
ENDBRANCH  12  13
BRANCH  12  17
ATOM     17  C   UNL     1      25.655  29.800  39.785  1.00  0.00    -0.006 C 
ATOM     18  C   UNL     1      26.677  29.621  38.647  1.00  0.00     0.008 C 
ATOM     19  C   UNL     1      25.580  28.490  40.592  1.00  0.00     0.008 C 
ENDBRANCH  12  17
ENDBRANCH  11  12
ENDBRANCH   1  11
TORSDOF 1
ENDMDL
