MODEL 1
REMARK VINA RESULT:    32.415      0.000      0.000
REMARK INTER + INTRA:          47.526
REMARK INTER:                  45.679
REMARK INTRA:                   1.846
REMARK UNBOUND:                 1.846
REMARK SMILES OCC1=C[C@@H](O)[C@@H]2C=CO[C@H](O[C@H]3O[C@@H](CO)[C@H](O)[C@H](O)[C@H]3O)[C@H]12
REMARK SMILES IDX 12 1 11 2 8 3 9 4 7 5 10 6 24 7 5 8 3 9 4 10 6 11 2 13 1 14
REMARK SMILES IDX 13 16 22 17 14 18 20 19 15 20 18 21 23 22 21 24 16 26 17 27
REMARK SMILES IDX 19 29
REMARK H PARENT 6 12 1 15 23 23 21 25 17 28 19 30
REMARK Flexibility Score: inf
ROOT
ATOM      1  O   UNL     1      12.102  13.004  30.829  1.00  0.00    -0.310 OA
ENDROOT
BRANCH   1   2
ATOM      2  C   UNL     1      12.505  13.083  29.477  1.00  0.00     0.316 C 
ATOM      3  C   UNL     1      12.908  14.159  26.897  1.00  0.00     0.018 C 
ATOM      4  C   UNL     1      11.672  13.942  27.344  1.00  0.00     0.186 C 
ATOM      5  C   UNL     1      14.104  14.238  27.829  1.00  0.00     0.061 C 
ATOM      6  O   UNL     1      11.451  13.618  28.681  1.00  0.00    -0.472 OA
ATOM      7  C   UNL     1      13.771  13.956  29.325  1.00  0.00     0.096 C 
ATOM      8  C   UNL     1      14.647  15.683  27.821  1.00  0.00     0.145 C 
ATOM      9  C   UNL     1      13.689  15.334  29.933  1.00  0.00    -0.036 C 
ATOM     10  C   UNL     1      14.153  16.262  29.102  1.00  0.00     0.007 C 
BRANCH   8  11
ATOM     11  O   UNL     1      16.053  15.705  27.778  1.00  0.00    -0.388 OA
ATOM     12  H   UNL     1      16.335  15.582  26.834  1.00  0.00     0.211 HD
ENDBRANCH   8  11
BRANCH   9  13
ATOM     13  C   UNL     1      13.382  15.642  31.381  1.00  0.00     0.187 C 
BRANCH  13  14
ATOM     14  O   UNL     1      13.875  16.907  31.735  1.00  0.00    -0.392 OA
ATOM     15  H   UNL     1      13.951  17.426  30.891  1.00  0.00     0.211 HD
ENDBRANCH  13  14
ENDBRANCH   9  13
ENDBRANCH   1   2
BRANCH   1  16
ATOM     16  C   UNL     1      12.330  11.710  31.360  1.00  0.00     0.286 C 
ATOM     17  C   UNL     1      12.470  10.680  30.223  1.00  0.00     0.202 C 
ATOM     18  O   UNL     1      11.317  11.344  32.292  1.00  0.00    -0.341 OA
ATOM     19  C   UNL     1      11.129  10.472  29.511  1.00  0.00     0.179 C 
ATOM     20  C   UNL     1      10.033  11.119  31.713  1.00  0.00     0.178 C 
ATOM     21  C   UNL     1      10.056  10.099  30.549  1.00  0.00     0.177 C 
BRANCH  17  22
ATOM     22  O   UNL     1      13.478  11.060  29.318  1.00  0.00    -0.385 OA
ATOM     23  H   UNL     1      14.002  10.251  29.082  1.00  0.00     0.211 HD
ENDBRANCH  17  22
BRANCH  19  24
ATOM     24  O   UNL     1      11.261   9.454  28.552  1.00  0.00    -0.387 OA
ATOM     25  H   UNL     1      11.732   8.702  28.997  1.00  0.00     0.211 HD
ENDBRANCH  19  24
BRANCH  20  26
ATOM     26  C   UNL     1       9.300  12.435  31.369  1.00  0.00     0.191 C 
BRANCH  26  27
ATOM     27  O   UNL     1       9.370  12.692  29.992  1.00  0.00    -0.394 OA
ATOM     28  H   UNL     1       8.712  12.091  29.554  1.00  0.00     0.210 HD
ENDBRANCH  26  27
ENDBRANCH  20  26
BRANCH  21  29
ATOM     29  O   UNL     1      10.314   8.820  31.073  1.00  0.00    -0.387 OA
ATOM     30  H   UNL     1      11.088   8.449  30.571  1.00  0.00     0.211 HD
ENDBRANCH  21  29
ENDBRANCH   1  16
TORSDOF 10
ENDMDL
MODEL 2
REMARK VINA RESULT:    32.968      1.533      3.168
REMARK INTER + INTRA:          48.306
REMARK INTER:                  46.051
REMARK INTRA:                   2.255
REMARK UNBOUND:                 1.846
REMARK SMILES OCC1=C[C@@H](O)[C@@H]2C=CO[C@H](O[C@H]3O[C@@H](CO)[C@H](O)[C@H](O)[C@H]3O)[C@H]12
REMARK SMILES IDX 12 1 11 2 8 3 9 4 7 5 10 6 24 7 5 8 3 9 4 10 6 11 2 13 1 14
REMARK SMILES IDX 13 16 22 17 14 18 20 19 15 20 18 21 23 22 21 24 16 26 17 27
REMARK SMILES IDX 19 29
REMARK H PARENT 6 12 1 15 23 23 21 25 17 28 19 30
REMARK Flexibility Score: inf
ROOT
ATOM      1  O   UNL     1      11.228  12.744  29.102  1.00  0.00    -0.310 OA
ENDROOT
BRANCH   1   2
ATOM      2  C   UNL     1      12.600  12.887  29.405  1.00  0.00     0.316 C 
ATOM      3  C   UNL     1      15.403  12.832  29.060  1.00  0.00     0.018 C 
ATOM      4  C   UNL     1      14.708  11.695  29.054  1.00  0.00     0.186 C 
ATOM      5  C   UNL     1      14.747  14.184  28.843  1.00  0.00     0.061 C 
ATOM      6  O   UNL     1      13.315  11.720  29.007  1.00  0.00    -0.472 OA
ATOM      7  C   UNL     1      13.195  14.130  28.706  1.00  0.00     0.096 C 
ATOM      8  C   UNL     1      15.233  14.764  27.498  1.00  0.00     0.145 C 
ATOM      9  C   UNL     1      12.971  14.210  27.217  1.00  0.00    -0.036 C 
ATOM     10  C   UNL     1      14.086  14.540  26.573  1.00  0.00     0.007 C 
BRANCH   8  11
ATOM     11  O   UNL     1      15.523  16.136  27.603  1.00  0.00    -0.388 OA
ATOM     12  H   UNL     1      15.722  16.480  26.692  1.00  0.00     0.211 HD
ENDBRANCH   8  11
BRANCH   9  13
ATOM     13  C   UNL     1      11.627  14.192  26.525  1.00  0.00     0.187 C 
BRANCH  13  14
ATOM     14  O   UNL     1      11.658  14.972  25.360  1.00  0.00    -0.392 OA
ATOM     15  H   UNL     1      10.836  15.530  25.371  1.00  0.00     0.211 HD
ENDBRANCH  13  14
ENDBRANCH   9  13
ENDBRANCH   1   2
BRANCH   1  16
ATOM     16  C   UNL     1      10.422  12.966  30.247  1.00  0.00     0.286 C 
ATOM     17  C   UNL     1      11.256  12.800  31.532  1.00  0.00     0.202 C 
ATOM     18  O   UNL     1       9.270  12.127  30.244  1.00  0.00    -0.341 OA
ATOM     19  C   UNL     1      11.654  11.333  31.734  1.00  0.00     0.179 C 
ATOM     20  C   UNL     1       9.546  10.742  30.439  1.00  0.00     0.178 C 
ATOM     21  C   UNL     1      10.389  10.456  31.705  1.00  0.00     0.177 C 
BRANCH  17  22
ATOM     22  O   UNL     1      12.385  13.640  31.514  1.00  0.00    -0.385 OA
ATOM     23  H   UNL     1      13.043  13.257  30.878  1.00  0.00     0.211 HD
ENDBRANCH  17  22
BRANCH  19  24
ATOM     24  O   UNL     1      12.320  11.195  32.963  1.00  0.00    -0.387 OA
ATOM     25  H   UNL     1      12.875  12.010  33.080  1.00  0.00     0.211 HD
ENDBRANCH  19  24
BRANCH  20  26
ATOM     26  C   UNL     1      10.096  10.063  29.163  1.00  0.00     0.191 C 
BRANCH  26  27
ATOM     27  O   UNL     1      11.497  10.047  29.178  1.00  0.00    -0.394 OA
ATOM     28  H   UNL     1      11.791  10.941  29.494  1.00  0.00     0.210 HD
ENDBRANCH  26  27
ENDBRANCH  20  26
BRANCH  21  29
ATOM     29  O   UNL     1       9.599  10.709  32.841  1.00  0.00    -0.387 OA
ATOM     30  H   UNL     1       9.064  11.524  32.648  1.00  0.00     0.211 HD
ENDBRANCH  21  29
ENDBRANCH   1  16
TORSDOF 10
ENDMDL
MODEL 3
REMARK VINA RESULT:    34.268      1.083      2.566
REMARK INTER + INTRA:          50.137
REMARK INTER:                  50.262
REMARK INTRA:                  -0.125
REMARK UNBOUND:                 1.846
REMARK SMILES OCC1=C[C@@H](O)[C@@H]2C=CO[C@H](O[C@H]3O[C@@H](CO)[C@H](O)[C@H](O)[C@H]3O)[C@H]12
REMARK SMILES IDX 12 1 11 2 8 3 9 4 7 5 10 6 24 7 5 8 3 9 4 10 6 11 2 13 1 14
REMARK SMILES IDX 13 16 22 17 14 18 20 19 15 20 18 21 23 22 21 24 16 26 17 27
REMARK SMILES IDX 19 29
REMARK H PARENT 6 12 1 15 23 23 21 25 17 28 19 30
REMARK Flexibility Score: inf
ROOT
ATOM      1  O   UNL     1      11.244  13.006  29.324  1.00  0.00    -0.310 OA
ENDROOT
BRANCH   1   2
ATOM      2  C   UNL     1      11.862  13.286  28.085  1.00  0.00     0.316 C 
ATOM      3  C   UNL     1      12.894  14.783  25.924  1.00  0.00     0.018 C 
ATOM      4  C   UNL     1      11.586  14.791  26.176  1.00  0.00     0.186 C 
ATOM      5  C   UNL     1      13.916  14.342  26.957  1.00  0.00     0.061 C 
ATOM      6  O   UNL     1      11.092  14.237  27.356  1.00  0.00    -0.472 OA
ATOM      7  C   UNL     1      13.298  13.820  28.290  1.00  0.00     0.096 C 
ATOM      8  C   UNL     1      14.760  15.564  27.377  1.00  0.00     0.145 C 
ATOM      9  C   UNL     1      13.428  14.998  29.223  1.00  0.00    -0.036 C 
ATOM     10  C   UNL     1      14.211  15.942  28.710  1.00  0.00     0.007 C 
BRANCH   8  11
ATOM     11  O   UNL     1      16.125  15.238  27.479  1.00  0.00    -0.388 OA
ATOM     12  H   UNL     1      16.379  14.717  26.673  1.00  0.00     0.211 HD
ENDBRANCH   8  11
BRANCH   9  13
ATOM     13  C   UNL     1      12.973  15.035  30.664  1.00  0.00     0.187 C 
BRANCH  13  14
ATOM     14  O   UNL     1      13.607  16.076  31.357  1.00  0.00    -0.392 OA
ATOM     15  H   UNL     1      14.371  16.368  30.793  1.00  0.00     0.211 HD
ENDBRANCH  13  14
ENDBRANCH   9  13
ENDBRANCH   1   2
BRANCH   1  16
ATOM     16  C   UNL     1      10.433  11.847  29.246  1.00  0.00     0.286 C 
ATOM     17  C   UNL     1       9.549  11.723  30.502  1.00  0.00     0.202 C 
ATOM     18  O   UNL     1      11.215  10.677  29.024  1.00  0.00    -0.341 OA
ATOM     19  C   UNL     1      10.402  11.400  31.735  1.00  0.00     0.179 C 
ATOM     20  C   UNL     1      12.034  10.294  30.127  1.00  0.00     0.178 C 
ATOM     21  C   UNL     1      11.248  10.146  31.452  1.00  0.00     0.177 C 
BRANCH  17  22
ATOM     22  O   UNL     1       8.784  12.887  30.699  1.00  0.00    -0.385 OA
ATOM     23  H   UNL     1       8.157  12.721  31.450  1.00  0.00     0.211 HD
ENDBRANCH  17  22
BRANCH  19  24
ATOM     24  O   UNL     1       9.563  11.189  32.842  1.00  0.00    -0.387 OA
ATOM     25  H   UNL     1       9.819  10.312  33.231  1.00  0.00     0.211 HD
ENDBRANCH  19  24
BRANCH  20  26
ATOM     26  C   UNL     1      13.301  11.169  30.255  1.00  0.00     0.191 C 
BRANCH  26  27
ATOM     27  O   UNL     1      14.120  11.020  29.126  1.00  0.00    -0.394 OA
ATOM     28  H   UNL     1      13.540  10.681  28.394  1.00  0.00     0.210 HD
ENDBRANCH  26  27
ENDBRANCH  20  26
BRANCH  21  29
ATOM     29  O   UNL     1      10.418   9.014  31.361  1.00  0.00    -0.387 OA
ATOM     30  H   UNL     1      10.412   8.732  30.408  1.00  0.00     0.211 HD
ENDBRANCH  21  29
ENDBRANCH   1  16
TORSDOF 10
ENDMDL
MODEL 4
REMARK VINA RESULT:    34.742      1.519      3.145
REMARK INTER + INTRA:          50.806
REMARK INTER:                  47.066
REMARK INTRA:                   3.740
REMARK UNBOUND:                 1.846
REMARK SMILES OCC1=C[C@@H](O)[C@@H]2C=CO[C@H](O[C@H]3O[C@@H](CO)[C@H](O)[C@H](O)[C@H]3O)[C@H]12
REMARK SMILES IDX 12 1 11 2 8 3 9 4 7 5 10 6 24 7 5 8 3 9 4 10 6 11 2 13 1 14
REMARK SMILES IDX 13 16 22 17 14 18 20 19 15 20 18 21 23 22 21 24 16 26 17 27
REMARK SMILES IDX 19 29
REMARK H PARENT 6 12 1 15 23 23 21 25 17 28 19 30
REMARK Flexibility Score: inf
ROOT
ATOM      1  O   UNL     1      12.373  11.804  30.859  1.00  0.00    -0.310 OA
ENDROOT
BRANCH   1   2
ATOM      2  C   UNL     1      12.367  13.163  30.472  1.00  0.00     0.316 C 
ATOM      3  C   UNL     1      13.323  15.771  29.967  1.00  0.00     0.018 C 
ATOM      4  C   UNL     1      13.292  15.302  31.214  1.00  0.00     0.186 C 
ATOM      5  C   UNL     1      13.251  14.859  28.756  1.00  0.00     0.061 C 
ATOM      6  O   UNL     1      13.029  13.955  31.454  1.00  0.00    -0.472 OA
ATOM      7  C   UNL     1      13.048  13.352  29.099  1.00  0.00     0.096 C 
ATOM      8  C   UNL     1      14.604  14.907  28.014  1.00  0.00     0.145 C 
ATOM      9  C   UNL     1      14.436  12.773  28.975  1.00  0.00    -0.036 C 
ATOM     10  C   UNL     1      15.273  13.631  28.400  1.00  0.00     0.007 C 
BRANCH   8  11
ATOM     11  O   UNL     1      14.427  14.970  26.621  1.00  0.00    -0.388 OA
ATOM     12  H   UNL     1      14.444  15.926  26.350  1.00  0.00     0.211 HD
ENDBRANCH   8  11
BRANCH   9  13
ATOM     13  C   UNL     1      14.813  11.329  29.210  1.00  0.00     0.187 C 
BRANCH  13  14
ATOM     14  O   UNL     1      16.125  11.082  28.780  1.00  0.00    -0.392 OA
ATOM     15  H   UNL     1      16.717  11.654  29.335  1.00  0.00     0.211 HD
ENDBRANCH  13  14
ENDBRANCH   9  13
ENDBRANCH   1   2
BRANCH   1  16
ATOM     16  C   UNL     1      11.492  11.036  30.057  1.00  0.00     0.286 C 
ATOM     17  C   UNL     1      10.374  11.927  29.481  1.00  0.00     0.202 C 
ATOM     18  O   UNL     1      10.970   9.922  30.776  1.00  0.00    -0.341 OA
ATOM     19  C   UNL     1       9.427  12.394  30.592  1.00  0.00     0.179 C 
ATOM     20  C   UNL     1      10.067  10.263  31.825  1.00  0.00     0.178 C 
ATOM     21  C   UNL     1       8.901  11.168  31.360  1.00  0.00     0.177 C 
BRANCH  17  22
ATOM     22  O   UNL     1      10.912  13.018  28.774  1.00  0.00    -0.385 OA
ATOM     23  H   UNL     1      10.280  13.255  28.046  1.00  0.00     0.211 HD
ENDBRANCH  17  22
BRANCH  19  24
ATOM     24  O   UNL     1       8.362  13.115  30.027  1.00  0.00    -0.387 OA
ATOM     25  H   UNL     1       8.455  13.036  29.041  1.00  0.00     0.211 HD
ENDBRANCH  19  24
BRANCH  20  26
ATOM     26  C   UNL     1      10.794  10.789  33.083  1.00  0.00     0.191 C 
BRANCH  26  27
ATOM     27  O   UNL     1       9.867  11.195  34.055  1.00  0.00    -0.394 OA
ATOM     28  H   UNL     1       9.027  11.417  33.574  1.00  0.00     0.210 HD
ENDBRANCH  26  27
ENDBRANCH  20  26
BRANCH  21  29
ATOM     29  O   UNL     1       8.044  10.414  30.537  1.00  0.00    -0.387 OA
ATOM     30  H   UNL     1       8.543  10.216  29.701  1.00  0.00     0.211 HD
ENDBRANCH  21  29
ENDBRANCH   1  16
TORSDOF 10
ENDMDL
