MODEL 1
REMARK VINA RESULT:    -2.243      0.000      0.000
REMARK INTER + INTRA:          -2.899
REMARK INTER:                  -2.571
REMARK INTRA:                  -0.328
REMARK UNBOUND:                -0.328
REMARK SMILES COc1ccc(C(C)=O)c(O)c1
REMARK SMILES IDX 6 1 10 2 12 3 3 4 4 5 5 6 7 7 8 8 9 9 11 10 2 12 1 13
REMARK H PARENT 11 11
REMARK Flexibility Score: inf
ROOT
ATOM      1  C   UNL     1      10.975 -10.430   4.112  1.00  0.00     0.059 A 
ATOM      2  C   UNL     1      11.416 -11.589   4.792  1.00  0.00     0.130 A 
ATOM      3  C   UNL     1      12.773 -11.734   5.121  1.00  0.00     0.093 A 
ATOM      4  C   UNL     1      13.707 -10.754   4.771  1.00  0.00     0.122 A 
ATOM      5  C   UNL     1      13.273  -9.612   4.079  1.00  0.00     0.047 A 
ATOM      6  C   UNL     1      11.925  -9.455   3.753  1.00  0.00     0.019 A 
ENDROOT
BRANCH   1   7
ATOM      7  C   UNL     1       9.550 -10.208   3.751  1.00  0.00     0.163 C 
ATOM      8  C   UNL     1       9.100 -10.009   2.335  1.00  0.00     0.093 C 
ATOM      9  O   UNL     1       8.678 -10.185   4.662  1.00  0.00    -0.294 OA
ENDBRANCH   1   7
BRANCH   2  10
ATOM     10  O   UNL     1      10.524 -12.608   5.124  1.00  0.00    -0.507 OA
ATOM     11  H   UNL     1      10.209 -12.752   6.076  1.00  0.00     0.293 HD
ENDBRANCH   2  10
BRANCH   4  12
ATOM     12  O   UNL     1      15.049 -10.956   5.125  1.00  0.00    -0.497 OA
ATOM     13  C   UNL     1      16.117 -10.088   4.758  1.00  0.00     0.278 C 
ENDBRANCH   4  12
TORSDOF 3
ENDMDL
MODEL 2
REMARK VINA RESULT:    -1.404      1.894      2.768
REMARK INTER + INTRA:          -1.937
REMARK INTER:                  -1.743
REMARK INTRA:                  -0.195
REMARK UNBOUND:                -0.328
REMARK SMILES COc1ccc(C(C)=O)c(O)c1
REMARK SMILES IDX 6 1 10 2 12 3 3 4 4 5 5 6 7 7 8 8 9 9 11 10 2 12 1 13
REMARK H PARENT 11 11
REMARK Flexibility Score: inf
ROOT
ATOM      1  C   UNL     1      12.315 -11.298   4.999  1.00  0.00     0.059 A 
ATOM      2  C   UNL     1      12.222  -9.899   4.808  1.00  0.00     0.130 A 
ATOM      3  C   UNL     1      13.390  -9.126   4.719  1.00  0.00     0.093 A 
ATOM      4  C   UNL     1      14.653  -9.715   4.831  1.00  0.00     0.122 A 
ATOM      5  C   UNL     1      14.746 -11.100   5.039  1.00  0.00     0.047 A 
ATOM      6  C   UNL     1      13.591 -11.880   5.124  1.00  0.00     0.019 A 
ENDROOT
BRANCH   1   7
ATOM      7  C   UNL     1      11.117 -12.175   5.084  1.00  0.00     0.163 C 
ATOM      8  C   UNL     1      11.216 -13.670   5.125  1.00  0.00     0.093 C 
ATOM      9  O   UNL     1       9.970 -11.652   5.125  1.00  0.00    -0.294 OA
ENDBRANCH   1   7
BRANCH   2  10
ATOM     10  O   UNL     1      10.981  -9.268   4.730  1.00  0.00    -0.507 OA
ATOM     11  H   UNL     1      10.701  -8.741   3.912  1.00  0.00     0.293 HD
ENDBRANCH   2  10
BRANCH   4  12
ATOM     12  O   UNL     1      15.784  -8.890   4.736  1.00  0.00    -0.497 OA
ATOM     13  C   UNL     1      16.018  -7.966   3.677  1.00  0.00     0.278 C 
ENDBRANCH   4  12
TORSDOF 3
ENDMDL
MODEL 3
REMARK VINA RESULT:    -1.223      1.566      2.230
REMARK INTER + INTRA:          -1.730
REMARK INTER:                  -1.533
REMARK INTRA:                  -0.198
REMARK UNBOUND:                -0.328
REMARK SMILES COc1ccc(C(C)=O)c(O)c1
REMARK SMILES IDX 6 1 10 2 12 3 3 4 4 5 5 6 7 7 8 8 9 9 11 10 2 12 1 13
REMARK H PARENT 11 11
REMARK Flexibility Score: inf
ROOT
ATOM      1  C   UNL     1       9.635 -10.085   2.706  1.00  0.00     0.059 A 
ATOM      2  C   UNL     1       9.589 -10.358   4.093  1.00  0.00     0.130 A 
ATOM      3  C   UNL     1      10.748 -10.217   4.871  1.00  0.00     0.093 A 
ATOM      4  C   UNL     1      11.959  -9.825   4.295  1.00  0.00     0.122 A 
ATOM      5  C   UNL     1      12.009  -9.572   2.915  1.00  0.00     0.047 A 
ATOM      6  C   UNL     1      10.862  -9.704   2.131  1.00  0.00     0.019 A 
ENDROOT
BRANCH   1   7
ATOM      7  C   UNL     1       8.439 -10.198   1.828  1.00  0.00     0.163 C 
ATOM      8  C   UNL     1       8.514 -10.030   0.340  1.00  0.00     0.093 C 
ATOM      9  O   UNL     1       7.314 -10.445   2.344  1.00  0.00    -0.294 OA
ENDBRANCH   1   7
BRANCH   2  10
ATOM     10  O   UNL     1       8.410 -10.789   4.699  1.00  0.00    -0.507 OA
ATOM     11  H   UNL     1       7.500 -10.554   4.322  1.00  0.00     0.293 HD
ENDBRANCH   2  10
BRANCH   4  12
ATOM     12  O   UNL     1      13.084  -9.703   5.125  1.00  0.00    -0.497 OA
ATOM     13  C   UNL     1      14.424  -9.606   4.654  1.00  0.00     0.278 C 
ENDBRANCH   4  12
TORSDOF 3
ENDMDL
MODEL 4
REMARK VINA RESULT:    -0.833      1.272      4.643
REMARK INTER + INTRA:          -1.283
REMARK INTER:                  -1.045
REMARK INTRA:                  -0.238
REMARK UNBOUND:                -0.328
REMARK SMILES COc1ccc(C(C)=O)c(O)c1
REMARK SMILES IDX 6 1 10 2 12 3 3 4 4 5 5 6 7 7 8 8 9 9 11 10 2 12 1 13
REMARK H PARENT 11 11
REMARK Flexibility Score: inf
ROOT
ATOM      1  C   UNL     1      12.131 -10.334   4.089  1.00  0.00     0.059 A 
ATOM      2  C   UNL     1      11.232 -11.403   4.309  1.00  0.00     0.130 A 
ATOM      3  C   UNL     1       9.958 -11.376   3.723  1.00  0.00     0.093 A 
ATOM      4  C   UNL     1       9.551 -10.298   2.932  1.00  0.00     0.122 A 
ATOM      5  C   UNL     1      10.437  -9.227   2.728  1.00  0.00     0.047 A 
ATOM      6  C   UNL     1      11.709  -9.245   3.303  1.00  0.00     0.019 A 
ENDROOT
BRANCH   1   7
ATOM      7  C   UNL     1      13.502 -10.309   4.667  1.00  0.00     0.163 C 
ATOM      8  C   UNL     1      14.325  -9.058   4.732  1.00  0.00     0.093 C 
ATOM      9  O   UNL     1      14.000 -11.374   5.123  1.00  0.00    -0.294 OA
ENDBRANCH   1   7
BRANCH   2  10
ATOM     10  O   UNL     1      11.584 -12.478   5.123  1.00  0.00    -0.507 OA
ATOM     11  H   UNL     1      11.661 -12.384   6.129  1.00  0.00     0.293 HD
ENDBRANCH   2  10
BRANCH   4  12
ATOM     12  O   UNL     1       8.264 -10.327   2.374  1.00  0.00    -0.497 OA
ATOM     13  C   UNL     1       7.995 -10.394   0.977  1.00  0.00     0.278 C 
ENDBRANCH   4  12
TORSDOF 3
ENDMDL
MODEL 5
REMARK VINA RESULT:    -0.304      2.792      4.340
REMARK INTER + INTRA:          -0.677
REMARK INTER:                  -0.488
REMARK INTRA:                  -0.189
REMARK UNBOUND:                -0.328
REMARK SMILES COc1ccc(C(C)=O)c(O)c1
REMARK SMILES IDX 6 1 10 2 12 3 3 4 4 5 5 6 7 7 8 8 9 9 11 10 2 12 1 13
REMARK H PARENT 11 11
REMARK Flexibility Score: inf
ROOT
ATOM      1  C   UNL     1      11.522 -12.189   4.896  1.00  0.00     0.059 A 
ATOM      2  C   UNL     1      12.844 -12.673   5.032  1.00  0.00     0.130 A 
ATOM      3  C   UNL     1      13.078 -14.055   5.100  1.00  0.00     0.093 A 
ATOM      4  C   UNL     1      12.021 -14.968   5.050  1.00  0.00     0.122 A 
ATOM      5  C   UNL     1      10.707 -14.487   4.934  1.00  0.00     0.047 A 
ATOM      6  C   UNL     1      10.462 -13.115   4.860  1.00  0.00     0.019 A 
ENDROOT
BRANCH   1   7
ATOM      7  C   UNL     1      11.207 -10.738   4.801  1.00  0.00     0.163 C 
ATOM      8  C   UNL     1       9.814 -10.230   4.578  1.00  0.00     0.093 C 
ATOM      9  O   UNL     1      12.139  -9.895   4.910  1.00  0.00    -0.294 OA
ENDBRANCH   1   7
BRANCH   2  10
ATOM     10  O   UNL     1      13.922 -11.794   5.125  1.00  0.00    -0.507 OA
ATOM     11  H   UNL     1      14.627 -11.889   5.846  1.00  0.00     0.293 HD
ENDBRANCH   2  10
BRANCH   4  12
ATOM     12  O   UNL     1      12.318 -16.337   5.125  1.00  0.00    -0.497 OA
ATOM     13  C   UNL     1      11.507 -17.368   4.569  1.00  0.00     0.278 C 
ENDBRANCH   4  12
TORSDOF 3
ENDMDL
MODEL 6
REMARK VINA RESULT:     0.058      1.910      4.450
REMARK INTER + INTRA:          -0.261
REMARK INTER:                   0.016
REMARK INTRA:                  -0.278
REMARK UNBOUND:                -0.328
REMARK SMILES COc1ccc(C(C)=O)c(O)c1
REMARK SMILES IDX 6 1 10 2 12 3 3 4 4 5 5 6 7 7 8 8 9 9 11 10 2 12 1 13
REMARK H PARENT 11 11
REMARK Flexibility Score: inf
ROOT
ATOM      1  C   UNL     1      13.502 -10.263   4.296  1.00  0.00     0.059 A 
ATOM      2  C   UNL     1      12.123 -10.191   3.991  1.00  0.00     0.130 A 
ATOM      3  C   UNL     1      11.286 -11.281   4.272  1.00  0.00     0.093 A 
ATOM      4  C   UNL     1      11.796 -12.453   4.838  1.00  0.00     0.122 A 
ATOM      5  C   UNL     1      13.168 -12.533   5.125  1.00  0.00     0.047 A 
ATOM      6  C   UNL     1      14.009 -11.452   4.854  1.00  0.00     0.019 A 
ENDROOT
BRANCH   1   7
ATOM      7  C   UNL     1      14.439  -9.137   4.040  1.00  0.00     0.163 C 
ATOM      8  C   UNL     1      15.743  -8.994   4.766  1.00  0.00     0.093 C 
ATOM      9  O   UNL     1      14.137  -8.265   3.181  1.00  0.00    -0.294 OA
ENDBRANCH   1   7
BRANCH   2  10
ATOM     10  O   UNL     1      11.582  -9.055   3.389  1.00  0.00    -0.507 OA
ATOM     11  H   UNL     1      11.130  -9.095   2.484  1.00  0.00     0.293 HD
ENDBRANCH   2  10
BRANCH   4  12
ATOM     12  O   UNL     1      10.909 -13.510   5.095  1.00  0.00    -0.497 OA
ATOM     13  C   UNL     1      11.233 -14.887   4.935  1.00  0.00     0.278 C 
ENDBRANCH   4  12
TORSDOF 3
ENDMDL
MODEL 7
REMARK VINA RESULT:     0.303      2.194      5.272
REMARK INTER + INTRA:           0.019
REMARK INTER:                   0.185
REMARK INTRA:                  -0.166
REMARK UNBOUND:                -0.328
REMARK SMILES COc1ccc(C(C)=O)c(O)c1
REMARK SMILES IDX 6 1 10 2 12 3 3 4 4 5 5 6 7 7 8 8 9 9 11 10 2 12 1 13
REMARK H PARENT 11 11
REMARK Flexibility Score: inf
ROOT
ATOM      1  C   UNL     1      10.392 -10.298   3.430  1.00  0.00     0.059 A 
ATOM      2  C   UNL     1       8.990 -10.391   3.592  1.00  0.00     0.130 A 
ATOM      3  C   UNL     1       8.150 -10.310   2.472  1.00  0.00     0.093 A 
ATOM      4  C   UNL     1       8.675 -10.121   1.190  1.00  0.00     0.122 A 
ATOM      5  C   UNL     1      10.065 -10.010   1.031  1.00  0.00     0.047 A 
ATOM      6  C   UNL     1      10.911 -10.095   2.138  1.00  0.00     0.019 A 
ENDROOT
BRANCH   1   7
ATOM      7  C   UNL     1      11.338 -10.394   4.574  1.00  0.00     0.163 C 
ATOM      8  C   UNL     1      11.809 -11.709   5.120  1.00  0.00     0.093 C 
ATOM      9  O   UNL     1      11.767  -9.338   5.112  1.00  0.00    -0.294 OA
ENDBRANCH   1   7
BRANCH   2  10
ATOM     10  O   UNL     1       8.424 -10.541   4.858  1.00  0.00    -0.507 OA
ATOM     11  H   UNL     1       7.812  -9.839   5.254  1.00  0.00     0.293 HD
ENDBRANCH   2  10
BRANCH   4  12
ATOM     12  O   UNL     1       7.784 -10.046   0.109  1.00  0.00    -0.497 OA
ATOM     13  C   UNL     1       6.897 -11.091  -0.277  1.00  0.00     0.278 C 
ENDBRANCH   4  12
TORSDOF 3
ENDMDL
