MODEL 1
REMARK VINA RESULT:     3.179      0.000      0.000
REMARK INTER + INTRA:           3.461
REMARK INTER:                   3.922
REMARK INTRA:                  -0.461
REMARK UNBOUND:                -0.461
REMARK SMILES CC(C)=CCC[C@@H](C)[C@H]1C=CC(C)=CC1
REMARK SMILES IDX 6 1 7 2 8 3 9 4 13 5 12 6 14 7 11 8 15 9 10 10 5 11 4 12
REMARK SMILES IDX 2 13 1 14 3 15
REMARK H PARENT
REMARK Flexibility Score: inf
ROOT
ATOM      1  C   UNL     1     135.865 141.219 162.289  1.00  0.00     0.008 C 
ENDROOT
BRANCH   1   2
ATOM      2  C   UNL     1     136.197 139.763 162.711  1.00  0.00    -0.007 C 
ATOM      3  C   UNL     1     135.896 139.579 164.210  1.00  0.00     0.008 C 
BRANCH   2   4
ATOM      4  C   UNL     1     135.520 138.671 161.822  1.00  0.00     0.018 C 
ATOM      5  C   UNL     1     137.760 134.943 162.320  1.00  0.00     0.044 C 
ATOM      6  C   UNL     1     136.840 136.097 162.046  1.00  0.00    -0.055 C 
ATOM      7  C   UNL     1     135.846 136.383 162.897  1.00  0.00    -0.023 C 
ATOM      8  C   UNL     1     137.106 136.984 160.895  1.00  0.00    -0.001 C 
ATOM      9  C   UNL     1     134.875 137.497 162.609  1.00  0.00     0.035 C 
ATOM     10  C   UNL     1     136.482 138.161 160.769  1.00  0.00    -0.023 C 
ENDBRANCH   2   4
ENDBRANCH   1   2
BRANCH   1  11
ATOM     11  C   UNL     1     137.051 141.983 161.665  1.00  0.00     0.027 C 
BRANCH  11  12
ATOM     12  C   UNL     1     136.659 142.749 160.422  1.00  0.00    -0.028 C 
ATOM     13  C   UNL     1     137.548 143.424 159.661  1.00  0.00    -0.080 C 
ATOM     14  C   UNL     1     139.017 143.461 160.008  1.00  0.00     0.039 C 
ATOM     15  C   UNL     1     137.050 144.150 158.439  1.00  0.00     0.039 C 
ENDBRANCH  11  12
ENDBRANCH   1  11
TORSDOF 4
ENDMDL
MODEL 2
REMARK VINA RESULT:     4.507      2.589      4.441
REMARK INTER + INTRA:           5.100
REMARK INTER:                   5.892
REMARK INTRA:                  -0.792
REMARK UNBOUND:                -0.461
REMARK SMILES CC(C)=CCC[C@@H](C)[C@H]1C=CC(C)=CC1
REMARK SMILES IDX 6 1 7 2 8 3 9 4 13 5 12 6 14 7 11 8 15 9 10 10 5 11 4 12
REMARK SMILES IDX 2 13 1 14 3 15
REMARK H PARENT
REMARK Flexibility Score: inf
ROOT
ATOM      1  C   UNL     1     135.007 140.454 163.634  1.00  0.00     0.008 C 
ENDROOT
BRANCH   1   2
ATOM      2  C   UNL     1     135.553 139.888 162.295  1.00  0.00    -0.007 C 
ATOM      3  C   UNL     1     137.090 139.830 162.349  1.00  0.00     0.008 C 
BRANCH   2   4
ATOM      4  C   UNL     1     134.912 138.529 161.869  1.00  0.00     0.018 C 
ATOM      5  C   UNL     1     138.038 135.467 161.982  1.00  0.00     0.044 C 
ATOM      6  C   UNL     1     136.825 136.348 161.921  1.00  0.00    -0.055 C 
ATOM      7  C   UNL     1     136.131 136.618 163.034  1.00  0.00    -0.023 C 
ATOM      8  C   UNL     1     136.466 137.008 160.648  1.00  0.00    -0.001 C 
ATOM      9  C   UNL     1     134.876 137.448 162.984  1.00  0.00     0.035 C 
ATOM     10  C   UNL     1     135.565 137.996 160.611  1.00  0.00    -0.023 C 
ENDBRANCH   2   4
ENDBRANCH   1   2
BRANCH   1  11
ATOM     11  C   UNL     1     136.067 140.576 164.748  1.00  0.00     0.027 C 
BRANCH  11  12
ATOM     12  C   UNL     1     136.084 139.375 165.668  1.00  0.00    -0.028 C 
ATOM     13  C   UNL     1     137.209 138.909 166.250  1.00  0.00    -0.080 C 
ATOM     14  C   UNL     1     138.549 139.565 166.018  1.00  0.00     0.039 C 
ATOM     15  C   UNL     1     137.112 137.707 167.154  1.00  0.00     0.039 C 
ENDBRANCH  11  12
ENDBRANCH   1  11
TORSDOF 4
ENDMDL
MODEL 3
REMARK VINA RESULT:     5.513     13.013     14.949
REMARK INTER + INTRA:           6.342
REMARK INTER:                   5.927
REMARK INTRA:                   0.415
REMARK UNBOUND:                -0.461
REMARK SMILES CC(C)=CCC[C@@H](C)[C@H]1C=CC(C)=CC1
REMARK SMILES IDX 6 1 7 2 8 3 9 4 13 5 12 6 14 7 11 8 15 9 10 10 5 11 4 12
REMARK SMILES IDX 2 13 1 14 3 15
REMARK H PARENT
REMARK Flexibility Score: inf
ROOT
ATOM      1  C   UNL     1     150.919 136.888 162.923  1.00  0.00     0.008 C 
ENDROOT
BRANCH   1   2
ATOM      2  C   UNL     1     151.543 136.022 161.796  1.00  0.00    -0.007 C 
ATOM      3  C   UNL     1     152.914 135.493 162.253  1.00  0.00     0.008 C 
BRANCH   2   4
ATOM      4  C   UNL     1     150.605 134.890 161.268  1.00  0.00     0.018 C 
ATOM      5  C   UNL     1     147.004 136.769 159.637  1.00  0.00     0.044 C 
ATOM      6  C   UNL     1     148.165 135.939 160.101  1.00  0.00    -0.055 C 
ATOM      7  C   UNL     1     149.233 135.773 159.311  1.00  0.00    -0.023 C 
ATOM      8  C   UNL     1     148.173 135.401 161.477  1.00  0.00    -0.001 C 
ATOM      9  C   UNL     1     150.381 134.894 159.731  1.00  0.00     0.035 C 
ATOM     10  C   UNL     1     149.286 134.890 162.013  1.00  0.00    -0.023 C 
ENDBRANCH   2   4
ENDBRANCH   1   2
BRANCH   1  11
ATOM     11  C   UNL     1     150.538 136.099 164.192  1.00  0.00     0.027 C 
BRANCH  11  12
ATOM     12  C   UNL     1     151.491 136.346 165.339  1.00  0.00    -0.028 C 
ATOM     13  C   UNL     1     151.519 137.500 166.039  1.00  0.00    -0.080 C 
ATOM     14  C   UNL     1     150.584 138.642 165.717  1.00  0.00     0.039 C 
ATOM     15  C   UNL     1     152.507 137.639 167.167  1.00  0.00     0.039 C 
ENDBRANCH  11  12
ENDBRANCH   1  11
TORSDOF 4
ENDMDL
