MODEL 1
REMARK VINA RESULT:    -4.489      0.000      0.000
REMARK INTER + INTRA:          -5.221
REMARK INTER:                  -5.146
REMARK INTRA:                  -0.075
REMARK UNBOUND:                -0.075
REMARK SMILES COc1cc(C(=O)[O-])ccc1O
REMARK SMILES IDX 5 1 9 2 4 3 10 4 3 5 11 6 6 7 7 8 8 9 2 10 1 11 12 12
REMARK H PARENT 12 13
REMARK Flexibility Score: inf
ROOT
ATOM      1  C   UNL     1     -30.562 -20.189 -30.878  1.00  0.00     0.001 A 
ATOM      2  C   UNL     1     -29.599 -19.173 -30.989  1.00  0.00     0.014 A 
ATOM      3  C   UNL     1     -30.940 -20.902 -32.030  1.00  0.00     0.060 A 
ATOM      4  C   UNL     1     -29.025 -18.876 -32.225  1.00  0.00     0.051 A 
ATOM      5  C   UNL     1     -30.362 -20.606 -33.282  1.00  0.00     0.161 A 
ATOM      6  C   UNL     1     -29.399 -19.584 -33.370  1.00  0.00     0.157 A 
ENDROOT
BRANCH   1   7
ATOM      7  C   UNL     1     -31.168 -20.501 -29.564  1.00  0.00     0.072 C 
ATOM      8  O   UNL     1     -30.789 -21.505 -28.904  1.00  0.00    -0.545 OA
ATOM      9  O   UNL     1     -32.167 -19.689 -29.038  1.00  0.00    -0.545 OA
ENDBRANCH   1   7
BRANCH   5  10
ATOM     10  O   UNL     1     -30.719 -21.301 -34.449  1.00  0.00    -0.493 OA
ATOM     11  C   UNL     1     -31.979 -21.929 -34.663  1.00  0.00     0.278 C 
ENDBRANCH   5  10
BRANCH   6  12
ATOM     12  O   UNL     1     -28.803 -19.259 -34.588  1.00  0.00    -0.504 OA
ATOM     13  H   UNL     1     -27.798 -19.248 -34.713  1.00  0.00     0.293 HD
ENDBRANCH   6  12
TORSDOF 3
ENDMDL
MODEL 2
REMARK VINA RESULT:    -4.328      1.372      4.208
REMARK INTER + INTRA:          -5.035
REMARK INTER:                  -4.932
REMARK INTRA:                  -0.103
REMARK UNBOUND:                -0.075
REMARK SMILES COc1cc(C(=O)[O-])ccc1O
REMARK SMILES IDX 5 1 9 2 4 3 10 4 3 5 11 6 6 7 7 8 8 9 2 10 1 11 12 12
REMARK H PARENT 12 13
REMARK Flexibility Score: inf
ROOT
ATOM      1  C   UNL     1     -30.493 -20.745 -32.851  1.00  0.00     0.001 A 
ATOM      2  C   UNL     1     -29.236 -20.120 -32.862  1.00  0.00     0.014 A 
ATOM      3  C   UNL     1     -31.248 -20.743 -31.664  1.00  0.00     0.060 A 
ATOM      4  C   UNL     1     -28.744 -19.504 -31.711  1.00  0.00     0.051 A 
ATOM      5  C   UNL     1     -30.755 -20.121 -30.497  1.00  0.00     0.161 A 
ATOM      6  C   UNL     1     -29.493 -19.501 -30.531  1.00  0.00     0.157 A 
ENDROOT
BRANCH   1   7
ATOM      7  C   UNL     1     -31.012 -21.397 -34.075  1.00  0.00     0.072 C 
ATOM      8  O   UNL     1     -30.415 -21.260 -35.176  1.00  0.00    -0.545 OA
ATOM      9  O   UNL     1     -32.167 -22.168 -34.026  1.00  0.00    -0.545 OA
ENDBRANCH   1   7
BRANCH   5  10
ATOM     10  O   UNL     1     -31.486 -20.102 -29.299  1.00  0.00    -0.493 OA
ATOM     11  C   UNL     1     -32.598 -19.251 -29.043  1.00  0.00     0.278 C 
ENDBRANCH   5  10
BRANCH   6  12
ATOM     12  O   UNL     1     -28.968 -18.875 -29.401  1.00  0.00    -0.504 OA
ATOM     13  H   UNL     1     -29.442 -18.111 -28.936  1.00  0.00     0.293 HD
ENDBRANCH   6  12
TORSDOF 3
ENDMDL
MODEL 3
REMARK VINA RESULT:    -3.492      2.827      5.083
REMARK INTER + INTRA:          -4.077
REMARK INTER:                  -3.984
REMARK INTRA:                  -0.094
REMARK UNBOUND:                -0.075
REMARK SMILES COc1cc(C(=O)[O-])ccc1O
REMARK SMILES IDX 5 1 9 2 4 3 10 4 3 5 11 6 6 7 7 8 8 9 2 10 1 11 12 12
REMARK H PARENT 12 13
REMARK Flexibility Score: inf
ROOT
ATOM      1  C   UNL     1     -31.766 -21.457 -34.810  1.00  0.00     0.001 A 
ATOM      2  C   UNL     1     -33.049 -20.899 -34.925  1.00  0.00     0.014 A 
ATOM      3  C   UNL     1     -31.268 -22.250 -35.860  1.00  0.00     0.060 A 
ATOM      4  C   UNL     1     -33.819 -21.127 -36.067  1.00  0.00     0.051 A 
ATOM      5  C   UNL     1     -32.043 -22.483 -37.016  1.00  0.00     0.161 A 
ATOM      6  C   UNL     1     -33.325 -21.914 -37.110  1.00  0.00     0.157 A 
ENDROOT
BRANCH   1   7
ATOM      7  C   UNL     1     -30.953 -21.212 -33.598  1.00  0.00     0.072 C 
ATOM      8  O   UNL     1     -31.434 -21.415 -32.451  1.00  0.00    -0.545 OA
ATOM      9  O   UNL     1     -29.646 -20.752 -33.707  1.00  0.00    -0.545 OA
ENDBRANCH   1   7
BRANCH   5  10
ATOM     10  O   UNL     1     -31.572 -23.269 -38.080  1.00  0.00    -0.493 OA
ATOM     11  C   UNL     1     -31.710 -24.683 -38.165  1.00  0.00     0.278 C 
ENDBRANCH   5  10
BRANCH   6  12
ATOM     12  O   UNL     1     -34.124 -22.119 -38.235  1.00  0.00    -0.504 OA
ATOM     13  H   UNL     1     -33.734 -22.215 -39.165  1.00  0.00     0.293 HD
ENDBRANCH   6  12
TORSDOF 3
ENDMDL
MODEL 4
REMARK VINA RESULT:    -3.228      3.307      6.904
REMARK INTER + INTRA:          -3.775
REMARK INTER:                  -3.688
REMARK INTRA:                  -0.087
REMARK UNBOUND:                -0.075
REMARK SMILES COc1cc(C(=O)[O-])ccc1O
REMARK SMILES IDX 5 1 9 2 4 3 10 4 3 5 11 6 6 7 7 8 8 9 2 10 1 11 12 12
REMARK H PARENT 12 13
REMARK Flexibility Score: inf
ROOT
ATOM      1  C   UNL     1     -32.378 -23.166 -37.324  1.00  0.00     0.001 A 
ATOM      2  C   UNL     1     -33.310 -22.248 -37.833  1.00  0.00     0.014 A 
ATOM      3  C   UNL     1     -31.895 -22.995 -36.014  1.00  0.00     0.060 A 
ATOM      4  C   UNL     1     -33.752 -21.182 -37.049  1.00  0.00     0.051 A 
ATOM      5  C   UNL     1     -32.339 -21.919 -35.217  1.00  0.00     0.161 A 
ATOM      6  C   UNL     1     -33.274 -21.012 -35.748  1.00  0.00     0.157 A 
ENDROOT
BRANCH   1   7
ATOM      7  C   UNL     1     -31.912 -24.296 -38.160  1.00  0.00     0.072 C 
ATOM      8  O   UNL     1     -31.125 -24.099 -39.124  1.00  0.00    -0.545 OA
ATOM      9  O   UNL     1     -32.339 -25.592 -37.894  1.00  0.00    -0.545 OA
ENDBRANCH   1   7
BRANCH   5  10
ATOM     10  O   UNL     1     -31.876 -21.725 -33.907  1.00  0.00    -0.493 OA
ATOM     11  C   UNL     1     -30.720 -20.968 -33.560  1.00  0.00     0.278 C 
ENDBRANCH   5  10
BRANCH   6  12
ATOM     12  O   UNL     1     -33.739 -19.934 -34.994  1.00  0.00    -0.504 OA
ATOM     13  H   UNL     1     -33.893 -19.019 -35.398  1.00  0.00     0.293 HD
ENDBRANCH   6  12
TORSDOF 3
ENDMDL
MODEL 5
REMARK VINA RESULT:    -3.027      1.365      1.674
REMARK INTER + INTRA:          -3.544
REMARK INTER:                  -3.891
REMARK INTRA:                   0.346
REMARK UNBOUND:                -0.075
REMARK SMILES COc1cc(C(=O)[O-])ccc1O
REMARK SMILES IDX 5 1 9 2 4 3 10 4 3 5 11 6 6 7 7 8 8 9 2 10 1 11 12 12
REMARK H PARENT 12 13
REMARK Flexibility Score: inf
ROOT
ATOM      1  C   UNL     1     -30.254 -19.762 -31.609  1.00  0.00     0.001 A 
ATOM      2  C   UNL     1     -29.312 -19.253 -32.517  1.00  0.00     0.014 A 
ATOM      3  C   UNL     1     -31.141 -20.768 -32.035  1.00  0.00     0.060 A 
ATOM      4  C   UNL     1     -29.256 -19.739 -33.824  1.00  0.00     0.051 A 
ATOM      5  C   UNL     1     -31.088 -21.263 -33.355  1.00  0.00     0.161 A 
ATOM      6  C   UNL     1     -30.136 -20.738 -34.248  1.00  0.00     0.157 A 
ENDROOT
BRANCH   1   7
ATOM      7  C   UNL     1     -30.310 -19.243 -30.224  1.00  0.00     0.072 C 
ATOM      8  O   UNL     1     -29.258 -18.875 -29.634  1.00  0.00    -0.545 OA
ATOM      9  O   UNL     1     -31.524 -19.156 -29.552  1.00  0.00    -0.545 OA
ENDBRANCH   1   7
BRANCH   5  10
ATOM     10  O   UNL     1     -31.959 -22.267 -33.808  1.00  0.00    -0.493 OA
ATOM     11  C   UNL     1     -32.707 -22.204 -35.017  1.00  0.00     0.278 C 
ENDBRANCH   5  10
BRANCH   6  12
ATOM     12  O   UNL     1     -30.050 -21.199 -35.561  1.00  0.00    -0.504 OA
ATOM     13  H   UNL     1     -29.810 -20.590 -36.334  1.00  0.00     0.293 HD
ENDBRANCH   6  12
TORSDOF 3
ENDMDL
MODEL 6
REMARK VINA RESULT:    -2.980      1.891      2.410
REMARK INTER + INTRA:          -3.491
REMARK INTER:                  -3.661
REMARK INTRA:                   0.171
REMARK UNBOUND:                -0.075
REMARK SMILES COc1cc(C(=O)[O-])ccc1O
REMARK SMILES IDX 5 1 9 2 4 3 10 4 3 5 11 6 6 7 7 8 8 9 2 10 1 11 12 12
REMARK H PARENT 12 13
REMARK Flexibility Score: inf
ROOT
ATOM      1  C   UNL     1     -31.115 -20.036 -31.527  1.00  0.00     0.001 A 
ATOM      2  C   UNL     1     -32.023 -18.980 -31.704  1.00  0.00     0.014 A 
ATOM      3  C   UNL     1     -30.964 -20.987 -32.552  1.00  0.00     0.060 A 
ATOM      4  C   UNL     1     -32.765 -18.875 -32.881  1.00  0.00     0.051 A 
ATOM      5  C   UNL     1     -31.712 -20.887 -33.744  1.00  0.00     0.161 A 
ATOM      6  C   UNL     1     -32.616 -19.820 -33.899  1.00  0.00     0.157 A 
ENDROOT
BRANCH   1   7
ATOM      7  C   UNL     1     -30.330 -20.141 -30.276  1.00  0.00     0.072 C 
ATOM      8  O   UNL     1     -30.589 -21.039 -29.430  1.00  0.00    -0.545 OA
ATOM      9  O   UNL     1     -29.294 -19.250 -30.017  1.00  0.00    -0.545 OA
ENDBRANCH   1   7
BRANCH   5  10
ATOM     10  O   UNL     1     -31.582 -21.821 -34.784  1.00  0.00    -0.493 OA
ATOM     11  C   UNL     1     -32.637 -22.644 -35.269  1.00  0.00     0.278 C 
ENDBRANCH   5  10
BRANCH   6  12
ATOM     12  O   UNL     1     -33.374 -19.683 -35.062  1.00  0.00    -0.504 OA
ATOM     13  H   UNL     1     -32.951 -19.617 -35.980  1.00  0.00     0.293 HD
ENDBRANCH   6  12
TORSDOF 3
ENDMDL
MODEL 7
REMARK VINA RESULT:    -2.761      1.303      4.694
REMARK INTER + INTRA:          -3.240
REMARK INTER:                  -3.150
REMARK INTRA:                  -0.090
REMARK UNBOUND:                -0.075
REMARK SMILES COc1cc(C(=O)[O-])ccc1O
REMARK SMILES IDX 5 1 9 2 4 3 10 4 3 5 11 6 6 7 7 8 8 9 2 10 1 11 12 12
REMARK H PARENT 12 13
REMARK Flexibility Score: inf
ROOT
ATOM      1  C   UNL     1     -30.821 -20.217 -32.255  1.00  0.00     0.001 A 
ATOM      2  C   UNL     1     -31.665 -19.115 -32.042  1.00  0.00     0.014 A 
ATOM      3  C   UNL     1     -30.531 -21.074 -31.178  1.00  0.00     0.060 A 
ATOM      4  C   UNL     1     -32.209 -18.875 -30.780  1.00  0.00     0.051 A 
ATOM      5  C   UNL     1     -31.078 -20.836 -29.900  1.00  0.00     0.161 A 
ATOM      6  C   UNL     1     -31.921 -19.726 -29.710  1.00  0.00     0.157 A 
ENDROOT
BRANCH   1   7
ATOM      7  C   UNL     1     -30.247 -20.468 -33.596  1.00  0.00     0.072 C 
ATOM      8  O   UNL     1     -29.162 -19.929 -33.941  1.00  0.00    -0.545 OA
ATOM      9  O   UNL     1     -30.900 -21.303 -34.497  1.00  0.00    -0.545 OA
ENDBRANCH   1   7
BRANCH   5  10
ATOM     10  O   UNL     1     -30.807 -21.674 -28.807  1.00  0.00    -0.493 OA
ATOM     11  C   UNL     1     -29.519 -21.862 -28.231  1.00  0.00     0.278 C 
ENDBRANCH   5  10
BRANCH   6  12
ATOM     12  O   UNL     1     -32.483 -19.454 -28.463  1.00  0.00    -0.504 OA
ATOM     13  H   UNL     1     -32.013 -19.683 -27.596  1.00  0.00     0.293 HD
ENDBRANCH   6  12
TORSDOF 3
ENDMDL
