MODEL 1
REMARK VINA RESULT:    14.605      0.000      0.000
REMARK INTER + INTRA:          32.673
REMARK INTER:                  33.389
REMARK INTRA:                  -0.716
REMARK UNBOUND:                -0.716
REMARK SMILES CCCCCCCCCCCCCCCCCCCCCCCC(=O)[O-]
REMARK SMILES IDX 13 1 14 2 15 3 16 4 17 5 18 6 19 7 20 8 21 9 22 10 23 11
REMARK SMILES IDX 24 12 25 13 26 14 12 15 11 16 10 17 9 18 8 19 7 20 6 21 5 22
REMARK SMILES IDX 4 23 3 24 2 25 1 26
REMARK H PARENT
REMARK Flexibility Score: inf
ROOT
ATOM      1  C   UNL     1      82.174  66.588 103.718  1.00  0.00     0.000 C 
ENDROOT
BRANCH   1   2
ATOM      2  C   UNL     1      81.376  65.341 103.306  1.00  0.00     0.000 C 
BRANCH   2   3
ATOM      3  C   UNL     1      80.229  65.669 102.338  1.00  0.00     0.000 C 
BRANCH   3   4
ATOM      4  C   UNL     1      79.552  64.387 101.831  1.00  0.00     0.000 C 
BRANCH   4   5
ATOM      5  C   UNL     1      78.020  64.441 101.945  1.00  0.00     0.000 C 
BRANCH   5   6
ATOM      6  C   UNL     1      77.267  63.341 101.170  1.00  0.00     0.000 C 
BRANCH   6   7
ATOM      7  C   UNL     1      76.581  63.844  99.884  1.00  0.00     0.000 C 
BRANCH   7   8
ATOM      8  C   UNL     1      75.095  63.440  99.810  1.00  0.00     0.000 C 
BRANCH   8   9
ATOM      9  C   UNL     1      74.205  64.570  99.269  1.00  0.00     0.000 C 
BRANCH   9  10
ATOM     10  C   UNL     1      74.059  64.524  97.739  1.00  0.00     0.006 C 
BRANCH  10  11
ATOM     11  C   UNL     1      74.258  63.098  97.217  1.00  0.00     0.053 C 
BRANCH  11  12
ATOM     12  C   UNL     1      75.357  63.058  96.202  1.00  0.00     0.041 C 
ATOM     13  O   UNL     1      75.782  61.953  95.771  1.00  0.00    -0.550 OA
ATOM     14  O   UNL     1      75.950  64.238  95.770  1.00  0.00    -0.550 OA
ENDBRANCH  11  12
ENDBRANCH  10  11
ENDBRANCH   9  10
ENDBRANCH   8   9
ENDBRANCH   7   8
ENDBRANCH   6   7
ENDBRANCH   5   6
ENDBRANCH   4   5
ENDBRANCH   3   4
ENDBRANCH   2   3
ENDBRANCH   1   2
BRANCH   1  15
ATOM     15  C   UNL     1      82.535  66.593 105.210  1.00  0.00     0.000 C 
BRANCH  15  16
ATOM     16  C   UNL     1      84.015  66.937 105.420  1.00  0.00     0.000 C 
BRANCH  16  17
ATOM     17  C   UNL     1      84.426  66.705 106.882  1.00  0.00     0.000 C 
BRANCH  17  18
ATOM     18  C   UNL     1      85.919  66.370 107.039  1.00  0.00    -0.000 C 
BRANCH  18  19
ATOM     19  C   UNL     1      86.404  66.221 108.496  1.00  0.00    -0.000 C 
BRANCH  19  20
ATOM     20  C   UNL     1      85.266  66.278 109.537  1.00  0.00    -0.000 C 
BRANCH  20  21
ATOM     21  C   UNL     1      85.738  65.848 110.935  1.00  0.00    -0.000 C 
BRANCH  21  22
ATOM     22  C   UNL     1      87.236  66.120 111.125  1.00  0.00    -0.000 C 
BRANCH  22  23
ATOM     23  C   UNL     1      88.125  65.004 110.548  1.00  0.00    -0.000 C 
BRANCH  23  24
ATOM     24  C   UNL     1      87.849  63.590 111.103  1.00  0.00    -0.000 C 
BRANCH  24  25
ATOM     25  C   UNL     1      87.247  62.598 110.092  1.00  0.00    -0.003 C 
ATOM     26  C   UNL     1      87.860  62.722 108.698  1.00  0.00     0.004 C 
ENDBRANCH  24  25
ENDBRANCH  23  24
ENDBRANCH  22  23
ENDBRANCH  21  22
ENDBRANCH  20  21
ENDBRANCH  19  20
ENDBRANCH  18  19
ENDBRANCH  17  18
ENDBRANCH  16  17
ENDBRANCH  15  16
ENDBRANCH   1  15
TORSDOF 22
ENDMDL
MODEL 2
REMARK VINA RESULT:    14.718      1.322      2.461
REMARK INTER + INTRA:          32.933
REMARK INTER:                  33.146
REMARK INTRA:                  -0.213
REMARK UNBOUND:                -0.716
REMARK SMILES CCCCCCCCCCCCCCCCCCCCCCCC(=O)[O-]
REMARK SMILES IDX 13 1 14 2 15 3 16 4 17 5 18 6 19 7 20 8 21 9 22 10 23 11
REMARK SMILES IDX 24 12 25 13 26 14 12 15 11 16 10 17 9 18 8 19 7 20 6 21 5 22
REMARK SMILES IDX 4 23 3 24 2 25 1 26
REMARK H PARENT
REMARK Flexibility Score: inf
ROOT
ATOM      1  C   UNL     1      80.583  64.721 102.317  1.00  0.00     0.000 C 
ENDROOT
BRANCH   1   2
ATOM      2  C   UNL     1      79.172  64.817 101.715  1.00  0.00     0.000 C 
BRANCH   2   3
ATOM      3  C   UNL     1      78.072  64.508 102.743  1.00  0.00     0.000 C 
BRANCH   3   4
ATOM      4  C   UNL     1      76.865  63.834 102.073  1.00  0.00     0.000 C 
BRANCH   4   5
ATOM      5  C   UNL     1      77.035  63.691 100.551  1.00  0.00     0.000 C 
BRANCH   5   6
ATOM      6  C   UNL     1      75.760  63.280  99.787  1.00  0.00     0.000 C 
BRANCH   6   7
ATOM      7  C   UNL     1      74.967  64.472  99.212  1.00  0.00     0.000 C 
BRANCH   7   8
ATOM      8  C   UNL     1      74.789  64.380  97.684  1.00  0.00     0.000 C 
BRANCH   8   9
ATOM      9  C   UNL     1      74.701  62.929  97.188  1.00  0.00     0.000 C 
BRANCH   9  10
ATOM     10  C   UNL     1      75.341  62.739  95.804  1.00  0.00     0.006 C 
BRANCH  10  11
ATOM     11  C   UNL     1      75.943  61.337  95.670  1.00  0.00     0.053 C 
BRANCH  11  12
ATOM     12  C   UNL     1      75.849  60.598  96.968  1.00  0.00     0.041 C 
ATOM     13  O   UNL     1      74.844  59.878  97.216  1.00  0.00    -0.550 OA
ATOM     14  O   UNL     1      76.842  60.744  97.928  1.00  0.00    -0.550 OA
ENDBRANCH  11  12
ENDBRANCH  10  11
ENDBRANCH   9  10
ENDBRANCH   8   9
ENDBRANCH   7   8
ENDBRANCH   6   7
ENDBRANCH   5   6
ENDBRANCH   4   5
ENDBRANCH   3   4
ENDBRANCH   2   3
ENDBRANCH   1   2
BRANCH   1  15
ATOM     15  C   UNL     1      80.866  65.834 103.336  1.00  0.00     0.000 C 
BRANCH  15  16
ATOM     16  C   UNL     1      81.923  65.393 104.357  1.00  0.00     0.000 C 
BRANCH  16  17
ATOM     17  C   UNL     1      82.981  66.489 104.555  1.00  0.00     0.000 C 
BRANCH  17  18
ATOM     18  C   UNL     1      83.384  66.673 106.029  1.00  0.00    -0.000 C 
BRANCH  18  19
ATOM     19  C   UNL     1      84.837  66.273 106.361  1.00  0.00    -0.000 C 
BRANCH  19  20
ATOM     20  C   UNL     1      85.141  66.246 107.875  1.00  0.00    -0.000 C 
BRANCH  20  21
ATOM     21  C   UNL     1      86.541  65.688 108.174  1.00  0.00    -0.000 C 
BRANCH  21  22
ATOM     22  C   UNL     1      87.282  66.561 109.195  1.00  0.00    -0.000 C 
BRANCH  22  23
ATOM     23  C   UNL     1      87.930  65.742 110.326  1.00  0.00    -0.000 C 
BRANCH  23  24
ATOM     24  C   UNL     1      87.019  64.674 110.970  1.00  0.00    -0.000 C 
BRANCH  24  25
ATOM     25  C   UNL     1      87.295  63.226 110.526  1.00  0.00    -0.003 C 
ATOM     26  C   UNL     1      88.049  63.144 109.200  1.00  0.00     0.004 C 
ENDBRANCH  24  25
ENDBRANCH  23  24
ENDBRANCH  22  23
ENDBRANCH  21  22
ENDBRANCH  20  21
ENDBRANCH  19  20
ENDBRANCH  18  19
ENDBRANCH  17  18
ENDBRANCH  16  17
ENDBRANCH  15  16
ENDBRANCH   1  15
TORSDOF 22
ENDMDL
MODEL 3
REMARK VINA RESULT:    14.938      3.651      5.731
REMARK INTER + INTRA:          33.433
REMARK INTER:                  33.055
REMARK INTRA:                   0.379
REMARK UNBOUND:                -0.716
REMARK SMILES CCCCCCCCCCCCCCCCCCCCCCCC(=O)[O-]
REMARK SMILES IDX 13 1 14 2 15 3 16 4 17 5 18 6 19 7 20 8 21 9 22 10 23 11
REMARK SMILES IDX 24 12 25 13 26 14 12 15 11 16 10 17 9 18 8 19 7 20 6 21 5 22
REMARK SMILES IDX 4 23 3 24 2 25 1 26
REMARK H PARENT
REMARK Flexibility Score: inf
ROOT
ATOM      1  C   UNL     1      80.868  65.867 103.541  1.00  0.00     0.000 C 
ENDROOT
BRANCH   1   2
ATOM      2  C   UNL     1      80.202  65.553 102.191  1.00  0.00     0.000 C 
BRANCH   2   3
ATOM      3  C   UNL     1      79.448  64.215 102.205  1.00  0.00     0.000 C 
BRANCH   3   4
ATOM      4  C   UNL     1      77.932  64.435 102.087  1.00  0.00     0.000 C 
BRANCH   4   5
ATOM      5  C   UNL     1      77.277  63.512 101.048  1.00  0.00     0.000 C 
BRANCH   5   6
ATOM      6  C   UNL     1      75.867  63.937 100.592  1.00  0.00     0.000 C 
BRANCH   6   7
ATOM      7  C   UNL     1      75.401  63.255  99.289  1.00  0.00     0.000 C 
BRANCH   7   8
ATOM      8  C   UNL     1      74.515  64.174  98.426  1.00  0.00     0.000 C 
BRANCH   8   9
ATOM      9  C   UNL     1      75.036  64.310  96.987  1.00  0.00     0.000 C 
BRANCH   9  10
ATOM     10  C   UNL     1      75.062  62.967  96.240  1.00  0.00     0.006 C 
BRANCH  10  11
ATOM     11  C   UNL     1      75.227  61.802  97.220  1.00  0.00     0.053 C 
BRANCH  11  12
ATOM     12  C   UNL     1      76.151  60.768  96.658  1.00  0.00     0.041 C 
ATOM     13  O   UNL     1      76.166  60.536  95.420  1.00  0.00    -0.550 OA
ATOM     14  O   UNL     1      76.959  60.019  97.506  1.00  0.00    -0.550 OA
ENDBRANCH  11  12
ENDBRANCH  10  11
ENDBRANCH   9  10
ENDBRANCH   8   9
ENDBRANCH   7   8
ENDBRANCH   6   7
ENDBRANCH   5   6
ENDBRANCH   4   5
ENDBRANCH   3   4
ENDBRANCH   2   3
ENDBRANCH   1   2
BRANCH   1  15
ATOM     15  C   UNL     1      81.986  66.911 103.419  1.00  0.00     0.000 C 
BRANCH  15  16
ATOM     16  C   UNL     1      82.652  67.169 104.777  1.00  0.00     0.000 C 
BRANCH  16  17
ATOM     17  C   UNL     1      83.182  65.859 105.381  1.00  0.00     0.000 C 
BRANCH  17  18
ATOM     18  C   UNL     1      83.419  64.766 104.325  1.00  0.00    -0.000 C 
BRANCH  18  19
ATOM     19  C   UNL     1      83.782  63.378 104.893  1.00  0.00    -0.000 C 
BRANCH  19  20
ATOM     20  C   UNL     1      84.178  62.350 103.812  1.00  0.00    -0.000 C 
BRANCH  20  21
ATOM     21  C   UNL     1      82.967  61.878 102.991  1.00  0.00    -0.000 C 
BRANCH  21  22
ATOM     22  C   UNL     1      83.176  62.138 101.493  1.00  0.00    -0.000 C 
BRANCH  22  23
ATOM     23  C   UNL     1      84.382  63.051 101.206  1.00  0.00    -0.000 C 
BRANCH  23  24
ATOM     24  C   UNL     1      85.386  62.507 100.167  1.00  0.00    -0.000 C 
BRANCH  24  25
ATOM     25  C   UNL     1      86.081  63.578  99.307  1.00  0.00    -0.003 C 
ATOM     26  C   UNL     1      85.826  63.400  97.811  1.00  0.00     0.004 C 
ENDBRANCH  24  25
ENDBRANCH  23  24
ENDBRANCH  22  23
ENDBRANCH  21  22
ENDBRANCH  20  21
ENDBRANCH  19  20
ENDBRANCH  18  19
ENDBRANCH  17  18
ENDBRANCH  16  17
ENDBRANCH  15  16
ENDBRANCH   1  15
TORSDOF 22
ENDMDL
MODEL 4
REMARK VINA RESULT:    14.981      4.650     11.996
REMARK INTER + INTRA:          33.533
REMARK INTER:                  34.696
REMARK INTRA:                  -1.163
REMARK UNBOUND:                -0.716
REMARK SMILES CCCCCCCCCCCCCCCCCCCCCCCC(=O)[O-]
REMARK SMILES IDX 13 1 14 2 15 3 16 4 17 5 18 6 19 7 20 8 21 9 22 10 23 11
REMARK SMILES IDX 24 12 25 13 26 14 12 15 11 16 10 17 9 18 8 19 7 20 6 21 5 22
REMARK SMILES IDX 4 23 3 24 2 25 1 26
REMARK H PARENT
REMARK Flexibility Score: inf
ROOT
ATOM      1  C   UNL     1      80.002  65.471 102.091  1.00  0.00     0.000 C 
ENDROOT
BRANCH   1   2
ATOM      2  C   UNL     1      80.557  65.902 103.458  1.00  0.00     0.000 C 
BRANCH   2   3
ATOM      3  C   UNL     1      81.670  66.955 103.335  1.00  0.00     0.000 C 
BRANCH   3   4
ATOM      4  C   UNL     1      82.425  67.116 104.663  1.00  0.00     0.000 C 
BRANCH   4   5
ATOM      5  C   UNL     1      83.176  65.840 105.077  1.00  0.00     0.000 C 
BRANCH   5   6
ATOM      6  C   UNL     1      83.183  64.714 104.024  1.00  0.00     0.000 C 
BRANCH   6   7
ATOM      7  C   UNL     1      83.664  63.353 104.569  1.00  0.00     0.000 C 
BRANCH   7   8
ATOM      8  C   UNL     1      83.939  62.332 103.448  1.00  0.00     0.000 C 
BRANCH   8   9
ATOM      9  C   UNL     1      83.273  62.723 102.120  1.00  0.00     0.000 C 
BRANCH   9  10
ATOM     10  C   UNL     1      84.070  62.243 100.896  1.00  0.00     0.006 C 
BRANCH  10  11
ATOM     11  C   UNL     1      85.305  63.120 100.674  1.00  0.00     0.053 C 
BRANCH  11  12
ATOM     12  C   UNL     1      85.818  62.962  99.277  1.00  0.00     0.041 C 
ATOM     13  O   UNL     1      86.591  62.009  98.989  1.00  0.00    -0.550 OA
ATOM     14  O   UNL     1      85.488  63.896  98.303  1.00  0.00    -0.550 OA
ENDBRANCH  11  12
ENDBRANCH  10  11
ENDBRANCH   9  10
ENDBRANCH   8   9
ENDBRANCH   7   8
ENDBRANCH   6   7
ENDBRANCH   5   6
ENDBRANCH   4   5
ENDBRANCH   3   4
ENDBRANCH   2   3
ENDBRANCH   1   2
BRANCH   1  15
ATOM     15  C   UNL     1      79.241  64.140 102.156  1.00  0.00     0.000 C 
BRANCH  15  16
ATOM     16  C   UNL     1      77.758  64.366 102.477  1.00  0.00     0.000 C 
BRANCH  16  17
ATOM     17  C   UNL     1      76.870  63.443 101.628  1.00  0.00     0.000 C 
BRANCH  17  18
ATOM     18  C   UNL     1      76.490  64.061 100.271  1.00  0.00    -0.000 C 
BRANCH  18  19
ATOM     19  C   UNL     1      75.313  63.373  99.548  1.00  0.00    -0.000 C 
BRANCH  19  20
ATOM     20  C   UNL     1      74.342  64.361  98.866  1.00  0.00    -0.000 C 
BRANCH  20  21
ATOM     21  C   UNL     1      74.328  64.197  97.338  1.00  0.00    -0.000 C 
BRANCH  21  22
ATOM     22  C   UNL     1      75.638  63.579  96.833  1.00  0.00    -0.000 C 
BRANCH  22  23
ATOM     23  C   UNL     1      75.456  62.766  95.538  1.00  0.00    -0.000 C 
BRANCH  23  24
ATOM     24  C   UNL     1      75.409  61.234  95.725  1.00  0.00    -0.000 C 
BRANCH  24  25
ATOM     25  C   UNL     1      75.808  60.734  97.125  1.00  0.00    -0.003 C 
ATOM     26  C   UNL     1      77.249  60.230  97.189  1.00  0.00     0.004 C 
ENDBRANCH  24  25
ENDBRANCH  23  24
ENDBRANCH  22  23
ENDBRANCH  21  22
ENDBRANCH  20  21
ENDBRANCH  19  20
ENDBRANCH  18  19
ENDBRANCH  17  18
ENDBRANCH  16  17
ENDBRANCH  15  16
ENDBRANCH   1  15
TORSDOF 22
ENDMDL
MODEL 5
REMARK VINA RESULT:    15.144      5.354     14.109
REMARK INTER + INTRA:          33.906
REMARK INTER:                  32.641
REMARK INTRA:                   1.265
REMARK UNBOUND:                -0.716
REMARK SMILES CCCCCCCCCCCCCCCCCCCCCCCC(=O)[O-]
REMARK SMILES IDX 13 1 14 2 15 3 16 4 17 5 18 6 19 7 20 8 21 9 22 10 23 11
REMARK SMILES IDX 24 12 25 13 26 14 12 15 11 16 10 17 9 18 8 19 7 20 6 21 5 22
REMARK SMILES IDX 4 23 3 24 2 25 1 26
REMARK H PARENT
REMARK Flexibility Score: inf
ROOT
ATOM      1  C   UNL     1      79.654  64.399 102.153  1.00  0.00     0.000 C 
ENDROOT
BRANCH   1   2
ATOM      2  C   UNL     1      80.326  65.704 102.608  1.00  0.00     0.000 C 
BRANCH   2   3
ATOM      3  C   UNL     1      81.424  65.466 103.657  1.00  0.00     0.000 C 
BRANCH   3   4
ATOM      4  C   UNL     1      81.876  66.789 104.292  1.00  0.00     0.000 C 
BRANCH   4   5
ATOM      5  C   UNL     1      83.390  66.836 104.553  1.00  0.00     0.000 C 
BRANCH   5   6
ATOM      6  C   UNL     1      83.797  66.872 106.039  1.00  0.00     0.000 C 
BRANCH   6   7
ATOM      7  C   UNL     1      84.833  65.797 106.428  1.00  0.00     0.000 C 
BRANCH   7   8
ATOM      8  C   UNL     1      85.109  65.763 107.944  1.00  0.00     0.000 C 
BRANCH   8   9
ATOM      9  C   UNL     1      86.608  65.838 108.270  1.00  0.00     0.000 C 
BRANCH   9  10
ATOM     10  C   UNL     1      86.875  66.064 109.767  1.00  0.00     0.006 C 
BRANCH  10  11
ATOM     11  C   UNL     1      86.492  64.824 110.581  1.00  0.00     0.053 C 
BRANCH  11  12
ATOM     12  C   UNL     1      87.380  63.671 110.235  1.00  0.00     0.041 C 
ATOM     13  O   UNL     1      87.570  62.745 111.067  1.00  0.00    -0.550 OA
ATOM     14  O   UNL     1      88.042  63.643 109.013  1.00  0.00    -0.550 OA
ENDBRANCH  11  12
ENDBRANCH  10  11
ENDBRANCH   9  10
ENDBRANCH   8   9
ENDBRANCH   7   8
ENDBRANCH   6   7
ENDBRANCH   5   6
ENDBRANCH   4   5
ENDBRANCH   3   4
ENDBRANCH   2   3
ENDBRANCH   1   2
BRANCH   1  15
ATOM     15  C   UNL     1      78.217  64.617 101.659  1.00  0.00     0.000 C 
BRANCH  15  16
ATOM     16  C   UNL     1      77.347  63.382 101.929  1.00  0.00     0.000 C 
BRANCH  16  17
ATOM     17  C   UNL     1      75.916  63.602 101.415  1.00  0.00     0.000 C 
BRANCH  17  18
ATOM     18  C   UNL     1      75.829  63.640  99.879  1.00  0.00    -0.000 C 
BRANCH  18  19
ATOM     19  C   UNL     1      74.398  63.609  99.306  1.00  0.00    -0.000 C 
BRANCH  19  20
ATOM     20  C   UNL     1      74.239  64.402  97.990  1.00  0.00    -0.000 C 
BRANCH  20  21
ATOM     21  C   UNL     1      75.521  64.380  97.143  1.00  0.00    -0.000 C 
BRANCH  21  22
ATOM     22  C   UNL     1      75.913  62.946  96.764  1.00  0.00    -0.000 C 
BRANCH  22  23
ATOM     23  C   UNL     1      74.907  61.896  97.271  1.00  0.00    -0.000 C 
BRANCH  23  24
ATOM     24  C   UNL     1      75.142  60.458  96.761  1.00  0.00    -0.000 C 
BRANCH  24  25
ATOM     25  C   UNL     1      76.533  59.875  97.072  1.00  0.00    -0.003 C 
ATOM     26  C   UNL     1      77.551  60.140  95.964  1.00  0.00     0.004 C 
ENDBRANCH  24  25
ENDBRANCH  23  24
ENDBRANCH  22  23
ENDBRANCH  21  22
ENDBRANCH  20  21
ENDBRANCH  19  20
ENDBRANCH  18  19
ENDBRANCH  17  18
ENDBRANCH  16  17
ENDBRANCH  15  16
ENDBRANCH   1  15
TORSDOF 22
ENDMDL
MODEL 6
REMARK VINA RESULT:    15.239      4.224     11.454
REMARK INTER + INTRA:          34.121
REMARK INTER:                  35.370
REMARK INTRA:                  -1.249
REMARK UNBOUND:                -0.716
REMARK SMILES CCCCCCCCCCCCCCCCCCCCCCCC(=O)[O-]
REMARK SMILES IDX 13 1 14 2 15 3 16 4 17 5 18 6 19 7 20 8 21 9 22 10 23 11
REMARK SMILES IDX 24 12 25 13 26 14 12 15 11 16 10 17 9 18 8 19 7 20 6 21 5 22
REMARK SMILES IDX 4 23 3 24 2 25 1 26
REMARK H PARENT
REMARK Flexibility Score: inf
ROOT
ATOM      1  C   UNL     1      81.857  66.343 103.222  1.00  0.00     0.000 C 
ENDROOT
BRANCH   1   2
ATOM      2  C   UNL     1      82.151  67.168 104.485  1.00  0.00     0.000 C 
BRANCH   2   3
ATOM      3  C   UNL     1      83.609  67.033 104.950  1.00  0.00     0.000 C 
BRANCH   3   4
ATOM      4  C   UNL     1      83.755  65.908 105.985  1.00  0.00     0.000 C 
BRANCH   4   5
ATOM      5  C   UNL     1      83.186  64.568 105.490  1.00  0.00     0.000 C 
BRANCH   5   6
ATOM      6  C   UNL     1      84.220  63.434 105.340  1.00  0.00     0.000 C 
BRANCH   6   7
ATOM      7  C   UNL     1      83.933  62.481 104.162  1.00  0.00     0.000 C 
BRANCH   7   8
ATOM      8  C   UNL     1      83.497  63.231 102.888  1.00  0.00     0.000 C 
BRANCH   8   9
ATOM      9  C   UNL     1      83.894  62.489 101.603  1.00  0.00     0.000 C 
BRANCH   9  10
ATOM     10  C   UNL     1      85.282  62.903 101.088  1.00  0.00     0.006 C 
BRANCH  10  11
ATOM     11  C   UNL     1      85.477  62.460  99.635  1.00  0.00     0.053 C 
BRANCH  11  12
ATOM     12  C   UNL     1      85.646  63.648  98.741  1.00  0.00     0.041 C 
ATOM     13  O   UNL     1      85.756  63.493  97.495  1.00  0.00    -0.550 OA
ATOM     14  O   UNL     1      85.735  64.924  99.285  1.00  0.00    -0.550 OA
ENDBRANCH  11  12
ENDBRANCH  10  11
ENDBRANCH   9  10
ENDBRANCH   8   9
ENDBRANCH   7   8
ENDBRANCH   6   7
ENDBRANCH   5   6
ENDBRANCH   4   5
ENDBRANCH   3   4
ENDBRANCH   2   3
ENDBRANCH   1   2
BRANCH   1  15
ATOM     15  C   UNL     1      80.558  65.533 103.335  1.00  0.00     0.000 C 
BRANCH  15  16
ATOM     16  C   UNL     1      79.836  65.454 101.984  1.00  0.00     0.000 C 
BRANCH  16  17
ATOM     17  C   UNL     1      79.300  64.036 101.734  1.00  0.00     0.000 C 
BRANCH  17  18
ATOM     18  C   UNL     1      77.843  63.857 102.196  1.00  0.00    -0.000 C 
BRANCH  18  19
ATOM     19  C   UNL     1      76.777  64.348 101.195  1.00  0.00    -0.000 C 
BRANCH  19  20
ATOM     20  C   UNL     1      76.334  63.269 100.183  1.00  0.00    -0.000 C 
BRANCH  20  21
ATOM     21  C   UNL     1      75.155  63.738  99.316  1.00  0.00    -0.000 C 
BRANCH  21  22
ATOM     22  C   UNL     1      75.566  63.875  97.845  1.00  0.00    -0.000 C 
BRANCH  22  23
ATOM     23  C   UNL     1      75.040  62.725  96.966  1.00  0.00    -0.000 C 
BRANCH  23  24
ATOM     24  C   UNL     1      75.100  61.324  97.612  1.00  0.00    -0.000 C 
BRANCH  24  25
ATOM     25  C   UNL     1      76.377  60.520  97.310  1.00  0.00    -0.003 C 
ATOM     26  C   UNL     1      76.512  60.149  95.834  1.00  0.00     0.004 C 
ENDBRANCH  24  25
ENDBRANCH  23  24
ENDBRANCH  22  23
ENDBRANCH  21  22
ENDBRANCH  20  21
ENDBRANCH  19  20
ENDBRANCH  18  19
ENDBRANCH  17  18
ENDBRANCH  16  17
ENDBRANCH  15  16
ENDBRANCH   1  15
TORSDOF 22
ENDMDL
MODEL 7
REMARK VINA RESULT:    15.920      1.716      3.528
REMARK INTER + INTRA:          35.680
REMARK INTER:                  34.554
REMARK INTRA:                   1.126
REMARK UNBOUND:                -0.716
REMARK SMILES CCCCCCCCCCCCCCCCCCCCCCCC(=O)[O-]
REMARK SMILES IDX 13 1 14 2 15 3 16 4 17 5 18 6 19 7 20 8 21 9 22 10 23 11
REMARK SMILES IDX 24 12 25 13 26 14 12 15 11 16 10 17 9 18 8 19 7 20 6 21 5 22
REMARK SMILES IDX 4 23 3 24 2 25 1 26
REMARK H PARENT
REMARK Flexibility Score: inf
ROOT
ATOM      1  C   UNL     1      79.502  64.871 101.837  1.00  0.00     0.000 C 
ENDROOT
BRANCH   1   2
ATOM      2  C   UNL     1      78.387  64.682 102.879  1.00  0.00     0.000 C 
BRANCH   2   3
ATOM      3  C   UNL     1      77.141  64.003 102.290  1.00  0.00     0.000 C 
BRANCH   3   4
ATOM      4  C   UNL     1      77.361  63.631 100.816  1.00  0.00     0.000 C 
BRANCH   4   5
ATOM      5  C   UNL     1      76.043  63.429 100.051  1.00  0.00     0.000 C 
BRANCH   5   6
ATOM      6  C   UNL     1      76.195  62.867  98.623  1.00  0.00     0.000 C 
BRANCH   6   7
ATOM      7  C   UNL     1      75.359  61.598  98.361  1.00  0.00     0.000 C 
BRANCH   7   8
ATOM      8  C   UNL     1      75.770  60.878  97.062  1.00  0.00     0.000 C 
BRANCH   8   9
ATOM      9  C   UNL     1      75.556  61.749  95.814  1.00  0.00     0.000 C 
BRANCH   9  10
ATOM     10  C   UNL     1      75.702  63.250  96.110  1.00  0.00     0.006 C 
BRANCH  10  11
ATOM     11  C   UNL     1      74.341  63.950  96.054  1.00  0.00     0.053 C 
BRANCH  11  12
ATOM     12  C   UNL     1      73.991  64.528  97.389  1.00  0.00     0.041 C 
ATOM     13  O   UNL     1      73.042  64.043  98.061  1.00  0.00    -0.550 OA
ATOM     14  O   UNL     1      74.677  65.637  97.871  1.00  0.00    -0.550 OA
ENDBRANCH  11  12
ENDBRANCH  10  11
ENDBRANCH   9  10
ENDBRANCH   8   9
ENDBRANCH   7   8
ENDBRANCH   6   7
ENDBRANCH   5   6
ENDBRANCH   4   5
ENDBRANCH   3   4
ENDBRANCH   2   3
ENDBRANCH   1   2
BRANCH   1  15
ATOM     15  C   UNL     1      80.905  64.799 102.455  1.00  0.00     0.000 C 
BRANCH  15  16
ATOM     16  C   UNL     1      81.037  65.764 103.640  1.00  0.00     0.000 C 
BRANCH  16  17
ATOM     17  C   UNL     1      82.453  66.357 103.704  1.00  0.00     0.000 C 
BRANCH  17  18
ATOM     18  C   UNL     1      82.692  67.205 104.966  1.00  0.00    -0.000 C 
BRANCH  18  19
ATOM     19  C   UNL     1      83.854  66.728 105.862  1.00  0.00    -0.000 C 
BRANCH  19  20
ATOM     20  C   UNL     1      83.830  65.213 106.155  1.00  0.00    -0.000 C 
BRANCH  20  21
ATOM     21  C   UNL     1      85.060  64.758 106.956  1.00  0.00    -0.000 C 
BRANCH  21  22
ATOM     22  C   UNL     1      85.448  65.796 108.017  1.00  0.00    -0.000 C 
BRANCH  22  23
ATOM     23  C   UNL     1      86.769  65.457 108.731  1.00  0.00    -0.000 C 
BRANCH  23  24
ATOM     24  C   UNL     1      87.162  66.415 109.877  1.00  0.00    -0.000 C 
BRANCH  24  25
ATOM     25  C   UNL     1      86.263  66.342 111.125  1.00  0.00    -0.003 C 
ATOM     26  C   UNL     1      85.045  67.260 111.036  1.00  0.00     0.004 C 
ENDBRANCH  24  25
ENDBRANCH  23  24
ENDBRANCH  22  23
ENDBRANCH  21  22
ENDBRANCH  20  21
ENDBRANCH  19  20
ENDBRANCH  18  19
ENDBRANCH  17  18
ENDBRANCH  16  17
ENDBRANCH  15  16
ENDBRANCH   1  15
TORSDOF 22
ENDMDL
