MODEL 1
REMARK VINA RESULT:    -7.317      0.000      0.000
REMARK INTER + INTRA:          -9.163
REMARK INTER:                  -8.814
REMARK INTRA:                  -0.349
REMARK UNBOUND:                -0.349
REMARK SMILES Oc1cc(O)c2cc(O)c(-c3ccc(O)c(O)c3)[o+]c2c1
REMARK SMILES IDX 10 1 19 2 20 3 21 4 2 5 3 6 4 7 6 8 7 9 8 10 11 11 12 12
REMARK SMILES IDX 13 13 14 14 18 15 16 16 15 17 17 19 9 21 1 23 5 25
REMARK H PARENT 15 18 17 20 9 22 1 24 5 26
REMARK Flexibility Score: inf
ROOT
ATOM      1  C   UNL     1      70.053 -12.157  15.978  1.00  0.00     0.402 A 
ATOM      2  O   UNL     1      68.980 -11.613  16.548  1.00  0.00    -0.202 OA
ATOM      3  C   UNL     1      68.351 -12.155  17.586  1.00  0.00     0.368 A 
ATOM      4  C   UNL     1      67.231 -11.510  18.115  1.00  0.00     0.162 A 
ATOM      5  C   UNL     1      66.548 -12.057  19.201  1.00  0.00     0.128 A 
ATOM      6  C   UNL     1      66.987 -13.260  19.765  1.00  0.00     0.093 A 
ATOM      7  C   UNL     1      68.108 -13.927  19.255  1.00  0.00     0.136 A 
ATOM      8  C   UNL     1      68.806 -13.371  18.150  1.00  0.00     0.125 A 
ATOM      9  C   UNL     1      69.945 -13.962  17.581  1.00  0.00     0.078 A 
ATOM     10  C   UNL     1      70.583 -13.353  16.496  1.00  0.00     0.223 A 
ENDROOT
BRANCH   1  11
ATOM     11  C   UNL     1      70.659 -11.461  14.820  1.00  0.00     0.087 A 
ATOM     12  C   UNL     1      71.669 -10.498  14.992  1.00  0.00     0.022 A 
ATOM     13  C   UNL     1      72.242  -9.870  13.884  1.00  0.00     0.051 A 
ATOM     14  C   UNL     1      71.826 -10.204  12.588  1.00  0.00     0.157 A 
ATOM     15  C   UNL     1      70.260 -11.808  13.519  1.00  0.00     0.068 A 
ATOM     16  C   UNL     1      70.835 -11.177  12.406  1.00  0.00     0.158 A 
BRANCH  14  17
ATOM     17  O   UNL     1      72.394  -9.580  11.480  1.00  0.00    -0.504 OA
ATOM     18  H   UNL     1      72.919  -8.718  11.569  1.00  0.00     0.293 HD
ENDBRANCH  14  17
BRANCH  16  19
ATOM     19  O   UNL     1      70.427 -11.514  11.115  1.00  0.00    -0.504 OA
ATOM     20  H   UNL     1      69.976 -10.838  10.510  1.00  0.00     0.293 HD
ENDBRANCH  16  19
ENDBRANCH   1  11
BRANCH  10  21
ATOM     21  O   UNL     1      71.745 -13.913  15.962  1.00  0.00    -0.500 OA
ATOM     22  H   UNL     1      72.415 -14.403  16.542  1.00  0.00     0.294 HD
ENDBRANCH  10  21
BRANCH   5  23
ATOM     23  O   UNL     1      65.433 -11.398  19.715  1.00  0.00    -0.507 OA
ATOM     24  H   UNL     1      65.000 -10.626  19.221  1.00  0.00     0.293 HD
ENDBRANCH   5  23
BRANCH   7  25
ATOM     25  O   UNL     1      68.482 -15.124  19.870  1.00  0.00    -0.507 OA
ATOM     26  H   UNL     1      68.733 -15.967  19.375  1.00  0.00     0.293 HD
ENDBRANCH   7  25
TORSDOF 6
ENDMDL
MODEL 2
REMARK VINA RESULT:    -7.149     11.531     13.839
REMARK INTER + INTRA:          -8.961
REMARK INTER:                  -8.642
REMARK INTRA:                  -0.319
REMARK UNBOUND:                -0.349
REMARK SMILES Oc1cc(O)c2cc(O)c(-c3ccc(O)c(O)c3)[o+]c2c1
REMARK SMILES IDX 10 1 19 2 20 3 21 4 2 5 3 6 4 7 6 8 7 9 8 10 11 11 12 12
REMARK SMILES IDX 13 13 14 14 18 15 16 16 15 17 17 19 9 21 1 23 5 25
REMARK H PARENT 15 18 17 20 9 22 1 24 5 26
REMARK Flexibility Score: inf
ROOT
ATOM      1  C   UNL     1      72.271  -2.905  24.475  1.00  0.00     0.402 A 
ATOM      2  O   UNL     1      71.681  -3.127  23.303  1.00  0.00    -0.202 OA
ATOM      3  C   UNL     1      72.331  -3.566  22.231  1.00  0.00     0.368 A 
ATOM      4  C   UNL     1      71.625  -3.767  21.042  1.00  0.00     0.162 A 
ATOM      5  C   UNL     1      72.281  -4.222  19.899  1.00  0.00     0.128 A 
ATOM      6  C   UNL     1      73.656  -4.480  19.941  1.00  0.00     0.093 A 
ATOM      7  C   UNL     1      74.388  -4.288  21.120  1.00  0.00     0.136 A 
ATOM      8  C   UNL     1      73.722  -3.826  22.286  1.00  0.00     0.125 A 
ATOM      9  C   UNL     1      74.370  -3.616  23.513  1.00  0.00     0.078 A 
ATOM     10  C   UNL     1      73.646  -3.164  24.621  1.00  0.00     0.223 A 
ENDROOT
BRANCH   1  11
ATOM     11  C   UNL     1      71.439  -2.407  25.594  1.00  0.00     0.087 A 
ATOM     12  C   UNL     1      71.478  -1.059  25.993  1.00  0.00     0.022 A 
ATOM     13  C   UNL     1      70.667  -0.607  27.036  1.00  0.00     0.051 A 
ATOM     14  C   UNL     1      69.796  -1.490  27.688  1.00  0.00     0.157 A 
ATOM     15  C   UNL     1      70.548  -3.283  26.236  1.00  0.00     0.068 A 
ATOM     16  C   UNL     1      69.735  -2.830  27.284  1.00  0.00     0.158 A 
BRANCH  14  17
ATOM     17  O   UNL     1      68.986  -1.044  28.730  1.00  0.00    -0.504 OA
ATOM     18  H   UNL     1      68.201  -0.426  28.563  1.00  0.00     0.293 HD
ENDBRANCH  14  17
BRANCH  16  19
ATOM     19  O   UNL     1      68.861  -3.706  27.930  1.00  0.00    -0.504 OA
ATOM     20  H   UNL     1      68.342  -3.424  28.753  1.00  0.00     0.293 HD
ENDBRANCH  16  19
ENDBRANCH   1  11
BRANCH  10  21
ATOM     21  O   UNL     1      74.280  -3.004  25.853  1.00  0.00    -0.500 OA
ATOM     22  H   UNL     1      75.090  -3.555  26.111  1.00  0.00     0.294 HD
ENDBRANCH  10  21
BRANCH   5  23
ATOM     23  O   UNL     1      71.559  -4.417  18.723  1.00  0.00    -0.507 OA
ATOM     24  H   UNL     1      71.976  -4.259  17.813  1.00  0.00     0.293 HD
ENDBRANCH   5  23
BRANCH   7  25
ATOM     25  O   UNL     1      75.757  -4.564  21.081  1.00  0.00    -0.507 OA
ATOM     26  H   UNL     1      76.282  -4.955  21.849  1.00  0.00     0.293 HD
ENDBRANCH   7  25
TORSDOF 6
ENDMDL
MODEL 3
REMARK VINA RESULT:    -7.065      3.852      6.981
REMARK INTER + INTRA:          -8.860
REMARK INTER:                  -9.014
REMARK INTRA:                   0.154
REMARK UNBOUND:                -0.349
REMARK SMILES Oc1cc(O)c2cc(O)c(-c3ccc(O)c(O)c3)[o+]c2c1
REMARK SMILES IDX 10 1 19 2 20 3 21 4 2 5 3 6 4 7 6 8 7 9 8 10 11 11 12 12
REMARK SMILES IDX 13 13 14 14 18 15 16 16 15 17 17 19 9 21 1 23 5 25
REMARK H PARENT 15 18 17 20 9 22 1 24 5 26
REMARK Flexibility Score: inf
ROOT
ATOM      1  C   UNL     1      74.089  -8.731  13.794  1.00  0.00     0.402 A 
ATOM      2  O   UNL     1      73.433  -9.482  14.676  1.00  0.00    -0.202 OA
ATOM      3  C   UNL     1      72.408 -10.262  14.350  1.00  0.00     0.368 A 
ATOM      4  C   UNL     1      71.780 -11.012  15.347  1.00  0.00     0.162 A 
ATOM      5  C   UNL     1      70.699 -11.836  15.035  1.00  0.00     0.128 A 
ATOM      6  C   UNL     1      70.239 -11.914  13.715  1.00  0.00     0.093 A 
ATOM      7  C   UNL     1      70.852 -11.172  12.696  1.00  0.00     0.136 A 
ATOM      8  C   UNL     1      71.953 -10.334  13.010  1.00  0.00     0.125 A 
ATOM      9  C   UNL     1      72.635  -9.565  12.054  1.00  0.00     0.078 A 
ATOM     10  C   UNL     1      73.716  -8.765  12.438  1.00  0.00     0.223 A 
ENDROOT
BRANCH   1  11
ATOM     11  C   UNL     1      75.210  -7.896  14.283  1.00  0.00     0.087 A 
ATOM     12  C   UNL     1      76.109  -8.373  15.254  1.00  0.00     0.022 A 
ATOM     13  C   UNL     1      77.172  -7.575  15.683  1.00  0.00     0.051 A 
ATOM     14  C   UNL     1      77.362  -6.298  15.141  1.00  0.00     0.157 A 
ATOM     15  C   UNL     1      75.417  -6.622  13.727  1.00  0.00     0.068 A 
ATOM     16  C   UNL     1      76.484  -5.822  14.159  1.00  0.00     0.158 A 
BRANCH  14  17
ATOM     17  O   UNL     1      78.421  -5.499  15.568  1.00  0.00    -0.504 OA
ATOM     18  H   UNL     1      78.263  -4.594  15.997  1.00  0.00     0.293 HD
ENDBRANCH  14  17
BRANCH  16  19
ATOM     19  O   UNL     1      76.679  -4.552  13.615  1.00  0.00    -0.504 OA
ATOM     20  H   UNL     1      76.750  -4.410  12.615  1.00  0.00     0.293 HD
ENDBRANCH  16  19
ENDBRANCH   1  11
BRANCH  10  21
ATOM     21  O   UNL     1      74.426  -8.041  11.480  1.00  0.00    -0.500 OA
ATOM     22  H   UNL     1      74.921  -8.500  10.724  1.00  0.00     0.294 HD
ENDBRANCH  10  21
BRANCH   5  23
ATOM     23  O   UNL     1      70.086 -12.577  16.044  1.00  0.00    -0.507 OA
ATOM     24  H   UNL     1      70.593 -13.284  16.564  1.00  0.00     0.293 HD
ENDBRANCH   5  23
BRANCH   7  25
ATOM     25  O   UNL     1      70.333 -11.301  11.405  1.00  0.00    -0.507 OA
ATOM     26  H   UNL     1      70.090 -10.524  10.808  1.00  0.00     0.293 HD
ENDBRANCH   7  25
TORSDOF 6
ENDMDL
MODEL 4
REMARK VINA RESULT:    -6.974     13.294     15.510
REMARK INTER + INTRA:          -8.750
REMARK INTER:                  -8.773
REMARK INTRA:                   0.023
REMARK UNBOUND:                -0.349
REMARK SMILES Oc1cc(O)c2cc(O)c(-c3ccc(O)c(O)c3)[o+]c2c1
REMARK SMILES IDX 10 1 19 2 20 3 21 4 2 5 3 6 4 7 6 8 7 9 8 10 11 11 12 12
REMARK SMILES IDX 13 13 14 14 18 15 16 16 15 17 17 19 9 21 1 23 5 25
REMARK H PARENT 15 18 17 20 9 22 1 24 5 26
REMARK Flexibility Score: inf
ROOT
ATOM      1  C   UNL     1      73.934  -2.484  24.527  1.00  0.00     0.402 A 
ATOM      2  O   UNL     1      74.617  -1.375  24.800  1.00  0.00    -0.202 OA
ATOM      3  C   UNL     1      75.784  -1.080  24.237  1.00  0.00     0.368 A 
ATOM      4  C   UNL     1      76.429   0.108  24.590  1.00  0.00     0.162 A 
ATOM      5  C   UNL     1      77.657   0.442  24.019  1.00  0.00     0.128 A 
ATOM      6  C   UNL     1      78.248  -0.418  23.087  1.00  0.00     0.093 A 
ATOM      7  C   UNL     1      77.623  -1.615  22.715  1.00  0.00     0.136 A 
ATOM      8  C   UNL     1      76.373  -1.957  23.293  1.00  0.00     0.125 A 
ATOM      9  C   UNL     1      75.668  -3.128  22.972  1.00  0.00     0.078 A 
ATOM     10  C   UNL     1      74.437  -3.395  23.580  1.00  0.00     0.223 A 
ENDROOT
BRANCH   1  11
ATOM     11  C   UNL     1      72.648  -2.704  25.227  1.00  0.00     0.087 A 
ATOM     12  C   UNL     1      71.495  -3.109  24.531  1.00  0.00     0.022 A 
ATOM     13  C   UNL     1      70.298  -3.332  25.217  1.00  0.00     0.051 A 
ATOM     14  C   UNL     1      70.239  -3.168  26.607  1.00  0.00     0.157 A 
ATOM     15  C   UNL     1      72.588  -2.562  26.623  1.00  0.00     0.068 A 
ATOM     16  C   UNL     1      71.387  -2.785  27.311  1.00  0.00     0.158 A 
BRANCH  14  17
ATOM     17  O   UNL     1      69.047  -3.388  27.294  1.00  0.00    -0.504 OA
ATOM     18  H   UNL     1      69.031  -3.863  28.189  1.00  0.00     0.293 HD
ENDBRANCH  14  17
BRANCH  16  19
ATOM     19  O   UNL     1      71.327  -2.629  28.696  1.00  0.00    -0.504 OA
ATOM     20  H   UNL     1      70.473  -2.807  29.212  1.00  0.00     0.293 HD
ENDBRANCH  16  19
ENDBRANCH   1  11
BRANCH  10  21
ATOM     21  O   UNL     1      73.713  -4.533  23.224  1.00  0.00    -0.500 OA
ATOM     22  H   UNL     1      72.879  -4.813  23.726  1.00  0.00     0.294 HD
ENDBRANCH  10  21
BRANCH   5  23
ATOM     23  O   UNL     1      78.283   1.632  24.384  1.00  0.00    -0.507 OA
ATOM     24  H   UNL     1      77.817   2.526  24.288  1.00  0.00     0.293 HD
ENDBRANCH   5  23
BRANCH   7  25
ATOM     25  O   UNL     1      78.279  -2.422  21.781  1.00  0.00    -0.507 OA
ATOM     26  H   UNL     1      79.023  -3.067  22.006  1.00  0.00     0.293 HD
ENDBRANCH   7  25
TORSDOF 6
ENDMDL
MODEL 5
REMARK VINA RESULT:    -6.921     11.525     12.560
REMARK INTER + INTRA:          -8.686
REMARK INTER:                  -8.333
REMARK INTRA:                  -0.353
REMARK UNBOUND:                -0.349
REMARK SMILES Oc1cc(O)c2cc(O)c(-c3ccc(O)c(O)c3)[o+]c2c1
REMARK SMILES IDX 10 1 19 2 20 3 21 4 2 5 3 6 4 7 6 8 7 9 8 10 11 11 12 12
REMARK SMILES IDX 13 13 14 14 18 15 16 16 15 17 17 19 9 21 1 23 5 25
REMARK H PARENT 15 18 17 20 9 22 1 24 5 26
REMARK Flexibility Score: inf
ROOT
ATOM      1  C   UNL     1      72.245  -2.675  23.362  1.00  0.00     0.402 A 
ATOM      2  O   UNL     1      71.405  -3.244  24.225  1.00  0.00    -0.202 OA
ATOM      3  C   UNL     1      70.969  -2.640  25.325  1.00  0.00     0.368 A 
ATOM      4  C   UNL     1      70.090  -3.320  26.172  1.00  0.00     0.162 A 
ATOM      5  C   UNL     1      69.620  -2.713  27.336  1.00  0.00     0.128 A 
ATOM      6  C   UNL     1      70.030  -1.414  27.659  1.00  0.00     0.093 A 
ATOM      7  C   UNL     1      70.910  -0.711  26.828  1.00  0.00     0.136 A 
ATOM      8  C   UNL     1      71.390  -1.325  25.641  1.00  0.00     0.125 A 
ATOM      9  C   UNL     1      72.264  -0.692  24.743  1.00  0.00     0.078 A 
ATOM     10  C   UNL     1      72.689  -1.360  23.591  1.00  0.00     0.223 A 
ENDROOT
BRANCH   1  11
ATOM     11  C   UNL     1      72.664  -3.456  22.176  1.00  0.00     0.087 A 
ATOM     12  C   UNL     1      73.808  -4.273  22.204  1.00  0.00     0.022 A 
ATOM     13  C   UNL     1      74.172  -5.018  21.080  1.00  0.00     0.051 A 
ATOM     14  C   UNL     1      73.392  -4.969  19.917  1.00  0.00     0.157 A 
ATOM     15  C   UNL     1      71.874  -3.427  21.015  1.00  0.00     0.068 A 
ATOM     16  C   UNL     1      72.239  -4.174  19.886  1.00  0.00     0.158 A 
BRANCH  14  17
ATOM     17  O   UNL     1      73.752  -5.710  18.794  1.00  0.00    -0.504 OA
ATOM     18  H   UNL     1      73.967  -6.698  18.856  1.00  0.00     0.293 HD
ENDBRANCH  14  17
BRANCH  16  19
ATOM     19  O   UNL     1      71.460  -4.133  18.730  1.00  0.00    -0.504 OA
ATOM     20  H   UNL     1      70.635  -3.548  18.668  1.00  0.00     0.293 HD
ENDBRANCH  16  19
ENDBRANCH   1  11
BRANCH  10  21
ATOM     21  O   UNL     1      73.517  -0.713  22.672  1.00  0.00    -0.500 OA
ATOM     22  H   UNL     1      73.982   0.159  22.896  1.00  0.00     0.294 HD
ENDBRANCH  10  21
BRANCH   5  23
ATOM     23  O   UNL     1      68.742  -3.407  28.167  1.00  0.00    -0.507 OA
ATOM     24  H   UNL     1      67.979  -2.938  28.640  1.00  0.00     0.293 HD
ENDBRANCH   5  23
BRANCH   7  25
ATOM     25  O   UNL     1      71.276   0.580  27.221  1.00  0.00    -0.507 OA
ATOM     26  H   UNL     1      70.983   1.424  26.752  1.00  0.00     0.293 HD
ENDBRANCH   7  25
TORSDOF 6
ENDMDL
MODEL 6
REMARK VINA RESULT:    -6.871      7.492     10.828
REMARK INTER + INTRA:          -8.626
REMARK INTER:                  -8.290
REMARK INTRA:                  -0.336
REMARK UNBOUND:                -0.349
REMARK SMILES Oc1cc(O)c2cc(O)c(-c3ccc(O)c(O)c3)[o+]c2c1
REMARK SMILES IDX 10 1 19 2 20 3 21 4 2 5 3 6 4 7 6 8 7 9 8 10 11 11 12 12
REMARK SMILES IDX 13 13 14 14 18 15 16 16 15 17 17 19 9 21 1 23 5 25
REMARK H PARENT 15 18 17 20 9 22 1 24 5 26
REMARK Flexibility Score: inf
ROOT
ATOM      1  C   UNL     1      74.237  -4.942  18.648  1.00  0.00     0.402 A 
ATOM      2  O   UNL     1      73.987  -5.626  17.534  1.00  0.00    -0.202 OA
ATOM      3  C   UNL     1      74.916  -5.907  16.627  1.00  0.00     0.368 A 
ATOM      4  C   UNL     1      74.556  -6.630  15.486  1.00  0.00     0.162 A 
ATOM      5  C   UNL     1      75.509  -6.935  14.515  1.00  0.00     0.128 A 
ATOM      6  C   UNL     1      76.833  -6.516  14.681  1.00  0.00     0.093 A 
ATOM      7  C   UNL     1      77.220  -5.790  15.815  1.00  0.00     0.136 A 
ATOM      8  C   UNL     1      76.254  -5.479  16.807  1.00  0.00     0.125 A 
ATOM      9  C   UNL     1      76.552  -4.768  17.980  1.00  0.00     0.078 A 
ATOM     10  C   UNL     1      75.547  -4.503  18.915  1.00  0.00     0.223 A 
ENDROOT
BRANCH   1  11
ATOM     11  C   UNL     1      73.114  -4.685  19.579  1.00  0.00     0.087 A 
ATOM     12  C   UNL     1      72.461  -3.440  19.613  1.00  0.00     0.022 A 
ATOM     13  C   UNL     1      71.389  -3.229  20.484  1.00  0.00     0.051 A 
ATOM     14  C   UNL     1      70.945  -4.260  21.321  1.00  0.00     0.157 A 
ATOM     15  C   UNL     1      72.650  -5.722  20.405  1.00  0.00     0.068 A 
ATOM     16  C   UNL     1      71.575  -5.510  21.279  1.00  0.00     0.158 A 
BRANCH  14  17
ATOM     17  O   UNL     1      69.876  -4.053  22.191  1.00  0.00    -0.504 OA
ATOM     18  H   UNL     1      68.972  -3.741  21.856  1.00  0.00     0.293 HD
ENDBRANCH  14  17
BRANCH  16  19
ATOM     19  O   UNL     1      71.125  -6.537  22.108  1.00  0.00    -0.504 OA
ATOM     20  H   UNL     1      70.512  -7.266  21.763  1.00  0.00     0.293 HD
ENDBRANCH  16  19
ENDBRANCH   1  11
BRANCH  10  21
ATOM     21  O   UNL     1      75.854  -3.841  20.104  1.00  0.00    -0.500 OA
ATOM     22  H   UNL     1      76.028  -2.843  20.129  1.00  0.00     0.294 HD
ENDBRANCH  10  21
BRANCH   5  23
ATOM     23  O   UNL     1      75.130  -7.658  13.385  1.00  0.00    -0.507 OA
ATOM     24  H   UNL     1      75.012  -8.664  13.415  1.00  0.00     0.293 HD
ENDBRANCH   5  23
BRANCH   7  25
ATOM     25  O   UNL     1      78.560  -5.404  15.907  1.00  0.00    -0.507 OA
ATOM     26  H   UNL     1      79.340  -6.045  15.912  1.00  0.00     0.293 HD
ENDBRANCH   7  25
TORSDOF 6
ENDMDL
MODEL 7
REMARK VINA RESULT:    -6.819     14.256     16.507
REMARK INTER + INTRA:          -8.564
REMARK INTER:                  -8.495
REMARK INTRA:                  -0.069
REMARK UNBOUND:                -0.349
REMARK SMILES Oc1cc(O)c2cc(O)c(-c3ccc(O)c(O)c3)[o+]c2c1
REMARK SMILES IDX 10 1 19 2 20 3 21 4 2 5 3 6 4 7 6 8 7 9 8 10 11 11 12 12
REMARK SMILES IDX 13 13 14 14 18 15 16 16 15 17 17 19 9 21 1 23 5 25
REMARK H PARENT 15 18 17 20 9 22 1 24 5 26
REMARK Flexibility Score: inf
ROOT
ATOM      1  C   UNL     1      73.995  -0.899  25.748  1.00  0.00     0.402 A 
ATOM      2  O   UNL     1      74.480  -1.696  24.799  1.00  0.00    -0.202 OA
ATOM      3  C   UNL     1      75.633  -1.474  24.177  1.00  0.00     0.368 A 
ATOM      4  C   UNL     1      76.057  -2.368  23.191  1.00  0.00     0.162 A 
ATOM      5  C   UNL     1      77.261  -2.157  22.518  1.00  0.00     0.128 A 
ATOM      6  C   UNL     1      78.050  -1.045  22.833  1.00  0.00     0.093 A 
ATOM      7  C   UNL     1      77.647  -0.134  23.818  1.00  0.00     0.136 A 
ATOM      8  C   UNL     1      76.424  -0.346  24.505  1.00  0.00     0.125 A 
ATOM      9  C   UNL     1      75.947   0.507  25.514  1.00  0.00     0.078 A 
ATOM     10  C   UNL     1      74.733   0.230  26.150  1.00  0.00     0.223 A 
ENDROOT
BRANCH   1  11
ATOM     11  C   UNL     1      72.694  -1.249  26.360  1.00  0.00     0.087 A 
ATOM     12  C   UNL     1      71.661  -0.302  26.477  1.00  0.00     0.022 A 
ATOM     13  C   UNL     1      70.433  -0.662  27.037  1.00  0.00     0.051 A 
ATOM     14  C   UNL     1      70.213  -1.975  27.475  1.00  0.00     0.157 A 
ATOM     15  C   UNL     1      72.461  -2.569  26.780  1.00  0.00     0.068 A 
ATOM     16  C   UNL     1      71.229  -2.931  27.343  1.00  0.00     0.158 A 
BRANCH  14  17
ATOM     17  O   UNL     1      68.990  -2.338  28.035  1.00  0.00    -0.504 OA
ATOM     18  H   UNL     1      68.191  -1.715  28.013  1.00  0.00     0.293 HD
ENDBRANCH  14  17
BRANCH  16  19
ATOM     19  O   UNL     1      71.005  -4.239  27.773  1.00  0.00    -0.504 OA
ATOM     20  H   UNL     1      71.715  -4.760  28.274  1.00  0.00     0.293 HD
ENDBRANCH  16  19
ENDBRANCH   1  11
BRANCH  10  21
ATOM     21  O   UNL     1      74.285   1.048  27.188  1.00  0.00    -0.500 OA
ATOM     22  H   UNL     1      73.598   0.728  27.860  1.00  0.00     0.294 HD
ENDBRANCH  10  21
BRANCH   5  23
ATOM     23  O   UNL     1      77.667  -3.061  21.538  1.00  0.00    -0.507 OA
ATOM     24  H   UNL     1      77.166  -3.153  20.662  1.00  0.00     0.293 HD
ENDBRANCH   5  23
BRANCH   7  25
ATOM     25  O   UNL     1      78.488   0.954  24.071  1.00  0.00    -0.507 OA
ATOM     26  H   UNL     1      79.286   1.203  23.505  1.00  0.00     0.293 HD
ENDBRANCH   7  25
TORSDOF 6
ENDMDL
MODEL 8
REMARK VINA RESULT:    -6.760      7.533      9.097
REMARK INTER + INTRA:          -8.492
REMARK INTER:                  -8.274
REMARK INTRA:                  -0.219
REMARK UNBOUND:                -0.349
REMARK SMILES Oc1cc(O)c2cc(O)c(-c3ccc(O)c(O)c3)[o+]c2c1
REMARK SMILES IDX 10 1 19 2 20 3 21 4 2 5 3 6 4 7 6 8 7 9 8 10 11 11 12 12
REMARK SMILES IDX 13 13 14 14 18 15 16 16 15 17 17 19 9 21 1 23 5 25
REMARK H PARENT 15 18 17 20 9 22 1 24 5 26
REMARK Flexibility Score: inf
ROOT
ATOM      1  C   UNL     1      76.505  -8.097  17.325  1.00  0.00     0.402 A 
ATOM      2  O   UNL     1      76.826  -9.389  17.322  1.00  0.00    -0.202 OA
ATOM      3  C   UNL     1      77.422  -9.995  18.343  1.00  0.00     0.368 A 
ATOM      4  C   UNL     1      77.723 -11.356  18.245  1.00  0.00     0.162 A 
ATOM      5  C   UNL     1      78.352 -12.017  19.299  1.00  0.00     0.128 A 
ATOM      6  C   UNL     1      78.685 -11.315  20.463  1.00  0.00     0.093 A 
ATOM      7  C   UNL     1      78.395  -9.950  20.587  1.00  0.00     0.136 A 
ATOM      8  C   UNL     1      77.753  -9.274  19.517  1.00  0.00     0.125 A 
ATOM      9  C   UNL     1      77.413  -7.913  19.557  1.00  0.00     0.078 A 
ATOM     10  C   UNL     1      76.776  -7.317  18.464  1.00  0.00     0.223 A 
ENDROOT
BRANCH   1  11
ATOM     11  C   UNL     1      75.851  -7.535  16.121  1.00  0.00     0.087 A 
ATOM     12  C   UNL     1      74.545  -7.906  15.757  1.00  0.00     0.022 A 
ATOM     13  C   UNL     1      73.940  -7.346  14.630  1.00  0.00     0.051 A 
ATOM     14  C   UNL     1      74.624  -6.398  13.858  1.00  0.00     0.157 A 
ATOM     15  C   UNL     1      76.524  -6.568  15.356  1.00  0.00     0.068 A 
ATOM     16  C   UNL     1      75.918  -6.007  14.224  1.00  0.00     0.158 A 
BRANCH  14  17
ATOM     17  O   UNL     1      74.024  -5.838  12.732  1.00  0.00    -0.504 OA
ATOM     18  H   UNL     1      73.031  -5.936  12.556  1.00  0.00     0.293 HD
ENDBRANCH  14  17
BRANCH  16  19
ATOM     19  O   UNL     1      76.594  -5.057  13.458  1.00  0.00    -0.504 OA
ATOM     20  H   UNL     1      76.414  -4.952  12.466  1.00  0.00     0.293 HD
ENDBRANCH  16  19
ENDBRANCH   1  11
BRANCH  10  21
ATOM     21  O   UNL     1      76.392  -5.976  18.523  1.00  0.00    -0.500 OA
ATOM     22  H   UNL     1      76.249  -5.502  19.407  1.00  0.00     0.294 HD
ENDBRANCH  10  21
BRANCH   5  23
ATOM     23  O   UNL     1      78.642 -13.375  19.183  1.00  0.00    -0.507 OA
ATOM     24  H   UNL     1      79.545 -13.749  19.452  1.00  0.00     0.293 HD
ENDBRANCH   5  23
BRANCH   7  25
ATOM     25  O   UNL     1      78.762  -9.319  21.779  1.00  0.00    -0.507 OA
ATOM     26  H   UNL     1      78.333  -8.478  22.135  1.00  0.00     0.293 HD
ENDBRANCH   7  25
TORSDOF 6
ENDMDL
MODEL 9
REMARK VINA RESULT:    -6.722     13.277     14.208
REMARK INTER + INTRA:          -8.446
REMARK INTER:                  -8.311
REMARK INTRA:                  -0.135
REMARK UNBOUND:                -0.349
REMARK SMILES Oc1cc(O)c2cc(O)c(-c3ccc(O)c(O)c3)[o+]c2c1
REMARK SMILES IDX 10 1 19 2 20 3 21 4 2 5 3 6 4 7 6 8 7 9 8 10 11 11 12 12
REMARK SMILES IDX 13 13 14 14 18 15 16 16 15 17 17 19 9 21 1 23 5 25
REMARK H PARENT 15 18 17 20 9 22 1 24 5 26
REMARK Flexibility Score: inf
ROOT
ATOM      1  C   UNL     1      75.591  -2.167  23.298  1.00  0.00     0.402 A 
ATOM      2  O   UNL     1      75.518  -1.984  24.615  1.00  0.00    -0.202 OA
ATOM      3  C   UNL     1      74.430  -2.252  25.329  1.00  0.00     0.368 A 
ATOM      4  C   UNL     1      74.448  -2.025  26.707  1.00  0.00     0.162 A 
ATOM      5  C   UNL     1      73.320  -2.293  27.482  1.00  0.00     0.128 A 
ATOM      6  C   UNL     1      72.161  -2.792  26.876  1.00  0.00     0.093 A 
ATOM      7  C   UNL     1      72.117  -3.029  25.496  1.00  0.00     0.136 A 
ATOM      8  C   UNL     1      73.264  -2.760  24.705  1.00  0.00     0.125 A 
ATOM      9  C   UNL     1      73.315  -2.978  23.319  1.00  0.00     0.078 A 
ATOM     10  C   UNL     1      74.484  -2.692  22.607  1.00  0.00     0.223 A 
ENDROOT
BRANCH   1  11
ATOM     11  C   UNL     1      76.858  -1.822  22.613  1.00  0.00     0.087 A 
ATOM     12  C   UNL     1      77.586  -2.784  21.891  1.00  0.00     0.022 A 
ATOM     13  C   UNL     1      78.766  -2.430  21.234  1.00  0.00     0.051 A 
ATOM     14  C   UNL     1      79.230  -1.109  21.277  1.00  0.00     0.157 A 
ATOM     15  C   UNL     1      77.316  -0.494  22.635  1.00  0.00     0.068 A 
ATOM     16  C   UNL     1      78.501  -0.138  21.976  1.00  0.00     0.158 A 
BRANCH  14  17
ATOM     17  O   UNL     1      80.408  -0.751  20.624  1.00  0.00    -0.504 OA
ATOM     18  H   UNL     1      80.468   0.090  20.063  1.00  0.00     0.293 HD
ENDBRANCH  14  17
BRANCH  16  19
ATOM     19  O   UNL     1      78.961   1.178  22.011  1.00  0.00    -0.504 OA
ATOM     20  H   UNL     1      79.286   1.603  22.871  1.00  0.00     0.293 HD
ENDBRANCH  16  19
ENDBRANCH   1  11
BRANCH  10  21
ATOM     21  O   UNL     1      74.552  -2.957  21.239  1.00  0.00    -0.500 OA
ATOM     22  H   UNL     1      75.132  -2.405  20.617  1.00  0.00     0.294 HD
ENDBRANCH  10  21
BRANCH   5  23
ATOM     23  O   UNL     1      73.358  -2.061  28.855  1.00  0.00    -0.507 OA
ATOM     24  H   UNL     1      74.215  -2.166  29.386  1.00  0.00     0.293 HD
ENDBRANCH   5  23
BRANCH   7  25
ATOM     25  O   UNL     1      70.922  -3.525  24.966  1.00  0.00    -0.507 OA
ATOM     26  H   UNL     1      70.634  -3.410  24.005  1.00  0.00     0.293 HD
ENDBRANCH   7  25
TORSDOF 6
ENDMDL
