MODEL 1
REMARK VINA RESULT:    -4.018      0.000      0.000
REMARK INTER + INTRA:          -4.135
REMARK INTER:                  -4.135
REMARK INTRA:                   0.000
REMARK UNBOUND:                 0.000
REMARK SMILES Oc1ccc2[nH]ccc2c1
REMARK SMILES IDX 3 1 4 2 5 3 9 4 8 5 7 6 6 7 10 8 2 9 1 11
REMARK H PARENT 6 10 1 12
REMARK Flexibility Score: inf
ROOT
ATOM      1  C   UNL     1      39.172 184.537 171.835  1.00  0.00     0.048 A 
ATOM      2  C   UNL     1      39.232 183.153 171.581  1.00  0.00     0.030 A 
ATOM      3  C   UNL     1      40.348 182.455 172.040  1.00  0.00     0.046 A 
ATOM      4  C   UNL     1      41.360 183.082 172.717  1.00  0.00     0.003 A 
ATOM      5  C   UNL     1      42.302 182.125 173.027  1.00  0.00     0.028 A 
ATOM      6  C   UNL     1      41.797 180.937 172.508  1.00  0.00     0.083 A 
ATOM      7  N   UNL     1      40.603 181.143 171.906  1.00  0.00    -0.361 N 
ATOM      8  C   UNL     1      41.332 184.449 172.985  1.00  0.00     0.056 A 
ATOM      9  C   UNL     1      40.216 185.185 172.534  1.00  0.00     0.116 A 
ATOM     10  H   UNL     1      40.006 180.428 171.435  1.00  0.00     0.166 HD
ENDROOT
BRANCH   9  11
ATOM     11  O   UNL     1      40.132 186.555 172.772  1.00  0.00    -0.508 OA
ATOM     12  H   UNL     1      40.447 186.961 173.646  1.00  0.00     0.293 HD
ENDBRANCH   9  11
TORSDOF 1
ENDMDL
MODEL 2
REMARK VINA RESULT:    -3.952      2.660      4.094
REMARK INTER + INTRA:          -4.068
REMARK INTER:                  -4.068
REMARK INTRA:                   0.000
REMARK UNBOUND:                 0.000
REMARK SMILES Oc1ccc2[nH]ccc2c1
REMARK SMILES IDX 3 1 4 2 5 3 9 4 8 5 7 6 6 7 10 8 2 9 1 11
REMARK H PARENT 6 10 1 12
REMARK Flexibility Score: inf
ROOT
ATOM      1  C   UNL     1      42.034 181.236 173.134  1.00  0.00     0.048 A 
ATOM      2  C   UNL     1      42.270 182.554 173.569  1.00  0.00     0.030 A 
ATOM      3  C   UNL     1      41.417 183.554 173.108  1.00  0.00     0.046 A 
ATOM      4  C   UNL     1      40.378 183.279 172.260  1.00  0.00     0.003 A 
ATOM      5  C   UNL     1      39.735 184.468 171.996  1.00  0.00     0.028 A 
ATOM      6  C   UNL     1      40.437 185.428 172.718  1.00  0.00     0.083 A 
ATOM      7  N   UNL     1      41.464 184.865 173.396  1.00  0.00    -0.361 N 
ATOM      8  C   UNL     1      40.115 181.986 171.810  1.00  0.00     0.056 A 
ATOM      9  C   UNL     1      40.962 180.950 172.259  1.00  0.00     0.116 A 
ATOM     10  H   UNL     1      42.149 185.353 174.014  1.00  0.00     0.166 HD
ENDROOT
BRANCH   9  11
ATOM     11  O   UNL     1      40.749 179.637 171.843  1.00  0.00    -0.508 OA
ATOM     12  H   UNL     1      40.101 179.417 171.096  1.00  0.00     0.293 HD
ENDBRANCH   9  11
TORSDOF 1
ENDMDL
MODEL 3
REMARK VINA RESULT:    -3.906      2.602      4.237
REMARK INTER + INTRA:          -4.020
REMARK INTER:                  -4.020
REMARK INTRA:                   0.000
REMARK UNBOUND:                 0.000
REMARK SMILES Oc1ccc2[nH]ccc2c1
REMARK SMILES IDX 3 1 4 2 5 3 9 4 8 5 7 6 6 7 10 8 2 9 1 11
REMARK H PARENT 6 10 1 12
REMARK Flexibility Score: inf
ROOT
ATOM      1  C   UNL     1      41.500 183.249 172.466  1.00  0.00     0.048 A 
ATOM      2  C   UNL     1      41.317 184.530 173.022  1.00  0.00     0.030 A 
ATOM      3  C   UNL     1      40.103 185.173 172.789  1.00  0.00     0.046 A 
ATOM      4  C   UNL     1      39.111 184.590 172.047  1.00  0.00     0.003 A 
ATOM      5  C   UNL     1      38.054 185.474 172.005  1.00  0.00     0.028 A 
ATOM      6  C   UNL     1      38.473 186.575 172.746  1.00  0.00     0.083 A 
ATOM      7  N   UNL     1      39.725 186.387 173.223  1.00  0.00    -0.361 N 
ATOM      8  C   UNL     1      39.258 183.325 171.483  1.00  0.00     0.056 A 
ATOM      9  C   UNL     1      40.476 182.646 171.700  1.00  0.00     0.116 A 
ATOM     10  H   UNL     1      40.280 187.050 173.807  1.00  0.00     0.166 HD
ENDROOT
BRANCH   9  11
ATOM     11  O   UNL     1      40.683 181.378 171.160  1.00  0.00    -0.508 OA
ATOM     12  H   UNL     1      40.035 180.618 171.332  1.00  0.00     0.293 HD
ENDBRANCH   9  11
TORSDOF 1
ENDMDL
MODEL 4
REMARK VINA RESULT:    -3.865     22.994     23.705
REMARK INTER + INTRA:          -3.978
REMARK INTER:                  -3.978
REMARK INTRA:                   0.000
REMARK UNBOUND:                 0.000
REMARK SMILES Oc1ccc2[nH]ccc2c1
REMARK SMILES IDX 3 1 4 2 5 3 9 4 8 5 7 6 6 7 10 8 2 9 1 11
REMARK H PARENT 6 10 1 12
REMARK Flexibility Score: inf
ROOT
ATOM      1  C   UNL     1      34.251 168.029 156.774  1.00  0.00     0.048 A 
ATOM      2  C   UNL     1      34.220 168.659 155.515  1.00  0.00     0.030 A 
ATOM      3  C   UNL     1      32.990 169.116 155.046  1.00  0.00     0.046 A 
ATOM      4  C   UNL     1      31.841 168.965 155.775  1.00  0.00     0.003 A 
ATOM      5  C   UNL     1      30.813 169.515 155.041  1.00  0.00     0.028 A 
ATOM      6  C   UNL     1      31.409 169.984 153.875  1.00  0.00     0.083 A 
ATOM      7  N   UNL     1      32.739 169.738 153.882  1.00  0.00    -0.361 N 
ATOM      8  C   UNL     1      31.836 168.347 157.024  1.00  0.00     0.056 A 
ATOM      9  C   UNL     1      33.066 167.873 157.528  1.00  0.00     0.116 A 
ATOM     10  H   UNL     1      33.427 169.983 153.136  1.00  0.00     0.166 HD
ENDROOT
BRANCH   9  11
ATOM     11  O   UNL     1      33.123 167.245 158.771  1.00  0.00    -0.508 OA
ATOM     12  H   UNL     1      33.106 167.777 159.633  1.00  0.00     0.293 HD
ENDBRANCH   9  11
TORSDOF 1
ENDMDL
MODEL 5
REMARK VINA RESULT:    -3.845      1.403      2.124
REMARK INTER + INTRA:          -3.958
REMARK INTER:                  -3.958
REMARK INTRA:                   0.000
REMARK UNBOUND:                 0.000
REMARK SMILES Oc1ccc2[nH]ccc2c1
REMARK SMILES IDX 3 1 4 2 5 3 9 4 8 5 7 6 6 7 10 8 2 9 1 11
REMARK H PARENT 6 10 1 12
REMARK Flexibility Score: inf
ROOT
ATOM      1  C   UNL     1      39.912 185.066 172.650  1.00  0.00     0.048 A 
ATOM      2  C   UNL     1      41.094 184.544 173.207  1.00  0.00     0.030 A 
ATOM      3  C   UNL     1      41.452 183.240 172.871  1.00  0.00     0.046 A 
ATOM      4  C   UNL     1      40.689 182.480 172.026  1.00  0.00     0.003 A 
ATOM      5  C   UNL     1      41.309 181.256 171.900  1.00  0.00     0.028 A 
ATOM      6  C   UNL     1      42.447 181.342 172.696  1.00  0.00     0.083 A 
ATOM      7  N   UNL     1      42.530 182.555 173.287  1.00  0.00    -0.361 N 
ATOM      8  C   UNL     1      39.513 182.965 171.457  1.00  0.00     0.056 A 
ATOM      9  C   UNL     1      39.122 184.282 171.778  1.00  0.00     0.116 A 
ATOM     10  H   UNL     1      43.280 182.888 173.933  1.00  0.00     0.166 HD
ENDROOT
BRANCH   9  11
ATOM     11  O   UNL     1      37.955 184.822 171.240  1.00  0.00    -0.508 OA
ATOM     12  H   UNL     1      37.841 184.943 170.240  1.00  0.00     0.293 HD
ENDBRANCH   9  11
TORSDOF 1
ENDMDL
MODEL 6
REMARK VINA RESULT:    -3.839     22.432     23.074
REMARK INTER + INTRA:          -3.952
REMARK INTER:                  -3.952
REMARK INTRA:                   0.000
REMARK UNBOUND:                 0.000
REMARK SMILES Oc1ccc2[nH]ccc2c1
REMARK SMILES IDX 3 1 4 2 5 3 9 4 8 5 7 6 6 7 10 8 2 9 1 11
REMARK H PARENT 6 10 1 12
REMARK Flexibility Score: inf
ROOT
ATOM      1  C   UNL     1      34.140 168.454 155.465  1.00  0.00     0.048 A 
ATOM      2  C   UNL     1      34.246 167.824 156.719  1.00  0.00     0.030 A 
ATOM      3  C   UNL     1      33.177 167.952 157.604  1.00  0.00     0.046 A 
ATOM      4  C   UNL     1      32.053 168.663 157.277  1.00  0.00     0.003 A 
ATOM      5  C   UNL     1      31.196 168.597 158.353  1.00  0.00     0.028 A 
ATOM      6  C   UNL     1      31.863 167.828 159.302  1.00  0.00     0.083 A 
ATOM      7  N   UNL     1      33.073 167.436 158.840  1.00  0.00    -0.361 N 
ATOM      8  C   UNL     1      31.915 169.298 156.045  1.00  0.00     0.056 A 
ATOM      9  C   UNL     1      32.981 169.189 155.125  1.00  0.00     0.116 A 
ATOM     10  H   UNL     1      33.778 166.853 159.343  1.00  0.00     0.166 HD
ENDROOT
BRANCH   9  11
ATOM     11  O   UNL     1      32.901 169.803 153.877  1.00  0.00    -0.508 OA
ATOM     12  H   UNL     1      33.681 170.322 153.492  1.00  0.00     0.293 HD
ENDBRANCH   9  11
TORSDOF 1
ENDMDL
MODEL 7
REMARK VINA RESULT:    -3.765      2.841      3.654
REMARK INTER + INTRA:          -3.876
REMARK INTER:                  -3.876
REMARK INTRA:                   0.000
REMARK UNBOUND:                 0.000
REMARK SMILES Oc1ccc2[nH]ccc2c1
REMARK SMILES IDX 3 1 4 2 5 3 9 4 8 5 7 6 6 7 10 8 2 9 1 11
REMARK H PARENT 6 10 1 12
REMARK Flexibility Score: inf
ROOT
ATOM      1  C   UNL     1      36.210 183.744 170.263  1.00  0.00     0.048 A 
ATOM      2  C   UNL     1      36.532 183.157 171.501  1.00  0.00     0.030 A 
ATOM      3  C   UNL     1      37.868 182.850 171.749  1.00  0.00     0.046 A 
ATOM      4  C   UNL     1      38.848 183.107 170.827  1.00  0.00     0.003 A 
ATOM      5  C   UNL     1      40.044 182.692 171.371  1.00  0.00     0.028 A 
ATOM      6  C   UNL     1      39.717 182.192 172.628  1.00  0.00     0.083 A 
ATOM      7  N   UNL     1      38.387 182.290 172.854  1.00  0.00    -0.361 N 
ATOM      8  C   UNL     1      38.565 183.688 169.593  1.00  0.00     0.056 A 
ATOM      9  C   UNL     1      37.221 184.011 169.310  1.00  0.00     0.116 A 
ATOM     10  H   UNL     1      37.873 181.992 173.713  1.00  0.00     0.166 HD
ENDROOT
BRANCH   9  11
ATOM     11  O   UNL     1      36.876 184.593 168.092  1.00  0.00    -0.508 OA
ATOM     12  H   UNL     1      36.563 184.032 167.308  1.00  0.00     0.293 HD
ENDBRANCH   9  11
TORSDOF 1
ENDMDL
MODEL 8
REMARK VINA RESULT:    -3.591      2.238      3.642
REMARK INTER + INTRA:          -3.695
REMARK INTER:                  -3.695
REMARK INTRA:                   0.000
REMARK UNBOUND:                 0.000
REMARK SMILES Oc1ccc2[nH]ccc2c1
REMARK SMILES IDX 3 1 4 2 5 3 9 4 8 5 7 6 6 7 10 8 2 9 1 11
REMARK H PARENT 6 10 1 12
REMARK Flexibility Score: inf
ROOT
ATOM      1  C   UNL     1      40.714 182.437 171.933  1.00  0.00     0.048 A 
ATOM      2  C   UNL     1      39.517 182.984 171.434  1.00  0.00     0.030 A 
ATOM      3  C   UNL     1      39.150 184.255 171.870  1.00  0.00     0.046 A 
ATOM      4  C   UNL     1      39.921 184.962 172.755  1.00  0.00     0.003 A 
ATOM      5  C   UNL     1      39.290 186.165 172.980  1.00  0.00     0.028 A 
ATOM      6  C   UNL     1      38.139 186.124 172.199  1.00  0.00     0.083 A 
ATOM      7  N   UNL     1      38.058 184.956 171.523  1.00  0.00    -0.361 N 
ATOM      8  C   UNL     1      41.111 184.451 173.268  1.00  0.00     0.056 A 
ATOM      9  C   UNL     1      41.511 183.165 172.846  1.00  0.00     0.116 A 
ATOM     10  H   UNL     1      37.301 184.662 170.866  1.00  0.00     0.166 HD
ENDROOT
BRANCH   9  11
ATOM     11  O   UNL     1      42.691 182.601 173.326  1.00  0.00    -0.508 OA
ATOM     12  H   UNL     1      43.139 181.826 172.850  1.00  0.00     0.293 HD
ENDBRANCH   9  11
TORSDOF 1
ENDMDL
MODEL 9
REMARK VINA RESULT:    -3.572      2.332      3.644
REMARK INTER + INTRA:          -3.676
REMARK INTER:                  -3.676
REMARK INTRA:                   0.000
REMARK UNBOUND:                 0.000
REMARK SMILES Oc1ccc2[nH]ccc2c1
REMARK SMILES IDX 3 1 4 2 5 3 9 4 8 5 7 6 6 7 10 8 2 9 1 11
REMARK H PARENT 6 10 1 12
REMARK Flexibility Score: inf
ROOT
ATOM      1  C   UNL     1      41.005 184.503 173.698  1.00  0.00     0.048 A 
ATOM      2  C   UNL     1      39.838 185.187 173.308  1.00  0.00     0.030 A 
ATOM      3  C   UNL     1      39.124 184.687 172.220  1.00  0.00     0.046 A 
ATOM      4  C   UNL     1      39.533 183.569 171.544  1.00  0.00     0.003 A 
ATOM      5  C   UNL     1      38.622 183.342 170.535  1.00  0.00     0.028 A 
ATOM      6  C   UNL     1      37.684 184.362 170.657  1.00  0.00     0.083 A 
ATOM      7  N   UNL     1      37.995 185.181 171.687  1.00  0.00    -0.361 N 
ATOM      8  C   UNL     1      40.682 182.868 171.904  1.00  0.00     0.056 A 
ATOM      9  C   UNL     1      41.428 183.348 173.002  1.00  0.00     0.116 A 
ATOM     10  H   UNL     1      37.463 186.024 172.001  1.00  0.00     0.166 HD
ENDROOT
BRANCH   9  11
ATOM     11  O   UNL     1      42.588 182.690 173.408  1.00  0.00    -0.508 OA
ATOM     12  H   UNL     1      43.448 182.759 172.877  1.00  0.00     0.293 HD
ENDBRANCH   9  11
TORSDOF 1
ENDMDL
