MODEL 1
REMARK VINA RESULT:    -3.652      0.000      0.000
REMARK INTER + INTRA:          -4.551
REMARK INTER:                  -4.506
REMARK INTRA:                  -0.046
REMARK UNBOUND:                -0.046
REMARK SMILES CCCCCC(=O)[O-]
REMARK SMILES IDX 4 1 5 2 6 3 7 4 8 5 3 6 2 7 1 8
REMARK H PARENT
REMARK Flexibility Score: inf
ROOT
ATOM      1  C   UNL     1     -13.087  16.498 -20.352  1.00  0.00     0.006 C 
ENDROOT
BRANCH   1   2
ATOM      2  C   UNL     1     -11.832  16.361 -19.479  1.00  0.00     0.053 C 
BRANCH   2   3
ATOM      3  C   UNL     1     -11.620  14.949 -19.028  1.00  0.00     0.041 C 
ATOM      4  O   UNL     1     -10.656  14.662 -18.270  1.00  0.00    -0.550 OA
ATOM      5  O   UNL     1     -12.471  13.943 -19.468  1.00  0.00    -0.550 OA
ENDBRANCH   2   3
ENDBRANCH   1   2
BRANCH   1   6
ATOM      6  C   UNL     1     -12.749  16.922 -21.792  1.00  0.00     0.000 C 
BRANCH   6   7
ATOM      7  C   UNL     1     -12.637  18.447 -21.946  1.00  0.00    -0.003 C 
ATOM      8  C   UNL     1     -11.207  18.957 -21.761  1.00  0.00     0.004 C 
ENDBRANCH   6   7
ENDBRANCH   1   6
TORSDOF 4
ENDMDL
MODEL 2
REMARK VINA RESULT:    -3.466      5.648      7.206
REMARK INTER + INTRA:          -4.322
REMARK INTER:                  -4.233
REMARK INTRA:                  -0.089
REMARK UNBOUND:                -0.046
REMARK SMILES CCCCCC(=O)[O-]
REMARK SMILES IDX 4 1 5 2 6 3 7 4 8 5 3 6 2 7 1 8
REMARK H PARENT
REMARK Flexibility Score: inf
ROOT
ATOM      1  C   UNL     1      -9.348  14.154 -14.741  1.00  0.00     0.006 C 
ENDROOT
BRANCH   1   2
ATOM      2  C   UNL     1      -9.592  14.146 -16.256  1.00  0.00     0.053 C 
BRANCH   2   3
ATOM      3  C   UNL     1      -8.367  14.548 -17.018  1.00  0.00     0.041 C 
ATOM      4  O   UNL     1      -7.865  13.770 -17.871  1.00  0.00    -0.550 OA
ATOM      5  O   UNL     1      -7.761  15.773 -16.764  1.00  0.00    -0.550 OA
ENDBRANCH   2   3
ENDBRANCH   1   2
BRANCH   1   6
ATOM      6  C   UNL     1     -10.461  14.894 -13.978  1.00  0.00     0.000 C 
BRANCH   6   7
ATOM      7  C   UNL     1     -10.893  14.155 -12.703  1.00  0.00    -0.003 C 
ATOM      8  C   UNL     1     -12.283  13.528 -12.823  1.00  0.00     0.004 C 
ENDBRANCH   6   7
ENDBRANCH   1   6
TORSDOF 4
ENDMDL
MODEL 3
REMARK VINA RESULT:    -3.436     11.237     11.899
REMARK INTER + INTRA:          -4.285
REMARK INTER:                  -4.139
REMARK INTRA:                  -0.146
REMARK UNBOUND:                -0.046
REMARK SMILES CCCCCC(=O)[O-]
REMARK SMILES IDX 4 1 5 2 6 3 7 4 8 5 3 6 2 7 1 8
REMARK H PARENT
REMARK Flexibility Score: inf
ROOT
ATOM      1  C   UNL     1     -21.880  20.576 -25.025  1.00  0.00     0.006 C 
ENDROOT
BRANCH   1   2
ATOM      2  C   UNL     1     -21.137  19.234 -25.088  1.00  0.00     0.053 C 
BRANCH   2   3
ATOM      3  C   UNL     1     -21.631  18.378 -26.213  1.00  0.00     0.041 C 
ATOM      4  O   UNL     1     -22.570  17.560 -26.024  1.00  0.00    -0.550 OA
ATOM      5  O   UNL     1     -21.035  18.463 -27.465  1.00  0.00    -0.550 OA
ENDBRANCH   2   3
ENDBRANCH   1   2
BRANCH   1   6
ATOM      6  C   UNL     1     -22.759  20.694 -23.768  1.00  0.00     0.000 C 
BRANCH   6   7
ATOM      7  C   UNL     1     -22.776  19.401 -22.937  1.00  0.00    -0.003 C 
ATOM      8  C   UNL     1     -22.836  19.665 -21.432  1.00  0.00     0.004 C 
ENDBRANCH   6   7
ENDBRANCH   1   6
TORSDOF 4
ENDMDL
MODEL 4
REMARK VINA RESULT:    -3.408     11.037     11.955
REMARK INTER + INTRA:          -4.251
REMARK INTER:                  -4.125
REMARK INTRA:                  -0.126
REMARK UNBOUND:                -0.046
REMARK SMILES CCCCCC(=O)[O-]
REMARK SMILES IDX 4 1 5 2 6 3 7 4 8 5 3 6 2 7 1 8
REMARK H PARENT
REMARK Flexibility Score: inf
ROOT
ATOM      1  C   UNL     1     -21.013  18.610 -25.053  1.00  0.00     0.006 C 
ENDROOT
BRANCH   1   2
ATOM      2  C   UNL     1     -21.399  20.046 -25.434  1.00  0.00     0.053 C 
BRANCH   2   3
ATOM      3  C   UNL     1     -22.474  20.587 -24.542  1.00  0.00     0.041 C 
ATOM      4  O   UNL     1     -23.086  21.643 -24.854  1.00  0.00    -0.550 OA
ATOM      5  O   UNL     1     -22.781  19.941 -23.351  1.00  0.00    -0.550 OA
ENDBRANCH   2   3
ENDBRANCH   1   2
BRANCH   1   6
ATOM      6  C   UNL     1     -21.346  17.605 -26.170  1.00  0.00     0.000 C 
BRANCH   6   7
ATOM      7  C   UNL     1     -21.186  18.209 -27.573  1.00  0.00    -0.003 C 
ATOM      8  C   UNL     1     -20.327  17.344 -28.496  1.00  0.00     0.004 C 
ENDBRANCH   6   7
ENDBRANCH   1   6
TORSDOF 4
ENDMDL
MODEL 5
REMARK VINA RESULT:    -3.387      2.737      4.756
REMARK INTER + INTRA:          -4.225
REMARK INTER:                  -4.175
REMARK INTRA:                  -0.050
REMARK UNBOUND:                -0.046
REMARK SMILES CCCCCC(=O)[O-]
REMARK SMILES IDX 4 1 5 2 6 3 7 4 8 5 3 6 2 7 1 8
REMARK H PARENT
REMARK Flexibility Score: inf
ROOT
ATOM      1  C   UNL     1     -11.634  16.350 -19.389  1.00  0.00     0.006 C 
ENDROOT
BRANCH   1   2
ATOM      2  C   UNL     1     -12.583  16.753 -20.525  1.00  0.00     0.053 C 
BRANCH   2   3
ATOM      3  C   UNL     1     -12.041  17.900 -21.321  1.00  0.00     0.041 C 
ATOM      4  O   UNL     1     -12.783  18.520 -22.128  1.00  0.00    -0.550 OA
ATOM      5  O   UNL     1     -10.707  18.267 -21.194  1.00  0.00    -0.550 OA
ENDBRANCH   2   3
ENDBRANCH   1   2
BRANCH   1   6
ATOM      6  C   UNL     1     -11.706  14.844 -19.080  1.00  0.00     0.000 C 
BRANCH   6   7
ATOM      7  C   UNL     1     -10.808  14.441 -17.900  1.00  0.00    -0.003 C 
ATOM      8  C   UNL     1     -11.250  13.135 -17.238  1.00  0.00     0.004 C 
ENDBRANCH   6   7
ENDBRANCH   1   6
TORSDOF 4
ENDMDL
MODEL 6
REMARK VINA RESULT:    -3.355     11.532     11.878
REMARK INTER + INTRA:          -4.185
REMARK INTER:                  -4.011
REMARK INTRA:                  -0.175
REMARK UNBOUND:                -0.046
REMARK SMILES CCCCCC(=O)[O-]
REMARK SMILES IDX 4 1 5 2 6 3 7 4 8 5 3 6 2 7 1 8
REMARK H PARENT
REMARK Flexibility Score: inf
ROOT
ATOM      1  C   UNL     1     -22.564  17.877 -25.626  1.00  0.00     0.006 C 
ENDROOT
BRANCH   1   2
ATOM      2  C   UNL     1     -21.352  17.113 -26.177  1.00  0.00     0.053 C 
BRANCH   2   3
ATOM      3  C   UNL     1     -21.026  17.526 -27.579  1.00  0.00     0.041 C 
ATOM      4  O   UNL     1     -21.181  18.722 -27.942  1.00  0.00    -0.550 OA
ATOM      5  O   UNL     1     -20.578  16.582 -28.496  1.00  0.00    -0.550 OA
ENDBRANCH   2   3
ENDBRANCH   1   2
BRANCH   1   6
ATOM      6  C   UNL     1     -22.296  18.461 -24.229  1.00  0.00     0.000 C 
BRANCH   6   7
ATOM      7  C   UNL     1     -22.553  19.975 -24.164  1.00  0.00    -0.003 C 
ATOM      8  C   UNL     1     -21.700  20.763 -25.159  1.00  0.00     0.004 C 
ENDBRANCH   6   7
ENDBRANCH   1   6
TORSDOF 4
ENDMDL
MODEL 7
REMARK VINA RESULT:    -3.348      9.862     10.677
REMARK INTER + INTRA:          -4.177
REMARK INTER:                  -3.940
REMARK INTRA:                  -0.237
REMARK UNBOUND:                -0.046
REMARK SMILES CCCCCC(=O)[O-]
REMARK SMILES IDX 4 1 5 2 6 3 7 4 8 5 3 6 2 7 1 8
REMARK H PARENT
REMARK Flexibility Score: inf
ROOT
ATOM      1  C   UNL     1     -20.588  16.665 -23.819  1.00  0.00     0.006 C 
ENDROOT
BRANCH   1   2
ATOM      2  C   UNL     1     -19.832  17.875 -24.383  1.00  0.00     0.053 C 
BRANCH   2   3
ATOM      3  C   UNL     1     -20.650  18.622 -25.390  1.00  0.00     0.041 C 
ATOM      4  O   UNL     1     -21.291  19.652 -25.050  1.00  0.00    -0.550 OA
ATOM      5  O   UNL     1     -20.730  18.165 -26.700  1.00  0.00    -0.550 OA
ENDBRANCH   2   3
ENDBRANCH   1   2
BRANCH   1   6
ATOM      6  C   UNL     1     -21.035  16.887 -22.363  1.00  0.00     0.000 C 
BRANCH   6   7
ATOM      7  C   UNL     1     -22.475  17.413 -22.262  1.00  0.00    -0.003 C 
ATOM      8  C   UNL     1     -22.545  18.856 -21.762  1.00  0.00     0.004 C 
ENDBRANCH   6   7
ENDBRANCH   1   6
TORSDOF 4
ENDMDL
MODEL 8
REMARK VINA RESULT:    -3.336     10.772     11.673
REMARK INTER + INTRA:          -4.162
REMARK INTER:                  -4.017
REMARK INTRA:                  -0.145
REMARK UNBOUND:                -0.046
REMARK SMILES CCCCCC(=O)[O-]
REMARK SMILES IDX 4 1 5 2 6 3 7 4 8 5 3 6 2 7 1 8
REMARK H PARENT
REMARK Flexibility Score: inf
ROOT
ATOM      1  C   UNL     1     -23.299  18.233 -24.845  1.00  0.00     0.006 C 
ENDROOT
BRANCH   1   2
ATOM      2  C   UNL     1     -22.328  17.308 -25.591  1.00  0.00     0.053 C 
BRANCH   2   3
ATOM      3  C   UNL     1     -21.136  18.053 -26.106  1.00  0.00     0.041 C 
ATOM      4  O   UNL     1     -20.265  18.488 -25.308  1.00  0.00    -0.550 OA
ATOM      5  O   UNL     1     -21.001  18.293 -27.468  1.00  0.00    -0.550 OA
ENDBRANCH   2   3
ENDBRANCH   1   2
BRANCH   1   6
ATOM      6  C   UNL     1     -23.557  17.762 -23.403  1.00  0.00     0.000 C 
BRANCH   6   7
ATOM      7  C   UNL     1     -22.434  18.175 -22.439  1.00  0.00    -0.003 C 
ATOM      8  C   UNL     1     -22.829  19.344 -21.536  1.00  0.00     0.004 C 
ENDBRANCH   6   7
ENDBRANCH   1   6
TORSDOF 4
ENDMDL
MODEL 9
REMARK VINA RESULT:    -3.252     10.317     11.410
REMARK INTER + INTRA:          -4.058
REMARK INTER:                  -3.810
REMARK INTRA:                  -0.248
REMARK UNBOUND:                -0.046
REMARK SMILES CCCCCC(=O)[O-]
REMARK SMILES IDX 4 1 5 2 6 3 7 4 8 5 3 6 2 7 1 8
REMARK H PARENT
REMARK Flexibility Score: inf
ROOT
ATOM      1  C   UNL     1     -23.075  18.111 -24.458  1.00  0.00     0.006 C 
ENDROOT
BRANCH   1   2
ATOM      2  C   UNL     1     -22.500  17.508 -25.747  1.00  0.00     0.053 C 
BRANCH   2   3
ATOM      3  C   UNL     1     -21.293  18.256 -26.219  1.00  0.00     0.041 C 
ATOM      4  O   UNL     1     -20.553  18.855 -25.394  1.00  0.00    -0.550 OA
ATOM      5  O   UNL     1     -20.999  18.317 -27.576  1.00  0.00    -0.550 OA
ENDBRANCH   2   3
ENDBRANCH   1   2
BRANCH   1   6
ATOM      6  C   UNL     1     -23.001  17.130 -23.275  1.00  0.00     0.000 C 
BRANCH   6   7
ATOM      7  C   UNL     1     -21.810  17.415 -22.347  1.00  0.00    -0.003 C 
ATOM      8  C   UNL     1     -20.607  16.516 -22.635  1.00  0.00     0.004 C 
ENDBRANCH   6   7
ENDBRANCH   1   6
TORSDOF 4
ENDMDL
