MODEL 1
REMARK VINA RESULT:    -5.508      0.000      0.000
REMARK INTER + INTRA:         -11.297
REMARK INTER:                  -9.694
REMARK INTRA:                  -1.603
REMARK UNBOUND:                -1.603
REMARK SMILES CCCCCCC=CCCCCCCCC(=O)[O-]
REMARK SMILES IDX 10 1 11 2 12 3 13 4 14 5 15 6 16 7 17 8 18 9 9 10 8 11 7 12
REMARK SMILES IDX 6 13 5 14 4 15 3 16 2 17 1 18
REMARK H PARENT
REMARK Flexibility Score: inf
ROOT
ATOM      1  C   UNL     1     -11.358 -67.276 -34.138  1.00  0.00     0.004 C 
ENDROOT
BRANCH   1   2
ATOM      2  C   UNL     1     -11.601 -66.061 -33.235  1.00  0.00     0.000 C 
BRANCH   2   3
ATOM      3  C   UNL     1     -12.601 -66.399 -32.119  1.00  0.00     0.000 C 
BRANCH   3   4
ATOM      4  C   UNL     1     -13.817 -65.457 -32.096  1.00  0.00     0.000 C 
BRANCH   4   5
ATOM      5  C   UNL     1     -15.176 -66.145 -31.867  1.00  0.00     0.006 C 
BRANCH   5   6
ATOM      6  C   UNL     1     -15.857 -65.764 -30.539  1.00  0.00     0.053 C 
BRANCH   6   7
ATOM      7  C   UNL     1     -17.079 -66.586 -30.258  1.00  0.00     0.041 C 
ATOM      8  O   UNL     1     -17.714 -66.438 -29.181  1.00  0.00    -0.550 OA
ATOM      9  O   UNL     1     -17.541 -67.490 -31.207  1.00  0.00    -0.550 OA
ENDBRANCH   6   7
ENDBRANCH   5   6
ENDBRANCH   4   5
ENDBRANCH   3   4
ENDBRANCH   2   3
ENDBRANCH   1   2
BRANCH   1  10
ATOM     10  C   UNL     1     -12.119 -67.135 -35.463  1.00  0.00     0.027 C 
BRANCH  10  11
ATOM     11  C   UNL     1     -13.381 -67.951 -35.450  1.00  0.00    -0.031 C 
ATOM     12  C   UNL     1     -14.562 -67.412 -35.109  1.00  0.00    -0.031 C 
BRANCH  12  13
ATOM     13  C   UNL     1     -15.833 -68.216 -35.119  1.00  0.00     0.027 C 
BRANCH  13  14
ATOM     14  C   UNL     1     -17.015 -67.338 -34.695  1.00  0.00     0.004 C 
BRANCH  14  15
ATOM     15  C   UNL     1     -17.417 -66.312 -35.769  1.00  0.00     0.000 C 
BRANCH  15  16
ATOM     16  C   UNL     1     -17.290 -66.843 -37.212  1.00  0.00    -0.000 C 
BRANCH  16  17
ATOM     17  C   UNL     1     -16.312 -66.009 -38.054  1.00  0.00    -0.003 C 
ATOM     18  C   UNL     1     -15.308 -66.900 -38.778  1.00  0.00     0.004 C 
ENDBRANCH  16  17
ENDBRANCH  15  16
ENDBRANCH  14  15
ENDBRANCH  13  14
ENDBRANCH  12  13
ENDBRANCH  10  11
ENDBRANCH   1  10
TORSDOF 13
ENDMDL
MODEL 2
REMARK VINA RESULT:    -5.240      6.257      8.190
REMARK INTER + INTRA:         -10.826
REMARK INTER:                 -10.010
REMARK INTRA:                  -0.816
REMARK UNBOUND:                -1.603
REMARK SMILES CCCCCCC=CCCCCCCCC(=O)[O-]
REMARK SMILES IDX 10 1 11 2 12 3 13 4 14 5 15 6 16 7 17 8 18 9 9 10 8 11 7 12
REMARK SMILES IDX 6 13 5 14 4 15 3 16 2 17 1 18
REMARK H PARENT
REMARK Flexibility Score: inf
ROOT
ATOM      1  C   UNL     1     -10.700 -68.619 -25.652  1.00  0.00     0.004 C 
ENDROOT
BRANCH   1   2
ATOM      2  C   UNL     1      -9.765 -67.447 -25.333  1.00  0.00     0.000 C 
BRANCH   2   3
ATOM      3  C   UNL     1     -10.563 -66.211 -24.896  1.00  0.00     0.000 C 
BRANCH   3   4
ATOM      4  C   UNL     1     -12.085 -66.420 -24.970  1.00  0.00     0.000 C 
BRANCH   4   5
ATOM      5  C   UNL     1     -12.936 -65.249 -24.442  1.00  0.00     0.006 C 
BRANCH   5   6
ATOM      6  C   UNL     1     -12.506 -64.737 -23.054  1.00  0.00     0.053 C 
BRANCH   6   7
ATOM      7  C   UNL     1     -12.722 -65.752 -21.971  1.00  0.00     0.041 C 
ATOM      8  O   UNL     1     -13.841 -66.316 -21.840  1.00  0.00    -0.550 OA
ATOM      9  O   UNL     1     -11.673 -66.106 -21.132  1.00  0.00    -0.550 OA
ENDBRANCH   6   7
ENDBRANCH   5   6
ENDBRANCH   4   5
ENDBRANCH   3   4
ENDBRANCH   2   3
ENDBRANCH   1   2
BRANCH   1  10
ATOM     10  C   UNL     1     -10.077 -69.549 -26.701  1.00  0.00     0.027 C 
BRANCH  10  11
ATOM     11  C   UNL     1      -9.464 -68.762 -27.826  1.00  0.00    -0.031 C 
ATOM     12  C   UNL     1     -10.026 -68.725 -29.043  1.00  0.00    -0.031 C 
BRANCH  12  13
ATOM     13  C   UNL     1      -9.433 -67.918 -30.166  1.00  0.00     0.027 C 
BRANCH  13  14
ATOM     14  C   UNL     1     -10.524 -67.526 -31.167  1.00  0.00     0.004 C 
BRANCH  14  15
ATOM     15  C   UNL     1      -9.981 -66.727 -32.365  1.00  0.00     0.000 C 
BRANCH  15  16
ATOM     16  C   UNL     1     -11.024 -65.788 -33.007  1.00  0.00    -0.000 C 
BRANCH  16  17
ATOM     17  C   UNL     1     -12.227 -66.557 -33.575  1.00  0.00    -0.003 C 
ATOM     18  C   UNL     1     -11.847 -67.319 -34.841  1.00  0.00     0.004 C 
ENDBRANCH  16  17
ENDBRANCH  15  16
ENDBRANCH  14  15
ENDBRANCH  13  14
ENDBRANCH  12  13
ENDBRANCH  10  11
ENDBRANCH   1  10
TORSDOF 13
ENDMDL
MODEL 3
REMARK VINA RESULT:    -5.238      5.357      9.058
REMARK INTER + INTRA:         -10.822
REMARK INTER:                 -10.172
REMARK INTRA:                  -0.649
REMARK UNBOUND:                -1.603
REMARK SMILES CCCCCCC=CCCCCCCCC(=O)[O-]
REMARK SMILES IDX 10 1 11 2 12 3 13 4 14 5 15 6 16 7 17 8 18 9 9 10 8 11 7 12
REMARK SMILES IDX 6 13 5 14 4 15 3 16 2 17 1 18
REMARK H PARENT
REMARK Flexibility Score: inf
ROOT
ATOM      1  C   UNL     1      -8.495 -67.252 -29.869  1.00  0.00     0.004 C 
ENDROOT
BRANCH   1   2
ATOM      2  C   UNL     1      -8.711 -66.900 -31.345  1.00  0.00     0.000 C 
BRANCH   2   3
ATOM      3  C   UNL     1     -10.153 -67.205 -31.776  1.00  0.00     0.000 C 
BRANCH   3   4
ATOM      4  C   UNL     1     -10.652 -66.280 -32.899  1.00  0.00     0.000 C 
BRANCH   4   5
ATOM      5  C   UNL     1     -11.963 -66.722 -33.578  1.00  0.00     0.006 C 
BRANCH   5   6
ATOM      6  C   UNL     1     -11.764 -67.399 -34.948  1.00  0.00     0.053 C 
BRANCH   6   7
ATOM      7  C   UNL     1     -13.039 -67.509 -35.729  1.00  0.00     0.041 C 
ATOM      8  O   UNL     1     -14.148 -67.572 -35.135  1.00  0.00    -0.550 OA
ATOM      9  O   UNL     1     -13.005 -67.500 -37.118  1.00  0.00    -0.550 OA
ENDBRANCH   6   7
ENDBRANCH   5   6
ENDBRANCH   4   5
ENDBRANCH   3   4
ENDBRANCH   2   3
ENDBRANCH   1   2
BRANCH   1  10
ATOM     10  C   UNL     1      -9.205 -68.563 -29.507  1.00  0.00     0.027 C 
BRANCH  10  11
ATOM     11  C   UNL     1     -10.083 -68.387 -28.300  1.00  0.00    -0.031 C 
ATOM     12  C   UNL     1      -9.572 -68.076 -27.099  1.00  0.00    -0.031 C 
BRANCH  12  13
ATOM     13  C   UNL     1     -10.446 -67.872 -25.893  1.00  0.00     0.027 C 
BRANCH  13  14
ATOM     14  C   UNL     1      -9.799 -66.866 -24.936  1.00  0.00     0.004 C 
BRANCH  14  15
ATOM     15  C   UNL     1     -10.829 -66.021 -24.165  1.00  0.00     0.000 C 
BRANCH  15  16
ATOM     16  C   UNL     1     -12.203 -65.931 -24.863  1.00  0.00    -0.000 C 
BRANCH  16  17
ATOM     17  C   UNL     1     -13.010 -64.709 -24.401  1.00  0.00    -0.003 C 
ATOM     18  C   UNL     1     -12.759 -63.507 -25.307  1.00  0.00     0.004 C 
ENDBRANCH  16  17
ENDBRANCH  15  16
ENDBRANCH  14  15
ENDBRANCH  13  14
ENDBRANCH  12  13
ENDBRANCH  10  11
ENDBRANCH   1  10
TORSDOF 13
ENDMDL
MODEL 4
REMARK VINA RESULT:    -5.225      6.593      8.728
REMARK INTER + INTRA:         -10.799
REMARK INTER:                 -10.059
REMARK INTRA:                  -0.740
REMARK UNBOUND:                -1.603
REMARK SMILES CCCCCCC=CCCCCCCCC(=O)[O-]
REMARK SMILES IDX 10 1 11 2 12 3 13 4 14 5 15 6 16 7 17 8 18 9 9 10 8 11 7 12
REMARK SMILES IDX 6 13 5 14 4 15 3 16 2 17 1 18
REMARK H PARENT
REMARK Flexibility Score: inf
ROOT
ATOM      1  C   UNL     1      -7.836 -63.864 -34.199  1.00  0.00     0.004 C 
ENDROOT
BRANCH   1   2
ATOM      2  C   UNL     1      -8.734 -63.543 -35.399  1.00  0.00     0.000 C 
BRANCH   2   3
ATOM      3  C   UNL     1      -7.979 -62.705 -36.441  1.00  0.00     0.000 C 
BRANCH   3   4
ATOM      4  C   UNL     1      -7.920 -63.377 -37.823  1.00  0.00     0.000 C 
BRANCH   4   5
ATOM      5  C   UNL     1      -6.569 -64.026 -38.180  1.00  0.00     0.006 C 
BRANCH   5   6
ATOM      6  C   UNL     1      -6.660 -65.101 -39.280  1.00  0.00     0.053 C 
BRANCH   6   7
ATOM      7  C   UNL     1      -5.315 -65.594 -39.720  1.00  0.00     0.041 C 
ATOM      8  O   UNL     1      -4.275 -65.252 -39.097  1.00  0.00    -0.550 OA
ATOM      9  O   UNL     1      -5.212 -66.467 -40.796  1.00  0.00    -0.550 OA
ENDBRANCH   6   7
ENDBRANCH   5   6
ENDBRANCH   4   5
ENDBRANCH   3   4
ENDBRANCH   2   3
ENDBRANCH   1   2
BRANCH   1  10
ATOM     10  C   UNL     1      -8.563 -64.767 -33.194  1.00  0.00     0.027 C 
BRANCH  10  11
ATOM     11  C   UNL     1      -9.889 -65.222 -33.738  1.00  0.00    -0.031 C 
ATOM     12  C   UNL     1     -10.642 -66.122 -33.088  1.00  0.00    -0.031 C 
BRANCH  12  13
ATOM     13  C   UNL     1     -11.981 -66.562 -33.612  1.00  0.00     0.027 C 
BRANCH  13  14
ATOM     14  C   UNL     1     -11.813 -67.271 -34.960  1.00  0.00     0.004 C 
BRANCH  14  15
ATOM     15  C   UNL     1     -13.154 -67.648 -35.612  1.00  0.00     0.000 C 
BRANCH  15  16
ATOM     16  C   UNL     1     -14.386 -67.153 -34.825  1.00  0.00    -0.000 C 
BRANCH  16  17
ATOM     17  C   UNL     1     -15.663 -67.158 -35.681  1.00  0.00    -0.003 C 
ATOM     18  C   UNL     1     -16.389 -65.819 -35.597  1.00  0.00     0.004 C 
ENDBRANCH  16  17
ENDBRANCH  15  16
ENDBRANCH  14  15
ENDBRANCH  13  14
ENDBRANCH  12  13
ENDBRANCH  10  11
ENDBRANCH   1  10
TORSDOF 13
ENDMDL
MODEL 5
REMARK VINA RESULT:    -5.205      6.197      9.828
REMARK INTER + INTRA:         -10.763
REMARK INTER:                  -9.525
REMARK INTRA:                  -1.239
REMARK UNBOUND:                -1.603
REMARK SMILES CCCCCCC=CCCCCCCCC(=O)[O-]
REMARK SMILES IDX 10 1 11 2 12 3 13 4 14 5 15 6 16 7 17 8 18 9 9 10 8 11 7 12
REMARK SMILES IDX 6 13 5 14 4 15 3 16 2 17 1 18
REMARK H PARENT
REMARK Flexibility Score: inf
ROOT
ATOM      1  C   UNL     1      -9.082 -69.237 -27.311  1.00  0.00     0.004 C 
ENDROOT
BRANCH   1   2
ATOM      2  C   UNL     1      -9.491 -69.512 -28.763  1.00  0.00     0.000 C 
BRANCH   2   3
ATOM      3  C   UNL     1      -9.957 -68.222 -29.455  1.00  0.00     0.000 C 
BRANCH   3   4
ATOM      4  C   UNL     1      -8.793 -67.383 -30.009  1.00  0.00     0.000 C 
BRANCH   4   5
ATOM      5  C   UNL     1      -8.918 -66.989 -31.493  1.00  0.00     0.006 C 
BRANCH   5   6
ATOM      6  C   UNL     1     -10.300 -67.284 -32.107  1.00  0.00     0.053 C 
BRANCH   6   7
ATOM      7  C   UNL     1     -10.922 -66.075 -32.740  1.00  0.00     0.041 C 
ATOM      8  O   UNL     1     -10.271 -65.382 -33.567  1.00  0.00    -0.550 OA
ATOM      9  O   UNL     1     -12.237 -65.737 -32.447  1.00  0.00    -0.550 OA
ENDBRANCH   6   7
ENDBRANCH   5   6
ENDBRANCH   4   5
ENDBRANCH   3   4
ENDBRANCH   2   3
ENDBRANCH   1   2
BRANCH   1  10
ATOM     10  C   UNL     1     -10.248 -69.507 -26.351  1.00  0.00     0.027 C 
BRANCH  10  11
ATOM     11  C   UNL     1     -10.773 -68.226 -25.765  1.00  0.00    -0.031 C 
ATOM     12  C   UNL     1      -9.967 -67.180 -25.531  1.00  0.00    -0.031 C 
BRANCH  12  13
ATOM     13  C   UNL     1     -10.489 -65.886 -24.969  1.00  0.00     0.027 C 
BRANCH  13  14
ATOM     14  C   UNL     1     -11.047 -66.110 -23.560  1.00  0.00     0.004 C 
BRANCH  14  15
ATOM     15  C   UNL     1     -12.297 -65.262 -23.267  1.00  0.00     0.000 C 
BRANCH  15  16
ATOM     16  C   UNL     1     -13.595 -66.089 -23.157  1.00  0.00    -0.000 C 
BRANCH  16  17
ATOM     17  C   UNL     1     -14.063 -66.621 -24.521  1.00  0.00    -0.003 C 
ATOM     18  C   UNL     1     -14.381 -65.477 -25.479  1.00  0.00     0.004 C 
ENDBRANCH  16  17
ENDBRANCH  15  16
ENDBRANCH  14  15
ENDBRANCH  13  14
ENDBRANCH  12  13
ENDBRANCH  10  11
ENDBRANCH   1  10
TORSDOF 13
ENDMDL
MODEL 6
REMARK VINA RESULT:    -5.197      5.720      7.983
REMARK INTER + INTRA:         -10.749
REMARK INTER:                  -9.965
REMARK INTRA:                  -0.785
REMARK UNBOUND:                -1.603
REMARK SMILES CCCCCCC=CCCCCCCCC(=O)[O-]
REMARK SMILES IDX 10 1 11 2 12 3 13 4 14 5 15 6 16 7 17 8 18 9 9 10 8 11 7 12
REMARK SMILES IDX 6 13 5 14 4 15 3 16 2 17 1 18
REMARK H PARENT
REMARK Flexibility Score: inf
ROOT
ATOM      1  C   UNL     1      -8.395 -65.689 -25.877  1.00  0.00     0.004 C 
ENDROOT
BRANCH   1   2
ATOM      2  C   UNL     1      -8.779 -66.736 -24.825  1.00  0.00     0.000 C 
BRANCH   2   3
ATOM      3  C   UNL     1     -10.204 -67.257 -25.064  1.00  0.00     0.000 C 
BRANCH   3   4
ATOM      4  C   UNL     1     -11.287 -66.330 -24.489  1.00  0.00     0.000 C 
BRANCH   4   5
ATOM      5  C   UNL     1     -12.705 -66.931 -24.435  1.00  0.00     0.006 C 
BRANCH   5   6
ATOM      6  C   UNL     1     -13.808 -65.909 -24.100  1.00  0.00     0.053 C 
BRANCH   6   7
ATOM      7  C   UNL     1     -14.310 -65.182 -25.312  1.00  0.00     0.041 C 
ATOM      8  O   UNL     1     -13.834 -64.058 -25.624  1.00  0.00    -0.550 OA
ATOM      9  O   UNL     1     -15.275 -65.766 -26.122  1.00  0.00    -0.550 OA
ENDBRANCH   6   7
ENDBRANCH   5   6
ENDBRANCH   4   5
ENDBRANCH   3   4
ENDBRANCH   2   3
ENDBRANCH   1   2
BRANCH   1  10
ATOM     10  C   UNL     1      -7.287 -66.217 -26.797  1.00  0.00     0.027 C 
BRANCH  10  11
ATOM     11  C   UNL     1      -7.866 -66.953 -27.973  1.00  0.00    -0.031 C 
ATOM     12  C   UNL     1      -7.625 -66.562 -29.233  1.00  0.00    -0.031 C 
BRANCH  12  13
ATOM     13  C   UNL     1      -8.179 -67.310 -30.415  1.00  0.00     0.027 C 
BRANCH  13  14
ATOM     14  C   UNL     1      -9.518 -67.958 -30.049  1.00  0.00     0.004 C 
BRANCH  14  15
ATOM     15  C   UNL     1     -10.641 -67.621 -31.044  1.00  0.00     0.000 C 
BRANCH  15  16
ATOM     16  C   UNL     1     -10.164 -66.805 -32.264  1.00  0.00    -0.000 C 
BRANCH  16  17
ATOM     17  C   UNL     1     -11.337 -66.240 -33.081  1.00  0.00    -0.003 C 
ATOM     18  C   UNL     1     -11.559 -67.046 -34.357  1.00  0.00     0.004 C 
ENDBRANCH  16  17
ENDBRANCH  15  16
ENDBRANCH  14  15
ENDBRANCH  13  14
ENDBRANCH  12  13
ENDBRANCH  10  11
ENDBRANCH   1  10
TORSDOF 13
ENDMDL
MODEL 7
REMARK VINA RESULT:    -5.186      4.288      5.528
REMARK INTER + INTRA:         -10.730
REMARK INTER:                  -9.521
REMARK INTRA:                  -1.209
REMARK UNBOUND:                -1.603
REMARK SMILES CCCCCCC=CCCCCCCCC(=O)[O-]
REMARK SMILES IDX 10 1 11 2 12 3 13 4 14 5 15 6 16 7 17 8 18 9 9 10 8 11 7 12
REMARK SMILES IDX 6 13 5 14 4 15 3 16 2 17 1 18
REMARK H PARENT
REMARK Flexibility Score: inf
ROOT
ATOM      1  C   UNL     1     -11.382 -66.700 -31.936  1.00  0.00     0.004 C 
ENDROOT
BRANCH   1   2
ATOM      2  C   UNL     1     -10.537 -67.628 -31.056  1.00  0.00     0.000 C 
BRANCH   2   3
ATOM      3  C   UNL     1      -9.051 -67.244 -31.123  1.00  0.00     0.000 C 
BRANCH   3   4
ATOM      4  C   UNL     1      -8.387 -67.172 -29.738  1.00  0.00     0.000 C 
BRANCH   4   5
ATOM      5  C   UNL     1      -9.085 -67.987 -28.632  1.00  0.00     0.006 C 
BRANCH   5   6
ATOM      6  C   UNL     1      -8.378 -67.923 -27.264  1.00  0.00     0.053 C 
BRANCH   6   7
ATOM      7  C   UNL     1      -9.242 -67.325 -26.195  1.00  0.00     0.041 C 
ATOM      8  O   UNL     1      -8.733 -66.616 -25.286  1.00  0.00    -0.550 OA
ATOM      9  O   UNL     1     -10.618 -67.516 -26.225  1.00  0.00    -0.550 OA
ENDBRANCH   6   7
ENDBRANCH   5   6
ENDBRANCH   4   5
ENDBRANCH   3   4
ENDBRANCH   2   3
ENDBRANCH   1   2
BRANCH   1  10
ATOM     10  C   UNL     1     -10.557 -66.151 -33.107  1.00  0.00     0.027 C 
BRANCH  10  11
ATOM     11  C   UNL     1     -11.215 -66.459 -34.423  1.00  0.00    -0.031 C 
ATOM     12  C   UNL     1     -12.290 -67.257 -34.500  1.00  0.00    -0.031 C 
BRANCH  12  13
ATOM     13  C   UNL     1     -12.970 -67.548 -35.810  1.00  0.00     0.027 C 
BRANCH  13  14
ATOM     14  C   UNL     1     -14.426 -67.959 -35.569  1.00  0.00     0.004 C 
BRANCH  14  15
ATOM     15  C   UNL     1     -15.434 -66.872 -35.982  1.00  0.00     0.000 C 
BRANCH  15  16
ATOM     16  C   UNL     1     -15.963 -66.036 -34.798  1.00  0.00    -0.000 C 
BRANCH  16  17
ATOM     17  C   UNL     1     -15.814 -66.769 -33.456  1.00  0.00    -0.003 C 
ATOM     18  C   UNL     1     -14.988 -65.950 -32.468  1.00  0.00     0.004 C 
ENDBRANCH  16  17
ENDBRANCH  15  16
ENDBRANCH  14  15
ENDBRANCH  13  14
ENDBRANCH  12  13
ENDBRANCH  10  11
ENDBRANCH   1  10
TORSDOF 13
ENDMDL
MODEL 8
REMARK VINA RESULT:    -5.185      6.368      8.429
REMARK INTER + INTRA:         -10.729
REMARK INTER:                  -9.670
REMARK INTRA:                  -1.059
REMARK UNBOUND:                -1.603
REMARK SMILES CCCCCCC=CCCCCCCCC(=O)[O-]
REMARK SMILES IDX 10 1 11 2 12 3 13 4 14 5 15 6 16 7 17 8 18 9 9 10 8 11 7 12
REMARK SMILES IDX 6 13 5 14 4 15 3 16 2 17 1 18
REMARK H PARENT
REMARK Flexibility Score: inf
ROOT
ATOM      1  C   UNL     1      -8.002 -66.071 -26.856  1.00  0.00     0.004 C 
ENDROOT
BRANCH   1   2
ATOM      2  C   UNL     1      -7.858 -67.043 -25.680  1.00  0.00     0.000 C 
BRANCH   2   3
ATOM      3  C   UNL     1      -9.102 -67.934 -25.549  1.00  0.00     0.000 C 
BRANCH   3   4
ATOM      4  C   UNL     1     -10.418 -67.155 -25.704  1.00  0.00     0.000 C 
BRANCH   4   5
ATOM      5  C   UNL     1     -11.441 -67.363 -24.570  1.00  0.00     0.006 C 
BRANCH   5   6
ATOM      6  C   UNL     1     -11.676 -66.113 -23.699  1.00  0.00     0.053 C 
BRANCH   6   7
ATOM      7  C   UNL     1     -12.317 -66.437 -22.384  1.00  0.00     0.041 C 
ATOM      8  O   UNL     1     -13.466 -66.953 -22.344  1.00  0.00    -0.550 OA
ATOM      9  O   UNL     1     -11.628 -66.207 -21.199  1.00  0.00    -0.550 OA
ENDBRANCH   6   7
ENDBRANCH   5   6
ENDBRANCH   4   5
ENDBRANCH   3   4
ENDBRANCH   2   3
ENDBRANCH   1   2
BRANCH   1  10
ATOM     10  C   UNL     1      -7.176 -66.542 -28.061  1.00  0.00     0.027 C 
BRANCH  10  11
ATOM     11  C   UNL     1      -8.061 -66.839 -29.239  1.00  0.00    -0.031 C 
ATOM     12  C   UNL     1      -9.052 -67.740 -29.163  1.00  0.00    -0.031 C 
BRANCH  12  13
ATOM     13  C   UNL     1      -9.957 -68.024 -30.330  1.00  0.00     0.027 C 
BRANCH  13  14
ATOM     14  C   UNL     1      -9.529 -67.194 -31.545  1.00  0.00     0.004 C 
BRANCH  14  15
ATOM     15  C   UNL     1     -10.710 -66.789 -32.443  1.00  0.00     0.000 C 
BRANCH  15  16
ATOM     16  C   UNL     1     -10.419 -65.564 -33.335  1.00  0.00    -0.000 C 
BRANCH  16  17
ATOM     17  C   UNL     1      -8.983 -65.045 -33.159  1.00  0.00    -0.003 C 
ATOM     18  C   UNL     1      -8.552 -64.199 -34.353  1.00  0.00     0.004 C 
ENDBRANCH  16  17
ENDBRANCH  15  16
ENDBRANCH  14  15
ENDBRANCH  13  14
ENDBRANCH  12  13
ENDBRANCH  10  11
ENDBRANCH   1  10
TORSDOF 13
ENDMDL
MODEL 9
REMARK VINA RESULT:    -5.150      5.688      7.884
REMARK INTER + INTRA:         -10.667
REMARK INTER:                 -10.023
REMARK INTRA:                  -0.644
REMARK UNBOUND:                -1.603
REMARK SMILES CCCCCCC=CCCCCCCCC(=O)[O-]
REMARK SMILES IDX 10 1 11 2 12 3 13 4 14 5 15 6 16 7 17 8 18 9 9 10 8 11 7 12
REMARK SMILES IDX 6 13 5 14 4 15 3 16 2 17 1 18
REMARK H PARENT
REMARK Flexibility Score: inf
ROOT
ATOM      1  C   UNL     1     -10.548 -68.564 -26.176  1.00  0.00     0.004 C 
ENDROOT
BRANCH   1   2
ATOM      2  C   UNL     1      -9.645 -67.622 -25.371  1.00  0.00     0.000 C 
BRANCH   2   3
ATOM      3  C   UNL     1     -10.479 -66.584 -24.606  1.00  0.00     0.000 C 
BRANCH   3   4
ATOM      4  C   UNL     1     -11.985 -66.895 -24.620  1.00  0.00     0.000 C 
BRANCH   4   5
ATOM      5  C   UNL     1     -12.823 -66.130 -23.576  1.00  0.00     0.006 C 
BRANCH   5   6
ATOM      6  C   UNL     1     -12.750 -64.597 -23.713  1.00  0.00     0.053 C 
BRANCH   6   7
ATOM      7  C   UNL     1     -13.212 -64.115 -25.055  1.00  0.00     0.041 C 
ATOM      8  O   UNL     1     -14.244 -64.603 -25.588  1.00  0.00    -0.550 OA
ATOM      9  O   UNL     1     -12.525 -63.094 -25.701  1.00  0.00    -0.550 OA
ENDBRANCH   6   7
ENDBRANCH   5   6
ENDBRANCH   4   5
ENDBRANCH   3   4
ENDBRANCH   2   3
ENDBRANCH   1   2
BRANCH   1  10
ATOM     10  C   UNL     1      -9.716 -69.611 -26.929  1.00  0.00     0.027 C 
BRANCH  10  11
ATOM     11  C   UNL     1      -9.014 -68.997 -28.108  1.00  0.00    -0.031 C 
ATOM     12  C   UNL     1      -9.695 -68.416 -29.106  1.00  0.00    -0.031 C 
BRANCH  12  13
ATOM     13  C   UNL     1      -8.998 -67.776 -30.276  1.00  0.00     0.027 C 
BRANCH  13  14
ATOM     14  C   UNL     1     -10.022 -67.352 -31.333  1.00  0.00     0.004 C 
BRANCH  14  15
ATOM     15  C   UNL     1      -9.498 -66.249 -32.269  1.00  0.00     0.000 C 
BRANCH  15  16
ATOM     16  C   UNL     1     -10.522 -65.800 -33.332  1.00  0.00    -0.000 C 
BRANCH  16  17
ATOM     17  C   UNL     1     -11.860 -66.545 -33.201  1.00  0.00    -0.003 C 
ATOM     18  C   UNL     1     -12.840 -65.769 -32.327  1.00  0.00     0.004 C 
ENDBRANCH  16  17
ENDBRANCH  15  16
ENDBRANCH  14  15
ENDBRANCH  13  14
ENDBRANCH  12  13
ENDBRANCH  10  11
ENDBRANCH   1  10
TORSDOF 13
ENDMDL
