MODEL 1
REMARK VINA RESULT:    -3.521      0.000      0.000
REMARK INTER + INTRA:          -4.586
REMARK INTER:                  -4.344
REMARK INTRA:                  -0.242
REMARK UNBOUND:                -0.242
REMARK SMILES CCCCCC(=O)[O-]
REMARK SMILES IDX 4 1 5 2 6 3 7 4 8 5 3 6 2 7 1 8
REMARK H PARENT
REMARK Flexibility Score: inf
ROOT
ATOM      1  C   UNL     1      44.792   4.838 127.972  1.00  0.00     0.006 C 
ENDROOT
BRANCH   1   2
ATOM      2  C   UNL     1      46.279   5.178 127.805  1.00  0.00     0.053 C 
BRANCH   2   3
ATOM      3  C   UNL     1      46.514   6.657 127.815  1.00  0.00     0.041 C 
ATOM      4  O   UNL     1      47.021   7.227 126.814  1.00  0.00    -0.550 OA
ATOM      5  O   UNL     1      46.143   7.412 128.922  1.00  0.00    -0.550 OA
ENDBRANCH   2   3
ENDBRANCH   1   2
BRANCH   1   6
ATOM      6  C   UNL     1      43.982   5.132 126.702  1.00  0.00     0.000 C 
BRANCH   6   7
ATOM      7  C   UNL     1      42.619   5.742 127.048  1.00  0.00    -0.003 C 
ATOM      8  C   UNL     1      42.659   6.451 128.398  1.00  0.00     0.004 C 
ENDBRANCH   6   7
ENDBRANCH   1   6
TORSDOF 4
ENDMDL
MODEL 2
REMARK VINA RESULT:    -3.500      1.115      1.547
REMARK INTER + INTRA:          -4.560
REMARK INTER:                  -4.361
REMARK INTRA:                  -0.200
REMARK UNBOUND:                -0.242
REMARK SMILES CCCCCC(=O)[O-]
REMARK SMILES IDX 4 1 5 2 6 3 7 4 8 5 3 6 2 7 1 8
REMARK H PARENT
REMARK Flexibility Score: inf
ROOT
ATOM      1  C   UNL     1      44.775   4.662 127.692  1.00  0.00     0.006 C 
ENDROOT
BRANCH   1   2
ATOM      2  C   UNL     1      46.225   5.134 127.874  1.00  0.00     0.053 C 
BRANCH   2   3
ATOM      3  C   UNL     1      46.418   5.837 129.182  1.00  0.00     0.041 C 
ATOM      4  O   UNL     1      46.672   5.179 130.225  1.00  0.00    -0.550 OA
ATOM      5  O   UNL     1      46.350   7.224 129.242  1.00  0.00    -0.550 OA
ENDBRANCH   2   3
ENDBRANCH   1   2
BRANCH   1   6
ATOM      6  C   UNL     1      43.990   5.555 126.721  1.00  0.00     0.000 C 
BRANCH   6   7
ATOM      7  C   UNL     1      42.606   5.894 127.285  1.00  0.00    -0.003 C 
ATOM      8  C   UNL     1      42.715   6.592 128.637  1.00  0.00     0.004 C 
ENDBRANCH   6   7
ENDBRANCH   1   6
TORSDOF 4
ENDMDL
MODEL 3
REMARK VINA RESULT:    -3.481      1.688      2.530
REMARK INTER + INTRA:          -4.537
REMARK INTER:                  -4.288
REMARK INTRA:                  -0.249
REMARK UNBOUND:                -0.242
REMARK SMILES CCCCCC(=O)[O-]
REMARK SMILES IDX 4 1 5 2 6 3 7 4 8 5 3 6 2 7 1 8
REMARK H PARENT
REMARK Flexibility Score: inf
ROOT
ATOM      1  C   UNL     1      44.743   7.442 128.239  1.00  0.00     0.006 C 
ENDROOT
BRANCH   1   2
ATOM      2  C   UNL     1      46.056   7.100 128.957  1.00  0.00     0.053 C 
BRANCH   2   3
ATOM      3  C   UNL     1      46.304   5.624 128.985  1.00  0.00     0.041 C 
ATOM      4  O   UNL     1      46.348   5.009 130.083  1.00  0.00    -0.550 OA
ATOM      5  O   UNL     1      46.455   4.921 127.796  1.00  0.00    -0.550 OA
ENDBRANCH   2   3
ENDBRANCH   1   2
BRANCH   1   6
ATOM      6  C   UNL     1      43.514   6.899 128.983  1.00  0.00     0.000 C 
BRANCH   6   7
ATOM      7  C   UNL     1      42.467   6.367 127.999  1.00  0.00    -0.003 C 
ATOM      8  C   UNL     1      43.122   5.599 126.856  1.00  0.00     0.004 C 
ENDBRANCH   6   7
ENDBRANCH   1   6
TORSDOF 4
ENDMDL
MODEL 4
REMARK VINA RESULT:    -3.470      1.379      2.157
REMARK INTER + INTRA:          -4.523
REMARK INTER:                  -4.315
REMARK INTRA:                  -0.209
REMARK UNBOUND:                -0.242
REMARK SMILES CCCCCC(=O)[O-]
REMARK SMILES IDX 4 1 5 2 6 3 7 4 8 5 3 6 2 7 1 8
REMARK H PARENT
REMARK Flexibility Score: inf
ROOT
ATOM      1  C   UNL     1      44.584   7.490 128.495  1.00  0.00     0.006 C 
ENDROOT
BRANCH   1   2
ATOM      2  C   UNL     1      45.936   6.944 128.975  1.00  0.00     0.053 C 
BRANCH   2   3
ATOM      3  C   UNL     1      46.642   6.186 127.893  1.00  0.00     0.041 C 
ATOM      4  O   UNL     1      46.477   4.944 127.776  1.00  0.00    -0.550 OA
ATOM      5  O   UNL     1      47.460   6.860 126.993  1.00  0.00    -0.550 OA
ENDBRANCH   2   3
ENDBRANCH   1   2
BRANCH   1   6
ATOM      6  C   UNL     1      43.402   6.667 129.026  1.00  0.00     0.000 C 
BRANCH   6   7
ATOM      7  C   UNL     1      42.407   6.347 127.905  1.00  0.00    -0.003 C 
ATOM      8  C   UNL     1      43.072   5.550 126.788  1.00  0.00     0.004 C 
ENDBRANCH   6   7
ENDBRANCH   1   6
TORSDOF 4
ENDMDL
MODEL 5
REMARK VINA RESULT:    -3.312      6.760      7.724
REMARK INTER + INTRA:          -4.328
REMARK INTER:                  -4.164
REMARK INTRA:                  -0.165
REMARK UNBOUND:                -0.242
REMARK SMILES CCCCCC(=O)[O-]
REMARK SMILES IDX 4 1 5 2 6 3 7 4 8 5 3 6 2 7 1 8
REMARK H PARENT
REMARK Flexibility Score: inf
ROOT
ATOM      1  C   UNL     1      44.266   3.142 132.390  1.00  0.00     0.006 C 
ENDROOT
BRANCH   1   2
ATOM      2  C   UNL     1      43.635   1.915 133.062  1.00  0.00     0.053 C 
BRANCH   2   3
ATOM      3  C   UNL     1      43.807   0.679 132.233  1.00  0.00     0.041 C 
ATOM      4  O   UNL     1      44.858  -0.007 132.328  1.00  0.00    -0.550 OA
ATOM      5  O   UNL     1      42.792   0.269 131.378  1.00  0.00    -0.550 OA
ENDBRANCH   2   3
ENDBRANCH   1   2
BRANCH   1   6
ATOM      6  C   UNL     1      45.257   3.866 133.313  1.00  0.00     0.000 C 
BRANCH   6   7
ATOM      7  C   UNL     1      46.173   2.866 134.027  1.00  0.00    -0.003 C 
ATOM      8  C   UNL     1      46.233   3.145 135.526  1.00  0.00     0.004 C 
ENDBRANCH   6   7
ENDBRANCH   1   6
TORSDOF 4
ENDMDL
MODEL 6
REMARK VINA RESULT:    -3.240      2.225      3.646
REMARK INTER + INTRA:          -4.240
REMARK INTER:                  -4.029
REMARK INTRA:                  -0.211
REMARK UNBOUND:                -0.242
REMARK SMILES CCCCCC(=O)[O-]
REMARK SMILES IDX 4 1 5 2 6 3 7 4 8 5 3 6 2 7 1 8
REMARK H PARENT
REMARK Flexibility Score: inf
ROOT
ATOM      1  C   UNL     1      45.330   4.788 127.893  1.00  0.00     0.006 C 
ENDROOT
BRANCH   1   2
ATOM      2  C   UNL     1      44.263   5.545 127.089  1.00  0.00     0.053 C 
BRANCH   2   3
ATOM      3  C   UNL     1      43.199   6.113 127.977  1.00  0.00     0.041 C 
ATOM      4  O   UNL     1      42.041   6.316 127.528  1.00  0.00    -0.550 OA
ATOM      5  O   UNL     1      43.480   6.388 129.310  1.00  0.00    -0.550 OA
ENDBRANCH   2   3
ENDBRANCH   1   2
BRANCH   1   6
ATOM      6  C   UNL     1      46.672   5.533 127.925  1.00  0.00     0.000 C 
BRANCH   6   7
ATOM      7  C   UNL     1      46.986   6.039 129.337  1.00  0.00    -0.003 C 
ATOM      8  C   UNL     1      46.682   4.973 130.385  1.00  0.00     0.004 C 
ENDBRANCH   6   7
ENDBRANCH   1   6
TORSDOF 4
ENDMDL
MODEL 7
REMARK VINA RESULT:    -3.230      2.015      3.657
REMARK INTER + INTRA:          -4.227
REMARK INTER:                  -4.016
REMARK INTRA:                  -0.211
REMARK UNBOUND:                -0.242
REMARK SMILES CCCCCC(=O)[O-]
REMARK SMILES IDX 4 1 5 2 6 3 7 4 8 5 3 6 2 7 1 8
REMARK H PARENT
REMARK Flexibility Score: inf
ROOT
ATOM      1  C   UNL     1      46.260   4.903 127.889  1.00  0.00     0.006 C 
ENDROOT
BRANCH   1   2
ATOM      2  C   UNL     1      44.755   4.600 127.873  1.00  0.00     0.053 C 
BRANCH   2   3
ATOM      3  C   UNL     1      44.018   5.505 126.935  1.00  0.00     0.041 C 
ATOM      4  O   UNL     1      44.622   6.055 125.977  1.00  0.00    -0.550 OA
ATOM      5  O   UNL     1      42.654   5.715 127.100  1.00  0.00    -0.550 OA
ENDBRANCH   2   3
ENDBRANCH   1   2
BRANCH   1   6
ATOM      6  C   UNL     1      46.700   5.598 129.185  1.00  0.00     0.000 C 
BRANCH   6   7
ATOM      7  C   UNL     1      47.329   6.964 128.890  1.00  0.00    -0.003 C 
ATOM      8  C   UNL     1      47.701   7.094 127.416  1.00  0.00     0.004 C 
ENDBRANCH   6   7
ENDBRANCH   1   6
TORSDOF 4
ENDMDL
MODEL 8
REMARK VINA RESULT:    -3.191      5.137      5.902
REMARK INTER + INTRA:          -4.179
REMARK INTER:                  -4.119
REMARK INTRA:                  -0.060
REMARK UNBOUND:                -0.242
REMARK SMILES CCCCCC(=O)[O-]
REMARK SMILES IDX 4 1 5 2 6 3 7 4 8 5 3 6 2 7 1 8
REMARK H PARENT
REMARK Flexibility Score: inf
ROOT
ATOM      1  C   UNL     1      45.923   3.676 132.189  1.00  0.00     0.006 C 
ENDROOT
BRANCH   1   2
ATOM      2  C   UNL     1      47.107   4.504 131.670  1.00  0.00     0.053 C 
BRANCH   2   3
ATOM      3  C   UNL     1      46.833   5.072 130.311  1.00  0.00     0.041 C 
ATOM      4  O   UNL     1      47.781   5.476 129.589  1.00  0.00    -0.550 OA
ATOM      5  O   UNL     1      45.530   5.126 129.831  1.00  0.00    -0.550 OA
ENDBRANCH   2   3
ENDBRANCH   1   2
BRANCH   1   6
ATOM      6  C   UNL     1      46.310   2.796 133.386  1.00  0.00     0.000 C 
BRANCH   6   7
ATOM      7  C   UNL     1      45.950   3.479 134.710  1.00  0.00    -0.003 C 
ATOM      8  C   UNL     1      46.506   2.704 135.900  1.00  0.00     0.004 C 
ENDBRANCH   6   7
ENDBRANCH   1   6
TORSDOF 4
ENDMDL
MODEL 9
REMARK VINA RESULT:    -3.187      5.395      6.057
REMARK INTER + INTRA:          -4.174
REMARK INTER:                  -4.069
REMARK INTRA:                  -0.105
REMARK UNBOUND:                -0.242
REMARK SMILES CCCCCC(=O)[O-]
REMARK SMILES IDX 4 1 5 2 6 3 7 4 8 5 3 6 2 7 1 8
REMARK H PARENT
REMARK Flexibility Score: inf
ROOT
ATOM      1  C   UNL     1      45.193   2.367 133.450  1.00  0.00     0.006 C 
ENDROOT
BRANCH   1   2
ATOM      2  C   UNL     1      45.819   3.757 133.263  1.00  0.00     0.053 C 
BRANCH   2   3
ATOM      3  C   UNL     1      46.566   3.859 131.969  1.00  0.00     0.041 C 
ATOM      4  O   UNL     1      47.685   3.299 131.837  1.00  0.00    -0.550 OA
ATOM      5  O   UNL     1      46.009   4.548 130.898  1.00  0.00    -0.550 OA
ENDBRANCH   2   3
ENDBRANCH   1   2
BRANCH   1   6
ATOM      6  C   UNL     1      43.946   2.169 132.577  1.00  0.00     0.000 C 
BRANCH   6   7
ATOM      7  C   UNL     1      43.809   0.707 132.138  1.00  0.00    -0.003 C 
ATOM      8  C   UNL     1      42.344   0.303 132.011  1.00  0.00     0.004 C 
ENDBRANCH   6   7
ENDBRANCH   1   6
TORSDOF 4
ENDMDL
