MODEL 1
REMARK VINA RESULT:    -4.228      0.000      0.000
REMARK INTER + INTRA:          -4.633
REMARK INTER:                  -4.598
REMARK INTRA:                  -0.035
REMARK UNBOUND:                -0.035
REMARK SMILES O=C([O-])c1ccc(O)cc1
REMARK SMILES IDX 4 1 5 2 10 3 6 4 9 5 7 6 2 7 1 8 3 9 8 10
REMARK H PARENT 8 11
REMARK Flexibility Score: inf
ROOT
ATOM      1  C   UNL     1     124.774 133.452 126.255  1.00  0.00    -0.003 A 
ATOM      2  C   UNL     1     125.761 133.660 125.273  1.00  0.00     0.014 A 
ATOM      3  C   UNL     1     123.870 132.387 126.096  1.00  0.00     0.014 A 
ATOM      4  C   UNL     1     125.840 132.820 124.159  1.00  0.00     0.047 A 
ATOM      5  C   UNL     1     123.951 131.549 124.980  1.00  0.00     0.047 A 
ATOM      6  C   UNL     1     124.938 131.763 124.009  1.00  0.00     0.115 A 
ENDROOT
BRANCH   1   7
ATOM      7  C   UNL     1     124.685 134.338 127.436  1.00  0.00     0.071 C 
ATOM      8  O   UNL     1     125.683 135.011 127.809  1.00  0.00    -0.545 OA
ATOM      9  O   UNL     1     123.498 134.441 128.152  1.00  0.00    -0.545 OA
ENDBRANCH   1   7
BRANCH   6  10
ATOM     10  O   UNL     1     125.028 130.934 122.893  1.00  0.00    -0.508 OA
ATOM     11  H   UNL     1     125.894 130.834 122.376  1.00  0.00     0.293 HD
ENDBRANCH   6  10
TORSDOF 2
ENDMDL
MODEL 2
REMARK VINA RESULT:    -4.197      0.057      1.533
REMARK INTER + INTRA:          -4.600
REMARK INTER:                  -4.565
REMARK INTRA:                  -0.035
REMARK UNBOUND:                -0.035
REMARK SMILES O=C([O-])c1ccc(O)cc1
REMARK SMILES IDX 4 1 5 2 10 3 6 4 9 5 7 6 2 7 1 8 3 9 8 10
REMARK H PARENT 8 11
REMARK Flexibility Score: inf
ROOT
ATOM      1  C   UNL     1     124.805 133.430 126.223  1.00  0.00    -0.003 A 
ATOM      2  C   UNL     1     123.881 132.380 126.062  1.00  0.00     0.014 A 
ATOM      3  C   UNL     1     125.799 133.618 125.246  1.00  0.00     0.014 A 
ATOM      4  C   UNL     1     123.952 131.540 124.948  1.00  0.00     0.047 A 
ATOM      5  C   UNL     1     125.866 132.775 124.132  1.00  0.00     0.047 A 
ATOM      6  C   UNL     1     124.941 131.734 123.981  1.00  0.00     0.115 A 
ENDROOT
BRANCH   1   7
ATOM      7  C   UNL     1     124.737 134.323 127.400  1.00  0.00     0.071 C 
ATOM      8  O   UNL     1     125.743 134.995 127.753  1.00  0.00    -0.545 OA
ATOM      9  O   UNL     1     123.562 134.433 128.134  1.00  0.00    -0.545 OA
ENDBRANCH   1   7
BRANCH   6  10
ATOM     10  O   UNL     1     124.999 130.888 122.875  1.00  0.00    -0.508 OA
ATOM     11  H   UNL     1     125.020 131.252 121.930  1.00  0.00     0.293 HD
ENDBRANCH   6  10
TORSDOF 2
ENDMDL
MODEL 3
REMARK VINA RESULT:    -3.991      1.148      4.323
REMARK INTER + INTRA:          -4.375
REMARK INTER:                  -4.340
REMARK INTRA:                  -0.035
REMARK UNBOUND:                -0.035
REMARK SMILES O=C([O-])c1ccc(O)cc1
REMARK SMILES IDX 4 1 5 2 10 3 6 4 9 5 7 6 2 7 1 8 3 9 8 10
REMARK H PARENT 8 11
REMARK Flexibility Score: inf
ROOT
ATOM      1  C   UNL     1     124.882 132.496 124.896  1.00  0.00    -0.003 A 
ATOM      2  C   UNL     1     123.784 131.850 125.493  1.00  0.00     0.014 A 
ATOM      3  C   UNL     1     125.573 133.481 125.625  1.00  0.00     0.014 A 
ATOM      4  C   UNL     1     123.387 132.182 126.791  1.00  0.00     0.047 A 
ATOM      5  C   UNL     1     125.173 133.811 126.924  1.00  0.00     0.047 A 
ATOM      6  C   UNL     1     124.079 133.161 127.510  1.00  0.00     0.115 A 
ENDROOT
BRANCH   1   7
ATOM      7  C   UNL     1     125.307 132.150 123.522  1.00  0.00     0.071 C 
ATOM      8  O   UNL     1     126.071 132.916 122.875  1.00  0.00    -0.545 OA
ATOM      9  O   UNL     1     124.870 130.973 122.925  1.00  0.00    -0.545 OA
ENDBRANCH   1   7
BRANCH   6  10
ATOM     10  O   UNL     1     123.672 133.482 128.804  1.00  0.00    -0.508 OA
ATOM     11  H   UNL     1     123.575 132.772 129.520  1.00  0.00     0.293 HD
ENDBRANCH   6  10
TORSDOF 2
ENDMDL
MODEL 4
REMARK VINA RESULT:    -3.896      1.135      4.057
REMARK INTER + INTRA:          -4.272
REMARK INTER:                  -4.237
REMARK INTRA:                  -0.035
REMARK UNBOUND:                -0.035
REMARK SMILES O=C([O-])c1ccc(O)cc1
REMARK SMILES IDX 4 1 5 2 10 3 6 4 9 5 7 6 2 7 1 8 3 9 8 10
REMARK H PARENT 8 11
REMARK Flexibility Score: inf
ROOT
ATOM      1  C   UNL     1     124.975 132.575 124.902  1.00  0.00    -0.003 A 
ATOM      2  C   UNL     1     125.638 133.555 125.664  1.00  0.00     0.014 A 
ATOM      3  C   UNL     1     123.869 131.910 125.462  1.00  0.00     0.014 A 
ATOM      4  C   UNL     1     125.204 133.861 126.956  1.00  0.00     0.047 A 
ATOM      5  C   UNL     1     123.437 132.219 126.755  1.00  0.00     0.047 A 
ATOM      6  C   UNL     1     124.104 133.197 127.505  1.00  0.00     0.115 A 
ENDROOT
BRANCH   1   7
ATOM      7  C   UNL     1     125.430 132.246 123.533  1.00  0.00     0.071 C 
ATOM      8  O   UNL     1     126.127 133.064 122.876  1.00  0.00    -0.545 OA
ATOM      9  O   UNL     1     125.095 131.028 122.954  1.00  0.00    -0.545 OA
ENDBRANCH   1   7
BRANCH   6  10
ATOM     10  O   UNL     1     123.682 133.513 128.795  1.00  0.00    -0.508 OA
ATOM     11  H   UNL     1     124.324 133.506 129.579  1.00  0.00     0.293 HD
ENDBRANCH   6  10
TORSDOF 2
ENDMDL
MODEL 5
REMARK VINA RESULT:    -3.416      1.792      2.062
REMARK INTER + INTRA:          -3.751
REMARK INTER:                  -3.722
REMARK INTRA:                  -0.029
REMARK UNBOUND:                -0.035
REMARK SMILES O=C([O-])c1ccc(O)cc1
REMARK SMILES IDX 4 1 5 2 10 3 6 4 9 5 7 6 2 7 1 8 3 9 8 10
REMARK H PARENT 8 11
REMARK Flexibility Score: inf
ROOT
ATOM      1  C   UNL     1     124.022 133.836 127.428  1.00  0.00    -0.003 A 
ATOM      2  C   UNL     1     125.095 134.606 126.942  1.00  0.00     0.014 A 
ATOM      3  C   UNL     1     123.835 132.536 126.927  1.00  0.00     0.014 A 
ATOM      4  C   UNL     1     125.961 134.084 125.977  1.00  0.00     0.047 A 
ATOM      5  C   UNL     1     124.702 132.017 125.961  1.00  0.00     0.047 A 
ATOM      6  C   UNL     1     125.769 132.790 125.484  1.00  0.00     0.115 A 
ENDROOT
BRANCH   1   7
ATOM      7  C   UNL     1     123.102 134.383 128.449  1.00  0.00     0.071 C 
ATOM      8  O   UNL     1     122.960 133.803 129.559  1.00  0.00    -0.545 OA
ATOM      9  O   UNL     1     122.381 135.544 128.199  1.00  0.00    -0.545 OA
ENDBRANCH   1   7
BRANCH   6  10
ATOM     10  O   UNL     1     126.640 132.283 124.522  1.00  0.00    -0.508 OA
ATOM     11  H   UNL     1     127.108 131.393 124.648  1.00  0.00     0.293 HD
ENDBRANCH   6  10
TORSDOF 2
ENDMDL
MODEL 6
REMARK VINA RESULT:    -2.630      2.597      2.934
REMARK INTER + INTRA:          -2.895
REMARK INTER:                  -2.865
REMARK INTRA:                  -0.030
REMARK UNBOUND:                -0.035
REMARK SMILES O=C([O-])c1ccc(O)cc1
REMARK SMILES IDX 4 1 5 2 10 3 6 4 9 5 7 6 2 7 1 8 3 9 8 10
REMARK H PARENT 8 11
REMARK Flexibility Score: inf
ROOT
ATOM      1  C   UNL     1     123.492 134.491 127.864  1.00  0.00    -0.003 A 
ATOM      2  C   UNL     1     124.736 134.954 127.396  1.00  0.00     0.014 A 
ATOM      3  C   UNL     1     123.256 133.106 127.915  1.00  0.00     0.014 A 
ATOM      4  C   UNL     1     125.720 134.049 126.989  1.00  0.00     0.047 A 
ATOM      5  C   UNL     1     124.243 132.203 127.507  1.00  0.00     0.047 A 
ATOM      6  C   UNL     1     125.479 132.673 127.043  1.00  0.00     0.115 A 
ENDROOT
BRANCH   1   7
ATOM      7  C   UNL     1     122.446 135.443 128.296  1.00  0.00     0.071 C 
ATOM      8  O   UNL     1     122.714 136.360 129.118  1.00  0.00    -0.545 OA
ATOM      9  O   UNL     1     121.151 135.341 127.800  1.00  0.00    -0.545 OA
ENDBRANCH   1   7
BRANCH   6  10
ATOM     10  O   UNL     1     126.469 131.783 126.634  1.00  0.00    -0.508 OA
ATOM     11  H   UNL     1     127.361 131.727 127.112  1.00  0.00     0.293 HD
ENDBRANCH   6  10
TORSDOF 2
ENDMDL
MODEL 7
REMARK VINA RESULT:    -1.700      2.148      4.513
REMARK INTER + INTRA:          -1.884
REMARK INTER:                  -1.857
REMARK INTRA:                  -0.027
REMARK UNBOUND:                -0.035
REMARK SMILES O=C([O-])c1ccc(O)cc1
REMARK SMILES IDX 4 1 5 2 10 3 6 4 9 5 7 6 2 7 1 8 3 9 8 10
REMARK H PARENT 8 11
REMARK Flexibility Score: inf
ROOT
ATOM      1  C   UNL     1     124.861 133.333 126.903  1.00  0.00    -0.003 A 
ATOM      2  C   UNL     1     123.611 132.717 127.094  1.00  0.00     0.014 A 
ATOM      3  C   UNL     1     125.084 134.608 127.454  1.00  0.00     0.014 A 
ATOM      4  C   UNL     1     122.607 133.363 127.820  1.00  0.00     0.047 A 
ATOM      5  C   UNL     1     124.077 135.251 128.180  1.00  0.00     0.047 A 
ATOM      6  C   UNL     1     122.836 134.629 128.366  1.00  0.00     0.115 A 
ENDROOT
BRANCH   1   7
ATOM      7  C   UNL     1     125.928 132.655 126.134  1.00  0.00     0.071 C 
ATOM      8  O   UNL     1     126.085 132.896 124.908  1.00  0.00    -0.545 OA
ATOM      9  O   UNL     1     126.773 131.743 126.756  1.00  0.00    -0.545 OA
ENDBRANCH   1   7
BRANCH   6  10
ATOM     10  O   UNL     1     121.825 135.261 129.088  1.00  0.00    -0.508 OA
ATOM     11  H   UNL     1     121.957 136.183 129.487  1.00  0.00     0.293 HD
ENDBRANCH   6  10
TORSDOF 2
ENDMDL
