MODEL 1
REMARK VINA RESULT:    -3.525      0.000      0.000
REMARK INTER + INTRA:          -4.784
REMARK INTER:                  -4.555
REMARK INTRA:                  -0.229
REMARK UNBOUND:                -0.229
REMARK SMILES CCCCCCC(=O)[O-]
REMARK SMILES IDX 5 1 6 2 7 3 8 4 9 5 4 6 3 7 2 8 1 9
REMARK H PARENT
REMARK Flexibility Score: inf
ROOT
ATOM      1  C   UNL     1      23.787   6.563  10.286  1.00  0.00     0.006 C 
ENDROOT
BRANCH   1   2
ATOM      2  C   UNL     1      22.638   7.567  10.443  1.00  0.00     0.053 C 
BRANCH   2   3
ATOM      3  C   UNL     1      21.998   7.471  11.793  1.00  0.00     0.041 C 
ATOM      4  O   UNL     1      22.576   6.855  12.727  1.00  0.00    -0.550 OA
ATOM      5  O   UNL     1      20.777   8.091  12.031  1.00  0.00    -0.550 OA
ENDBRANCH   2   3
ENDBRANCH   1   2
BRANCH   1   6
ATOM      6  C   UNL     1      24.493   6.696   8.925  1.00  0.00     0.000 C 
BRANCH   6   7
ATOM      7  C   UNL     1      24.161   5.537   7.971  1.00  0.00    -0.000 C 
BRANCH   7   8
ATOM      8  C   UNL     1      23.471   4.366   8.685  1.00  0.00    -0.003 C 
ATOM      9  C   UNL     1      22.126   4.046   8.039  1.00  0.00     0.004 C 
ENDBRANCH   7   8
ENDBRANCH   6   7
ENDBRANCH   1   6
TORSDOF 5
ENDMDL
MODEL 2
REMARK VINA RESULT:    -3.436      6.062      7.726
REMARK INTER + INTRA:          -4.669
REMARK INTER:                  -4.448
REMARK INTRA:                  -0.222
REMARK UNBOUND:                -0.229
REMARK SMILES CCCCCCC(=O)[O-]
REMARK SMILES IDX 5 1 6 2 7 3 8 4 9 5 4 6 3 7 2 8 1 9
REMARK H PARENT
REMARK Flexibility Score: inf
ROOT
ATOM      1  C   UNL     1      24.014   7.222  16.084  1.00  0.00     0.006 C 
ENDROOT
BRANCH   1   2
ATOM      2  C   UNL     1      25.009   6.164  15.589  1.00  0.00     0.053 C 
BRANCH   2   3
ATOM      3  C   UNL     1      26.131   6.779  14.811  1.00  0.00     0.041 C 
ATOM      4  O   UNL     1      27.305   6.756  15.266  1.00  0.00    -0.550 OA
ATOM      5  O   UNL     1      25.885   7.350  13.569  1.00  0.00    -0.550 OA
ENDBRANCH   2   3
ENDBRANCH   1   2
BRANCH   1   6
ATOM      6  C   UNL     1      22.786   6.591  16.765  1.00  0.00     0.000 C 
BRANCH   6   7
ATOM      7  C   UNL     1      23.095   6.078  18.181  1.00  0.00    -0.000 C 
BRANCH   7   8
ATOM      8  C   UNL     1      22.983   4.551  18.292  1.00  0.00    -0.003 C 
ATOM      9  C   UNL     1      24.259   3.948  18.872  1.00  0.00     0.004 C 
ENDBRANCH   7   8
ENDBRANCH   6   7
ENDBRANCH   1   6
TORSDOF 5
ENDMDL
MODEL 3
REMARK VINA RESULT:    -3.433      5.498      6.678
REMARK INTER + INTRA:          -4.666
REMARK INTER:                  -4.482
REMARK INTRA:                  -0.185
REMARK UNBOUND:                -0.229
REMARK SMILES CCCCCCC(=O)[O-]
REMARK SMILES IDX 5 1 6 2 7 3 8 4 9 5 4 6 3 7 2 8 1 9
REMARK H PARENT
REMARK Flexibility Score: inf
ROOT
ATOM      1  C   UNL     1      25.658   5.903  15.342  1.00  0.00     0.006 C 
ENDROOT
BRANCH   1   2
ATOM      2  C   UNL     1      27.083   6.249  14.894  1.00  0.00     0.053 C 
BRANCH   2   3
ATOM      3  C   UNL     1      27.185   6.355  13.404  1.00  0.00     0.041 C 
ATOM      4  O   UNL     1      26.640   5.490  12.668  1.00  0.00    -0.550 OA
ATOM      5  O   UNL     1      27.854   7.427  12.826  1.00  0.00    -0.550 OA
ENDBRANCH   2   3
ENDBRANCH   1   2
BRANCH   1   6
ATOM      6  C   UNL     1      24.725   7.127  15.304  1.00  0.00     0.000 C 
BRANCH   6   7
ATOM      7  C   UNL     1      23.724   7.144  16.471  1.00  0.00    -0.000 C 
BRANCH   7   8
ATOM      8  C   UNL     1      22.474   6.299  16.189  1.00  0.00    -0.003 C 
ATOM      9  C   UNL     1      21.855   6.667  14.844  1.00  0.00     0.004 C 
ENDBRANCH   7   8
ENDBRANCH   6   7
ENDBRANCH   1   6
TORSDOF 5
ENDMDL
MODEL 4
REMARK VINA RESULT:    -3.394      7.652      8.798
REMARK INTER + INTRA:          -4.615
REMARK INTER:                  -4.420
REMARK INTRA:                  -0.195
REMARK UNBOUND:                -0.229
REMARK SMILES CCCCCCC(=O)[O-]
REMARK SMILES IDX 5 1 6 2 7 3 8 4 9 5 4 6 3 7 2 8 1 9
REMARK H PARENT
REMARK Flexibility Score: inf
ROOT
ATOM      1  C   UNL     1      28.982   6.683  15.426  1.00  0.00     0.006 C 
ENDROOT
BRANCH   1   2
ATOM      2  C   UNL     1      27.968   5.969  14.523  1.00  0.00     0.053 C 
BRANCH   2   3
ATOM      3  C   UNL     1      27.345   6.909  13.537  1.00  0.00     0.041 C 
ATOM      4  O   UNL     1      28.044   7.429  12.628  1.00  0.00    -0.550 OA
ATOM      5  O   UNL     1      25.985   7.184  13.603  1.00  0.00    -0.550 OA
ENDBRANCH   2   3
ENDBRANCH   1   2
BRANCH   1   6
ATOM      6  C   UNL     1      29.906   5.693  16.157  1.00  0.00     0.000 C 
BRANCH   6   7
ATOM      7  C   UNL     1      30.268   6.160  17.576  1.00  0.00    -0.000 C 
BRANCH   7   8
ATOM      8  C   UNL     1      29.973   5.095  18.641  1.00  0.00    -0.003 C 
ATOM      9  C   UNL     1      28.722   4.296  18.286  1.00  0.00     0.004 C 
ENDBRANCH   7   8
ENDBRANCH   6   7
ENDBRANCH   1   6
TORSDOF 5
ENDMDL
MODEL 5
REMARK VINA RESULT:    -3.384      3.444      4.227
REMARK INTER + INTRA:          -4.602
REMARK INTER:                  -4.457
REMARK INTRA:                  -0.145
REMARK UNBOUND:                -0.229
REMARK SMILES CCCCCCC(=O)[O-]
REMARK SMILES IDX 5 1 6 2 7 3 8 4 9 5 4 6 3 7 2 8 1 9
REMARK H PARENT
REMARK Flexibility Score: inf
ROOT
ATOM      1  C   UNL     1      20.447   6.211  10.106  1.00  0.00     0.006 C 
ENDROOT
BRANCH   1   2
ATOM      2  C   UNL     1      21.707   7.085  10.058  1.00  0.00     0.053 C 
BRANCH   2   3
ATOM      3  C   UNL     1      22.127   7.526  11.425  1.00  0.00     0.041 C 
ATOM      4  O   UNL     1      23.343   7.503  11.753  1.00  0.00    -0.550 OA
ATOM      5  O   UNL     1      21.181   7.995  12.327  1.00  0.00    -0.550 OA
ENDBRANCH   2   3
ENDBRANCH   1   2
BRANCH   1   6
ATOM      6  C   UNL     1      19.209   6.946   9.561  1.00  0.00     0.000 C 
BRANCH   6   7
ATOM      7  C   UNL     1      18.492   6.157   8.454  1.00  0.00    -0.000 C 
BRANCH   7   8
ATOM      8  C   UNL     1      17.758   7.068   7.461  1.00  0.00    -0.003 C 
ATOM      9  C   UNL     1      17.014   8.185   8.187  1.00  0.00     0.004 C 
ENDBRANCH   7   8
ENDBRANCH   6   7
ENDBRANCH   1   6
TORSDOF 5
ENDMDL
MODEL 6
REMARK VINA RESULT:    -3.361      7.439      8.570
REMARK INTER + INTRA:          -4.573
REMARK INTER:                  -4.433
REMARK INTRA:                  -0.139
REMARK UNBOUND:                -0.229
REMARK SMILES CCCCCCC(=O)[O-]
REMARK SMILES IDX 5 1 6 2 7 3 8 4 9 5 4 6 3 7 2 8 1 9
REMARK H PARENT
REMARK Flexibility Score: inf
ROOT
ATOM      1  C   UNL     1      29.410   6.554  14.966  1.00  0.00     0.006 C 
ENDROOT
BRANCH   1   2
ATOM      2  C   UNL     1      28.033   6.068  14.495  1.00  0.00     0.053 C 
BRANCH   2   3
ATOM      3  C   UNL     1      27.471   6.949  13.422  1.00  0.00     0.041 C 
ATOM      4  O   UNL     1      26.226   7.106  13.318  1.00  0.00    -0.550 OA
ATOM      5  O   UNL     1      28.324   7.624  12.558  1.00  0.00    -0.550 OA
ENDBRANCH   2   3
ENDBRANCH   1   2
BRANCH   1   6
ATOM      6  C   UNL     1      29.771   6.011  16.360  1.00  0.00     0.000 C 
BRANCH   6   7
ATOM      7  C   UNL     1      28.854   4.859  16.801  1.00  0.00    -0.000 C 
BRANCH   7   8
ATOM      8  C   UNL     1      28.985   4.540  18.297  1.00  0.00    -0.003 C 
ATOM      9  C   UNL     1      27.988   3.465  18.719  1.00  0.00     0.004 C 
ENDBRANCH   7   8
ENDBRANCH   6   7
ENDBRANCH   1   6
TORSDOF 5
ENDMDL
MODEL 7
REMARK VINA RESULT:    -3.331      3.621      4.562
REMARK INTER + INTRA:          -4.534
REMARK INTER:                  -4.365
REMARK INTRA:                  -0.169
REMARK UNBOUND:                -0.229
REMARK SMILES CCCCCCC(=O)[O-]
REMARK SMILES IDX 5 1 6 2 7 3 8 4 9 5 4 6 3 7 2 8 1 9
REMARK H PARENT
REMARK Flexibility Score: inf
ROOT
ATOM      1  C   UNL     1      20.124   6.461  10.633  1.00  0.00     0.006 C 
ENDROOT
BRANCH   1   2
ATOM      2  C   UNL     1      21.537   6.144  10.124  1.00  0.00     0.053 C 
BRANCH   2   3
ATOM      3  C   UNL     1      22.488   7.269  10.391  1.00  0.00     0.041 C 
ATOM      4  O   UNL     1      23.580   7.338   9.768  1.00  0.00    -0.550 OA
ATOM      5  O   UNL     1      22.154   8.260  11.305  1.00  0.00    -0.550 OA
ENDBRANCH   2   3
ENDBRANCH   1   2
BRANCH   1   6
ATOM      6  C   UNL     1      19.132   6.694   9.480  1.00  0.00     0.000 C 
BRANCH   6   7
ATOM      7  C   UNL     1      18.367   8.020   9.617  1.00  0.00    -0.000 C 
BRANCH   7   8
ATOM      8  C   UNL     1      17.319   8.214   8.512  1.00  0.00    -0.003 C 
ATOM      9  C   UNL     1      17.555   7.245   7.357  1.00  0.00     0.004 C 
ENDBRANCH   7   8
ENDBRANCH   6   7
ENDBRANCH   1   6
TORSDOF 5
ENDMDL
MODEL 8
REMARK VINA RESULT:    -3.305      4.380      5.719
REMARK INTER + INTRA:          -4.500
REMARK INTER:                  -4.324
REMARK INTRA:                  -0.177
REMARK UNBOUND:                -0.229
REMARK SMILES CCCCCCC(=O)[O-]
REMARK SMILES IDX 5 1 6 2 7 3 8 4 9 5 4 6 3 7 2 8 1 9
REMARK H PARENT
REMARK Flexibility Score: inf
ROOT
ATOM      1  C   UNL     1      22.672   6.462  15.443  1.00  0.00     0.006 C 
ENDROOT
BRANCH   1   2
ATOM      2  C   UNL     1      22.582   6.542  13.914  1.00  0.00     0.053 C 
BRANCH   2   3
ATOM      3  C   UNL     1      21.331   7.234  13.467  1.00  0.00     0.041 C 
ATOM      4  O   UNL     1      20.327   7.280  14.226  1.00  0.00    -0.550 OA
ATOM      5  O   UNL     1      21.285   7.857  12.227  1.00  0.00    -0.550 OA
ENDBRANCH   2   3
ENDBRANCH   1   2
BRANCH   1   6
ATOM      6  C   UNL     1      23.924   7.172  15.989  1.00  0.00     0.000 C 
BRANCH   6   7
ATOM      7  C   UNL     1      25.134   7.041  15.050  1.00  0.00    -0.000 C 
BRANCH   7   8
ATOM      8  C   UNL     1      26.041   5.858  15.419  1.00  0.00    -0.003 C 
ATOM      9  C   UNL     1      27.508   6.191  15.166  1.00  0.00     0.004 C 
ENDBRANCH   7   8
ENDBRANCH   6   7
ENDBRANCH   1   6
TORSDOF 5
ENDMDL
MODEL 9
REMARK VINA RESULT:    -3.147      3.027      4.287
REMARK INTER + INTRA:          -4.296
REMARK INTER:                  -4.047
REMARK INTRA:                  -0.249
REMARK UNBOUND:                -0.229
REMARK SMILES CCCCCCC(=O)[O-]
REMARK SMILES IDX 5 1 6 2 7 3 8 4 9 5 4 6 3 7 2 8 1 9
REMARK H PARENT
REMARK Flexibility Score: inf
ROOT
ATOM      1  C   UNL     1      24.162   5.522  13.284  1.00  0.00     0.006 C 
ENDROOT
BRANCH   1   2
ATOM      2  C   UNL     1      25.545   5.674  12.635  1.00  0.00     0.053 C 
BRANCH   2   3
ATOM      3  C   UNL     1      26.392   6.671  13.364  1.00  0.00     0.041 C 
ATOM      4  O   UNL     1      26.083   7.033  14.530  1.00  0.00    -0.550 OA
ATOM      5  O   UNL     1      27.542   7.174  12.769  1.00  0.00    -0.550 OA
ENDBRANCH   2   3
ENDBRANCH   1   2
BRANCH   1   6
ATOM      6  C   UNL     1      23.026   5.928  12.329  1.00  0.00     0.000 C 
BRANCH   6   7
ATOM      7  C   UNL     1      23.380   7.159  11.479  1.00  0.00    -0.000 C 
BRANCH   7   8
ATOM      8  C   UNL     1      23.173   6.918   9.977  1.00  0.00    -0.003 C 
ATOM      9  C   UNL     1      24.507   6.867   9.240  1.00  0.00     0.004 C 
ENDBRANCH   7   8
ENDBRANCH   6   7
ENDBRANCH   1   6
TORSDOF 5
ENDMDL
