MODEL 1
REMARK VINA RESULT:    -6.091      0.000      0.000
REMARK INTER + INTRA:          -8.072
REMARK INTER:                  -7.694
REMARK INTRA:                  -0.378
REMARK UNBOUND:                -0.378
REMARK SMILES O=C(C=Cc1ccc(O)cc1)c1ccc(O)cc1O
REMARK SMILES IDX 4 1 3 2 5 3 6 4 7 5 8 6 11 7 10 8 9 9 2 11 1 12 12 13 18 14
REMARK SMILES IDX 13 15 17 16 14 17 15 18 19 19 16 21
REMARK H PARENT 9 10 19 20 16 22
REMARK Flexibility Score: inf
ROOT
ATOM      1  C   UNL     1     -32.034 -22.318 -35.631  1.00  0.00     0.012 C 
ATOM      2  C   UNL     1     -31.360 -22.146 -34.484  1.00  0.00     0.053 C 
ENDROOT
BRANCH   1   3
ATOM      3  C   UNL     1     -31.985 -23.565 -36.433  1.00  0.00    -0.025 A 
ATOM      4  C   UNL     1     -30.861 -23.927 -37.205  1.00  0.00     0.012 A 
ATOM      5  C   UNL     1     -30.869 -25.107 -37.955  1.00  0.00     0.047 A 
ATOM      6  C   UNL     1     -31.998 -25.936 -37.953  1.00  0.00     0.115 A 
ATOM      7  C   UNL     1     -33.117 -24.397 -36.453  1.00  0.00     0.012 A 
ATOM      8  C   UNL     1     -33.120 -25.576 -37.202  1.00  0.00     0.047 A 
BRANCH   6   9
ATOM      9  O   UNL     1     -32.014 -27.115 -38.695  1.00  0.00    -0.508 OA
ATOM     10  H   UNL     1     -32.406 -27.147 -39.629  1.00  0.00     0.293 HD
ENDBRANCH   6   9
ENDBRANCH   1   3
BRANCH   2  11
ATOM     11  C   UNL     1     -31.446 -20.892 -33.702  1.00  0.00     0.189 C 
ATOM     12  O   UNL     1     -32.363 -20.060 -33.946  1.00  0.00    -0.289 OA
BRANCH  11  13
ATOM     13  C   UNL     1     -30.499 -20.616 -32.595  1.00  0.00     0.064 A 
ATOM     14  C   UNL     1     -29.158 -20.241 -32.837  1.00  0.00     0.130 A 
ATOM     15  C   UNL     1     -30.955 -20.703 -31.269  1.00  0.00     0.020 A 
ATOM     16  C   UNL     1     -28.294 -20.003 -31.758  1.00  0.00     0.093 A 
ATOM     17  C   UNL     1     -30.088 -20.458 -30.201  1.00  0.00     0.047 A 
ATOM     18  C   UNL     1     -28.757 -20.113 -30.441  1.00  0.00     0.119 A 
BRANCH  14  19
ATOM     19  O   UNL     1     -28.691 -20.079 -34.141  1.00  0.00    -0.507 OA
ATOM     20  H   UNL     1     -27.907 -19.474 -34.355  1.00  0.00     0.293 HD
ENDBRANCH  14  19
BRANCH  18  21
ATOM     21  O   UNL     1     -27.904 -19.875 -29.366  1.00  0.00    -0.508 OA
ATOM     22  H   UNL     1     -27.058 -20.418 -29.230  1.00  0.00     0.293 HD
ENDBRANCH  18  21
ENDBRANCH  11  13
ENDBRANCH   2  11
TORSDOF 6
ENDMDL
MODEL 2
REMARK VINA RESULT:    -5.649      1.773      7.316
REMARK INTER + INTRA:          -7.514
REMARK INTER:                  -6.923
REMARK INTRA:                  -0.591
REMARK UNBOUND:                -0.378
REMARK SMILES O=C(C=Cc1ccc(O)cc1)c1ccc(O)cc1O
REMARK SMILES IDX 4 1 3 2 5 3 6 4 7 5 8 6 11 7 10 8 9 9 2 11 1 12 12 13 18 14
REMARK SMILES IDX 13 15 17 16 14 17 15 18 19 19 16 21
REMARK H PARENT 9 10 19 20 16 22
REMARK Flexibility Score: inf
ROOT
ATOM      1  C   UNL     1     -31.767 -22.351 -34.544  1.00  0.00     0.012 C 
ATOM      2  C   UNL     1     -32.666 -21.684 -35.282  1.00  0.00     0.053 C 
ENDROOT
BRANCH   1   3
ATOM      3  C   UNL     1     -31.193 -21.828 -33.280  1.00  0.00    -0.025 A 
ATOM      4  C   UNL     1     -30.852 -22.667 -32.198  1.00  0.00     0.012 A 
ATOM      5  C   UNL     1     -30.326 -22.125 -31.021  1.00  0.00     0.047 A 
ATOM      6  C   UNL     1     -30.141 -20.742 -30.903  1.00  0.00     0.115 A 
ATOM      7  C   UNL     1     -31.019 -20.441 -33.142  1.00  0.00     0.012 A 
ATOM      8  C   UNL     1     -30.491 -19.904 -31.965  1.00  0.00     0.047 A 
BRANCH   6   9
ATOM      9  O   UNL     1     -29.616 -20.193 -29.735  1.00  0.00    -0.508 OA
ATOM     10  H   UNL     1     -29.852 -20.564 -28.823  1.00  0.00     0.293 HD
ENDBRANCH   6   9
ENDBRANCH   1   3
BRANCH   2  11
ATOM     11  C   UNL     1     -33.230 -22.245 -36.531  1.00  0.00     0.189 C 
ATOM     12  O   UNL     1     -34.125 -21.612 -37.156  1.00  0.00    -0.289 OA
BRANCH  11  13
ATOM     13  C   UNL     1     -32.726 -23.522 -37.091  1.00  0.00     0.064 A 
ATOM     14  C   UNL     1     -31.624 -23.565 -37.973  1.00  0.00     0.130 A 
ATOM     15  C   UNL     1     -33.346 -24.725 -36.712  1.00  0.00     0.020 A 
ATOM     16  C   UNL     1     -31.191 -24.796 -38.490  1.00  0.00     0.093 A 
ATOM     17  C   UNL     1     -32.903 -25.945 -37.227  1.00  0.00     0.047 A 
ATOM     18  C   UNL     1     -31.830 -25.984 -38.119  1.00  0.00     0.119 A 
BRANCH  14  19
ATOM     19  O   UNL     1     -30.944 -22.397 -38.317  1.00  0.00    -0.507 OA
ATOM     20  H   UNL     1     -30.517 -22.277 -39.228  1.00  0.00     0.293 HD
ENDBRANCH  14  19
BRANCH  18  21
ATOM     21  O   UNL     1     -31.403 -27.209 -38.627  1.00  0.00    -0.508 OA
ATOM     22  H   UNL     1     -32.018 -28.015 -38.656  1.00  0.00     0.293 HD
ENDBRANCH  18  21
ENDBRANCH  11  13
ENDBRANCH   2  11
TORSDOF 6
ENDMDL
MODEL 3
REMARK VINA RESULT:    -5.534      1.622      7.571
REMARK INTER + INTRA:          -7.368
REMARK INTER:                  -6.810
REMARK INTRA:                  -0.559
REMARK UNBOUND:                -0.378
REMARK SMILES O=C(C=Cc1ccc(O)cc1)c1ccc(O)cc1O
REMARK SMILES IDX 4 1 3 2 5 3 6 4 7 5 8 6 11 7 10 8 9 9 2 11 1 12 12 13 18 14
REMARK SMILES IDX 13 15 17 16 14 17 15 18 19 19 16 21
REMARK H PARENT 9 10 19 20 16 22
REMARK Flexibility Score: inf
ROOT
ATOM      1  C   UNL     1     -31.256 -20.230 -33.695  1.00  0.00     0.012 C 
ATOM      2  C   UNL     1     -32.162 -21.200 -33.889  1.00  0.00     0.053 C 
ENDROOT
BRANCH   1   3
ATOM      3  C   UNL     1     -30.374 -20.155 -32.505  1.00  0.00    -0.025 A 
ATOM      4  C   UNL     1     -30.871 -20.232 -31.187  1.00  0.00     0.012 A 
ATOM      5  C   UNL     1     -30.000 -20.143 -30.097  1.00  0.00     0.047 A 
ATOM      6  C   UNL     1     -28.626 -19.967 -30.305  1.00  0.00     0.115 A 
ATOM      7  C   UNL     1     -28.996 -19.962 -32.699  1.00  0.00     0.012 A 
ATOM      8  C   UNL     1     -28.129 -19.875 -31.607  1.00  0.00     0.047 A 
BRANCH   6   9
ATOM      9  O   UNL     1     -27.751 -19.879 -29.225  1.00  0.00    -0.508 OA
ATOM     10  H   UNL     1     -27.978 -20.283 -28.324  1.00  0.00     0.293 HD
ENDBRANCH   6   9
ENDBRANCH   1   3
BRANCH   2  11
ATOM     11  C   UNL     1     -33.014 -21.252 -35.098  1.00  0.00     0.189 C 
ATOM     12  O   UNL     1     -33.943 -20.413 -35.248  1.00  0.00    -0.289 OA
BRANCH  11  13
ATOM     13  C   UNL     1     -32.762 -22.247 -36.168  1.00  0.00     0.064 A 
ATOM     14  C   UNL     1     -33.176 -22.030 -37.501  1.00  0.00     0.130 A 
ATOM     15  C   UNL     1     -32.069 -23.429 -35.852  1.00  0.00     0.020 A 
ATOM     16  C   UNL     1     -32.930 -23.007 -38.477  1.00  0.00     0.093 A 
ATOM     17  C   UNL     1     -31.823 -24.393 -36.832  1.00  0.00     0.047 A 
ATOM     18  C   UNL     1     -32.255 -24.188 -38.143  1.00  0.00     0.119 A 
BRANCH  14  19
ATOM     19  O   UNL     1     -33.806 -20.839 -37.863  1.00  0.00    -0.507 OA
ATOM     20  H   UNL     1     -33.905 -20.070 -37.211  1.00  0.00     0.293 HD
ENDBRANCH  14  19
BRANCH  18  21
ATOM     21  O   UNL     1     -32.005 -25.160 -39.109  1.00  0.00    -0.508 OA
ATOM     22  H   UNL     1     -31.204 -25.100 -39.728  1.00  0.00     0.293 HD
ENDBRANCH  18  21
ENDBRANCH  11  13
ENDBRANCH   2  11
TORSDOF 6
ENDMDL
MODEL 4
REMARK VINA RESULT:    -4.926      1.540      7.357
REMARK INTER + INTRA:          -6.600
REMARK INTER:                  -6.566
REMARK INTRA:                  -0.034
REMARK UNBOUND:                -0.378
REMARK SMILES O=C(C=Cc1ccc(O)cc1)c1ccc(O)cc1O
REMARK SMILES IDX 4 1 3 2 5 3 6 4 7 5 8 6 11 7 10 8 9 9 2 11 1 12 12 13 18 14
REMARK SMILES IDX 13 15 17 16 14 17 15 18 19 19 16 21
REMARK H PARENT 9 10 19 20 16 22
REMARK Flexibility Score: inf
ROOT
ATOM      1  C   UNL     1     -31.418 -21.595 -33.446  1.00  0.00     0.012 C 
ATOM      2  C   UNL     1     -31.977 -20.799 -34.369  1.00  0.00     0.053 C 
ENDROOT
BRANCH   1   3
ATOM      3  C   UNL     1     -30.462 -21.116 -32.418  1.00  0.00    -0.025 A 
ATOM      4  C   UNL     1     -29.362 -20.290 -32.732  1.00  0.00     0.012 A 
ATOM      5  C   UNL     1     -28.481 -19.875 -31.729  1.00  0.00     0.047 A 
ATOM      6  C   UNL     1     -28.677 -20.285 -30.404  1.00  0.00     0.115 A 
ATOM      7  C   UNL     1     -30.637 -21.534 -31.089  1.00  0.00     0.012 A 
ATOM      8  C   UNL     1     -29.755 -21.116 -30.089  1.00  0.00     0.047 A 
BRANCH   6   9
ATOM      9  O   UNL     1     -27.805 -19.875 -29.398  1.00  0.00    -0.508 OA
ATOM     10  H   UNL     1     -28.094 -19.842 -28.428  1.00  0.00     0.293 HD
ENDBRANCH   6   9
ENDBRANCH   1   3
BRANCH   2  11
ATOM     11  C   UNL     1     -32.941 -21.310 -35.370  1.00  0.00     0.189 C 
ATOM     12  O   UNL     1     -34.057 -20.740 -35.515  1.00  0.00    -0.289 OA
BRANCH  11  13
ATOM     13  C   UNL     1     -32.598 -22.455 -36.246  1.00  0.00     0.064 A 
ATOM     14  C   UNL     1     -32.541 -23.779 -35.755  1.00  0.00     0.130 A 
ATOM     15  C   UNL     1     -32.348 -22.221 -37.609  1.00  0.00     0.020 A 
ATOM     16  C   UNL     1     -32.198 -24.830 -36.619  1.00  0.00     0.093 A 
ATOM     17  C   UNL     1     -32.013 -23.275 -38.462  1.00  0.00     0.047 A 
ATOM     18  C   UNL     1     -31.932 -24.579 -37.970  1.00  0.00     0.119 A 
BRANCH  14  19
ATOM     19  O   UNL     1     -32.850 -24.055 -34.423  1.00  0.00    -0.507 OA
ATOM     20  H   UNL     1     -33.808 -24.106 -34.098  1.00  0.00     0.293 HD
ENDBRANCH  14  19
BRANCH  18  21
ATOM     21  O   UNL     1     -31.594 -25.619 -38.833  1.00  0.00    -0.508 OA
ATOM     22  H   UNL     1     -31.010 -26.391 -38.529  1.00  0.00     0.293 HD
ENDBRANCH  18  21
ENDBRANCH  11  13
ENDBRANCH   2  11
TORSDOF 6
ENDMDL
MODEL 5
REMARK VINA RESULT:    -3.942      1.173      1.681
REMARK INTER + INTRA:          -5.357
REMARK INTER:                  -4.715
REMARK INTRA:                  -0.643
REMARK UNBOUND:                -0.378
REMARK SMILES O=C(C=Cc1ccc(O)cc1)c1ccc(O)cc1O
REMARK SMILES IDX 4 1 3 2 5 3 6 4 7 5 8 6 11 7 10 8 9 9 2 11 1 12 12 13 18 14
REMARK SMILES IDX 13 15 17 16 14 17 15 18 19 19 16 21
REMARK H PARENT 9 10 19 20 16 22
REMARK Flexibility Score: inf
ROOT
ATOM      1  C   UNL     1     -32.153 -22.698 -34.667  1.00  0.00     0.012 C 
ATOM      2  C   UNL     1     -31.823 -21.401 -34.744  1.00  0.00     0.053 C 
ENDROOT
BRANCH   1   3
ATOM      3  C   UNL     1     -32.062 -23.638 -35.811  1.00  0.00    -0.025 A 
ATOM      4  C   UNL     1     -30.872 -23.827 -36.545  1.00  0.00     0.012 A 
ATOM      5  C   UNL     1     -30.841 -24.716 -37.624  1.00  0.00     0.047 A 
ATOM      6  C   UNL     1     -31.994 -25.420 -37.992  1.00  0.00     0.115 A 
ATOM      7  C   UNL     1     -33.216 -24.338 -36.200  1.00  0.00     0.012 A 
ATOM      8  C   UNL     1     -33.180 -25.226 -37.279  1.00  0.00     0.047 A 
BRANCH   6   9
ATOM      9  O   UNL     1     -31.972 -26.308 -39.065  1.00  0.00    -0.508 OA
ATOM     10  H   UNL     1     -31.112 -26.747 -39.371  1.00  0.00     0.293 HD
ENDBRANCH   6   9
ENDBRANCH   1   3
BRANCH   2  11
ATOM     11  C   UNL     1     -31.910 -20.496 -33.576  1.00  0.00     0.189 C 
ATOM     12  O   UNL     1     -32.984 -19.877 -33.339  1.00  0.00    -0.289 OA
BRANCH  11  13
ATOM     13  C   UNL     1     -30.768 -20.338 -32.645  1.00  0.00     0.064 A 
ATOM     14  C   UNL     1     -30.956 -20.030 -31.279  1.00  0.00     0.130 A 
ATOM     15  C   UNL     1     -29.462 -20.527 -33.129  1.00  0.00     0.020 A 
ATOM     16  C   UNL     1     -29.844 -19.875 -30.438  1.00  0.00     0.093 A 
ATOM     17  C   UNL     1     -28.361 -20.377 -32.282  1.00  0.00     0.047 A 
ATOM     18  C   UNL     1     -28.548 -20.047 -30.939  1.00  0.00     0.119 A 
BRANCH  14  19
ATOM     19  O   UNL     1     -32.241 -19.902 -30.751  1.00  0.00    -0.507 OA
ATOM     20  H   UNL     1     -32.873 -19.172 -31.059  1.00  0.00     0.293 HD
ENDBRANCH  14  19
BRANCH  18  21
ATOM     21  O   UNL     1     -27.440 -19.898 -30.107  1.00  0.00    -0.508 OA
ATOM     22  H   UNL     1     -27.525 -19.509 -29.175  1.00  0.00     0.293 HD
ENDBRANCH  18  21
ENDBRANCH  11  13
ENDBRANCH   2  11
TORSDOF 6
ENDMDL
MODEL 6
REMARK VINA RESULT:    -3.533      1.436      2.067
REMARK INTER + INTRA:          -4.840
REMARK INTER:                  -4.646
REMARK INTRA:                  -0.194
REMARK UNBOUND:                -0.378
REMARK SMILES O=C(C=Cc1ccc(O)cc1)c1ccc(O)cc1O
REMARK SMILES IDX 4 1 3 2 5 3 6 4 7 5 8 6 11 7 10 8 9 9 2 11 1 12 12 13 18 14
REMARK SMILES IDX 13 15 17 16 14 17 15 18 19 19 16 21
REMARK H PARENT 9 10 19 20 16 22
REMARK Flexibility Score: inf
ROOT
ATOM      1  C   UNL     1     -31.931 -23.329 -36.461  1.00  0.00     0.012 C 
ATOM      2  C   UNL     1     -32.407 -23.112 -35.226  1.00  0.00     0.053 C 
ENDROOT
BRANCH   1   3
ATOM      3  C   UNL     1     -31.991 -24.643 -37.146  1.00  0.00    -0.025 A 
ATOM      4  C   UNL     1     -30.946 -25.121 -37.964  1.00  0.00     0.012 A 
ATOM      5  C   UNL     1     -31.055 -26.362 -38.599  1.00  0.00     0.047 A 
ATOM      6  C   UNL     1     -32.209 -27.138 -38.436  1.00  0.00     0.115 A 
ATOM      7  C   UNL     1     -33.150 -25.424 -37.004  1.00  0.00     0.012 A 
ATOM      8  C   UNL     1     -33.255 -26.665 -37.639  1.00  0.00     0.047 A 
BRANCH   6   9
ATOM      9  O   UNL     1     -32.327 -28.376 -39.063  1.00  0.00    -0.508 OA
ATOM     10  H   UNL     1     -33.189 -28.906 -39.031  1.00  0.00     0.293 HD
ENDBRANCH   6   9
ENDBRANCH   1   3
BRANCH   2  11
ATOM     11  C   UNL     1     -32.345 -21.781 -34.581  1.00  0.00     0.189 C 
ATOM     12  O   UNL     1     -33.272 -20.946 -34.772  1.00  0.00    -0.289 OA
BRANCH  11  13
ATOM     13  C   UNL     1     -31.232 -21.426 -33.669  1.00  0.00     0.064 A 
ATOM     14  C   UNL     1     -30.864 -22.252 -32.584  1.00  0.00     0.130 A 
ATOM     15  C   UNL     1     -30.505 -20.246 -33.907  1.00  0.00     0.020 A 
ATOM     16  C   UNL     1     -29.812 -21.867 -31.739  1.00  0.00     0.093 A 
ATOM     17  C   UNL     1     -29.456 -19.875 -33.063  1.00  0.00     0.047 A 
ATOM     18  C   UNL     1     -29.110 -20.680 -31.976  1.00  0.00     0.119 A 
BRANCH  14  19
ATOM     19  O   UNL     1     -31.519 -23.463 -32.360  1.00  0.00    -0.507 OA
ATOM     20  H   UNL     1     -31.149 -24.341 -32.705  1.00  0.00     0.293 HD
ENDBRANCH  14  19
BRANCH  18  21
ATOM     21  O   UNL     1     -28.064 -20.294 -31.141  1.00  0.00    -0.508 OA
ATOM     22  H   UNL     1     -27.983 -19.344 -30.796  1.00  0.00     0.293 HD
ENDBRANCH  18  21
ENDBRANCH  11  13
ENDBRANCH   2  11
TORSDOF 6
ENDMDL
