MODEL 1
REMARK VINA RESULT:    -4.496      0.000      0.000
REMARK INTER + INTRA:          -4.628
REMARK INTER:                  -4.628
REMARK INTRA:                   0.000
REMARK UNBOUND:                 0.000
REMARK SMILES Nc1ncnc2nc[nH]c12
REMARK SMILES IDX 8 1 7 2 6 3 5 4 4 5 3 6 2 7 10 8 9 9 1 11
REMARK H PARENT 9 10 1 12 1 13
REMARK Flexibility Score: inf
ROOT
ATOM      1  C   UNL     1     124.909 108.934 124.059  1.00  0.00     0.199 A 
ATOM      2  N   UNL     1     126.241 109.181 123.940  1.00  0.00    -0.217 NA
ATOM      3  C   UNL     1     126.654 109.140 125.218  1.00  0.00     0.182 A 
ATOM      4  N   UNL     1     127.919 109.324 125.664  1.00  0.00    -0.215 NA
ATOM      5  C   UNL     1     128.147 109.242 127.011  1.00  0.00     0.226 A 
ATOM      6  N   UNL     1     127.116 108.981 127.877  1.00  0.00    -0.217 NA
ATOM      7  C   UNL     1     125.838 108.795 127.428  1.00  0.00     0.152 A 
ATOM      8  C   UNL     1     125.624 108.880 126.055  1.00  0.00     0.127 A 
ATOM      9  N   UNL     1     124.500 108.746 125.339  1.00  0.00    -0.340 N 
ATOM     10  H   UNL     1     123.532 108.544 125.674  1.00  0.00     0.168 HD
ENDROOT
BRANCH   7  11
ATOM     11  N   UNL     1     124.781 108.523 128.348  1.00  0.00    -0.382 N 
ATOM     12  H   UNL     1     124.901 108.672 129.374  1.00  0.00     0.158 HD
ATOM     13  H   UNL     1     123.864 108.167 127.999  1.00  0.00     0.158 HD
ENDBRANCH   7  11
TORSDOF 1
ENDMDL
MODEL 2
REMARK VINA RESULT:    -4.161      1.065      3.042
REMARK INTER + INTRA:          -4.282
REMARK INTER:                  -4.282
REMARK INTRA:                   0.000
REMARK UNBOUND:                 0.000
REMARK SMILES Nc1ncnc2nc[nH]c12
REMARK SMILES IDX 8 1 7 2 6 3 5 4 4 5 3 6 2 7 10 8 9 9 1 11
REMARK H PARENT 9 10 1 12 1 13
REMARK Flexibility Score: inf
ROOT
ATOM      1  C   UNL     1     125.994 108.333 128.153  1.00  0.00     0.199 A 
ATOM      2  N   UNL     1     126.960 109.250 127.875  1.00  0.00    -0.217 NA
ATOM      3  C   UNL     1     126.785 109.458 126.559  1.00  0.00     0.182 A 
ATOM      4  N   UNL     1     127.500 110.297 125.772  1.00  0.00    -0.215 NA
ATOM      5  C   UNL     1     127.171 110.375 124.447  1.00  0.00     0.226 A 
ATOM      6  N   UNL     1     126.144 109.621 123.938  1.00  0.00    -0.217 NA
ATOM      7  C   UNL     1     125.422 108.774 124.731  1.00  0.00     0.152 A 
ATOM      8  C   UNL     1     125.769 108.707 126.078  1.00  0.00     0.127 A 
ATOM      9  N   UNL     1     125.250 107.980 127.076  1.00  0.00    -0.340 N 
ATOM     10  H   UNL     1     124.458 107.299 127.045  1.00  0.00     0.168 HD
ENDROOT
BRANCH   7  11
ATOM     11  N   UNL     1     124.357 107.999 124.180  1.00  0.00    -0.382 N 
ATOM     12  H   UNL     1     123.587 108.445 123.633  1.00  0.00     0.158 HD
ATOM     13  H   UNL     1     124.336 106.965 124.321  1.00  0.00     0.158 HD
ENDBRANCH   7  11
TORSDOF 1
ENDMDL
MODEL 3
REMARK VINA RESULT:    -4.145      2.064      2.860
REMARK INTER + INTRA:          -4.266
REMARK INTER:                  -4.266
REMARK INTRA:                   0.000
REMARK UNBOUND:                 0.000
REMARK SMILES Nc1ncnc2nc[nH]c12
REMARK SMILES IDX 8 1 7 2 6 3 5 4 4 5 3 6 2 7 10 8 9 9 1 11
REMARK H PARENT 9 10 1 12 1 13
REMARK Flexibility Score: inf
ROOT
ATOM      1  C   UNL     1     124.601 109.779 122.008  1.00  0.00     0.199 A 
ATOM      2  N   UNL     1     125.489 110.427 122.809  1.00  0.00    -0.217 NA
ATOM      3  C   UNL     1     125.798 109.483 123.714  1.00  0.00     0.182 A 
ATOM      4  N   UNL     1     126.656 109.611 124.753  1.00  0.00    -0.215 NA
ATOM      5  C   UNL     1     126.844 108.530 125.571  1.00  0.00     0.226 A 
ATOM      6  N   UNL     1     126.178 107.354 125.336  1.00  0.00    -0.217 NA
ATOM      7  C   UNL     1     125.312 107.224 124.287  1.00  0.00     0.152 A 
ATOM      8  C   UNL     1     125.132 108.332 123.463  1.00  0.00     0.127 A 
ATOM      9  N   UNL     1     124.361 108.498 122.381  1.00  0.00    -0.340 N 
ATOM     10  H   UNL     1     123.724 107.810 121.922  1.00  0.00     0.168 HD
ENDROOT
BRANCH   7  11
ATOM     11  N   UNL     1     124.630 105.990 124.061  1.00  0.00    -0.382 N 
ATOM     12  H   UNL     1     123.866 105.912 123.353  1.00  0.00     0.158 HD
ATOM     13  H   UNL     1     124.891 105.141 124.610  1.00  0.00     0.158 HD
ENDBRANCH   7  11
TORSDOF 1
ENDMDL
MODEL 4
REMARK VINA RESULT:    -3.890      2.675      4.482
REMARK INTER + INTRA:          -4.004
REMARK INTER:                  -4.004
REMARK INTRA:                   0.000
REMARK UNBOUND:                 0.000
REMARK SMILES Nc1ncnc2nc[nH]c12
REMARK SMILES IDX 8 1 7 2 6 3 5 4 4 5 3 6 2 7 10 8 9 9 1 11
REMARK H PARENT 9 10 1 12 1 13
REMARK Flexibility Score: inf
ROOT
ATOM      1  C   UNL     1     131.720 110.094 124.781  1.00  0.00     0.199 A 
ATOM      2  N   UNL     1     130.538 110.646 124.396  1.00  0.00    -0.217 NA
ATOM      3  C   UNL     1     129.675 110.115 125.278  1.00  0.00     0.182 A 
ATOM      4  N   UNL     1     128.341 110.340 125.339  1.00  0.00    -0.215 NA
ATOM      5  C   UNL     1     127.624 109.705 126.315  1.00  0.00     0.226 A 
ATOM      6  N   UNL     1     128.246 108.865 127.203  1.00  0.00    -0.217 NA
ATOM      7  C   UNL     1     129.593 108.637 127.143  1.00  0.00     0.152 A 
ATOM      8  C   UNL     1     130.309 109.291 126.144  1.00  0.00     0.127 A 
ATOM      9  N   UNL     1     131.614 109.261 125.846  1.00  0.00    -0.340 N 
ATOM     10  H   UNL     1     132.379 108.728 126.315  1.00  0.00     0.168 HD
ENDROOT
BRANCH   7  11
ATOM     11  N   UNL     1     130.220 107.759 128.078  1.00  0.00    -0.382 N 
ATOM     12  H   UNL     1     129.912 106.767 128.184  1.00  0.00     0.158 HD
ATOM     13  H   UNL     1     131.003 108.105 128.675  1.00  0.00     0.158 HD
ENDBRANCH   7  11
TORSDOF 1
ENDMDL
MODEL 5
REMARK VINA RESULT:    -3.862      9.652     11.062
REMARK INTER + INTRA:          -3.974
REMARK INTER:                  -3.974
REMARK INTRA:                   0.000
REMARK UNBOUND:                 0.000
REMARK SMILES Nc1ncnc2nc[nH]c12
REMARK SMILES IDX 8 1 7 2 6 3 5 4 4 5 3 6 2 7 10 8 9 9 1 11
REMARK H PARENT 9 10 1 12 1 13
REMARK Flexibility Score: inf
ROOT
ATOM      1  C   UNL     1     118.045 109.656 127.475  1.00  0.00     0.199 A 
ATOM      2  N   UNL     1     117.633 110.664 128.290  1.00  0.00    -0.217 NA
ATOM      3  C   UNL     1     116.323 110.744 128.005  1.00  0.00     0.182 A 
ATOM      4  N   UNL     1     115.428 111.602 128.550  1.00  0.00    -0.215 NA
ATOM      5  C   UNL     1     114.128 111.531 128.131  1.00  0.00     0.226 A 
ATOM      6  N   UNL     1     113.750 110.613 127.184  1.00  0.00    -0.217 NA
ATOM      7  C   UNL     1     114.653 109.746 126.633  1.00  0.00     0.152 A 
ATOM      8  C   UNL     1     115.971 109.831 127.071  1.00  0.00     0.127 A 
ATOM      9  N   UNL     1     117.054 109.126 126.717  1.00  0.00    -0.340 N 
ATOM     10  H   UNL     1     117.129 108.349 126.024  1.00  0.00     0.168 HD
ENDROOT
BRANCH   7  11
ATOM     11  N   UNL     1     114.237 108.799 125.649  1.00  0.00    -0.382 N 
ATOM     12  H   UNL     1     113.235 108.711 125.368  1.00  0.00     0.158 HD
ATOM     13  H   UNL     1     114.939 108.175 125.195  1.00  0.00     0.158 HD
ENDBRANCH   7  11
TORSDOF 1
ENDMDL
MODEL 6
REMARK VINA RESULT:    -3.861      2.067      3.449
REMARK INTER + INTRA:          -3.974
REMARK INTER:                  -3.974
REMARK INTRA:                   0.000
REMARK UNBOUND:                 0.000
REMARK SMILES Nc1ncnc2nc[nH]c12
REMARK SMILES IDX 8 1 7 2 6 3 5 4 4 5 3 6 2 7 10 8 9 9 1 11
REMARK H PARENT 9 10 1 12 1 13
REMARK Flexibility Score: inf
ROOT
ATOM      1  C   UNL     1     126.232 109.125 127.897  1.00  0.00     0.199 A 
ATOM      2  N   UNL     1     126.318 109.888 126.774  1.00  0.00    -0.217 NA
ATOM      3  C   UNL     1     127.605 109.732 126.421  1.00  0.00     0.182 A 
ATOM      4  N   UNL     1     128.222 110.289 125.352  1.00  0.00    -0.215 NA
ATOM      5  C   UNL     1     129.547 110.010 125.156  1.00  0.00     0.226 A 
ATOM      6  N   UNL     1     130.223 109.189 126.022  1.00  0.00    -0.217 NA
ATOM      7  C   UNL     1     129.600 108.627 127.101  1.00  0.00     0.152 A 
ATOM      8  C   UNL     1     128.252 108.919 127.287  1.00  0.00     0.127 A 
ATOM      9  N   UNL     1     127.397 108.521 128.237  1.00  0.00    -0.340 N 
ATOM     10  H   UNL     1     127.573 107.892 129.052  1.00  0.00     0.168 HD
ENDROOT
BRANCH   7  11
ATOM     11  N   UNL     1     130.323 107.774 127.990  1.00  0.00    -0.382 N 
ATOM     12  H   UNL     1     129.914 106.878 128.336  1.00  0.00     0.158 HD
ATOM     13  H   UNL     1     131.281 108.042 128.307  1.00  0.00     0.158 HD
ENDBRANCH   7  11
TORSDOF 1
ENDMDL
MODEL 7
REMARK VINA RESULT:    -3.838      7.174      8.293
REMARK INTER + INTRA:          -3.950
REMARK INTER:                  -3.950
REMARK INTRA:                   0.000
REMARK UNBOUND:                 0.000
REMARK SMILES Nc1ncnc2nc[nH]c12
REMARK SMILES IDX 8 1 7 2 6 3 5 4 4 5 3 6 2 7 10 8 9 9 1 11
REMARK H PARENT 9 10 1 12 1 13
REMARK Flexibility Score: inf
ROOT
ATOM      1  C   UNL     1     124.502 116.817 122.100  1.00  0.00     0.199 A 
ATOM      2  N   UNL     1     124.533 115.619 122.744  1.00  0.00    -0.217 NA
ATOM      3  C   UNL     1     125.809 115.235 122.568  1.00  0.00     0.182 A 
ATOM      4  N   UNL     1     126.378 114.093 123.021  1.00  0.00    -0.215 NA
ATOM      5  C   UNL     1     127.699 113.876 122.742  1.00  0.00     0.226 A 
ATOM      6  N   UNL     1     128.420 114.795 122.022  1.00  0.00    -0.217 NA
ATOM      7  C   UNL     1     127.846 115.949 121.565  1.00  0.00     0.152 A 
ATOM      8  C   UNL     1     126.501 116.155 121.859  1.00  0.00     0.127 A 
ATOM      9  N   UNL     1     125.688 117.172 121.547  1.00  0.00    -0.340 N 
ATOM     10  H   UNL     1     125.904 118.040 121.009  1.00  0.00     0.168 HD
ENDROOT
BRANCH   7  11
ATOM     11  N   UNL     1     128.616 116.892 120.819  1.00  0.00    -0.382 N 
ATOM     12  H   UNL     1     128.610 117.908 121.058  1.00  0.00     0.158 HD
ATOM     13  H   UNL     1     129.200 116.571 120.015  1.00  0.00     0.158 HD
ENDBRANCH   7  11
TORSDOF 1
ENDMDL
MODEL 8
REMARK VINA RESULT:    -3.826      9.710     10.913
REMARK INTER + INTRA:          -3.938
REMARK INTER:                  -3.938
REMARK INTRA:                   0.000
REMARK UNBOUND:                 0.000
REMARK SMILES Nc1ncnc2nc[nH]c12
REMARK SMILES IDX 8 1 7 2 6 3 5 4 4 5 3 6 2 7 10 8 9 9 1 11
REMARK H PARENT 9 10 1 12 1 13
REMARK Flexibility Score: inf
ROOT
ATOM      1  C   UNL     1     114.317 109.538 125.721  1.00  0.00     0.199 A 
ATOM      2  N   UNL     1     113.801 110.568 126.445  1.00  0.00    -0.217 NA
ATOM      3  C   UNL     1     114.773 110.800 127.344  1.00  0.00     0.182 A 
ATOM      4  N   UNL     1     114.764 111.741 128.317  1.00  0.00    -0.215 NA
ATOM      5  C   UNL     1     115.853 111.826 129.141  1.00  0.00     0.226 A 
ATOM      6  N   UNL     1     116.919 110.978 128.977  1.00  0.00    -0.217 NA
ATOM      7  C   UNL     1     116.928 110.027 127.995  1.00  0.00     0.152 A 
ATOM      8  C   UNL     1     115.813 109.954 127.165  1.00  0.00     0.127 A 
ATOM      9  N   UNL     1     115.545 109.139 126.137  1.00  0.00    -0.340 N 
ATOM     10  H   UNL     1     116.134 108.375 125.738  1.00  0.00     0.168 HD
ENDROOT
BRANCH   7  11
ATOM     11  N   UNL     1     118.049 109.156 127.843  1.00  0.00    -0.382 N 
ATOM     12  H   UNL     1     118.408 108.587 128.642  1.00  0.00     0.158 HD
ATOM     13  H   UNL     1     118.528 109.077 126.919  1.00  0.00     0.158 HD
ENDBRANCH   7  11
TORSDOF 1
ENDMDL
MODEL 9
REMARK VINA RESULT:    -3.672      1.380      3.113
REMARK INTER + INTRA:          -3.779
REMARK INTER:                  -3.779
REMARK INTRA:                   0.000
REMARK UNBOUND:                 0.000
REMARK SMILES Nc1ncnc2nc[nH]c12
REMARK SMILES IDX 8 1 7 2 6 3 5 4 4 5 3 6 2 7 10 8 9 9 1 11
REMARK H PARENT 9 10 1 12 1 13
REMARK Flexibility Score: inf
ROOT
ATOM      1  C   UNL     1     129.957 109.608 126.531  1.00  0.00     0.199 A 
ATOM      2  N   UNL     1     129.377 109.767 125.311  1.00  0.00    -0.217 NA
ATOM      3  C   UNL     1     128.093 109.462 125.564  1.00  0.00     0.182 A 
ATOM      4  N   UNL     1     127.072 109.464 124.675  1.00  0.00    -0.215 NA
ATOM      5  C   UNL     1     125.825 109.124 125.124  1.00  0.00     0.226 A 
ATOM      6  N   UNL     1     125.624 108.793 126.439  1.00  0.00    -0.217 NA
ATOM      7  C   UNL     1     126.654 108.791 127.338  1.00  0.00     0.152 A 
ATOM      8  C   UNL     1     127.917 109.140 126.866  1.00  0.00     0.127 A 
ATOM      9  N   UNL     1     129.092 109.224 127.502  1.00  0.00    -0.340 N 
ATOM     10  H   UNL     1     129.305 109.042 128.508  1.00  0.00     0.168 HD
ENDROOT
BRANCH   7  11
ATOM     11  N   UNL     1     126.422 108.444 128.703  1.00  0.00    -0.382 N 
ATOM     12  H   UNL     1     126.848 108.991 129.484  1.00  0.00     0.158 HD
ATOM     13  H   UNL     1     125.816 107.627 128.939  1.00  0.00     0.158 HD
ENDBRANCH   7  11
TORSDOF 1
ENDMDL
