MODEL 1
REMARK VINA RESULT:    -3.255      0.000      0.000
REMARK INTER + INTRA:          -4.502
REMARK INTER:                  -4.396
REMARK INTRA:                  -0.105
REMARK UNBOUND:                -0.105
REMARK SMILES [NH3+]CCCC[C@@H]([NH3+])C(=O)[O-]
REMARK SMILES IDX 4 1 3 2 2 3 1 4 5 8 6 9 7 10 8 14 9 15 10 16
REMARK H PARENT 1 5 1 6 1 7 7 11 7 12 7 13
REMARK Flexibility Score: inf
ROOT
ATOM      1  C   UNL     1      14.325  10.434  27.502  1.00  0.00     0.012 C 
ENDROOT
BRANCH   1   2
ATOM      2  C   UNL     1      14.026   9.446  26.365  1.00  0.00     0.061 C 
BRANCH   2   3
ATOM      3  C   UNL     1      14.904   8.186  26.432  1.00  0.00     0.258 C 
BRANCH   3   4
ATOM      4  N   UNL     1      14.385   7.105  25.592  1.00  0.00    -0.358 N 
ATOM      5  H   UNL     1      15.156   6.453  25.320  1.00  0.00     0.344 HD
ATOM      6  H   UNL     1      13.674   6.563  26.136  1.00  0.00     0.344 HD
ATOM      7  H   UNL     1      13.927   7.495  24.736  1.00  0.00     0.344 HD
ENDBRANCH   3   4
ENDBRANCH   2   3
ENDBRANCH   1   2
BRANCH   1   8
ATOM      8  C   UNL     1      15.522   9.961  28.341  1.00  0.00     0.072 C 
BRANCH   8   9
ATOM      9  C   UNL     1      16.148  11.106  29.165  1.00  0.00     0.227 C 
BRANCH   9  10
ATOM     10  N   UNL     1      16.272  10.716  30.575  1.00  0.00    -0.350 N 
ATOM     11  H   UNL     1      17.268  10.482  30.791  1.00  0.00     0.345 HD
ATOM     12  H   UNL     1      15.690   9.867  30.761  1.00  0.00     0.345 HD
ATOM     13  H   UNL     1      15.959  11.493  31.203  1.00  0.00     0.345 HD
ENDBRANCH   9  10
BRANCH   9  14
ATOM     14  C   UNL     1      17.500  11.488  28.618  1.00  0.00     0.099 C 
ATOM     15  O   UNL     1      18.433  10.642  28.589  1.00  0.00    -0.544 OA
ATOM     16  O   UNL     1      17.728  12.775  28.146  1.00  0.00    -0.544 OA
ENDBRANCH   9  14
ENDBRANCH   8   9
ENDBRANCH   1   8
TORSDOF 7
ENDMDL
MODEL 2
REMARK VINA RESULT:    -3.239      1.964      2.546
REMARK INTER + INTRA:          -4.480
REMARK INTER:                  -3.967
REMARK INTRA:                  -0.513
REMARK UNBOUND:                -0.105
REMARK SMILES [NH3+]CCCC[C@@H]([NH3+])C(=O)[O-]
REMARK SMILES IDX 4 1 3 2 2 3 1 4 5 8 6 9 7 10 8 14 9 15 10 16
REMARK H PARENT 1 5 1 6 1 7 7 11 7 12 7 13
REMARK Flexibility Score: inf
ROOT
ATOM      1  C   UNL     1      14.392   9.727  27.109  1.00  0.00     0.012 C 
ENDROOT
BRANCH   1   2
ATOM      2  C   UNL     1      13.608  11.001  27.456  1.00  0.00     0.061 C 
BRANCH   2   3
ATOM      3  C   UNL     1      13.498  11.969  26.267  1.00  0.00     0.258 C 
BRANCH   3   4
ATOM      4  N   UNL     1      14.706  12.778  26.099  1.00  0.00    -0.358 N 
ATOM      5  H   UNL     1      14.722  13.215  25.148  1.00  0.00     0.344 HD
ATOM      6  H   UNL     1      14.704  13.544  26.811  1.00  0.00     0.344 HD
ATOM      7  H   UNL     1      15.561  12.192  26.239  1.00  0.00     0.344 HD
ENDBRANCH   3   4
ENDBRANCH   2   3
ENDBRANCH   1   2
BRANCH   1   8
ATOM      8  C   UNL     1      15.564   9.521  28.082  1.00  0.00     0.072 C 
BRANCH   8   9
ATOM      9  C   UNL     1      15.830  10.769  28.951  1.00  0.00     0.227 C 
BRANCH   9  10
ATOM     10  N   UNL     1      15.896  10.401  30.371  1.00  0.00    -0.350 N 
ATOM     11  H   UNL     1      16.286  11.198  30.924  1.00  0.00     0.345 HD
ATOM     12  H   UNL     1      16.528   9.577  30.495  1.00  0.00     0.345 HD
ATOM     13  H   UNL     1      14.944  10.164  30.736  1.00  0.00     0.345 HD
ENDBRANCH   9  10
BRANCH   9  14
ATOM     14  C   UNL     1      17.108  11.452  28.537  1.00  0.00     0.099 C 
ATOM     15  O   UNL     1      17.074  12.609  28.040  1.00  0.00    -0.544 OA
ATOM     16  O   UNL     1      18.331  10.812  28.697  1.00  0.00    -0.544 OA
ENDBRANCH   9  14
ENDBRANCH   8   9
ENDBRANCH   1   8
TORSDOF 7
ENDMDL
MODEL 3
REMARK VINA RESULT:    -3.233      1.945      2.304
REMARK INTER + INTRA:          -4.472
REMARK INTER:                  -3.973
REMARK INTRA:                  -0.499
REMARK UNBOUND:                -0.105
REMARK SMILES [NH3+]CCCC[C@@H]([NH3+])C(=O)[O-]
REMARK SMILES IDX 4 1 3 2 2 3 1 4 5 8 6 9 7 10 8 14 9 15 10 16
REMARK H PARENT 1 5 1 6 1 7 7 11 7 12 7 13
REMARK Flexibility Score: inf
ROOT
ATOM      1  C   UNL     1      14.532   9.687  27.175  1.00  0.00     0.012 C 
ENDROOT
BRANCH   1   2
ATOM      2  C   UNL     1      13.684  10.923  27.507  1.00  0.00     0.061 C 
BRANCH   2   3
ATOM      3  C   UNL     1      13.551  11.885  26.316  1.00  0.00     0.258 C 
BRANCH   3   4
ATOM      4  N   UNL     1      14.725  12.747  26.167  1.00  0.00    -0.358 N 
ATOM      5  H   UNL     1      15.302  12.438  25.352  1.00  0.00     0.344 HD
ATOM      6  H   UNL     1      14.407  13.728  25.991  1.00  0.00     0.344 HD
ATOM      7  H   UNL     1      15.301  12.733  27.040  1.00  0.00     0.344 HD
ENDBRANCH   3   4
ENDBRANCH   2   3
ENDBRANCH   1   2
BRANCH   1   8
ATOM      8  C   UNL     1      15.652   9.493  28.210  1.00  0.00     0.072 C 
BRANCH   8   9
ATOM      9  C   UNL     1      15.940  10.783  29.007  1.00  0.00     0.227 C 
BRANCH   9  10
ATOM     10  N   UNL     1      16.028  10.490  30.443  1.00  0.00    -0.350 N 
ATOM     11  H   UNL     1      15.115  10.707  30.904  1.00  0.00     0.345 HD
ATOM     12  H   UNL     1      16.766  11.086  30.883  1.00  0.00     0.345 HD
ATOM     13  H   UNL     1      16.260   9.481  30.601  1.00  0.00     0.345 HD
ENDBRANCH   9  10
BRANCH   9  14
ATOM     14  C   UNL     1      17.215  11.435  28.537  1.00  0.00     0.099 C 
ATOM     15  O   UNL     1      18.305  10.804  28.589  1.00  0.00    -0.544 OA
ATOM     16  O   UNL     1      17.200  12.736  28.048  1.00  0.00    -0.544 OA
ENDBRANCH   9  14
ENDBRANCH   8   9
ENDBRANCH   1   8
TORSDOF 7
ENDMDL
MODEL 4
REMARK VINA RESULT:    -2.972     18.792     19.968
REMARK INTER + INTRA:          -4.120
REMARK INTER:                  -4.011
REMARK INTRA:                  -0.109
REMARK UNBOUND:                -0.105
REMARK SMILES [NH3+]CCCC[C@@H]([NH3+])C(=O)[O-]
REMARK SMILES IDX 4 1 3 2 2 3 1 4 5 8 6 9 7 10 8 14 9 15 10 16
REMARK H PARENT 1 5 1 6 1 7 7 11 7 12 7 13
REMARK Flexibility Score: inf
ROOT
ATOM      1  C   UNL     1      18.984  -5.611  14.672  1.00  0.00     0.012 C 
ENDROOT
BRANCH   1   2
ATOM      2  C   UNL     1      18.571  -5.159  13.265  1.00  0.00     0.061 C 
BRANCH   2   3
ATOM      3  C   UNL     1      18.971  -3.705  12.969  1.00  0.00     0.258 C 
BRANCH   3   4
ATOM      4  N   UNL     1      17.810  -2.819  12.876  1.00  0.00    -0.358 N 
ATOM      5  H   UNL     1      17.464  -2.775  11.889  1.00  0.00     0.344 HD
ATOM      6  H   UNL     1      17.042  -3.200  13.475  1.00  0.00     0.344 HD
ATOM      7  H   UNL     1      18.054  -1.859  13.212  1.00  0.00     0.344 HD
ENDBRANCH   3   4
ENDBRANCH   2   3
ENDBRANCH   1   2
BRANCH   1   8
ATOM      8  C   UNL     1      17.792  -6.221  15.426  1.00  0.00     0.072 C 
BRANCH   8   9
ATOM      9  C   UNL     1      18.062  -6.351  16.941  1.00  0.00     0.227 C 
BRANCH   9  10
ATOM     10  N   UNL     1      19.505  -6.418  17.201  1.00  0.00    -0.350 N 
ATOM     11  H   UNL     1      19.686  -7.021  18.036  1.00  0.00     0.345 HD
ATOM     12  H   UNL     1      19.874  -5.461  17.402  1.00  0.00     0.345 HD
ATOM     13  H   UNL     1      20.011  -6.817  16.375  1.00  0.00     0.345 HD
ENDBRANCH   9  10
BRANCH   9  14
ATOM     14  C   UNL     1      17.457  -5.197  17.699  1.00  0.00     0.099 C 
ATOM     15  O   UNL     1      16.350  -5.336  18.284  1.00  0.00    -0.544 OA
ATOM     16  O   UNL     1      18.112  -3.973  17.754  1.00  0.00    -0.544 OA
ENDBRANCH   9  14
ENDBRANCH   8   9
ENDBRANCH   1   8
TORSDOF 7
ENDMDL
MODEL 5
REMARK VINA RESULT:    -2.906     18.543     19.741
REMARK INTER + INTRA:          -4.030
REMARK INTER:                  -3.834
REMARK INTRA:                  -0.196
REMARK UNBOUND:                -0.105
REMARK SMILES [NH3+]CCCC[C@@H]([NH3+])C(=O)[O-]
REMARK SMILES IDX 4 1 3 2 2 3 1 4 5 8 6 9 7 10 8 14 9 15 10 16
REMARK H PARENT 1 5 1 6 1 7 7 11 7 12 7 13
REMARK Flexibility Score: inf
ROOT
ATOM      1  C   UNL     1      17.853  -5.998  16.870  1.00  0.00     0.012 C 
ENDROOT
BRANCH   1   2
ATOM      2  C   UNL     1      17.358  -4.961  17.889  1.00  0.00     0.061 C 
BRANCH   2   3
ATOM      3  C   UNL     1      16.269  -5.520  18.819  1.00  0.00     0.258 C 
BRANCH   3   4
ATOM      4  N   UNL     1      15.377  -6.453  18.128  1.00  0.00    -0.358 N 
ATOM      5  H   UNL     1      15.177  -7.282  18.733  1.00  0.00     0.344 HD
ATOM      6  H   UNL     1      14.471  -5.970  17.924  1.00  0.00     0.344 HD
ATOM      7  H   UNL     1      15.802  -6.764  17.224  1.00  0.00     0.344 HD
ENDBRANCH   3   4
ENDBRANCH   2   3
ENDBRANCH   1   2
BRANCH   1   8
ATOM      8  C   UNL     1      18.876  -6.951  17.508  1.00  0.00     0.072 C 
BRANCH   8   9
ATOM      9  C   UNL     1      20.275  -6.819  16.869  1.00  0.00     0.227 C 
BRANCH   9  10
ATOM     10  N   UNL     1      20.184  -6.150  15.566  1.00  0.00    -0.350 N 
ATOM     11  H   UNL     1      21.084  -6.265  15.046  1.00  0.00     0.345 HD
ATOM     12  H   UNL     1      20.014  -5.127  15.704  1.00  0.00     0.345 HD
ATOM     13  H   UNL     1      19.405  -6.555  14.996  1.00  0.00     0.345 HD
ENDBRANCH   9  10
BRANCH   9  14
ATOM     14  C   UNL     1      21.212  -6.059  17.773  1.00  0.00     0.099 C 
ATOM     15  O   UNL     1      20.954  -4.869  18.094  1.00  0.00    -0.544 OA
ATOM     16  O   UNL     1      22.368  -6.662  18.253  1.00  0.00    -0.544 OA
ENDBRANCH   9  14
ENDBRANCH   8   9
ENDBRANCH   1   8
TORSDOF 7
ENDMDL
MODEL 6
REMARK VINA RESULT:    -2.872      2.064      2.386
REMARK INTER + INTRA:          -3.984
REMARK INTER:                  -3.903
REMARK INTRA:                  -0.080
REMARK UNBOUND:                -0.105
REMARK SMILES [NH3+]CCCC[C@@H]([NH3+])C(=O)[O-]
REMARK SMILES IDX 4 1 3 2 2 3 1 4 5 8 6 9 7 10 8 14 9 15 10 16
REMARK H PARENT 1 5 1 6 1 7 7 11 7 12 7 13
REMARK Flexibility Score: inf
ROOT
ATOM      1  C   UNL     1      14.291  10.694  26.888  1.00  0.00     0.012 C 
ENDROOT
BRANCH   1   2
ATOM      2  C   UNL     1      13.755   9.348  26.381  1.00  0.00     0.061 C 
BRANCH   2   3
ATOM      3  C   UNL     1      14.832   8.251  26.366  1.00  0.00     0.258 C 
BRANCH   3   4
ATOM      4  N   UNL     1      14.420   7.082  25.586  1.00  0.00    -0.358 N 
ATOM      5  H   UNL     1      15.231   6.701  25.045  1.00  0.00     0.344 HD
ATOM      6  H   UNL     1      14.085   6.338  26.241  1.00  0.00     0.344 HD
ATOM      7  H   UNL     1      13.641   7.333  24.935  1.00  0.00     0.344 HD
ENDBRANCH   3   4
ENDBRANCH   2   3
ENDBRANCH   1   2
BRANCH   1   8
ATOM      8  C   UNL     1      14.289  10.743  28.425  1.00  0.00     0.072 C 
BRANCH   8   9
ATOM      9  C   UNL     1      15.709  10.612  29.016  1.00  0.00     0.227 C 
BRANCH   9  10
ATOM     10  N   UNL     1      16.523  11.780  28.660  1.00  0.00    -0.350 N 
ATOM     11  H   UNL     1      16.801  12.295  29.527  1.00  0.00     0.345 HD
ATOM     12  H   UNL     1      15.968  12.430  28.058  1.00  0.00     0.345 HD
ATOM     13  H   UNL     1      17.386  11.485  28.146  1.00  0.00     0.345 HD
ENDBRANCH   9  10
BRANCH   9  14
ATOM     14  C   UNL     1      15.657  10.460  30.515  1.00  0.00     0.099 C 
ATOM     15  O   UNL     1      14.872  11.171  31.197  1.00  0.00    -0.544 OA
ATOM     16  O   UNL     1      16.477   9.539  31.156  1.00  0.00    -0.544 OA
ENDBRANCH   9  14
ENDBRANCH   8   9
ENDBRANCH   1   8
TORSDOF 7
ENDMDL
MODEL 7
REMARK VINA RESULT:    -2.811      1.592      2.252
REMARK INTER + INTRA:          -3.902
REMARK INTER:                  -3.742
REMARK INTRA:                  -0.160
REMARK UNBOUND:                -0.105
REMARK SMILES [NH3+]CCCC[C@@H]([NH3+])C(=O)[O-]
REMARK SMILES IDX 4 1 3 2 2 3 1 4 5 8 6 9 7 10 8 14 9 15 10 16
REMARK H PARENT 1 5 1 6 1 7 7 11 7 12 7 13
REMARK Flexibility Score: inf
ROOT
ATOM      1  C   UNL     1      15.903  10.357  28.654  1.00  0.00     0.012 C 
ENDROOT
BRANCH   1   2
ATOM      2  C   UNL     1      14.379  10.543  28.665  1.00  0.00     0.061 C 
BRANCH   2   3
ATOM      3  C   UNL     1      13.769  10.509  27.254  1.00  0.00     0.258 C 
BRANCH   3   4
ATOM      4  N   UNL     1      14.197   9.333  26.495  1.00  0.00    -0.358 N 
ATOM      5  H   UNL     1      14.896   9.605  25.766  1.00  0.00     0.344 HD
ATOM      6  H   UNL     1      14.652   8.653  27.148  1.00  0.00     0.344 HD
ATOM      7  H   UNL     1      13.374   8.868  26.046  1.00  0.00     0.344 HD
ENDBRANCH   3   4
ENDBRANCH   2   3
ENDBRANCH   1   2
BRANCH   1   8
ATOM      8  C   UNL     1      16.612  11.654  28.234  1.00  0.00     0.072 C 
BRANCH   8   9
ATOM      9  C   UNL     1      17.712  12.070  29.233  1.00  0.00     0.227 C 
BRANCH   9  10
ATOM     10  N   UNL     1      17.512  11.401  30.524  1.00  0.00    -0.350 N 
ATOM     11  H   UNL     1      18.196  11.771  31.224  1.00  0.00     0.345 HD
ATOM     12  H   UNL     1      17.675  10.373  30.421  1.00  0.00     0.345 HD
ATOM     13  H   UNL     1      16.540  11.563  30.878  1.00  0.00     0.345 HD
ENDBRANCH   9  10
BRANCH   9  14
ATOM     14  C   UNL     1      19.082  11.745  28.694  1.00  0.00     0.099 C 
ATOM     15  O   UNL     1      19.859  12.672  28.341  1.00  0.00    -0.544 OA
ATOM     16  O   UNL     1      19.496  10.424  28.577  1.00  0.00    -0.544 OA
ENDBRANCH   9  14
ENDBRANCH   8   9
ENDBRANCH   1   8
TORSDOF 7
ENDMDL
MODEL 8
REMARK VINA RESULT:    -2.809      2.363      2.715
REMARK INTER + INTRA:          -3.900
REMARK INTER:                  -3.835
REMARK INTRA:                  -0.065
REMARK UNBOUND:                -0.105
REMARK SMILES [NH3+]CCCC[C@@H]([NH3+])C(=O)[O-]
REMARK SMILES IDX 4 1 3 2 2 3 1 4 5 8 6 9 7 10 8 14 9 15 10 16
REMARK H PARENT 1 5 1 6 1 7 7 11 7 12 7 13
REMARK Flexibility Score: inf
ROOT
ATOM      1  C   UNL     1      15.299  10.228  28.331  1.00  0.00     0.012 C 
ENDROOT
BRANCH   1   2
ATOM      2  C   UNL     1      14.404   9.788  27.164  1.00  0.00     0.061 C 
BRANCH   2   3
ATOM      3  C   UNL     1      13.401  10.875  26.745  1.00  0.00     0.258 C 
BRANCH   3   4
ATOM      4  N   UNL     1      13.968  11.800  25.761  1.00  0.00    -0.358 N 
ATOM      5  H   UNL     1      13.313  12.599  25.594  1.00  0.00     0.344 HD
ATOM      6  H   UNL     1      14.866  12.185  26.134  1.00  0.00     0.344 HD
ATOM      7  H   UNL     1      14.163  11.303  24.862  1.00  0.00     0.344 HD
ENDBRANCH   3   4
ENDBRANCH   2   3
ENDBRANCH   1   2
BRANCH   1   8
ATOM      8  C   UNL     1      14.464  10.859  29.457  1.00  0.00     0.072 C 
BRANCH   8   9
ATOM      9  C   UNL     1      15.345  11.445  30.581  1.00  0.00     0.227 C 
BRANCH   9  10
ATOM     10  N   UNL     1      14.570  11.584  31.820  1.00  0.00    -0.350 N 
ATOM     11  H   UNL     1      13.990  12.453  31.779  1.00  0.00     0.345 HD
ATOM     12  H   UNL     1      15.219  11.662  32.637  1.00  0.00     0.345 HD
ATOM     13  H   UNL     1      13.941  10.758  31.957  1.00  0.00     0.345 HD
ENDBRANCH   9  10
BRANCH   9  14
ATOM     14  C   UNL     1      16.555  10.581  30.825  1.00  0.00     0.099 C 
ATOM     15  O   UNL     1      16.427   9.454  31.373  1.00  0.00    -0.544 OA
ATOM     16  O   UNL     1      17.819  11.021  30.452  1.00  0.00    -0.544 OA
ENDBRANCH   9  14
ENDBRANCH   8   9
ENDBRANCH   1   8
TORSDOF 7
ENDMDL
MODEL 9
REMARK VINA RESULT:    -2.765      2.956      5.116
REMARK INTER + INTRA:          -3.840
REMARK INTER:                  -3.730
REMARK INTRA:                  -0.111
REMARK UNBOUND:                -0.105
REMARK SMILES [NH3+]CCCC[C@@H]([NH3+])C(=O)[O-]
REMARK SMILES IDX 4 1 3 2 2 3 1 4 5 8 6 9 7 10 8 14 9 15 10 16
REMARK H PARENT 1 5 1 6 1 7 7 11 7 12 7 13
REMARK Flexibility Score: inf
ROOT
ATOM      1  C   UNL     1      18.399  12.685  28.307  1.00  0.00     0.012 C 
ENDROOT
BRANCH   1   2
ATOM      2  C   UNL     1      19.923  12.548  28.431  1.00  0.00     0.061 C 
BRANCH   2   3
ATOM      3  C   UNL     1      20.352  11.167  28.953  1.00  0.00     0.258 C 
BRANCH   3   4
ATOM      4  N   UNL     1      21.508  11.249  29.847  1.00  0.00    -0.358 N 
ATOM      5  H   UNL     1      21.423  10.545  30.617  1.00  0.00     0.344 HD
ATOM      6  H   UNL     1      22.375  11.036  29.303  1.00  0.00     0.344 HD
ATOM      7  H   UNL     1      21.592  12.211  30.250  1.00  0.00     0.344 HD
ENDBRANCH   3   4
ENDBRANCH   2   3
ENDBRANCH   1   2
BRANCH   1   8
ATOM      8  C   UNL     1      17.700  11.354  28.629  1.00  0.00     0.072 C 
BRANCH   8   9
ATOM      9  C   UNL     1      16.162  11.470  28.563  1.00  0.00     0.227 C 
BRANCH   9  10
ATOM     10  N   UNL     1      15.765  12.457  27.551  1.00  0.00    -0.350 N 
ATOM     11  H   UNL     1      15.739  13.411  27.979  1.00  0.00     0.345 HD
ATOM     12  H   UNL     1      14.808  12.233  27.193  1.00  0.00     0.345 HD
ATOM     13  H   UNL     1      16.440  12.459  26.751  1.00  0.00     0.345 HD
ENDBRANCH   9  10
BRANCH   9  14
ATOM     14  C   UNL     1      15.533  10.135  28.253  1.00  0.00     0.099 C 
ATOM     15  O   UNL     1      14.313  10.067  27.946  1.00  0.00    -0.544 OA
ATOM     16  O   UNL     1      16.291   8.972  28.308  1.00  0.00    -0.544 OA
ENDBRANCH   9  14
ENDBRANCH   8   9
ENDBRANCH   1   8
TORSDOF 7
ENDMDL
