MODEL 1
REMARK VINA RESULT:     0.453      0.000      0.000
REMARK INTER + INTRA:           0.252
REMARK INTER:                   0.532
REMARK INTRA:                  -0.280
REMARK UNBOUND:                -0.280
REMARK SMILES O=c1c(O)c(-c2ccc(O)cc2)oc2cc(O)cc(O)c12
REMARK SMILES IDX 5 1 3 2 2 3 1 4 21 5 19 6 18 7 16 8 15 9 14 10 13 11 6 12
REMARK SMILES IDX 7 13 8 14 9 15 12 16 11 17 10 18 4 20 20 22 17 24
REMARK H PARENT 10 19 4 21 20 23 17 25
REMARK Flexibility Score: inf
ROOT
ATOM      1  C   UNL     1     -18.931   9.158  26.403  1.00  0.00     0.180 A 
ATOM      2  C   UNL     1     -17.550   9.143  26.663  1.00  0.00     0.208 A 
ATOM      3  C   UNL     1     -16.654   9.282  25.591  1.00  0.00     0.238 A 
ATOM      4  O   UNL     1     -15.420   9.322  25.835  1.00  0.00    -0.285 OA
ATOM      5  C   UNL     1     -17.150   9.417  24.271  1.00  0.00     0.111 A 
ATOM      6  C   UNL     1     -16.332   9.524  23.106  1.00  0.00     0.134 A 
ATOM      7  C   UNL     1     -16.929   9.784  21.866  1.00  0.00     0.093 A 
ATOM      8  C   UNL     1     -18.314   9.876  21.738  1.00  0.00     0.123 A 
ATOM      9  C   UNL     1     -19.126   9.715  22.862  1.00  0.00     0.094 A 
ATOM     10  C   UNL     1     -18.559   9.490  24.118  1.00  0.00     0.146 A 
ATOM     11  O   UNL     1     -19.366   9.352  25.163  1.00  0.00    -0.452 OA
ENDROOT
BRANCH   1  12
ATOM     12  C   UNL     1     -19.937   8.993  27.477  1.00  0.00     0.021 A 
ATOM     13  C   UNL     1     -20.617  10.120  27.967  1.00  0.00     0.016 A 
ATOM     14  C   UNL     1     -21.587   9.985  28.966  1.00  0.00     0.047 A 
ATOM     15  C   UNL     1     -21.899   8.718  29.476  1.00  0.00     0.115 A 
ATOM     16  C   UNL     1     -20.270   7.722  27.980  1.00  0.00     0.016 A 
ATOM     17  C   UNL     1     -21.242   7.589  28.978  1.00  0.00     0.047 A 
BRANCH  15  18
ATOM     18  O   UNL     1     -22.863   8.570  30.471  1.00  0.00    -0.508 OA
ATOM     19  H   UNL     1     -23.742   9.072  30.435  1.00  0.00     0.293 HD
ENDBRANCH  15  18
ENDBRANCH   1  12
BRANCH   2  20
ATOM     20  O   UNL     1     -17.083   9.031  27.976  1.00  0.00    -0.502 OA
ATOM     21  H   UNL     1     -16.409   8.329  28.254  1.00  0.00     0.293 HD
ENDBRANCH   2  20
BRANCH   6  22
ATOM     22  O   UNL     1     -14.944   9.355  23.107  1.00  0.00    -0.507 OA
ATOM     23  H   UNL     1     -14.363   9.373  22.284  1.00  0.00     0.293 HD
ENDBRANCH   6  22
BRANCH   8  24
ATOM     24  O   UNL     1     -18.874  10.121  20.486  1.00  0.00    -0.508 OA
ATOM     25  H   UNL     1     -18.823   9.438  19.740  1.00  0.00     0.293 HD
ENDBRANCH   8  24
TORSDOF 5
ENDMDL
MODEL 2
REMARK VINA RESULT:     2.719      1.340      1.925
REMARK INTER + INTRA:           2.917
REMARK INTER:                   2.825
REMARK INTRA:                   0.091
REMARK UNBOUND:                -0.280
REMARK SMILES O=c1c(O)c(-c2ccc(O)cc2)oc2cc(O)cc(O)c12
REMARK SMILES IDX 5 1 3 2 2 3 1 4 21 5 19 6 18 7 16 8 15 9 14 10 13 11 6 12
REMARK SMILES IDX 7 13 8 14 9 15 12 16 11 17 10 18 4 20 20 22 17 24
REMARK H PARENT 10 19 4 21 20 23 17 25
REMARK Flexibility Score: inf
ROOT
ATOM      1  C   UNL     1     -19.488   9.182  27.738  1.00  0.00     0.180 A 
ATOM      2  C   UNL     1     -18.250   8.703  28.200  1.00  0.00     0.208 A 
ATOM      3  C   UNL     1     -17.198   8.542  27.284  1.00  0.00     0.238 A 
ATOM      4  O   UNL     1     -16.077   8.165  27.712  1.00  0.00    -0.285 OA
ATOM      5  C   UNL     1     -17.402   8.846  25.916  1.00  0.00     0.111 A 
ATOM      6  C   UNL     1     -16.419   8.682  24.894  1.00  0.00     0.134 A 
ATOM      7  C   UNL     1     -16.687   9.138  23.597  1.00  0.00     0.093 A 
ATOM      8  C   UNL     1     -17.925   9.690  23.270  1.00  0.00     0.123 A 
ATOM      9  C   UNL     1     -18.915   9.801  24.248  1.00  0.00     0.094 A 
ATOM     10  C   UNL     1     -18.665   9.389  25.559  1.00  0.00     0.146 A 
ATOM     11  O   UNL     1     -19.629   9.521  26.462  1.00  0.00    -0.452 OA
ENDROOT
BRANCH   1  12
ATOM     12  C   UNL     1     -20.651   9.355  28.638  1.00  0.00     0.021 A 
ATOM     13  C   UNL     1     -21.897   8.822  28.268  1.00  0.00     0.016 A 
ATOM     14  C   UNL     1     -23.004   8.954  29.113  1.00  0.00     0.047 A 
ATOM     15  C   UNL     1     -22.874   9.607  30.345  1.00  0.00     0.115 A 
ATOM     16  C   UNL     1     -20.524   9.992  29.886  1.00  0.00     0.016 A 
ATOM     17  C   UNL     1     -21.632  10.122  30.730  1.00  0.00     0.047 A 
BRANCH  15  18
ATOM     18  O   UNL     1     -23.969   9.745  31.196  1.00  0.00    -0.508 OA
ATOM     19  H   UNL     1     -24.088   9.150  32.007  1.00  0.00     0.293 HD
ENDBRANCH  15  18
ENDBRANCH   1  12
BRANCH   2  20
ATOM     20  O   UNL     1     -18.064   8.431  29.558  1.00  0.00    -0.502 OA
ATOM     21  H   UNL     1     -17.242   8.734  30.065  1.00  0.00     0.293 HD
ENDBRANCH   2  20
BRANCH   6  22
ATOM     22  O   UNL     1     -15.183   8.058  25.093  1.00  0.00    -0.507 OA
ATOM     23  H   UNL     1     -14.576   8.224  25.880  1.00  0.00     0.293 HD
ENDBRANCH   6  22
BRANCH   8  24
ATOM     24  O   UNL     1     -18.164  10.119  21.966  1.00  0.00    -0.508 OA
ATOM     25  H   UNL     1     -19.105  10.212  21.603  1.00  0.00     0.293 HD
ENDBRANCH   8  24
TORSDOF 5
ENDMDL
