MODEL 1
REMARK VINA RESULT:    -3.080      0.000      0.000
REMARK INTER + INTRA:          -3.747
REMARK INTER:                  -3.620
REMARK INTRA:                  -0.127
REMARK UNBOUND:                -0.127
REMARK SMILES O=C([O-])CCC(=O)[O-]
REMARK SMILES IDX 4 1 2 2 1 3 3 4 5 5 6 6 7 7 8 8
REMARK H PARENT
REMARK Flexibility Score: inf
ROOT
ATOM      1  C   UNL     1     300.045 324.503 647.943  1.00  0.00     0.059 C 
ENDROOT
BRANCH   1   2
ATOM      2  C   UNL     1     301.505 324.268 647.703  1.00  0.00     0.042 C 
ATOM      3  O   UNL     1     301.957 323.093 647.657  1.00  0.00    -0.550 OA
ATOM      4  O   UNL     1     302.358 325.342 647.489  1.00  0.00    -0.550 OA
ENDBRANCH   1   2
BRANCH   1   5
ATOM      5  C   UNL     1     299.231 324.367 646.652  1.00  0.00     0.059 C 
BRANCH   5   6
ATOM      6  C   UNL     1     299.124 325.674 645.927  1.00  0.00     0.042 C 
ATOM      7  O   UNL     1     299.219 326.759 646.557  1.00  0.00    -0.550 OA
ATOM      8  O   UNL     1     298.877 325.691 644.560  1.00  0.00    -0.550 OA
ENDBRANCH   5   6
ENDBRANCH   1   5
TORSDOF 3
ENDMDL
MODEL 2
REMARK VINA RESULT:    -3.056      1.040      1.871
REMARK INTER + INTRA:          -3.718
REMARK INTER:                  -3.633
REMARK INTRA:                  -0.085
REMARK UNBOUND:                -0.127
REMARK SMILES O=C([O-])CCC(=O)[O-]
REMARK SMILES IDX 4 1 2 2 1 3 3 4 5 5 6 6 7 7 8 8
REMARK H PARENT
REMARK Flexibility Score: inf
ROOT
ATOM      1  C   UNL     1     301.120 323.631 647.507  1.00  0.00     0.059 C 
ENDROOT
BRANCH   1   2
ATOM      2  C   UNL     1     302.398 324.329 647.857  1.00  0.00     0.042 C 
ATOM      3  O   UNL     1     302.610 325.503 647.453  1.00  0.00    -0.550 OA
ATOM      4  O   UNL     1     303.337 323.700 648.664  1.00  0.00    -0.550 OA
ENDBRANCH   1   2
BRANCH   1   5
ATOM      5  C   UNL     1     299.896 324.499 647.822  1.00  0.00     0.059 C 
BRANCH   5   6
ATOM      6  C   UNL     1     299.278 325.055 646.576  1.00  0.00     0.042 C 
ATOM      7  O   UNL     1     298.888 324.282 645.662  1.00  0.00    -0.550 OA
ATOM      8  O   UNL     1     299.172 326.429 646.406  1.00  0.00    -0.550 OA
ENDBRANCH   5   6
ENDBRANCH   1   5
TORSDOF 3
ENDMDL
MODEL 3
REMARK VINA RESULT:    -3.055      1.014      3.660
REMARK INTER + INTRA:          -3.718
REMARK INTER:                  -3.632
REMARK INTRA:                  -0.086
REMARK UNBOUND:                -0.127
REMARK SMILES O=C([O-])CCC(=O)[O-]
REMARK SMILES IDX 4 1 2 2 1 3 3 4 5 5 6 6 7 7 8 8
REMARK H PARENT
REMARK Flexibility Score: inf
ROOT
ATOM      1  C   UNL     1     299.879 324.587 647.789  1.00  0.00     0.059 C 
ENDROOT
BRANCH   1   2
ATOM      2  C   UNL     1     299.276 325.126 646.528  1.00  0.00     0.042 C 
ATOM      3  O   UNL     1     298.890 324.338 645.624  1.00  0.00    -0.550 OA
ATOM      4  O   UNL     1     299.102 326.494 646.369  1.00  0.00    -0.550 OA
ENDBRANCH   1   2
BRANCH   1   5
ATOM      5  C   UNL     1     301.086 323.688 647.500  1.00  0.00     0.059 C 
BRANCH   5   6
ATOM      6  C   UNL     1     302.375 324.361 647.860  1.00  0.00     0.042 C 
ATOM      7  O   UNL     1     303.192 323.795 648.632  1.00  0.00    -0.550 OA
ATOM      8  O   UNL     1     302.653 325.632 647.375  1.00  0.00    -0.550 OA
ENDBRANCH   5   6
ENDBRANCH   1   5
TORSDOF 3
ENDMDL
MODEL 4
REMARK VINA RESULT:    -3.040      0.170      3.643
REMARK INTER + INTRA:          -3.700
REMARK INTER:                  -3.572
REMARK INTRA:                  -0.128
REMARK UNBOUND:                -0.127
REMARK SMILES O=C([O-])CCC(=O)[O-]
REMARK SMILES IDX 4 1 2 2 1 3 3 4 5 5 6 6 7 7 8 8
REMARK H PARENT
REMARK Flexibility Score: inf
ROOT
ATOM      1  C   UNL     1     299.161 324.392 646.478  1.00  0.00     0.059 C 
ENDROOT
BRANCH   1   2
ATOM      2  C   UNL     1     299.099 325.712 645.773  1.00  0.00     0.042 C 
ATOM      3  O   UNL     1     298.875 325.759 644.534  1.00  0.00    -0.550 OA
ATOM      4  O   UNL     1     299.248 326.892 646.490  1.00  0.00    -0.550 OA
ENDBRANCH   1   2
BRANCH   1   5
ATOM      5  C   UNL     1     299.938 324.490 647.795  1.00  0.00     0.059 C 
BRANCH   5   6
ATOM      6  C   UNL     1     301.413 324.350 647.576  1.00  0.00     0.042 C 
ATOM      7  O   UNL     1     301.940 323.209 647.508  1.00  0.00    -0.550 OA
ATOM      8  O   UNL     1     302.213 325.484 647.490  1.00  0.00    -0.550 OA
ENDBRANCH   5   6
ENDBRANCH   1   5
TORSDOF 3
ENDMDL
MODEL 5
REMARK VINA RESULT:    -2.942      0.875      1.089
REMARK INTER + INTRA:          -3.585
REMARK INTER:                  -3.425
REMARK INTRA:                  -0.159
REMARK UNBOUND:                -0.127
REMARK SMILES O=C([O-])CCC(=O)[O-]
REMARK SMILES IDX 4 1 2 2 1 3 3 4 5 5 6 6 7 7 8 8
REMARK H PARENT
REMARK Flexibility Score: inf
ROOT
ATOM      1  C   UNL     1     299.933 324.913 647.600  1.00  0.00     0.059 C 
ENDROOT
BRANCH   1   2
ATOM      2  C   UNL     1     301.387 324.559 647.517  1.00  0.00     0.042 C 
ATOM      3  O   UNL     1     301.749 323.353 647.566  1.00  0.00    -0.550 OA
ATOM      4  O   UNL     1     302.337 325.556 647.343  1.00  0.00    -0.550 OA
ENDBRANCH   1   2
BRANCH   1   5
ATOM      5  C   UNL     1     299.122 324.234 646.492  1.00  0.00     0.059 C 
BRANCH   5   6
ATOM      6  C   UNL     1     299.376 324.863 645.157  1.00  0.00     0.042 C 
ATOM      7  O   UNL     1     298.876 325.984 644.878  1.00  0.00    -0.550 OA
ATOM      8  O   UNL     1     300.134 324.191 644.205  1.00  0.00    -0.550 OA
ENDBRANCH   5   6
ENDBRANCH   1   5
TORSDOF 3
ENDMDL
MODEL 6
REMARK VINA RESULT:    -2.866      1.638      3.299
REMARK INTER + INTRA:          -3.495
REMARK INTER:                  -3.349
REMARK INTRA:                  -0.146
REMARK UNBOUND:                -0.127
REMARK SMILES O=C([O-])CCC(=O)[O-]
REMARK SMILES IDX 4 1 2 2 1 3 3 4 5 5 6 6 7 7 8 8
REMARK H PARENT
REMARK Flexibility Score: inf
ROOT
ATOM      1  C   UNL     1     298.875 325.847 645.591  1.00  0.00     0.059 C 
ENDROOT
BRANCH   1   2
ATOM      2  C   UNL     1     300.092 326.650 645.247  1.00  0.00     0.042 C 
ATOM      3  O   UNL     1     300.958 326.182 644.461  1.00  0.00    -0.550 OA
ATOM      4  O   UNL     1     300.250 327.930 645.761  1.00  0.00    -0.550 OA
ENDBRANCH   1   2
BRANCH   1   5
ATOM      5  C   UNL     1     299.211 324.364 645.780  1.00  0.00     0.059 C 
BRANCH   5   6
ATOM      6  C   UNL     1     299.881 324.113 647.096  1.00  0.00     0.042 C 
ATOM      7  O   UNL     1     299.259 324.312 648.172  1.00  0.00    -0.550 OA
ATOM      8  O   UNL     1     301.206 323.699 647.133  1.00  0.00    -0.550 OA
ENDBRANCH   5   6
ENDBRANCH   1   5
TORSDOF 3
ENDMDL
MODEL 7
REMARK VINA RESULT:    -2.794      1.538      2.304
REMARK INTER + INTRA:          -3.411
REMARK INTER:                  -3.246
REMARK INTRA:                  -0.165
REMARK UNBOUND:                -0.127
REMARK SMILES O=C([O-])CCC(=O)[O-]
REMARK SMILES IDX 4 1 2 2 1 3 3 4 5 5 6 6 7 7 8 8
REMARK H PARENT
REMARK Flexibility Score: inf
ROOT
ATOM      1  C   UNL     1     299.177 324.366 645.969  1.00  0.00     0.059 C 
ENDROOT
BRANCH   1   2
ATOM      2  C   UNL     1     300.027 324.296 647.200  1.00  0.00     0.042 C 
ATOM      3  O   UNL     1     299.628 324.817 648.276  1.00  0.00    -0.550 OA
ATOM      4  O   UNL     1     301.239 323.620 647.172  1.00  0.00    -0.550 OA
ENDBRANCH   1   2
BRANCH   1   5
ATOM      5  C   UNL     1     298.875 325.815 645.571  1.00  0.00     0.059 C 
BRANCH   5   6
ATOM      6  C   UNL     1     300.116 326.542 645.152  1.00  0.00     0.042 C 
ATOM      7  O   UNL     1     300.887 326.039 644.294  1.00  0.00    -0.550 OA
ATOM      8  O   UNL     1     300.442 327.756 645.742  1.00  0.00    -0.550 OA
ENDBRANCH   5   6
ENDBRANCH   1   5
TORSDOF 3
ENDMDL
MODEL 8
REMARK VINA RESULT:    -2.690      5.359      6.951
REMARK INTER + INTRA:          -3.288
REMARK INTER:                  -3.158
REMARK INTRA:                  -0.130
REMARK UNBOUND:                -0.127
REMARK SMILES O=C([O-])CCC(=O)[O-]
REMARK SMILES IDX 4 1 2 2 1 3 3 4 5 5 6 6 7 7 8 8
REMARK H PARENT
REMARK Flexibility Score: inf
ROOT
ATOM      1  C   UNL     1     304.662 320.542 649.687  1.00  0.00     0.059 C 
ENDROOT
BRANCH   1   2
ATOM      2  C   UNL     1     305.944 320.285 650.417  1.00  0.00     0.042 C 
ATOM      3  O   UNL     1     305.978 320.338 651.676  1.00  0.00    -0.550 OA
ATOM      4  O   UNL     1     307.091 319.945 649.713  1.00  0.00    -0.550 OA
ENDBRANCH   1   2
BRANCH   1   5
ATOM      5  C   UNL     1     304.868 321.486 648.497  1.00  0.00     0.059 C 
BRANCH   5   6
ATOM      6  C   UNL     1     304.862 322.922 648.924  1.00  0.00     0.042 C 
ATOM      7  O   UNL     1     303.773 323.530 649.087  1.00  0.00    -0.550 OA
ATOM      8  O   UNL     1     306.062 323.599 649.101  1.00  0.00    -0.550 OA
ENDBRANCH   5   6
ENDBRANCH   1   5
TORSDOF 3
ENDMDL
