MODEL 1
REMARK VINA RESULT:    -2.655      0.000      0.000
REMARK INTER + INTRA:          -3.930
REMARK INTER:                  -3.664
REMARK INTRA:                  -0.266
REMARK UNBOUND:                -0.266
REMARK SMILES CCCCCCCCO
REMARK SMILES IDX 5 1 4 2 3 3 2 4 1 5 6 6 7 7 8 8 9 9
REMARK H PARENT 9 10
REMARK Flexibility Score: inf
ROOT
ATOM      1  C   UNL     1     116.677 110.301 108.245  1.00  0.00     0.000 C 
ENDROOT
BRANCH   1   2
ATOM      2  C   UNL     1     115.325 109.642 108.588  1.00  0.00    -0.000 C 
BRANCH   2   3
ATOM      3  C   UNL     1     114.845 108.576 107.587  1.00  0.00    -0.000 C 
BRANCH   3   4
ATOM      4  C   UNL     1     114.409 107.272 108.268  1.00  0.00    -0.003 C 
ATOM      5  C   UNL     1     115.399 106.145 107.983  1.00  0.00     0.004 C 
ENDBRANCH   3   4
ENDBRANCH   2   3
ENDBRANCH   1   2
BRANCH   1   6
ATOM      6  C   UNL     1     117.919 109.520 108.707  1.00  0.00     0.002 C 
BRANCH   6   7
ATOM      7  C   UNL     1     119.007 110.429 109.302  1.00  0.00     0.028 C 
BRANCH   7   8
ATOM      8  C   UNL     1     118.551 111.890 109.367  1.00  0.00     0.156 C 
BRANCH   8   9
ATOM      9  O   UNL     1     118.268 112.269 110.687  1.00  0.00    -0.396 OA
ATOM     10  H   UNL     1     117.620 111.604 111.040  1.00  0.00     0.210 HD
ENDBRANCH   8   9
ENDBRANCH   7   8
ENDBRANCH   6   7
ENDBRANCH   1   6
TORSDOF 7
ENDMDL
MODEL 2
REMARK VINA RESULT:    -2.581     11.698     14.158
REMARK INTER + INTRA:          -3.827
REMARK INTER:                  -3.519
REMARK INTRA:                  -0.308
REMARK UNBOUND:                -0.266
REMARK SMILES CCCCCCCCO
REMARK SMILES IDX 5 1 4 2 3 3 2 4 1 5 6 6 7 7 8 8 9 9
REMARK H PARENT 9 10
REMARK Flexibility Score: inf
ROOT
ATOM      1  C   UNL     1     115.756 121.962 108.383  1.00  0.00     0.000 C 
ENDROOT
BRANCH   1   2
ATOM      2  C   UNL     1     116.667 122.945 107.621  1.00  0.00    -0.000 C 
BRANCH   2   3
ATOM      3  C   UNL     1     117.358 124.007 108.495  1.00  0.00    -0.000 C 
BRANCH   3   4
ATOM      4  C   UNL     1     117.236 125.425 107.919  1.00  0.00    -0.003 C 
ATOM      5  C   UNL     1     115.772 125.833 107.771  1.00  0.00     0.004 C 
ENDBRANCH   3   4
ENDBRANCH   2   3
ENDBRANCH   1   2
BRANCH   1   6
ATOM      6  C   UNL     1     114.266 122.341 108.412  1.00  0.00     0.002 C 
BRANCH   6   7
ATOM      7  C   UNL     1     113.564 121.899 109.707  1.00  0.00     0.028 C 
BRANCH   7   8
ATOM      8  C   UNL     1     113.124 120.433 109.640  1.00  0.00     0.156 C 
BRANCH   8   9
ATOM      9  O   UNL     1     113.769 119.670 110.624  1.00  0.00    -0.396 OA
ATOM     10  H   UNL     1     113.167 118.907 110.831  1.00  0.00     0.210 HD
ENDBRANCH   8   9
ENDBRANCH   7   8
ENDBRANCH   6   7
ENDBRANCH   1   6
TORSDOF 7
ENDMDL
MODEL 3
REMARK VINA RESULT:    -2.562      7.812      9.277
REMARK INTER + INTRA:          -3.801
REMARK INTER:                  -3.369
REMARK INTRA:                  -0.432
REMARK UNBOUND:                -0.266
REMARK SMILES CCCCCCCCO
REMARK SMILES IDX 5 1 4 2 3 3 2 4 1 5 6 6 7 7 8 8 9 9
REMARK H PARENT 9 10
REMARK Flexibility Score: inf
ROOT
ATOM      1  C   UNL     1     110.144 113.948 107.274  1.00  0.00     0.000 C 
ENDROOT
BRANCH   1   2
ATOM      2  C   UNL     1     109.656 115.342 106.829  1.00  0.00    -0.000 C 
BRANCH   2   3
ATOM      3  C   UNL     1     110.240 116.523 107.626  1.00  0.00    -0.000 C 
BRANCH   3   4
ATOM      4  C   UNL     1     109.313 116.998 108.753  1.00  0.00    -0.003 C 
ATOM      5  C   UNL     1     107.913 117.298 108.224  1.00  0.00     0.004 C 
ENDBRANCH   3   4
ENDBRANCH   2   3
ENDBRANCH   1   2
BRANCH   1   6
ATOM      6  C   UNL     1     109.309 113.288 108.385  1.00  0.00     0.002 C 
BRANCH   6   7
ATOM      7  C   UNL     1     110.074 113.169 109.714  1.00  0.00     0.028 C 
BRANCH   7   8
ATOM      8  C   UNL     1     111.591 113.165 109.495  1.00  0.00     0.156 C 
BRANCH   8   9
ATOM      9  O   UNL     1     112.257 113.738 110.588  1.00  0.00    -0.396 OA
ATOM     10  H   UNL     1     113.217 113.794 110.337  1.00  0.00     0.210 HD
ENDBRANCH   8   9
ENDBRANCH   7   8
ENDBRANCH   6   7
ENDBRANCH   1   6
TORSDOF 7
ENDMDL
MODEL 4
REMARK VINA RESULT:    -2.496      8.575      9.864
REMARK INTER + INTRA:          -3.710
REMARK INTER:                  -3.508
REMARK INTRA:                  -0.202
REMARK UNBOUND:                -0.266
REMARK SMILES CCCCCCCCO
REMARK SMILES IDX 5 1 4 2 3 3 2 4 1 5 6 6 7 7 8 8 9 9
REMARK H PARENT 9 10
REMARK Flexibility Score: inf
ROOT
ATOM      1  C   UNL     1     110.702 115.673 107.912  1.00  0.00     0.000 C 
ENDROOT
BRANCH   1   2
ATOM      2  C   UNL     1     110.032 117.060 107.846  1.00  0.00    -0.000 C 
BRANCH   2   3
ATOM      3  C   UNL     1     108.570 117.102 108.324  1.00  0.00    -0.000 C 
BRANCH   3   4
ATOM      4  C   UNL     1     107.578 117.365 107.182  1.00  0.00    -0.003 C 
ATOM      5  C   UNL     1     106.152 117.493 107.712  1.00  0.00     0.004 C 
ENDBRANCH   3   4
ENDBRANCH   2   3
ENDBRANCH   1   2
BRANCH   1   6
ATOM      6  C   UNL     1     110.279 114.800 109.106  1.00  0.00     0.002 C 
BRANCH   6   7
ATOM      7  C   UNL     1     110.553 113.304 108.878  1.00  0.00     0.028 C 
BRANCH   7   8
ATOM      8  C   UNL     1     111.858 112.860 109.544  1.00  0.00     0.156 C 
BRANCH   8   9
ATOM      9  O   UNL     1     112.236 113.755 110.556  1.00  0.00    -0.396 OA
ATOM     10  H   UNL     1     111.791 113.447 111.388  1.00  0.00     0.210 HD
ENDBRANCH   8   9
ENDBRANCH   7   8
ENDBRANCH   6   7
ENDBRANCH   1   6
TORSDOF 7
ENDMDL
MODEL 5
REMARK VINA RESULT:    -2.495     13.285     14.926
REMARK INTER + INTRA:          -3.709
REMARK INTER:                  -3.409
REMARK INTRA:                  -0.300
REMARK UNBOUND:                -0.266
REMARK SMILES CCCCCCCCO
REMARK SMILES IDX 5 1 4 2 3 3 2 4 1 5 6 6 7 7 8 8 9 9
REMARK H PARENT 9 10
REMARK Flexibility Score: inf
ROOT
ATOM      1  C   UNL     1     112.243 123.872 108.368  1.00  0.00     0.000 C 
ENDROOT
BRANCH   1   2
ATOM      2  C   UNL     1     112.139 124.430 109.802  1.00  0.00    -0.000 C 
BRANCH   2   3
ATOM      3  C   UNL     1     110.866 125.244 110.094  1.00  0.00    -0.000 C 
BRANCH   3   4
ATOM      4  C   UNL     1     109.592 124.565 109.575  1.00  0.00    -0.003 C 
ATOM      5  C   UNL     1     108.904 125.422 108.516  1.00  0.00     0.004 C 
ENDBRANCH   3   4
ENDBRANCH   2   3
ENDBRANCH   1   2
BRANCH   1   6
ATOM      6  C   UNL     1     112.534 122.364 108.274  1.00  0.00     0.002 C 
BRANCH   6   7
ATOM      7  C   UNL     1     112.968 121.756 109.618  1.00  0.00     0.028 C 
BRANCH   7   8
ATOM      8  C   UNL     1     113.343 120.277 109.476  1.00  0.00     0.156 C 
BRANCH   8   9
ATOM      9  O   UNL     1     113.719 119.733 110.713  1.00  0.00    -0.396 OA
ATOM     10  H   UNL     1     113.703 120.480 111.367  1.00  0.00     0.210 HD
ENDBRANCH   8   9
ENDBRANCH   7   8
ENDBRANCH   6   7
ENDBRANCH   1   6
TORSDOF 7
ENDMDL
MODEL 6
REMARK VINA RESULT:    -2.478     10.213     12.513
REMARK INTER + INTRA:          -3.686
REMARK INTER:                  -3.288
REMARK INTRA:                  -0.398
REMARK UNBOUND:                -0.266
REMARK SMILES CCCCCCCCO
REMARK SMILES IDX 5 1 4 2 3 3 2 4 1 5 6 6 7 7 8 8 9 9
REMARK H PARENT 9 10
REMARK Flexibility Score: inf
ROOT
ATOM      1  C   UNL     1     123.151 118.641 107.520  1.00  0.00     0.000 C 
ENDROOT
BRANCH   1   2
ATOM      2  C   UNL     1     123.834 119.978 107.874  1.00  0.00    -0.000 C 
BRANCH   2   3
ATOM      3  C   UNL     1     125.122 119.853 108.706  1.00  0.00    -0.000 C 
BRANCH   3   4
ATOM      4  C   UNL     1     125.009 120.520 110.083  1.00  0.00    -0.003 C 
ATOM      5  C   UNL     1     124.297 121.866 109.985  1.00  0.00     0.004 C 
ENDBRANCH   3   4
ENDBRANCH   2   3
ENDBRANCH   1   2
BRANCH   1   6
ATOM      6  C   UNL     1     122.308 118.020 108.648  1.00  0.00     0.002 C 
BRANCH   6   7
ATOM      7  C   UNL     1     121.603 119.076 109.515  1.00  0.00     0.028 C 
BRANCH   7   8
ATOM      8  C   UNL     1     120.082 118.897 109.500  1.00  0.00     0.156 C 
BRANCH   8   9
ATOM      9  O   UNL     1     119.644 118.229 110.653  1.00  0.00    -0.396 OA
ATOM     10  H   UNL     1     119.271 117.358 110.352  1.00  0.00     0.210 HD
ENDBRANCH   8   9
ENDBRANCH   7   8
ENDBRANCH   6   7
ENDBRANCH   1   6
TORSDOF 7
ENDMDL
MODEL 7
REMARK VINA RESULT:    -2.478      3.206      4.974
REMARK INTER + INTRA:          -3.686
REMARK INTER:                  -3.481
REMARK INTRA:                  -0.205
REMARK UNBOUND:                -0.266
REMARK SMILES CCCCCCCCO
REMARK SMILES IDX 5 1 4 2 3 3 2 4 1 5 6 6 7 7 8 8 9 9
REMARK H PARENT 9 10
REMARK Flexibility Score: inf
ROOT
ATOM      1  C   UNL     1     119.709 108.671 108.400  1.00  0.00     0.000 C 
ENDROOT
BRANCH   1   2
ATOM      2  C   UNL     1     120.962 107.773 108.435  1.00  0.00    -0.000 C 
BRANCH   2   3
ATOM      3  C   UNL     1     121.694 107.724 109.787  1.00  0.00    -0.000 C 
BRANCH   3   4
ATOM      4  C   UNL     1     122.014 106.293 110.241  1.00  0.00    -0.003 C 
ATOM      5  C   UNL     1     121.883 106.155 111.756  1.00  0.00     0.004 C 
ENDBRANCH   3   4
ENDBRANCH   2   3
ENDBRANCH   1   2
BRANCH   1   6
ATOM      6  C   UNL     1     119.333 109.318 109.745  1.00  0.00     0.002 C 
BRANCH   6   7
ATOM      7  C   UNL     1     118.154 110.297 109.626  1.00  0.00     0.028 C 
BRANCH   7   8
ATOM      8  C   UNL     1     118.632 111.750 109.534  1.00  0.00     0.156 C 
BRANCH   8   9
ATOM      9  O   UNL     1     118.227 112.484 110.658  1.00  0.00    -0.396 OA
ATOM     10  H   UNL     1     118.699 113.357 110.612  1.00  0.00     0.210 HD
ENDBRANCH   8   9
ENDBRANCH   7   8
ENDBRANCH   6   7
ENDBRANCH   1   6
TORSDOF 7
ENDMDL
MODEL 8
REMARK VINA RESULT:    -2.463      1.135      1.898
REMARK INTER + INTRA:          -3.664
REMARK INTER:                  -3.290
REMARK INTRA:                  -0.374
REMARK UNBOUND:                -0.266
REMARK SMILES CCCCCCCCO
REMARK SMILES IDX 5 1 4 2 3 3 2 4 1 5 6 6 7 7 8 8 9 9
REMARK H PARENT 9 10
REMARK Flexibility Score: inf
ROOT
ATOM      1  C   UNL     1     118.593 108.415 107.719  1.00  0.00     0.000 C 
ENDROOT
BRANCH   1   2
ATOM      2  C   UNL     1     117.159 108.673 107.212  1.00  0.00    -0.000 C 
BRANCH   2   3
ATOM      3  C   UNL     1     116.135 107.581 107.569  1.00  0.00    -0.000 C 
BRANCH   3   4
ATOM      4  C   UNL     1     114.869 108.144 108.230  1.00  0.00    -0.003 C 
ATOM      5  C   UNL     1     115.007 109.642 108.493  1.00  0.00     0.004 C 
ENDBRANCH   3   4
ENDBRANCH   2   3
ENDBRANCH   1   2
BRANCH   1   6
ATOM      6  C   UNL     1     119.334 109.659 108.240  1.00  0.00     0.002 C 
BRANCH   6   7
ATOM      7  C   UNL     1     118.719 110.221 109.532  1.00  0.00     0.028 C 
BRANCH   7   8
ATOM      8  C   UNL     1     118.454 111.726 109.423  1.00  0.00     0.156 C 
BRANCH   8   9
ATOM      9  O   UNL     1     118.251 112.293 110.691  1.00  0.00    -0.396 OA
ATOM     10  H   UNL     1     119.075 112.805 110.907  1.00  0.00     0.210 HD
ENDBRANCH   8   9
ENDBRANCH   7   8
ENDBRANCH   6   7
ENDBRANCH   1   6
TORSDOF 7
ENDMDL
MODEL 9
REMARK VINA RESULT:    -2.458      7.207      8.243
REMARK INTER + INTRA:          -3.657
REMARK INTER:                  -3.453
REMARK INTRA:                  -0.204
REMARK UNBOUND:                -0.266
REMARK SMILES CCCCCCCCO
REMARK SMILES IDX 5 1 4 2 3 3 2 4 1 5 6 6 7 7 8 8 9 9
REMARK H PARENT 9 10
REMARK Flexibility Score: inf
ROOT
ATOM      1  C   UNL     1     108.363 113.352 108.206  1.00  0.00     0.000 C 
ENDROOT
BRANCH   1   2
ATOM      2  C   UNL     1     108.425 111.823 108.399  1.00  0.00    -0.000 C 
BRANCH   2   3
ATOM      3  C   UNL     1     108.201 111.337 109.842  1.00  0.00    -0.000 C 
BRANCH   3   4
ATOM      4  C   UNL     1     107.625 109.916 109.910  1.00  0.00    -0.003 C 
ATOM      5  C   UNL     1     106.446 109.847 110.877  1.00  0.00     0.004 C 
ENDBRANCH   3   4
ENDBRANCH   2   3
ENDBRANCH   1   2
BRANCH   1   6
ATOM      6  C   UNL     1     109.724 114.037 107.993  1.00  0.00     0.002 C 
BRANCH   6   7
ATOM      7  C   UNL     1     110.440 114.364 109.313  1.00  0.00     0.028 C 
BRANCH   7   8
ATOM      8  C   UNL     1     111.592 113.392 109.587  1.00  0.00     0.156 C 
BRANCH   8   9
ATOM      9  O   UNL     1     112.256 113.723 110.778  1.00  0.00    -0.396 OA
ATOM     10  H   UNL     1     113.171 113.342 110.707  1.00  0.00     0.210 HD
ENDBRANCH   8   9
ENDBRANCH   7   8
ENDBRANCH   6   7
ENDBRANCH   1   6
TORSDOF 7
ENDMDL
