MODEL 1
REMARK VINA RESULT:    -4.848      0.000      0.000
REMARK INTER + INTRA:          -6.200
REMARK INTER:                  -5.981
REMARK INTRA:                  -0.219
REMARK UNBOUND:                -0.219
REMARK SMILES [NH3+][C@@H](Cc1ccc(O)cc1)C(=O)[O-]
REMARK SMILES IDX 3 1 2 2 1 3 11 7 12 8 13 9 4 10 5 11 10 12 6 13 9 14 7 15
REMARK SMILES IDX 8 16
REMARK H PARENT 1 4 1 5 1 6 8 17
REMARK Flexibility Score: inf
ROOT
ATOM      1  C   UNL     1      66.232  -4.271   3.203  1.00  0.00     0.107 C 
ENDROOT
BRANCH   1   2
ATOM      2  C   UNL     1      66.075  -3.986   1.695  1.00  0.00     0.232 C 
BRANCH   2   3
ATOM      3  N   UNL     1      65.537  -5.151   0.979  1.00  0.00    -0.350 N 
ATOM      4  H   UNL     1      64.524  -5.275   1.206  1.00  0.00     0.345 HD
ATOM      5  H   UNL     1      66.057  -6.020   1.240  1.00  0.00     0.345 HD
ATOM      6  H   UNL     1      65.616  -5.001  -0.054  1.00  0.00     0.345 HD
ENDBRANCH   2   3
BRANCH   2   7
ATOM      7  C   UNL     1      67.403  -3.583   1.110  1.00  0.00     0.099 C 
ATOM      8  O   UNL     1      67.856  -4.170   0.091  1.00  0.00    -0.544 OA
ATOM      9  O   UNL     1      68.148  -2.574   1.708  1.00  0.00    -0.544 OA
ENDBRANCH   2   7
ENDBRANCH   1   2
BRANCH   1  10
ATOM     10  C   UNL     1      65.656  -3.162   4.047  1.00  0.00    -0.041 A 
ATOM     11  C   UNL     1      64.376  -2.655   3.767  1.00  0.00     0.008 A 
ATOM     12  C   UNL     1      66.375  -2.651   5.139  1.00  0.00     0.008 A 
ATOM     13  C   UNL     1      63.830  -1.643   4.562  1.00  0.00     0.046 A 
ATOM     14  C   UNL     1      65.827  -1.638   5.932  1.00  0.00     0.046 A 
ATOM     15  C   UNL     1      64.552  -1.131   5.645  1.00  0.00     0.115 A 
BRANCH  15  16
ATOM     16  O   UNL     1      63.995  -0.123   6.429  1.00  0.00    -0.508 OA
ATOM     17  H   UNL     1      63.771  -0.274   7.405  1.00  0.00     0.293 HD
ENDBRANCH  15  16
ENDBRANCH   1  10
TORSDOF 5
ENDMDL
MODEL 2
REMARK VINA RESULT:    -4.831      0.106      1.348
REMARK INTER + INTRA:          -6.180
REMARK INTER:                  -5.957
REMARK INTRA:                  -0.224
REMARK UNBOUND:                -0.219
REMARK SMILES [NH3+][C@@H](Cc1ccc(O)cc1)C(=O)[O-]
REMARK SMILES IDX 3 1 2 2 1 3 11 7 12 8 13 9 4 10 5 11 10 12 6 13 9 14 7 15
REMARK SMILES IDX 8 16
REMARK H PARENT 1 4 1 5 1 6 8 17
REMARK Flexibility Score: inf
ROOT
ATOM      1  C   UNL     1      66.264  -4.280   3.227  1.00  0.00     0.107 C 
ENDROOT
BRANCH   1   2
ATOM      2  C   UNL     1      66.158  -3.951   1.723  1.00  0.00     0.232 C 
BRANCH   2   3
ATOM      3  N   UNL     1      65.658  -5.099   0.953  1.00  0.00    -0.350 N 
ATOM      4  H   UNL     1      65.410  -4.799  -0.017  1.00  0.00     0.345 HD
ATOM      5  H   UNL     1      64.814  -5.514   1.412  1.00  0.00     0.345 HD
ATOM      6  H   UNL     1      66.404  -5.831   0.880  1.00  0.00     0.345 HD
ENDBRANCH   2   3
BRANCH   2   7
ATOM      7  C   UNL     1      67.502  -3.518   1.199  1.00  0.00     0.099 C 
ATOM      8  O   UNL     1      67.993  -4.061   0.173  1.00  0.00    -0.544 OA
ATOM      9  O   UNL     1      68.219  -2.529   1.861  1.00  0.00    -0.544 OA
ENDBRANCH   2   7
ENDBRANCH   1   2
BRANCH   1  10
ATOM     10  C   UNL     1      65.645  -3.203   4.082  1.00  0.00    -0.041 A 
ATOM     11  C   UNL     1      66.331  -2.712   5.205  1.00  0.00     0.008 A 
ATOM     12  C   UNL     1      64.396  -2.656   3.745  1.00  0.00     0.008 A 
ATOM     13  C   UNL     1      65.770  -1.698   5.986  1.00  0.00     0.046 A 
ATOM     14  C   UNL     1      63.837  -1.642   4.528  1.00  0.00     0.046 A 
ATOM     15  C   UNL     1      64.522  -1.160   5.652  1.00  0.00     0.115 A 
BRANCH  15  16
ATOM     16  O   UNL     1      63.976  -0.150   6.439  1.00  0.00    -0.508 OA
ATOM     17  H   UNL     1      64.524   0.328   7.144  1.00  0.00     0.293 HD
ENDBRANCH  15  16
ENDBRANCH   1  10
TORSDOF 5
ENDMDL
MODEL 3
REMARK VINA RESULT:    -4.740      2.293      5.422
REMARK INTER + INTRA:          -6.067
REMARK INTER:                  -5.824
REMARK INTRA:                  -0.243
REMARK UNBOUND:                -0.219
REMARK SMILES [NH3+][C@@H](Cc1ccc(O)cc1)C(=O)[O-]
REMARK SMILES IDX 3 1 2 2 1 3 11 7 12 8 13 9 4 10 5 11 10 12 6 13 9 14 7 15
REMARK SMILES IDX 8 16
REMARK H PARENT 1 4 1 5 1 6 8 17
REMARK Flexibility Score: inf
ROOT
ATOM      1  C   UNL     1      65.587  -3.767   4.496  1.00  0.00     0.107 C 
ENDROOT
BRANCH   1   2
ATOM      2  C   UNL     1      65.486  -2.228   4.514  1.00  0.00     0.232 C 
BRANCH   2   3
ATOM      3  N   UNL     1      66.131  -1.658   5.705  1.00  0.00    -0.350 N 
ATOM      4  H   UNL     1      66.707  -2.388   6.184  1.00  0.00     0.345 HD
ATOM      5  H   UNL     1      65.416  -1.289   6.374  1.00  0.00     0.345 HD
ATOM      6  H   UNL     1      66.772  -0.880   5.424  1.00  0.00     0.345 HD
ENDBRANCH   2   3
BRANCH   2   7
ATOM      7  C   UNL     1      64.040  -1.810   4.455  1.00  0.00     0.099 C 
ATOM      8  O   UNL     1      63.389  -1.611   5.516  1.00  0.00    -0.544 OA
ATOM      9  O   UNL     1      63.409  -1.664   3.226  1.00  0.00    -0.544 OA
ENDBRANCH   2   7
ENDBRANCH   1   2
BRANCH   1  10
ATOM     10  C   UNL     1      65.979  -4.289   3.136  1.00  0.00    -0.041 A 
ATOM     11  C   UNL     1      65.679  -5.613   2.776  1.00  0.00     0.008 A 
ATOM     12  C   UNL     1      66.613  -3.448   2.207  1.00  0.00     0.008 A 
ATOM     13  C   UNL     1      66.021  -6.092   1.508  1.00  0.00     0.046 A 
ATOM     14  C   UNL     1      66.953  -3.930   0.940  1.00  0.00     0.046 A 
ATOM     15  C   UNL     1      66.659  -5.254   0.586  1.00  0.00     0.115 A 
BRANCH  15  16
ATOM     16  O   UNL     1      66.992  -5.745  -0.673  1.00  0.00    -0.508 OA
ATOM     17  H   UNL     1      67.167  -5.124  -1.455  1.00  0.00     0.293 HD
ENDBRANCH  15  16
ENDBRANCH   1  10
TORSDOF 5
ENDMDL
MODEL 4
REMARK VINA RESULT:    -4.723      2.147      2.383
REMARK INTER + INTRA:          -6.046
REMARK INTER:                  -5.807
REMARK INTRA:                  -0.239
REMARK UNBOUND:                -0.219
REMARK SMILES [NH3+][C@@H](Cc1ccc(O)cc1)C(=O)[O-]
REMARK SMILES IDX 3 1 2 2 1 3 11 7 12 8 13 9 4 10 5 11 10 12 6 13 9 14 7 15
REMARK SMILES IDX 8 16
REMARK H PARENT 1 4 1 5 1 6 8 17
REMARK Flexibility Score: inf
ROOT
ATOM      1  C   UNL     1      65.140  -3.904   1.872  1.00  0.00     0.107 C 
ENDROOT
BRANCH   1   2
ATOM      2  C   UNL     1      66.181  -5.038   1.762  1.00  0.00     0.232 C 
BRANCH   2   3
ATOM      3  N   UNL     1      66.707  -5.158   0.395  1.00  0.00    -0.350 N 
ATOM      4  H   UNL     1      67.557  -4.559   0.284  1.00  0.00     0.345 HD
ATOM      5  H   UNL     1      65.987  -4.866  -0.306  1.00  0.00     0.345 HD
ATOM      6  H   UNL     1      66.988  -6.148   0.207  1.00  0.00     0.345 HD
ENDBRANCH   2   3
BRANCH   2   7
ATOM      7  C   UNL     1      65.565  -6.340   2.199  1.00  0.00     0.099 C 
ATOM      8  O   UNL     1      65.174  -7.180   1.345  1.00  0.00    -0.544 OA
ATOM      9  O   UNL     1      65.405  -6.613   3.552  1.00  0.00    -0.544 OA
ENDBRANCH   2   7
ENDBRANCH   1   2
BRANCH   1  10
ATOM     10  C   UNL     1      65.310  -3.106   3.140  1.00  0.00    -0.041 A 
ATOM     11  C   UNL     1      64.233  -2.369   3.659  1.00  0.00     0.008 A 
ATOM     12  C   UNL     1      66.532  -3.120   3.831  1.00  0.00     0.008 A 
ATOM     13  C   UNL     1      64.381  -1.648   4.847  1.00  0.00     0.046 A 
ATOM     14  C   UNL     1      66.677  -2.397   5.019  1.00  0.00     0.046 A 
ATOM     15  C   UNL     1      65.602  -1.658   5.530  1.00  0.00     0.115 A 
BRANCH  15  16
ATOM     16  O   UNL     1      65.735  -0.934   6.713  1.00  0.00    -0.508 OA
ATOM     17  H   UNL     1      66.452  -1.158   7.393  1.00  0.00     0.293 HD
ENDBRANCH  15  16
ENDBRANCH   1  10
TORSDOF 5
ENDMDL
MODEL 5
REMARK VINA RESULT:    -4.712      2.136      2.666
REMARK INTER + INTRA:          -6.033
REMARK INTER:                  -5.799
REMARK INTRA:                  -0.234
REMARK UNBOUND:                -0.219
REMARK SMILES [NH3+][C@@H](Cc1ccc(O)cc1)C(=O)[O-]
REMARK SMILES IDX 3 1 2 2 1 3 11 7 12 8 13 9 4 10 5 11 10 12 6 13 9 14 7 15
REMARK SMILES IDX 8 16
REMARK H PARENT 1 4 1 5 1 6 8 17
REMARK Flexibility Score: inf
ROOT
ATOM      1  C   UNL     1      65.124  -3.936   1.884  1.00  0.00     0.107 C 
ENDROOT
BRANCH   1   2
ATOM      2  C   UNL     1      66.194  -5.044   1.786  1.00  0.00     0.232 C 
BRANCH   2   3
ATOM      3  N   UNL     1      66.749  -5.140   0.429  1.00  0.00    -0.350 N 
ATOM      4  H   UNL     1      65.977  -5.117  -0.276  1.00  0.00     0.345 HD
ATOM      5  H   UNL     1      67.295  -6.025   0.313  1.00  0.00     0.345 HD
ATOM      6  H   UNL     1      67.376  -4.323   0.242  1.00  0.00     0.345 HD
ENDBRANCH   2   3
BRANCH   2   7
ATOM      7  C   UNL     1      65.601  -6.364   2.202  1.00  0.00     0.099 C 
ATOM      8  O   UNL     1      65.222  -7.195   1.333  1.00  0.00    -0.544 OA
ATOM      9  O   UNL     1      65.448  -6.663   3.549  1.00  0.00    -0.544 OA
ENDBRANCH   2   7
ENDBRANCH   1   2
BRANCH   1  10
ATOM     10  C   UNL     1      65.240  -3.156   3.170  1.00  0.00    -0.041 A 
ATOM     11  C   UNL     1      66.440  -3.173   3.900  1.00  0.00     0.008 A 
ATOM     12  C   UNL     1      64.164  -2.379   3.630  1.00  0.00     0.008 A 
ATOM     13  C   UNL     1      66.557  -2.432   5.080  1.00  0.00     0.046 A 
ATOM     14  C   UNL     1      64.285  -1.639   4.810  1.00  0.00     0.046 A 
ATOM     15  C   UNL     1      65.481  -1.665   5.539  1.00  0.00     0.115 A 
BRANCH  15  16
ATOM     16  O   UNL     1      65.613  -0.931   6.716  1.00  0.00    -0.508 OA
ATOM     17  H   UNL     1      66.264  -0.158   6.789  1.00  0.00     0.293 HD
ENDBRANCH  15  16
ENDBRANCH   1  10
TORSDOF 5
ENDMDL
MODEL 6
REMARK VINA RESULT:    -4.665      1.323      2.062
REMARK INTER + INTRA:          -5.975
REMARK INTER:                  -5.795
REMARK INTRA:                  -0.180
REMARK UNBOUND:                -0.219
REMARK SMILES [NH3+][C@@H](Cc1ccc(O)cc1)C(=O)[O-]
REMARK SMILES IDX 3 1 2 2 1 3 11 7 12 8 13 9 4 10 5 11 10 12 6 13 9 14 7 15
REMARK SMILES IDX 8 16
REMARK H PARENT 1 4 1 5 1 6 8 17
REMARK Flexibility Score: inf
ROOT
ATOM      1  C   UNL     1      66.592  -3.633   2.615  1.00  0.00     0.107 C 
ENDROOT
BRANCH   1   2
ATOM      2  C   UNL     1      65.797  -4.901   2.240  1.00  0.00     0.232 C 
BRANCH   2   3
ATOM      3  N   UNL     1      65.790  -5.878   3.338  1.00  0.00    -0.350 N 
ATOM      4  H   UNL     1      66.131  -6.805   2.994  1.00  0.00     0.345 HD
ATOM      5  H   UNL     1      64.827  -5.989   3.730  1.00  0.00     0.345 HD
ATOM      6  H   UNL     1      66.437  -5.563   4.099  1.00  0.00     0.345 HD
ENDBRANCH   2   3
BRANCH   2   7
ATOM      7  C   UNL     1      66.378  -5.519   0.996  1.00  0.00     0.099 C 
ATOM      8  O   UNL     1      66.107  -6.711   0.689  1.00  0.00    -0.544 OA
ATOM      9  O   UNL     1      67.237  -4.782   0.191  1.00  0.00    -0.544 OA
ENDBRANCH   2   7
ENDBRANCH   1   2
BRANCH   1  10
ATOM     10  C   UNL     1      65.882  -2.815   3.665  1.00  0.00    -0.041 A 
ATOM     11  C   UNL     1      66.589  -2.332   4.779  1.00  0.00     0.008 A 
ATOM     12  C   UNL     1      64.521  -2.500   3.522  1.00  0.00     0.008 A 
ATOM     13  C   UNL     1      65.939  -1.554   5.742  1.00  0.00     0.046 A 
ATOM     14  C   UNL     1      63.874  -1.722   4.487  1.00  0.00     0.046 A 
ATOM     15  C   UNL     1      64.581  -1.248   5.601  1.00  0.00     0.115 A 
BRANCH  15  16
ATOM     16  O   UNL     1      63.947  -0.472   6.568  1.00  0.00    -0.508 OA
ATOM     17  H   UNL     1      64.452  -0.101   7.364  1.00  0.00     0.293 HD
ENDBRANCH  15  16
ENDBRANCH   1  10
TORSDOF 5
ENDMDL
MODEL 7
REMARK VINA RESULT:    -4.441      2.352      5.344
REMARK INTER + INTRA:          -5.699
REMARK INTER:                  -5.507
REMARK INTRA:                  -0.192
REMARK UNBOUND:                -0.219
REMARK SMILES [NH3+][C@@H](Cc1ccc(O)cc1)C(=O)[O-]
REMARK SMILES IDX 3 1 2 2 1 3 11 7 12 8 13 9 4 10 5 11 10 12 6 13 9 14 7 15
REMARK SMILES IDX 8 16
REMARK H PARENT 1 4 1 5 1 6 8 17
REMARK Flexibility Score: inf
ROOT
ATOM      1  C   UNL     1      66.034  -2.588   3.609  1.00  0.00     0.107 C 
ENDROOT
BRANCH   1   2
ATOM      2  C   UNL     1      64.830  -2.371   4.550  1.00  0.00     0.232 C 
BRANCH   2   3
ATOM      3  N   UNL     1      63.636  -1.942   3.808  1.00  0.00    -0.350 N 
ATOM      4  H   UNL     1      63.711  -2.236   2.808  1.00  0.00     0.345 HD
ATOM      5  H   UNL     1      63.524  -0.903   3.854  1.00  0.00     0.345 HD
ATOM      6  H   UNL     1      62.784  -2.398   4.211  1.00  0.00     0.345 HD
ENDBRANCH   2   3
BRANCH   2   7
ATOM      7  C   UNL     1      65.182  -1.355   5.604  1.00  0.00     0.099 C 
ATOM      8  O   UNL     1      66.363  -1.264   6.033  1.00  0.00    -0.544 OA
ATOM      9  O   UNL     1      64.197  -0.527   6.126  1.00  0.00    -0.544 OA
ENDBRANCH   2   7
ENDBRANCH   1   2
BRANCH   1  10
ATOM     10  C   UNL     1      66.011  -3.955   2.972  1.00  0.00    -0.041 A 
ATOM     11  C   UNL     1      66.247  -4.095   1.595  1.00  0.00     0.008 A 
ATOM     12  C   UNL     1      65.788  -5.100   3.753  1.00  0.00     0.008 A 
ATOM     13  C   UNL     1      66.249  -5.363   1.006  1.00  0.00     0.046 A 
ATOM     14  C   UNL     1      65.790  -6.367   3.161  1.00  0.00     0.046 A 
ATOM     15  C   UNL     1      66.020  -6.502   1.785  1.00  0.00     0.115 A 
BRANCH  15  16
ATOM     16  O   UNL     1      66.025  -7.759   1.185  1.00  0.00    -0.508 OA
ATOM     17  H   UNL     1      66.605  -8.511   1.537  1.00  0.00     0.293 HD
ENDBRANCH  15  16
ENDBRANCH   1  10
TORSDOF 5
ENDMDL
MODEL 8
REMARK VINA RESULT:    -4.408      2.200      5.375
REMARK INTER + INTRA:          -5.657
REMARK INTER:                  -5.617
REMARK INTRA:                  -0.040
REMARK UNBOUND:                -0.219
REMARK SMILES [NH3+][C@@H](Cc1ccc(O)cc1)C(=O)[O-]
REMARK SMILES IDX 3 1 2 2 1 3 11 7 12 8 13 9 4 10 5 11 10 12 6 13 9 14 7 15
REMARK SMILES IDX 8 16
REMARK H PARENT 1 4 1 5 1 6 8 17
REMARK Flexibility Score: inf
ROOT
ATOM      1  C   UNL     1      66.885  -1.879   4.051  1.00  0.00     0.107 C 
ENDROOT
BRANCH   1   2
ATOM      2  C   UNL     1      65.652  -2.046   4.963  1.00  0.00     0.232 C 
BRANCH   2   3
ATOM      3  N   UNL     1      64.509  -1.263   4.474  1.00  0.00    -0.350 N 
ATOM      4  H   UNL     1      63.740  -1.270   5.182  1.00  0.00     0.345 HD
ATOM      5  H   UNL     1      64.149  -1.655   3.572  1.00  0.00     0.345 HD
ATOM      6  H   UNL     1      64.797  -0.268   4.325  1.00  0.00     0.345 HD
ENDBRANCH   2   3
BRANCH   2   7
ATOM      7  C   UNL     1      65.998  -1.639   6.370  1.00  0.00     0.099 C 
ATOM      8  O   UNL     1      67.049  -2.069   6.919  1.00  0.00    -0.544 OA
ATOM      9  O   UNL     1      65.147  -0.803   7.081  1.00  0.00    -0.544 OA
ENDBRANCH   2   7
ENDBRANCH   1   2
BRANCH   1  10
ATOM     10  C   UNL     1      66.876  -2.863   2.908  1.00  0.00    -0.041 A 
ATOM     11  C   UNL     1      65.820  -3.780   2.774  1.00  0.00     0.008 A 
ATOM     12  C   UNL     1      67.902  -2.849   1.949  1.00  0.00     0.008 A 
ATOM     13  C   UNL     1      65.798  -4.677   1.703  1.00  0.00     0.046 A 
ATOM     14  C   UNL     1      67.877  -3.748   0.879  1.00  0.00     0.046 A 
ATOM     15  C   UNL     1      66.825  -4.666   0.753  1.00  0.00     0.115 A 
BRANCH  15  16
ATOM     16  O   UNL     1      66.789  -5.566  -0.310  1.00  0.00    -0.508 OA
ATOM     17  H   UNL     1      67.211  -6.484  -0.240  1.00  0.00     0.293 HD
ENDBRANCH  15  16
ENDBRANCH   1  10
TORSDOF 5
ENDMDL
MODEL 9
REMARK VINA RESULT:    -4.378      1.367      1.838
REMARK INTER + INTRA:          -5.620
REMARK INTER:                  -5.380
REMARK INTRA:                  -0.241
REMARK UNBOUND:                -0.219
REMARK SMILES [NH3+][C@@H](Cc1ccc(O)cc1)C(=O)[O-]
REMARK SMILES IDX 3 1 2 2 1 3 11 7 12 8 13 9 4 10 5 11 10 12 6 13 9 14 7 15
REMARK SMILES IDX 8 16
REMARK H PARENT 1 4 1 5 1 6 8 17
REMARK Flexibility Score: inf
ROOT
ATOM      1  C   UNL     1      66.465  -5.509   2.721  1.00  0.00     0.107 C 
ENDROOT
BRANCH   1   2
ATOM      2  C   UNL     1      65.928  -5.566   1.276  1.00  0.00     0.232 C 
BRANCH   2   3
ATOM      3  N   UNL     1      65.260  -6.845   0.998  1.00  0.00    -0.350 N 
ATOM      4  H   UNL     1      65.873  -7.447   0.403  1.00  0.00     0.345 HD
ATOM      5  H   UNL     1      64.349  -6.689   0.507  1.00  0.00     0.345 HD
ATOM      6  H   UNL     1      65.084  -7.356   1.894  1.00  0.00     0.345 HD
ENDBRANCH   2   3
BRANCH   2   7
ATOM      7  C   UNL     1      67.056  -5.345   0.303  1.00  0.00     0.099 C 
ATOM      8  O   UNL     1      67.648  -4.233   0.254  1.00  0.00    -0.544 OA
ATOM      9  O   UNL     1      67.435  -6.362  -0.563  1.00  0.00    -0.544 OA
ENDBRANCH   2   7
ENDBRANCH   1   2
BRANCH   1  10
ATOM     10  C   UNL     1      66.018  -4.260   3.438  1.00  0.00    -0.041 A 
ATOM     11  C   UNL     1      64.935  -3.513   2.945  1.00  0.00     0.008 A 
ATOM     12  C   UNL     1      66.655  -3.851   4.620  1.00  0.00     0.008 A 
ATOM     13  C   UNL     1      64.504  -2.368   3.620  1.00  0.00     0.046 A 
ATOM     14  C   UNL     1      66.222  -2.704   5.293  1.00  0.00     0.046 A 
ATOM     15  C   UNL     1      65.145  -1.959   4.795  1.00  0.00     0.115 A 
BRANCH  15  16
ATOM     16  O   UNL     1      64.704  -0.816   5.457  1.00  0.00    -0.508 OA
ATOM     17  H   UNL     1      64.805  -0.712   6.460  1.00  0.00     0.293 HD
ENDBRANCH  15  16
ENDBRANCH   1  10
TORSDOF 5
ENDMDL
