MODEL 1
REMARK VINA RESULT:    -4.751      0.000      0.000
REMARK INTER + INTRA:          -6.180
REMARK INTER:                  -5.862
REMARK INTRA:                  -0.317
REMARK UNBOUND:                -0.317
REMARK SMILES C=CCc1ccc(OC)c(OC)c1
REMARK SMILES IDX 7 1 10 2 13 3 4 4 5 5 6 6 8 7 9 8 11 9 12 10 3 11 2 12 1 13
REMARK H PARENT
REMARK Flexibility Score: inf
ROOT
ATOM      1  C   UNL     1      16.064 -10.449  12.512  1.00  0.00     0.160 A 
ATOM      2  C   UNL     1      15.296  -9.276  12.451  1.00  0.00     0.160 A 
ATOM      3  C   UNL     1      15.860  -8.051  12.858  1.00  0.00     0.054 A 
ATOM      4  C   UNL     1      17.181  -7.995  13.328  1.00  0.00    -0.040 A 
ATOM      5  C   UNL     1      17.945  -9.169  13.375  1.00  0.00     0.008 A 
ATOM      6  C   UNL     1      17.392 -10.387  12.976  1.00  0.00     0.051 A 
ENDROOT
BRANCH   1   7
ATOM      7  O   UNL     1      15.475 -11.655  12.103  1.00  0.00    -0.493 OA
ATOM      8  C   UNL     1      15.863 -12.943  12.571  1.00  0.00     0.278 C 
ENDBRANCH   1   7
BRANCH   2   9
ATOM      9  O   UNL     1      13.977  -9.369  11.980  1.00  0.00    -0.493 OA
ATOM     10  C   UNL     1      12.819  -9.325  12.808  1.00  0.00     0.278 C 
ENDBRANCH   2   9
BRANCH   4  11
ATOM     11  C   UNL     1      17.793  -6.680  13.731  1.00  0.00     0.062 C 
BRANCH  11  12
ATOM     12  C   UNL     1      17.035  -6.067  14.874  1.00  0.00    -0.030 C 
ATOM     13  C   UNL     1      17.219  -6.469  16.135  1.00  0.00     0.004 C 
ENDBRANCH  11  12
ENDBRANCH   4  11
TORSDOF 4
ENDMDL
MODEL 2
REMARK VINA RESULT:    -4.494      1.837      4.622
REMARK INTER + INTRA:          -5.862
REMARK INTER:                  -5.571
REMARK INTRA:                  -0.291
REMARK UNBOUND:                -0.317
REMARK SMILES C=CCc1ccc(OC)c(OC)c1
REMARK SMILES IDX 7 1 10 2 13 3 4 4 5 5 6 6 8 7 9 8 11 9 12 10 3 11 2 12 1 13
REMARK H PARENT
REMARK Flexibility Score: inf
ROOT
ATOM      1  C   UNL     1      17.182  -7.891  13.484  1.00  0.00     0.160 A 
ATOM      2  C   UNL     1      15.992  -8.104  12.771  1.00  0.00     0.160 A 
ATOM      3  C   UNL     1      15.687  -9.395  12.294  1.00  0.00     0.054 A 
ATOM      4  C   UNL     1      16.564 -10.466  12.521  1.00  0.00    -0.040 A 
ATOM      5  C   UNL     1      17.744 -10.246  13.244  1.00  0.00     0.008 A 
ATOM      6  C   UNL     1      18.055  -8.971  13.717  1.00  0.00     0.051 A 
ENDROOT
BRANCH   1   7
ATOM      7  O   UNL     1      17.461  -6.595  13.944  1.00  0.00    -0.493 OA
ATOM      8  C   UNL     1      17.219  -6.140  15.272  1.00  0.00     0.278 C 
ENDBRANCH   1   7
BRANCH   2   9
ATOM      9  O   UNL     1      15.139  -7.010  12.558  1.00  0.00    -0.493 OA
ATOM     10  C   UNL     1      13.994  -6.712  13.351  1.00  0.00     0.278 C 
ENDBRANCH   2   9
BRANCH   4  11
ATOM     11  C   UNL     1      16.219 -11.850  12.040  1.00  0.00     0.062 C 
BRANCH  11  12
ATOM     12  C   UNL     1      14.747 -12.113  12.182  1.00  0.00    -0.030 C 
ATOM     13  C   UNL     1      14.279 -13.311  12.543  1.00  0.00     0.004 C 
ENDBRANCH  11  12
ENDBRANCH   4  11
TORSDOF 4
ENDMDL
MODEL 3
REMARK VINA RESULT:    -4.415      2.586      4.699
REMARK INTER + INTRA:          -5.764
REMARK INTER:                  -5.479
REMARK INTRA:                  -0.285
REMARK UNBOUND:                -0.317
REMARK SMILES C=CCc1ccc(OC)c(OC)c1
REMARK SMILES IDX 7 1 10 2 13 3 4 4 5 5 6 6 8 7 9 8 11 9 12 10 3 11 2 12 1 13
REMARK H PARENT
REMARK Flexibility Score: inf
ROOT
ATOM      1  C   UNL     1      15.854  -6.378  13.909  1.00  0.00     0.160 A 
ATOM      2  C   UNL     1      17.090  -6.772  14.447  1.00  0.00     0.160 A 
ATOM      3  C   UNL     1      17.364  -6.539  15.809  1.00  0.00     0.054 A 
ATOM      4  C   UNL     1      16.414  -5.913  16.631  1.00  0.00    -0.040 A 
ATOM      5  C   UNL     1      15.179  -5.534  16.089  1.00  0.00     0.008 A 
ATOM      6  C   UNL     1      14.901  -5.759  14.740  1.00  0.00     0.051 A 
ENDROOT
BRANCH   1   7
ATOM      7  O   UNL     1      15.611  -6.620  12.548  1.00  0.00    -0.493 OA
ATOM      8  C   UNL     1      14.687  -7.584  12.053  1.00  0.00     0.278 C 
ENDBRANCH   1   7
BRANCH   2   9
ATOM      9  O   UNL     1      18.018  -7.392  13.596  1.00  0.00    -0.493 OA
ATOM     10  C   UNL     1      18.108  -8.798  13.386  1.00  0.00     0.278 C 
ENDBRANCH   2   9
BRANCH   4  11
ATOM     11  C   UNL     1      16.696  -5.696  18.094  1.00  0.00     0.062 C 
BRANCH  11  12
ATOM     12  C   UNL     1      15.806  -4.624  18.655  1.00  0.00    -0.030 C 
ATOM     13  C   UNL     1      16.179  -3.875  19.697  1.00  0.00     0.004 C 
ENDBRANCH  11  12
ENDBRANCH   4  11
TORSDOF 4
ENDMDL
MODEL 4
REMARK VINA RESULT:    -4.370      2.219      5.249
REMARK INTER + INTRA:          -5.709
REMARK INTER:                  -5.456
REMARK INTRA:                  -0.253
REMARK UNBOUND:                -0.317
REMARK SMILES C=CCc1ccc(OC)c(OC)c1
REMARK SMILES IDX 7 1 10 2 13 3 4 4 5 5 6 6 8 7 9 8 11 9 12 10 3 11 2 12 1 13
REMARK H PARENT
REMARK Flexibility Score: inf
ROOT
ATOM      1  C   UNL     1      15.723  -7.730  12.945  1.00  0.00     0.160 A 
ATOM      2  C   UNL     1      16.993  -8.326  12.940  1.00  0.00     0.160 A 
ATOM      3  C   UNL     1      17.114  -9.709  12.699  1.00  0.00     0.054 A 
ATOM      4  C   UNL     1      15.974 -10.495  12.467  1.00  0.00    -0.040 A 
ATOM      5  C   UNL     1      14.711  -9.889  12.461  1.00  0.00     0.008 A 
ATOM      6  C   UNL     1      14.583  -8.521  12.702  1.00  0.00     0.051 A 
ENDROOT
BRANCH   1   7
ATOM      7  O   UNL     1      15.633  -6.351  13.191  1.00  0.00    -0.493 OA
ATOM      8  C   UNL     1      14.950  -5.772  14.298  1.00  0.00     0.278 C 
ENDBRANCH   1   7
BRANCH   2   9
ATOM      9  O   UNL     1      18.111  -7.512  13.180  1.00  0.00    -0.493 OA
ATOM     10  C   UNL     1      18.815  -6.791  12.174  1.00  0.00     0.278 C 
ENDBRANCH   2   9
BRANCH   4  11
ATOM     11  C   UNL     1      16.108 -11.966  12.176  1.00  0.00     0.062 C 
BRANCH  11  12
ATOM     12  C   UNL     1      14.759 -12.595  11.974  1.00  0.00    -0.030 C 
ATOM     13  C   UNL     1      14.362 -13.652  12.690  1.00  0.00     0.004 C 
ENDBRANCH  11  12
ENDBRANCH   4  11
TORSDOF 4
ENDMDL
MODEL 5
REMARK VINA RESULT:    -4.368      3.156      5.479
REMARK INTER + INTRA:          -5.707
REMARK INTER:                  -5.436
REMARK INTRA:                  -0.270
REMARK UNBOUND:                -0.317
REMARK SMILES C=CCc1ccc(OC)c(OC)c1
REMARK SMILES IDX 7 1 10 2 13 3 4 4 5 5 6 6 8 7 9 8 11 9 12 10 3 11 2 12 1 13
REMARK H PARENT
REMARK Flexibility Score: inf
ROOT
ATOM      1  C   UNL     1      15.202  -5.723  15.138  1.00  0.00     0.160 A 
ATOM      2  C   UNL     1      16.402  -6.044  15.790  1.00  0.00     0.160 A 
ATOM      3  C   UNL     1      17.365  -6.833  15.130  1.00  0.00     0.054 A 
ATOM      4  C   UNL     1      17.132  -7.303  13.828  1.00  0.00    -0.040 A 
ATOM      5  C   UNL     1      15.936  -6.968  13.181  1.00  0.00     0.008 A 
ATOM      6  C   UNL     1      14.976  -6.190  13.828  1.00  0.00     0.051 A 
ENDROOT
BRANCH   1   7
ATOM      7  O   UNL     1      14.260  -4.939  15.821  1.00  0.00    -0.493 OA
ATOM      8  C   UNL     1      13.255  -4.151  15.190  1.00  0.00     0.278 C 
ENDBRANCH   1   7
BRANCH   2   9
ATOM      9  O   UNL     1      16.602  -5.561  17.093  1.00  0.00    -0.493 OA
ATOM     10  C   UNL     1      16.353  -6.310  18.278  1.00  0.00     0.278 C 
ENDBRANCH   2   9
BRANCH   4  11
ATOM     11  C   UNL     1      18.177  -8.118  13.113  1.00  0.00     0.062 C 
BRANCH  11  12
ATOM     12  C   UNL     1      18.023  -9.578  13.429  1.00  0.00    -0.030 C 
ATOM     13  C   UNL     1      17.146 -10.350  12.780  1.00  0.00     0.004 C 
ENDBRANCH  11  12
ENDBRANCH   4  11
TORSDOF 4
ENDMDL
MODEL 6
REMARK VINA RESULT:    -4.346      3.195      5.334
REMARK INTER + INTRA:          -5.680
REMARK INTER:                  -5.393
REMARK INTRA:                  -0.287
REMARK UNBOUND:                -0.317
REMARK SMILES C=CCc1ccc(OC)c(OC)c1
REMARK SMILES IDX 7 1 10 2 13 3 4 4 5 5 6 6 8 7 9 8 11 9 12 10 3 11 2 12 1 13
REMARK H PARENT
REMARK Flexibility Score: inf
ROOT
ATOM      1  C   UNL     1      16.031  -5.801  16.376  1.00  0.00     0.160 A 
ATOM      2  C   UNL     1      15.139  -5.683  15.300  1.00  0.00     0.160 A 
ATOM      3  C   UNL     1      15.472  -6.248  14.052  1.00  0.00     0.054 A 
ATOM      4  C   UNL     1      16.689  -6.924  13.878  1.00  0.00    -0.040 A 
ATOM      5  C   UNL     1      17.569  -7.047  14.961  1.00  0.00     0.008 A 
ATOM      6  C   UNL     1      17.248  -6.488  16.199  1.00  0.00     0.051 A 
ENDROOT
BRANCH   1   7
ATOM      7  O   UNL     1      15.674  -5.226  17.606  1.00  0.00    -0.493 OA
ATOM      8  C   UNL     1      16.570  -5.027  18.695  1.00  0.00     0.278 C 
ENDBRANCH   1   7
BRANCH   2   9
ATOM      9  O   UNL     1      13.932  -4.998  15.508  1.00  0.00    -0.493 OA
ATOM     10  C   UNL     1      13.326  -4.123  14.561  1.00  0.00     0.278 C 
ENDBRANCH   2   9
BRANCH   4  11
ATOM     11  C   UNL     1      17.028  -7.555  12.554  1.00  0.00     0.062 C 
BRANCH  11  12
ATOM     12  C   UNL     1      17.935  -8.738  12.743  1.00  0.00    -0.030 C 
ATOM     13  C   UNL     1      17.461  -9.986  12.796  1.00  0.00     0.004 C 
ENDBRANCH  11  12
ENDBRANCH   4  11
TORSDOF 4
ENDMDL
MODEL 7
REMARK VINA RESULT:    -4.344      1.713      3.123
REMARK INTER + INTRA:          -5.677
REMARK INTER:                  -5.380
REMARK INTRA:                  -0.298
REMARK UNBOUND:                -0.317
REMARK SMILES C=CCc1ccc(OC)c(OC)c1
REMARK SMILES IDX 7 1 10 2 13 3 4 4 5 5 6 6 8 7 9 8 11 9 12 10 3 11 2 12 1 13
REMARK H PARENT
REMARK Flexibility Score: inf
ROOT
ATOM      1  C   UNL     1      14.052 -10.377  12.210  1.00  0.00     0.160 A 
ATOM      2  C   UNL     1      15.133 -11.270  12.151  1.00  0.00     0.160 A 
ATOM      3  C   UNL     1      16.442 -10.795  12.368  1.00  0.00     0.054 A 
ATOM      4  C   UNL     1      16.672  -9.437  12.638  1.00  0.00    -0.040 A 
ATOM      5  C   UNL     1      15.586  -8.556  12.707  1.00  0.00     0.008 A 
ATOM      6  C   UNL     1      14.287  -9.018  12.491  1.00  0.00     0.051 A 
ENDROOT
BRANCH   1   7
ATOM      7  O   UNL     1      12.760 -10.879  11.987  1.00  0.00    -0.493 OA
ATOM      8  C   UNL     1      11.875 -11.315  13.015  1.00  0.00     0.278 C 
ENDBRANCH   1   7
BRANCH   2   9
ATOM      9  O   UNL     1      14.868 -12.620  11.875  1.00  0.00    -0.493 OA
ATOM     10  C   UNL     1      14.733 -13.635  12.865  1.00  0.00     0.278 C 
ENDBRANCH   2   9
BRANCH   4  11
ATOM     11  C   UNL     1      18.068  -8.938  12.902  1.00  0.00     0.062 C 
BRANCH  11  12
ATOM     12  C   UNL     1      18.308  -8.782  14.377  1.00  0.00    -0.030 C 
ATOM     13  C   UNL     1      18.530  -9.835  15.169  1.00  0.00     0.004 C 
ENDBRANCH  11  12
ENDBRANCH   4  11
TORSDOF 4
ENDMDL
MODEL 8
REMARK VINA RESULT:    -4.090      2.461      5.157
REMARK INTER + INTRA:          -5.364
REMARK INTER:                  -5.064
REMARK INTRA:                  -0.300
REMARK UNBOUND:                -0.317
REMARK SMILES C=CCc1ccc(OC)c(OC)c1
REMARK SMILES IDX 7 1 10 2 13 3 4 4 5 5 6 6 8 7 9 8 11 9 12 10 3 11 2 12 1 13
REMARK H PARENT
REMARK Flexibility Score: inf
ROOT
ATOM      1  C   UNL     1      15.547  -6.548  13.411  1.00  0.00     0.160 A 
ATOM      2  C   UNL     1      16.732  -6.993  14.018  1.00  0.00     0.160 A 
ATOM      3  C   UNL     1      17.258  -8.256  13.679  1.00  0.00     0.054 A 
ATOM      4  C   UNL     1      16.604  -9.073  12.744  1.00  0.00    -0.040 A 
ATOM      5  C   UNL     1      15.428  -8.616  12.135  1.00  0.00     0.008 A 
ATOM      6  C   UNL     1      14.900  -7.367  12.467  1.00  0.00     0.051 A 
ENDROOT
BRANCH   1   7
ATOM      7  O   UNL     1      15.046  -5.287  13.770  1.00  0.00    -0.493 OA
ATOM      8  C   UNL     1      13.779  -5.067  14.382  1.00  0.00     0.278 C 
ENDBRANCH   1   7
BRANCH   2   9
ATOM      9  O   UNL     1      17.358  -6.152  14.951  1.00  0.00    -0.493 OA
ATOM     10  C   UNL     1      17.164  -6.224  16.360  1.00  0.00     0.278 C 
ENDBRANCH   2   9
BRANCH   4  11
ATOM     11  C   UNL     1      17.185 -10.407  12.359  1.00  0.00     0.062 C 
BRANCH  11  12
ATOM     12  C   UNL     1      16.099 -11.374  11.982  1.00  0.00    -0.030 C 
ATOM     13  C   UNL     1      16.089 -12.632  12.433  1.00  0.00     0.004 C 
ENDBRANCH  11  12
ENDBRANCH   4  11
TORSDOF 4
ENDMDL
MODEL 9
REMARK VINA RESULT:    -4.037      2.038      4.812
REMARK INTER + INTRA:          -5.298
REMARK INTER:                  -4.998
REMARK INTRA:                  -0.300
REMARK UNBOUND:                -0.317
REMARK SMILES C=CCc1ccc(OC)c(OC)c1
REMARK SMILES IDX 7 1 10 2 13 3 4 4 5 5 6 6 8 7 9 8 11 9 12 10 3 11 2 12 1 13
REMARK H PARENT
REMARK Flexibility Score: inf
ROOT
ATOM      1  C   UNL     1      16.479  -9.407  12.757  1.00  0.00     0.160 A 
ATOM      2  C   UNL     1      15.566  -8.342  12.797  1.00  0.00     0.160 A 
ATOM      3  C   UNL     1      14.189  -8.598  12.643  1.00  0.00     0.054 A 
ATOM      4  C   UNL     1      13.725  -9.908  12.446  1.00  0.00    -0.040 A 
ATOM      5  C   UNL     1      14.642 -10.966  12.419  1.00  0.00     0.008 A 
ATOM      6  C   UNL     1      16.008 -10.720  12.568  1.00  0.00     0.051 A 
ENDROOT
BRANCH   1   7
ATOM      7  O   UNL     1      17.845  -9.122  12.910  1.00  0.00    -0.493 OA
ATOM      8  C   UNL     1      18.554  -9.204  14.142  1.00  0.00     0.278 C 
ENDBRANCH   1   7
BRANCH   2   9
ATOM      9  O   UNL     1      16.065  -7.045  12.992  1.00  0.00    -0.493 OA
ATOM     10  C   UNL     1      15.647  -6.167  14.033  1.00  0.00     0.278 C 
ENDBRANCH   2   9
BRANCH   4  11
ATOM     11  C   UNL     1      12.250 -10.183  12.316  1.00  0.00     0.062 C 
BRANCH  11  12
ATOM     12  C   UNL     1      11.932 -11.593  12.725  1.00  0.00    -0.030 C 
ATOM     13  C   UNL     1      11.144 -12.379  11.985  1.00  0.00     0.004 C 
ENDBRANCH  11  12
ENDBRANCH   4  11
TORSDOF 4
ENDMDL
