MODEL 1
REMARK VINA RESULT:    -3.241      0.000      0.000
REMARK INTER + INTRA:          -5.857
REMARK INTER:                  -4.756
REMARK INTRA:                  -1.101
REMARK UNBOUND:                -1.101
REMARK SMILES CC(C)COC(=O)c1ccccc1C(=O)OCC(C)C
REMARK SMILES IDX 8 1 9 2 10 3 11 4 12 5 13 6 6 7 7 8 5 9 4 10 2 11 1 12 3 13
REMARK SMILES IDX 14 14 15 15 16 16 17 17 18 18 19 19 20 20
REMARK H PARENT
REMARK Flexibility Score: inf
ROOT
ATOM      1  C   UNL     1      79.742  16.068   6.132  1.00  0.00     0.074 A 
ATOM      2  C   UNL     1      79.718  16.559   7.452  1.00  0.00     0.016 A 
ATOM      3  C   UNL     1      80.058  15.734   8.526  1.00  0.00     0.001 A 
ATOM      4  C   UNL     1      80.424  14.408   8.301  1.00  0.00     0.001 A 
ATOM      5  C   UNL     1      80.475  13.907   7.000  1.00  0.00     0.016 A 
ATOM      6  C   UNL     1      80.162  14.729   5.905  1.00  0.00     0.074 A 
ENDROOT
BRANCH   1   7
ATOM      7  C   UNL     1      79.246  16.940   5.039  1.00  0.00     0.339 C 
ATOM      8  O   UNL     1      78.015  16.968   4.760  1.00  0.00    -0.246 OA
BRANCH   7   9
ATOM      9  O   UNL     1      80.150  17.693   4.285  1.00  0.00    -0.462 OA
BRANCH   9  10
ATOM     10  C   UNL     1      80.444  17.431   2.917  1.00  0.00     0.236 C 
BRANCH  10  11
ATOM     11  C   UNL     1      80.029  18.636   2.061  1.00  0.00     0.021 C 
ATOM     12  C   UNL     1      79.099  18.192   0.926  1.00  0.00     0.011 C 
ATOM     13  C   UNL     1      81.257  19.362   1.492  1.00  0.00     0.011 C 
ENDBRANCH  10  11
ENDBRANCH   9  10
ENDBRANCH   7   9
ENDBRANCH   1   7
BRANCH   6  14
ATOM     14  C   UNL     1      80.332  14.169   4.551  1.00  0.00     0.339 C 
ATOM     15  O   UNL     1      81.489  13.942   4.101  1.00  0.00    -0.246 OA
BRANCH  14  16
ATOM     16  O   UNL     1      79.203  13.875   3.782  1.00  0.00    -0.462 OA
BRANCH  16  17
ATOM     17  C   UNL     1      79.223  13.875   2.357  1.00  0.00     0.236 C 
BRANCH  17  18
ATOM     18  C   UNL     1      78.029  14.663   1.800  1.00  0.00     0.021 C 
ATOM     19  C   UNL     1      76.713  14.190   2.431  1.00  0.00     0.011 C 
ATOM     20  C   UNL     1      77.964  14.564   0.271  1.00  0.00     0.011 C 
ENDBRANCH  17  18
ENDBRANCH  16  17
ENDBRANCH  14  16
ENDBRANCH   6  14
TORSDOF 8
ENDMDL
MODEL 2
REMARK VINA RESULT:    -2.852      1.750      4.595
REMARK INTER + INTRA:          -5.287
REMARK INTER:                  -4.457
REMARK INTRA:                  -0.830
REMARK UNBOUND:                -1.101
REMARK SMILES CC(C)COC(=O)c1ccccc1C(=O)OCC(C)C
REMARK SMILES IDX 8 1 9 2 10 3 11 4 12 5 13 6 6 7 7 8 5 9 4 10 2 11 1 12 3 13
REMARK SMILES IDX 14 14 15 15 16 16 17 17 18 18 19 19 20 20
REMARK H PARENT
REMARK Flexibility Score: inf
ROOT
ATOM      1  C   UNL     1      79.742  15.832   5.488  1.00  0.00     0.074 A 
ATOM      2  C   UNL     1      79.498  17.065   6.123  1.00  0.00     0.016 A 
ATOM      3  C   UNL     1      79.725  18.270   5.455  1.00  0.00     0.001 A 
ATOM      4  C   UNL     1      80.202  18.264   4.145  1.00  0.00     0.001 A 
ATOM      5  C   UNL     1      80.432  17.054   3.490  1.00  0.00     0.016 A 
ATOM      6  C   UNL     1      80.183  15.833   4.136  1.00  0.00     0.074 A 
ENDROOT
BRANCH   1   7
ATOM      7  C   UNL     1      79.613  14.585   6.279  1.00  0.00     0.339 C 
ATOM      8  O   UNL     1      78.541  13.919   6.243  1.00  0.00    -0.246 OA
BRANCH   7   9
ATOM      9  O   UNL     1      80.664  14.172   7.104  1.00  0.00    -0.462 OA
BRANCH   9  10
ATOM     10  C   UNL     1      80.580  14.137   8.525  1.00  0.00     0.236 C 
BRANCH  10  11
ATOM     11  C   UNL     1      80.896  15.528   9.095  1.00  0.00     0.021 C 
ATOM     12  C   UNL     1      81.757  15.407  10.357  1.00  0.00     0.011 C 
ATOM     13  C   UNL     1      79.609  16.308   9.399  1.00  0.00     0.011 C 
ENDBRANCH  10  11
ENDBRANCH   9  10
ENDBRANCH   7   9
ENDBRANCH   1   7
BRANCH   6  14
ATOM     14  C   UNL     1      80.349  14.592   3.355  1.00  0.00     0.339 C 
ATOM     15  O   UNL     1      81.374  13.875   3.519  1.00  0.00    -0.246 OA
BRANCH  14  16
ATOM     16  O   UNL     1      79.354  14.209   2.452  1.00  0.00    -0.462 OA
BRANCH  16  17
ATOM     17  C   UNL     1      78.060  14.805   2.438  1.00  0.00     0.236 C 
BRANCH  17  18
ATOM     18  C   UNL     1      77.820  15.546   1.114  1.00  0.00     0.021 C 
ATOM     19  C   UNL     1      78.659  14.938  -0.018  1.00  0.00     0.011 C 
ATOM     20  C   UNL     1      78.109  17.046   1.258  1.00  0.00     0.011 C 
ENDBRANCH  17  18
ENDBRANCH  16  17
ENDBRANCH  14  16
ENDBRANCH   6  14
TORSDOF 8
ENDMDL
MODEL 3
REMARK VINA RESULT:    -1.978      1.056      5.683
REMARK INTER + INTRA:          -4.004
REMARK INTER:                  -3.885
REMARK INTRA:                  -0.119
REMARK UNBOUND:                -1.101
REMARK SMILES CC(C)COC(=O)c1ccccc1C(=O)OCC(C)C
REMARK SMILES IDX 8 1 9 2 10 3 11 4 12 5 13 6 6 7 7 8 5 9 4 10 2 11 1 12 3 13
REMARK SMILES IDX 14 14 15 15 16 16 17 17 18 18 19 19 20 20
REMARK H PARENT
REMARK Flexibility Score: inf
ROOT
ATOM      1  C   UNL     1      79.929  14.556   2.681  1.00  0.00     0.074 A 
ATOM      2  C   UNL     1      80.068  13.884   1.451  1.00  0.00     0.016 A 
ATOM      3  C   UNL     1      79.220  14.172   0.380  1.00  0.00     0.001 A 
ATOM      4  C   UNL     1      78.218  15.131   0.521  1.00  0.00     0.001 A 
ATOM      5  C   UNL     1      78.074  15.823   1.723  1.00  0.00     0.016 A 
ATOM      6  C   UNL     1      78.936  15.566   2.803  1.00  0.00     0.074 A 
ENDROOT
BRANCH   1   7
ATOM      7  C   UNL     1      80.764  14.123   3.828  1.00  0.00     0.339 C 
ATOM      8  O   UNL     1      81.993  13.885   3.662  1.00  0.00    -0.246 OA
BRANCH   7   9
ATOM      9  O   UNL     1      80.178  13.933   5.083  1.00  0.00    -0.462 OA
BRANCH   9  10
ATOM     10  C   UNL     1      80.914  13.930   6.301  1.00  0.00     0.236 C 
BRANCH  10  11
ATOM     11  C   UNL     1      80.028  14.458   7.440  1.00  0.00     0.021 C 
ATOM     12  C   UNL     1      80.068  15.990   7.482  1.00  0.00     0.011 C 
ATOM     13  C   UNL     1      80.459  13.875   8.793  1.00  0.00     0.011 C 
ENDBRANCH  10  11
ENDBRANCH   9  10
ENDBRANCH   7   9
ENDBRANCH   1   7
BRANCH   6  14
ATOM     14  C   UNL     1      78.797  16.401   4.011  1.00  0.00     0.339 C 
ATOM     15  O   UNL     1      78.048  16.026   4.955  1.00  0.00    -0.246 OA
BRANCH  14  16
ATOM     16  O   UNL     1      79.516  17.594   4.109  1.00  0.00    -0.462 OA
BRANCH  16  17
ATOM     17  C   UNL     1      80.680  17.855   3.329  1.00  0.00     0.236 C 
BRANCH  17  18
ATOM     18  C   UNL     1      80.430  19.015   2.355  1.00  0.00     0.021 C 
ATOM     19  C   UNL     1      79.199  18.744   1.480  1.00  0.00     0.011 C 
ATOM     20  C   UNL     1      81.665  19.285   1.486  1.00  0.00     0.011 C 
ENDBRANCH  17  18
ENDBRANCH  16  17
ENDBRANCH  14  16
ENDBRANCH   6  14
TORSDOF 8
ENDMDL
MODEL 4
REMARK VINA RESULT:    -1.333      2.094      5.809
REMARK INTER + INTRA:          -3.057
REMARK INTER:                  -4.256
REMARK INTRA:                   1.199
REMARK UNBOUND:                -1.101
REMARK SMILES CC(C)COC(=O)c1ccccc1C(=O)OCC(C)C
REMARK SMILES IDX 8 1 9 2 10 3 11 4 12 5 13 6 6 7 7 8 5 9 4 10 2 11 1 12 3 13
REMARK SMILES IDX 14 14 15 15 16 16 17 17 18 18 19 19 20 20
REMARK H PARENT
REMARK Flexibility Score: inf
ROOT
ATOM      1  C   UNL     1      78.863  15.794   2.915  1.00  0.00     0.074 A 
ATOM      2  C   UNL     1      78.407  14.462   2.872  1.00  0.00     0.016 A 
ATOM      3  C   UNL     1      77.899  13.920   1.691  1.00  0.00     0.001 A 
ATOM      4  C   UNL     1      77.833  14.698   0.536  1.00  0.00     0.001 A 
ATOM      5  C   UNL     1      78.297  16.013   0.550  1.00  0.00     0.016 A 
ATOM      6  C   UNL     1      78.838  16.567   1.722  1.00  0.00     0.074 A 
ENDROOT
BRANCH   1   7
ATOM      7  C   UNL     1      79.271  16.366   4.222  1.00  0.00     0.339 C 
ATOM      8  O   UNL     1      79.901  17.460   4.266  1.00  0.00    -0.246 OA
BRANCH   7   9
ATOM      9  O   UNL     1      78.999  15.668   5.402  1.00  0.00    -0.462 OA
BRANCH   9  10
ATOM     10  C   UNL     1      79.970  14.897   6.100  1.00  0.00     0.236 C 
BRANCH  10  11
ATOM     11  C   UNL     1      79.701  14.974   7.611  1.00  0.00     0.021 C 
ATOM     12  C   UNL     1      80.083  16.356   8.153  1.00  0.00     0.011 C 
ATOM     13  C   UNL     1      80.461  13.875   8.366  1.00  0.00     0.011 C 
ENDBRANCH  10  11
ENDBRANCH   9  10
ENDBRANCH   7   9
ENDBRANCH   1   7
BRANCH   6  14
ATOM     14  C   UNL     1      79.404  17.928   1.646  1.00  0.00     0.339 C 
ATOM     15  O   UNL     1      80.568  18.153   2.076  1.00  0.00    -0.246 OA
BRANCH  14  16
ATOM     16  O   UNL     1      78.648  18.955   1.076  1.00  0.00    -0.462 OA
BRANCH  16  17
ATOM     17  C   UNL     1      77.281  19.179   1.410  1.00  0.00     0.236 C 
BRANCH  17  18
ATOM     18  C   UNL     1      76.622  20.121   0.391  1.00  0.00     0.021 C 
ATOM     19  C   UNL     1      76.408  21.517   0.989  1.00  0.00     0.011 C 
ATOM     20  C   UNL     1      75.300  19.541  -0.125  1.00  0.00     0.011 C 
ENDBRANCH  17  18
ENDBRANCH  16  17
ENDBRANCH  14  16
ENDBRANCH   6  14
TORSDOF 8
ENDMDL
