MODEL 1
REMARK VINA RESULT:    -5.654      0.000      0.000
REMARK INTER + INTRA:          -5.654
REMARK INTER:                  -5.654
REMARK INTRA:                   0.000
REMARK UNBOUND:                 0.000
REMARK SMILES CC1=CC[C@@]2(C)CCCC(C)(C)[C@@]23C[C@@H]13
REMARK SMILES IDX 1 1 2 2 3 3 4 4 5 5 7 6 8 7 9 8 10 9 13 10 15 11 14 12 11 13
REMARK SMILES IDX 12 14 6 15
REMARK H PARENT
REMARK Flexibility Score: inf
ROOT
ATOM      1  C   UNL     1     163.365 167.738 202.335  1.00  0.00     0.039 C 
ATOM      2  C   UNL     1     163.587 168.258 200.943  1.00  0.00    -0.074 C 
ATOM      3  C   UNL     1     162.562 168.242 200.064  1.00  0.00    -0.027 C 
ATOM      4  C   UNL     1     162.714 168.758 198.654  1.00  0.00     0.034 C 
ATOM      5  C   UNL     1     164.144 168.479 198.105  1.00  0.00    -0.022 C 
ATOM      6  C   UNL     1     164.301 169.182 196.735  1.00  0.00     0.008 C 
ATOM      7  C   UNL     1     165.729 169.097 196.168  1.00  0.00     0.001 C 
ATOM      8  C   UNL     1     166.781 169.658 197.136  1.00  0.00     0.007 C 
ATOM      9  C   UNL     1     166.760 169.032 198.560  1.00  0.00    -0.029 C 
ATOM     10  C   UNL     1     165.259 169.035 199.079  1.00  0.00    -0.012 C 
ATOM     11  C   UNL     1     164.962 168.787 200.567  1.00  0.00     0.022 C 
ATOM     12  C   UNL     1     164.900 170.214 200.026  1.00  0.00     0.017 C 
ATOM     13  C   UNL     1     167.749 169.869 199.424  1.00  0.00     0.012 C 
ATOM     14  C   UNL     1     167.332 167.592 198.535  1.00  0.00     0.012 C 
ATOM     15  C   UNL     1     164.252 166.931 197.934  1.00  0.00     0.012 C 
ENDROOT
TORSDOF 0
ENDMDL
MODEL 2
REMARK VINA RESULT:    -5.648      4.607      6.835
REMARK INTER + INTRA:          -5.648
REMARK INTER:                  -5.648
REMARK INTRA:                   0.000
REMARK UNBOUND:                 0.000
REMARK SMILES CC1=CC[C@@]2(C)CCCC(C)(C)[C@@]23C[C@@H]13
REMARK SMILES IDX 1 1 2 2 3 3 4 4 5 5 7 6 8 7 9 8 10 9 13 10 15 11 14 12 11 13
REMARK SMILES IDX 12 14 6 15
REMARK H PARENT
REMARK Flexibility Score: inf
ROOT
ATOM      1  C   UNL     1     168.628 164.264 202.338  1.00  0.00     0.039 C 
ATOM      2  C   UNL     1     168.408 163.756 200.942  1.00  0.00    -0.074 C 
ATOM      3  C   UNL     1     169.429 163.793 200.060  1.00  0.00    -0.027 C 
ATOM      4  C   UNL     1     169.280 163.290 198.645  1.00  0.00     0.034 C 
ATOM      5  C   UNL     1     167.844 163.557 198.104  1.00  0.00    -0.022 C 
ATOM      6  C   UNL     1     167.692 162.866 196.727  1.00  0.00     0.008 C 
ATOM      7  C   UNL     1     166.261 162.940 196.165  1.00  0.00     0.001 C 
ATOM      8  C   UNL     1     165.219 162.355 197.130  1.00  0.00     0.007 C 
ATOM      9  C   UNL     1     165.237 162.967 198.561  1.00  0.00    -0.029 C 
ATOM     10  C   UNL     1     166.740 162.977 199.075  1.00  0.00    -0.012 C 
ATOM     11  C   UNL     1     167.038 163.213 200.564  1.00  0.00     0.022 C 
ATOM     12  C   UNL     1     167.116 161.793 200.008  1.00  0.00     0.017 C 
ATOM     13  C   UNL     1     164.261 162.109 199.419  1.00  0.00     0.012 C 
ATOM     14  C   UNL     1     164.647 164.400 198.552  1.00  0.00     0.012 C 
ATOM     15  C   UNL     1     167.717 165.105 197.949  1.00  0.00     0.012 C 
ENDROOT
TORSDOF 0
ENDMDL
MODEL 3
REMARK VINA RESULT:    -5.568      4.628      6.452
REMARK INTER + INTRA:          -5.568
REMARK INTER:                  -5.568
REMARK INTRA:                   0.000
REMARK UNBOUND:                 0.000
REMARK SMILES CC1=CC[C@@]2(C)CCCC(C)(C)[C@@]23C[C@@H]13
REMARK SMILES IDX 1 1 2 2 3 3 4 4 5 5 7 6 8 7 9 8 10 9 13 10 15 11 14 12 11 13
REMARK SMILES IDX 12 14 6 15
REMARK H PARENT
REMARK Flexibility Score: inf
ROOT
ATOM      1  C   UNL     1     164.528 161.507 197.725  1.00  0.00     0.039 C 
ATOM      2  C   UNL     1     165.060 162.145 198.976  1.00  0.00    -0.074 C 
ATOM      3  C   UNL     1     164.205 162.441 199.978  1.00  0.00    -0.027 C 
ATOM      4  C   UNL     1     164.673 163.074 201.265  1.00  0.00     0.034 C 
ATOM      5  C   UNL     1     165.858 164.051 201.011  1.00  0.00    -0.022 C 
ATOM      6  C   UNL     1     166.413 164.531 202.375  1.00  0.00     0.008 C 
ATOM      7  C   UNL     1     167.685 165.387 202.246  1.00  0.00     0.001 C 
ATOM      8  C   UNL     1     168.806 164.666 201.481  1.00  0.00     0.007 C 
ATOM      9  C   UNL     1     168.402 164.138 200.074  1.00  0.00    -0.029 C 
ATOM     10  C   UNL     1     167.031 163.348 200.217  1.00  0.00    -0.012 C 
ATOM     11  C   UNL     1     166.549 162.438 199.076  1.00  0.00     0.022 C 
ATOM     12  C   UNL     1     167.177 161.805 200.316  1.00  0.00     0.017 C 
ATOM     13  C   UNL     1     169.598 163.279 199.567  1.00  0.00     0.012 C 
ATOM     14  C   UNL     1     168.262 165.308 199.068  1.00  0.00     0.012 C 
ATOM     15  C   UNL     1     165.267 165.256 200.214  1.00  0.00     0.012 C 
ENDROOT
TORSDOF 0
ENDMDL
MODEL 4
REMARK VINA RESULT:    -5.568      1.414      4.656
REMARK INTER + INTRA:          -5.568
REMARK INTER:                  -5.568
REMARK INTRA:                   0.000
REMARK UNBOUND:                 0.000
REMARK SMILES CC1=CC[C@@]2(C)CCCC(C)(C)[C@@]23C[C@@H]13
REMARK SMILES IDX 1 1 2 2 3 3 4 4 5 5 7 6 8 7 9 8 10 9 13 10 15 11 14 12 11 13
REMARK SMILES IDX 12 14 6 15
REMARK H PARENT
REMARK Flexibility Score: inf
ROOT
ATOM      1  C   UNL     1     167.435 170.491 197.728  1.00  0.00     0.039 C 
ATOM      2  C   UNL     1     166.905 169.846 198.978  1.00  0.00    -0.074 C 
ATOM      3  C   UNL     1     167.761 169.552 199.979  1.00  0.00    -0.027 C 
ATOM      4  C   UNL     1     167.295 168.913 201.264  1.00  0.00     0.034 C 
ATOM      5  C   UNL     1     166.115 167.930 201.006  1.00  0.00    -0.022 C 
ATOM      6  C   UNL     1     165.561 167.444 202.367  1.00  0.00     0.008 C 
ATOM      7  C   UNL     1     164.293 166.581 202.235  1.00  0.00     0.001 C 
ATOM      8  C   UNL     1     163.170 167.299 201.471  1.00  0.00     0.007 C 
ATOM      9  C   UNL     1     163.573 167.833 200.066  1.00  0.00    -0.029 C 
ATOM     10  C   UNL     1     164.939 168.629 200.213  1.00  0.00    -0.012 C 
ATOM     11  C   UNL     1     165.417 169.545 199.075  1.00  0.00     0.022 C 
ATOM     12  C   UNL     1     164.785 170.172 200.316  1.00  0.00     0.017 C 
ATOM     13  C   UNL     1     162.373 168.687 199.560  1.00  0.00     0.012 C 
ATOM     14  C   UNL     1     163.720 166.666 199.057  1.00  0.00     0.012 C 
ATOM     15  C   UNL     1     166.713 166.731 200.206  1.00  0.00     0.012 C 
ENDROOT
TORSDOF 0
ENDMDL
MODEL 5
REMARK VINA RESULT:    -5.541      4.357      5.813
REMARK INTER + INTRA:          -5.541
REMARK INTER:                  -5.541
REMARK INTRA:                   0.000
REMARK UNBOUND:                 0.000
REMARK SMILES CC1=CC[C@@]2(C)CCCC(C)(C)[C@@]23C[C@@H]13
REMARK SMILES IDX 1 1 2 2 3 3 4 4 5 5 7 6 8 7 9 8 10 9 13 10 15 11 14 12 11 13
REMARK SMILES IDX 12 14 6 15
REMARK H PARENT
REMARK Flexibility Score: inf
ROOT
ATOM      1  C   UNL     1     163.245 164.127 201.362  1.00  0.00     0.039 C 
ATOM      2  C   UNL     1     164.542 163.793 200.682  1.00  0.00    -0.074 C 
ATOM      3  C   UNL     1     164.704 162.566 200.142  1.00  0.00    -0.027 C 
ATOM      4  C   UNL     1     165.976 162.167 199.436  1.00  0.00     0.034 C 
ATOM      5  C   UNL     1     167.217 162.839 200.094  1.00  0.00    -0.022 C 
ATOM      6  C   UNL     1     168.466 162.543 199.228  1.00  0.00     0.008 C 
ATOM      7  C   UNL     1     169.727 163.285 199.706  1.00  0.00     0.001 C 
ATOM      8  C   UNL     1     169.523 164.806 199.778  1.00  0.00     0.007 C 
ATOM      9  C   UNL     1     168.308 165.263 200.636  1.00  0.00    -0.029 C 
ATOM     10  C   UNL     1     167.044 164.408 200.196  1.00  0.00    -0.012 C 
ATOM     11  C   UNL     1     165.635 164.849 200.622  1.00  0.00     0.022 C 
ATOM     12  C   UNL     1     166.095 165.118 199.191  1.00  0.00     0.017 C 
ATOM     13  C   UNL     1     168.165 166.798 200.412  1.00  0.00     0.012 C 
ATOM     14  C   UNL     1     168.600 165.078 202.146  1.00  0.00     0.012 C 
ATOM     15  C   UNL     1     167.370 162.187 201.504  1.00  0.00     0.012 C 
ENDROOT
TORSDOF 0
ENDMDL
MODEL 6
REMARK VINA RESULT:    -5.533      1.699      4.286
REMARK INTER + INTRA:          -5.533
REMARK INTER:                  -5.533
REMARK INTRA:                   0.000
REMARK UNBOUND:                 0.000
REMARK SMILES CC1=CC[C@@]2(C)CCCC(C)(C)[C@@]23C[C@@H]13
REMARK SMILES IDX 1 1 2 2 3 3 4 4 5 5 7 6 8 7 9 8 10 9 13 10 15 11 14 12 11 13
REMARK SMILES IDX 12 14 6 15
REMARK H PARENT
REMARK Flexibility Score: inf
ROOT
ATOM      1  C   UNL     1     168.734 167.857 201.373  1.00  0.00     0.039 C 
ATOM      2  C   UNL     1     167.446 168.187 200.674  1.00  0.00    -0.074 C 
ATOM      3  C   UNL     1     167.292 169.411 200.124  1.00  0.00    -0.027 C 
ATOM      4  C   UNL     1     166.028 169.805 199.399  1.00  0.00     0.034 C 
ATOM      5  C   UNL     1     164.779 169.139 200.046  1.00  0.00    -0.022 C 
ATOM      6  C   UNL     1     163.542 169.429 199.162  1.00  0.00     0.008 C 
ATOM      7  C   UNL     1     162.274 168.692 199.629  1.00  0.00     0.001 C 
ATOM      8  C   UNL     1     162.476 167.171 199.714  1.00  0.00     0.007 C 
ATOM      9  C   UNL     1     163.680 166.719 200.589  1.00  0.00    -0.029 C 
ATOM     10  C   UNL     1     164.950 167.571 200.160  1.00  0.00    -0.012 C 
ATOM     11  C   UNL     1     166.353 167.131 200.607  1.00  0.00     0.022 C 
ATOM     12  C   UNL     1     165.911 166.853 199.172  1.00  0.00     0.017 C 
ATOM     13  C   UNL     1     163.825 165.183 200.378  1.00  0.00     0.012 C 
ATOM     14  C   UNL     1     163.368 166.914 202.095  1.00  0.00     0.012 C 
ATOM     15  C   UNL     1     164.608 169.800 201.449  1.00  0.00     0.012 C 
ENDROOT
TORSDOF 0
ENDMDL
MODEL 7
REMARK VINA RESULT:    -5.522      3.919      6.570
REMARK INTER + INTRA:          -5.522
REMARK INTER:                  -5.522
REMARK INTRA:                   0.000
REMARK UNBOUND:                 0.000
REMARK SMILES CC1=CC[C@@]2(C)CCCC(C)(C)[C@@]23C[C@@H]13
REMARK SMILES IDX 1 1 2 2 3 3 4 4 5 5 7 6 8 7 9 8 10 9 13 10 15 11 14 12 11 13
REMARK SMILES IDX 12 14 6 15
REMARK H PARENT
REMARK Flexibility Score: inf
ROOT
ATOM      1  C   UNL     1     169.409 167.967 198.317  1.00  0.00     0.039 C 
ATOM      2  C   UNL     1     168.906 166.769 199.071  1.00  0.00    -0.074 C 
ATOM      3  C   UNL     1     169.485 166.442 200.246  1.00  0.00    -0.027 C 
ATOM      4  C   UNL     1     169.023 165.257 201.059  1.00  0.00     0.034 C 
ATOM      5  C   UNL     1     168.545 164.097 200.138  1.00  0.00    -0.022 C 
ATOM      6  C   UNL     1     167.918 162.986 201.016  1.00  0.00     0.008 C 
ATOM      7  C   UNL     1     167.276 161.853 200.196  1.00  0.00     0.001 C 
ATOM      8  C   UNL     1     166.213 162.366 199.214  1.00  0.00     0.007 C 
ATOM      9  C   UNL     1     166.702 163.482 198.246  1.00  0.00    -0.029 C 
ATOM     10  C   UNL     1     167.454 164.587 199.104  1.00  0.00    -0.012 C 
ATOM     11  C   UNL     1     167.758 165.961 198.486  1.00  0.00     0.022 C 
ATOM     12  C   UNL     1     166.592 165.829 199.463  1.00  0.00     0.017 C 
ATOM     13  C   UNL     1     165.440 163.993 197.490  1.00  0.00     0.012 C 
ATOM     14  C   UNL     1     167.639 162.895 197.160  1.00  0.00     0.012 C 
ATOM     15  C   UNL     1     169.820 163.559 199.415  1.00  0.00     0.012 C 
ENDROOT
TORSDOF 0
ENDMDL
MODEL 8
REMARK VINA RESULT:    -5.495      1.630      3.359
REMARK INTER + INTRA:          -5.495
REMARK INTER:                  -5.495
REMARK INTRA:                   0.000
REMARK UNBOUND:                 0.000
REMARK SMILES CC1=CC[C@@]2(C)CCCC(C)(C)[C@@]23C[C@@H]13
REMARK SMILES IDX 1 1 2 2 3 3 4 4 5 5 7 6 8 7 9 8 10 9 13 10 15 11 14 12 11 13
REMARK SMILES IDX 12 14 6 15
REMARK H PARENT
REMARK Flexibility Score: inf
ROOT
ATOM      1  C   UNL     1     162.631 163.986 198.293  1.00  0.00     0.039 C 
ATOM      2  C   UNL     1     163.124 165.205 199.019  1.00  0.00    -0.074 C 
ATOM      3  C   UNL     1     162.524 165.571 200.172  1.00  0.00    -0.027 C 
ATOM      4  C   UNL     1     162.975 166.778 200.957  1.00  0.00     0.034 C 
ATOM      5  C   UNL     1     163.475 167.908 200.010  1.00  0.00    -0.022 C 
ATOM      6  C   UNL     1     164.090 169.043 200.865  1.00  0.00     0.008 C 
ATOM      7  C   UNL     1     164.752 170.148 200.023  1.00  0.00     0.001 C 
ATOM      8  C   UNL     1     165.832 169.600 199.078  1.00  0.00     0.007 C 
ATOM      9  C   UNL     1     165.357 168.457 198.135  1.00  0.00    -0.029 C 
ATOM     10  C   UNL     1     164.584 167.382 199.013  1.00  0.00    -0.012 C 
ATOM     11  C   UNL     1     164.286 165.991 198.432  1.00  0.00     0.022 C 
ATOM     12  C   UNL     1     165.434 166.149 199.427  1.00  0.00     0.017 C 
ATOM     13  C   UNL     1     166.632 167.918 197.420  1.00  0.00     0.012 C 
ATOM     14  C   UNL     1     164.444 169.013 197.014  1.00  0.00     0.012 C 
ATOM     15  C   UNL     1     162.217 168.427 199.246  1.00  0.00     0.012 C 
ENDROOT
TORSDOF 0
ENDMDL
MODEL 9
REMARK VINA RESULT:    -5.415      4.219      6.167
REMARK INTER + INTRA:          -5.415
REMARK INTER:                  -5.415
REMARK INTRA:                   0.000
REMARK UNBOUND:                 0.000
REMARK SMILES CC1=CC[C@@]2(C)CCCC(C)(C)[C@@]23C[C@@H]13
REMARK SMILES IDX 1 1 2 2 3 3 4 4 5 5 7 6 8 7 9 8 10 9 13 10 15 11 14 12 11 13
REMARK SMILES IDX 12 14 6 15
REMARK H PARENT
REMARK Flexibility Score: inf
ROOT
ATOM      1  C   UNL     1     168.198 163.192 201.780  1.00  0.00     0.039 C 
ATOM      2  C   UNL     1     166.911 163.011 201.024  1.00  0.00    -0.074 C 
ATOM      3  C   UNL     1     166.858 162.104 200.026  1.00  0.00    -0.027 C 
ATOM      4  C   UNL     1     165.596 161.865 199.233  1.00  0.00     0.034 C 
ATOM      5  C   UNL     1     164.784 163.182 199.060  1.00  0.00    -0.022 C 
ATOM      6  C   UNL     1     163.423 162.849 198.402  1.00  0.00     0.008 C 
ATOM      7  C   UNL     1     162.476 164.059 198.319  1.00  0.00     0.001 C 
ATOM      8  C   UNL     1     162.219 164.701 199.691  1.00  0.00     0.007 C 
ATOM      9  C   UNL     1     163.501 165.110 200.472  1.00  0.00    -0.029 C 
ATOM     10  C   UNL     1     164.505 163.880 200.452  1.00  0.00    -0.012 C 
ATOM     11  C   UNL     1     165.708 163.858 201.409  1.00  0.00     0.022 C 
ATOM     12  C   UNL     1     164.485 163.003 201.734  1.00  0.00     0.017 C 
ATOM     13  C   UNL     1     163.031 165.543 201.892  1.00  0.00     0.012 C 
ATOM     14  C   UNL     1     164.153 166.365 199.839  1.00  0.00     0.012 C 
ATOM     15  C   UNL     1     165.630 164.096 198.120  1.00  0.00     0.012 C 
ENDROOT
TORSDOF 0
ENDMDL
