MODEL 1
REMARK VINA RESULT:    -4.234      0.000      0.000
REMARK INTER + INTRA:          -6.104
REMARK INTER:                  -5.720
REMARK INTRA:                  -0.384
REMARK UNBOUND:                -0.384
REMARK SMILES CCCCCCCC(=O)[O-]
REMARK SMILES IDX 5 1 6 2 7 3 8 4 9 5 10 6 4 7 3 8 2 9 1 10
REMARK H PARENT
REMARK Flexibility Score: inf
ROOT
ATOM      1  C   UNL     1     -11.574 -27.884 -34.418  1.00  0.00     0.000 C 
ENDROOT
BRANCH   1   2
ATOM      2  C   UNL     1     -11.255 -26.534 -35.086  1.00  0.00     0.006 C 
BRANCH   2   3
ATOM      3  C   UNL     1     -12.147 -25.392 -34.585  1.00  0.00     0.053 C 
BRANCH   3   4
ATOM      4  C   UNL     1     -12.742 -24.649 -35.738  1.00  0.00     0.041 C 
ATOM      5  O   UNL     1     -13.395 -25.265 -36.621  1.00  0.00    -0.550 OA
ATOM      6  O   UNL     1     -12.617 -23.267 -35.813  1.00  0.00    -0.550 OA
ENDBRANCH   3   4
ENDBRANCH   2   3
ENDBRANCH   1   2
BRANCH   1   7
ATOM      7  C   UNL     1     -12.950 -27.960 -33.731  1.00  0.00     0.000 C 
BRANCH   7   8
ATOM      8  C   UNL     1     -12.853 -28.263 -32.228  1.00  0.00    -0.000 C 
BRANCH   8   9
ATOM      9  C   UNL     1     -11.487 -27.845 -31.672  1.00  0.00    -0.003 C 
ATOM     10  C   UNL     1     -11.310 -28.317 -30.231  1.00  0.00     0.004 C 
ENDBRANCH   8   9
ENDBRANCH   7   8
ENDBRANCH   1   7
TORSDOF 6
ENDMDL
MODEL 2
REMARK VINA RESULT:    -4.202      3.197      5.035
REMARK INTER + INTRA:          -6.060
REMARK INTER:                  -5.694
REMARK INTRA:                  -0.366
REMARK UNBOUND:                -0.384
REMARK SMILES CCCCCCCC(=O)[O-]
REMARK SMILES IDX 5 1 6 2 7 3 8 4 9 5 10 6 4 7 3 8 2 9 1 10
REMARK H PARENT
REMARK Flexibility Score: inf
ROOT
ATOM      1  C   UNL     1     -12.253 -28.588 -33.848  1.00  0.00     0.000 C 
ENDROOT
BRANCH   1   2
ATOM      2  C   UNL     1     -13.163 -27.945 -32.785  1.00  0.00     0.006 C 
BRANCH   2   3
ATOM      3  C   UNL     1     -12.970 -28.549 -31.389  1.00  0.00     0.053 C 
BRANCH   3   4
ATOM      4  C   UNL     1     -11.785 -27.935 -30.713  1.00  0.00     0.041 C 
ATOM      5  O   UNL     1     -11.084 -28.616 -29.920  1.00  0.00    -0.550 OA
ATOM      6  O   UNL     1     -11.427 -26.623 -30.997  1.00  0.00    -0.550 OA
ENDBRANCH   3   4
ENDBRANCH   2   3
ENDBRANCH   1   2
BRANCH   1   7
ATOM      7  C   UNL     1     -11.442 -27.592 -34.698  1.00  0.00     0.000 C 
BRANCH   7   8
ATOM      8  C   UNL     1     -11.862 -26.132 -34.472  1.00  0.00    -0.000 C 
BRANCH   8   9
ATOM      9  C   UNL     1     -12.692 -25.611 -35.652  1.00  0.00    -0.003 C 
ATOM     10  C   UNL     1     -12.637 -24.088 -35.736  1.00  0.00     0.004 C 
ENDBRANCH   8   9
ENDBRANCH   7   8
ENDBRANCH   1   7
TORSDOF 6
ENDMDL
MODEL 3
REMARK VINA RESULT:    -4.171      3.166      5.025
REMARK INTER + INTRA:          -6.018
REMARK INTER:                  -5.553
REMARK INTRA:                  -0.465
REMARK UNBOUND:                -0.384
REMARK SMILES CCCCCCCC(=O)[O-]
REMARK SMILES IDX 5 1 6 2 7 3 8 4 9 5 10 6 4 7 3 8 2 9 1 10
REMARK H PARENT
REMARK Flexibility Score: inf
ROOT
ATOM      1  C   UNL     1     -11.988 -28.256 -34.055  1.00  0.00     0.000 C 
ENDROOT
BRANCH   1   2
ATOM      2  C   UNL     1     -13.119 -27.886 -33.078  1.00  0.00     0.006 C 
BRANCH   2   3
ATOM      3  C   UNL     1     -12.988 -28.583 -31.719  1.00  0.00     0.053 C 
BRANCH   3   4
ATOM      4  C   UNL     1     -12.056 -27.821 -30.830  1.00  0.00     0.041 C 
ATOM      5  O   UNL     1     -12.146 -26.569 -30.741  1.00  0.00    -0.550 OA
ATOM      6  O   UNL     1     -11.118 -28.500 -30.062  1.00  0.00    -0.550 OA
ENDBRANCH   3   4
ENDBRANCH   2   3
ENDBRANCH   1   2
BRANCH   1   7
ATOM      7  C   UNL     1     -11.294 -27.058 -34.729  1.00  0.00     0.000 C 
BRANCH   7   8
ATOM      8  C   UNL     1     -11.838 -25.704 -34.251  1.00  0.00    -0.000 C 
BRANCH   8   9
ATOM      9  C   UNL     1     -12.259 -24.831 -35.439  1.00  0.00    -0.003 C 
ATOM     10  C   UNL     1     -13.364 -25.501 -36.251  1.00  0.00     0.004 C 
ENDBRANCH   8   9
ENDBRANCH   7   8
ENDBRANCH   1   7
TORSDOF 6
ENDMDL
MODEL 4
REMARK VINA RESULT:    -4.125      1.113      1.699
REMARK INTER + INTRA:          -5.956
REMARK INTER:                  -5.583
REMARK INTRA:                  -0.372
REMARK UNBOUND:                -0.384
REMARK SMILES CCCCCCCC(=O)[O-]
REMARK SMILES IDX 5 1 6 2 7 3 8 4 9 5 10 6 4 7 3 8 2 9 1 10
REMARK H PARENT
REMARK Flexibility Score: inf
ROOT
ATOM      1  C   UNL     1     -12.264 -28.637 -33.767  1.00  0.00     0.000 C 
ENDROOT
BRANCH   1   2
ATOM      2  C   UNL     1     -11.640 -27.619 -34.739  1.00  0.00     0.006 C 
BRANCH   2   3
ATOM      3  C   UNL     1     -12.270 -26.225 -34.632  1.00  0.00     0.053 C 
BRANCH   3   4
ATOM      4  C   UNL     1     -13.299 -26.034 -35.701  1.00  0.00     0.041 C 
ATOM      5  O   UNL     1     -13.163 -25.120 -36.555  1.00  0.00    -0.550 OA
ATOM      6  O   UNL     1     -14.384 -26.897 -35.783  1.00  0.00    -0.550 OA
ENDBRANCH   3   4
ENDBRANCH   2   3
ENDBRANCH   1   2
BRANCH   1   7
ATOM      7  C   UNL     1     -13.003 -28.020 -32.565  1.00  0.00     0.000 C 
BRANCH   7   8
ATOM      8  C   UNL     1     -12.681 -28.724 -31.239  1.00  0.00    -0.000 C 
BRANCH   8   9
ATOM      9  C   UNL     1     -11.971 -27.771 -30.270  1.00  0.00    -0.003 C 
ATOM     10  C   UNL     1     -10.630 -27.310 -30.835  1.00  0.00     0.004 C 
ENDBRANCH   8   9
ENDBRANCH   7   8
ENDBRANCH   1   7
TORSDOF 6
ENDMDL
MODEL 5
REMARK VINA RESULT:    -4.102      3.350      4.780
REMARK INTER + INTRA:          -5.925
REMARK INTER:                  -5.447
REMARK INTRA:                  -0.478
REMARK UNBOUND:                -0.384
REMARK SMILES CCCCCCCC(=O)[O-]
REMARK SMILES IDX 5 1 6 2 7 3 8 4 9 5 10 6 4 7 3 8 2 9 1 10
REMARK H PARENT
REMARK Flexibility Score: inf
ROOT
ATOM      1  C   UNL     1     -11.866 -25.604 -33.691  1.00  0.00     0.000 C 
ENDROOT
BRANCH   1   2
ATOM      2  C   UNL     1     -11.173 -25.875 -32.343  1.00  0.00     0.006 C 
BRANCH   2   3
ATOM      3  C   UNL     1     -12.143 -26.357 -31.258  1.00  0.00     0.053 C 
BRANCH   3   4
ATOM      4  C   UNL     1     -11.897 -27.798 -30.939  1.00  0.00     0.041 C 
ATOM      5  O   UNL     1     -10.787 -28.163 -30.471  1.00  0.00    -0.550 OA
ATOM      6  O   UNL     1     -12.911 -28.731 -31.114  1.00  0.00    -0.550 OA
ENDBRANCH   3   4
ENDBRANCH   2   3
ENDBRANCH   1   2
BRANCH   1   7
ATOM      7  C   UNL     1     -11.466 -26.559 -34.831  1.00  0.00     0.000 C 
BRANCH   7   8
ATOM      8  C   UNL     1     -12.192 -27.911 -34.761  1.00  0.00    -0.000 C 
BRANCH   8   9
ATOM      9  C   UNL     1     -13.659 -27.725 -34.355  1.00  0.00    -0.003 C 
ATOM     10  C   UNL     1     -14.547 -27.508 -35.577  1.00  0.00     0.004 C 
ENDBRANCH   8   9
ENDBRANCH   7   8
ENDBRANCH   1   7
TORSDOF 6
ENDMDL
MODEL 6
REMARK VINA RESULT:    -4.078      1.666      2.377
REMARK INTER + INTRA:          -5.892
REMARK INTER:                  -5.243
REMARK INTRA:                  -0.649
REMARK UNBOUND:                -0.384
REMARK SMILES CCCCCCCC(=O)[O-]
REMARK SMILES IDX 5 1 6 2 7 3 8 4 9 5 10 6 4 7 3 8 2 9 1 10
REMARK H PARENT
REMARK Flexibility Score: inf
ROOT
ATOM      1  C   UNL     1     -13.634 -27.761 -33.669  1.00  0.00     0.000 C 
ENDROOT
BRANCH   1   2
ATOM      2  C   UNL     1     -13.325 -27.728 -35.177  1.00  0.00     0.006 C 
BRANCH   2   3
ATOM      3  C   UNL     1     -13.723 -26.405 -35.841  1.00  0.00     0.053 C 
BRANCH   3   4
ATOM      4  C   UNL     1     -12.588 -25.431 -35.785  1.00  0.00     0.041 C 
ATOM      5  O   UNL     1     -12.801 -24.200 -35.938  1.00  0.00    -0.550 OA
ATOM      6  O   UNL     1     -11.301 -25.879 -35.516  1.00  0.00    -0.550 OA
ENDBRANCH   3   4
ENDBRANCH   2   3
ENDBRANCH   1   2
BRANCH   1   7
ATOM      7  C   UNL     1     -12.450 -28.163 -32.771  1.00  0.00     0.000 C 
BRANCH   7   8
ATOM      8  C   UNL     1     -11.741 -26.956 -32.138  1.00  0.00    -0.000 C 
BRANCH   8   9
ATOM      9  C   UNL     1     -12.728 -25.809 -31.890  1.00  0.00    -0.003 C 
ATOM     10  C   UNL     1     -12.127 -24.466 -32.296  1.00  0.00     0.004 C 
ENDBRANCH   8   9
ENDBRANCH   7   8
ENDBRANCH   1   7
TORSDOF 6
ENDMDL
MODEL 7
REMARK VINA RESULT:    -4.030      2.616      4.020
REMARK INTER + INTRA:          -5.827
REMARK INTER:                  -5.258
REMARK INTRA:                  -0.569
REMARK UNBOUND:                -0.384
REMARK SMILES CCCCCCCC(=O)[O-]
REMARK SMILES IDX 5 1 6 2 7 3 8 4 9 5 10 6 4 7 3 8 2 9 1 10
REMARK H PARENT
REMARK Flexibility Score: inf
ROOT
ATOM      1  C   UNL     1     -13.001 -28.254 -32.487  1.00  0.00     0.000 C 
ENDROOT
BRANCH   1   2
ATOM      2  C   UNL     1     -12.371 -27.376 -31.391  1.00  0.00     0.006 C 
BRANCH   2   3
ATOM      3  C   UNL     1     -12.401 -25.881 -31.731  1.00  0.00     0.053 C 
BRANCH   3   4
ATOM      4  C   UNL     1     -11.014 -25.321 -31.749  1.00  0.00     0.041 C 
ATOM      5  O   UNL     1     -10.822 -24.114 -32.050  1.00  0.00    -0.550 OA
ATOM      6  O   UNL     1      -9.938 -26.120 -31.387  1.00  0.00    -0.550 OA
ENDBRANCH   3   4
ENDBRANCH   2   3
ENDBRANCH   1   2
BRANCH   1   7
ATOM      7  C   UNL     1     -13.706 -27.480 -33.616  1.00  0.00     0.000 C 
BRANCH   7   8
ATOM      8  C   UNL     1     -13.178 -27.843 -35.011  1.00  0.00    -0.000 C 
BRANCH   8   9
ATOM      9  C   UNL     1     -11.645 -27.869 -35.028  1.00  0.00    -0.003 C 
ATOM     10  C   UNL     1     -11.071 -26.469 -35.226  1.00  0.00     0.004 C 
ENDBRANCH   8   9
ENDBRANCH   7   8
ENDBRANCH   1   7
TORSDOF 6
ENDMDL
MODEL 8
REMARK VINA RESULT:    -4.029      1.620      2.454
REMARK INTER + INTRA:          -5.826
REMARK INTER:                  -5.369
REMARK INTRA:                  -0.457
REMARK UNBOUND:                -0.384
REMARK SMILES CCCCCCCC(=O)[O-]
REMARK SMILES IDX 5 1 6 2 7 3 8 4 9 5 10 6 4 7 3 8 2 9 1 10
REMARK H PARENT
REMARK Flexibility Score: inf
ROOT
ATOM      1  C   UNL     1     -11.719 -26.071 -32.872  1.00  0.00     0.000 C 
ENDROOT
BRANCH   1   2
ATOM      2  C   UNL     1     -11.444 -26.780 -34.210  1.00  0.00     0.006 C 
BRANCH   2   3
ATOM      3  C   UNL     1     -12.517 -27.813 -34.572  1.00  0.00     0.053 C 
BRANCH   3   4
ATOM      4  C   UNL     1     -13.592 -27.182 -35.398  1.00  0.00     0.041 C 
ATOM      5  O   UNL     1     -14.706 -27.754 -35.534  1.00  0.00    -0.550 OA
ATOM      6  O   UNL     1     -13.382 -25.937 -35.979  1.00  0.00    -0.550 OA
ENDBRANCH   3   4
ENDBRANCH   2   3
ENDBRANCH   1   2
BRANCH   1   7
ATOM      7  C   UNL     1     -10.674 -26.331 -31.771  1.00  0.00     0.000 C 
BRANCH   7   8
ATOM      8  C   UNL     1     -10.897 -27.663 -31.037  1.00  0.00    -0.000 C 
BRANCH   8   9
ATOM      9  C   UNL     1     -12.310 -27.734 -30.447  1.00  0.00    -0.003 C 
ATOM     10  C   UNL     1     -13.079 -28.930 -31.002  1.00  0.00     0.004 C 
ENDBRANCH   8   9
ENDBRANCH   7   8
ENDBRANCH   1   7
TORSDOF 6
ENDMDL
MODEL 9
REMARK VINA RESULT:    -4.012      1.936      2.690
REMARK INTER + INTRA:          -5.804
REMARK INTER:                  -5.205
REMARK INTRA:                  -0.598
REMARK UNBOUND:                -0.384
REMARK SMILES CCCCCCCC(=O)[O-]
REMARK SMILES IDX 5 1 6 2 7 3 8 4 9 5 10 6 4 7 3 8 2 9 1 10
REMARK H PARENT
REMARK Flexibility Score: inf
ROOT
ATOM      1  C   UNL     1     -13.012 -28.240 -32.512  1.00  0.00     0.000 C 
ENDROOT
BRANCH   1   2
ATOM      2  C   UNL     1     -13.794 -27.524 -33.628  1.00  0.00     0.006 C 
BRANCH   2   3
ATOM      3  C   UNL     1     -13.168 -27.716 -35.015  1.00  0.00     0.053 C 
BRANCH   3   4
ATOM      4  C   UNL     1     -12.044 -26.750 -35.219  1.00  0.00     0.041 C 
ATOM      5  O   UNL     1     -10.851 -27.149 -35.185  1.00  0.00    -0.550 OA
ATOM      6  O   UNL     1     -12.316 -25.416 -35.495  1.00  0.00    -0.550 OA
ENDBRANCH   3   4
ENDBRANCH   2   3
ENDBRANCH   1   2
BRANCH   1   7
ATOM      7  C   UNL     1     -12.453 -27.315 -31.414  1.00  0.00     0.000 C 
BRANCH   7   8
ATOM      8  C   UNL     1     -12.668 -25.825 -31.720  1.00  0.00    -0.000 C 
BRANCH   8   9
ATOM      9  C   UNL     1     -11.334 -25.128 -32.012  1.00  0.00    -0.003 C 
ATOM     10  C   UNL     1     -10.156 -25.954 -31.502  1.00  0.00     0.004 C 
ENDBRANCH   8   9
ENDBRANCH   7   8
ENDBRANCH   1   7
TORSDOF 6
ENDMDL
