MODEL 1
REMARK VINA RESULT:    -3.838      0.000      0.000
REMARK INTER + INTRA:          -8.248
REMARK INTER:                  -6.754
REMARK INTRA:                  -1.493
REMARK UNBOUND:                -1.493
REMARK SMILES CCCCCCCCCCCCCCC(=O)[O-]
REMARK SMILES IDX 9 1 10 2 11 3 12 4 13 5 14 6 15 7 16 8 17 9 8 10 7 11 6 12
REMARK SMILES IDX 5 13 4 14 3 15 2 16 1 17
REMARK H PARENT
REMARK Flexibility Score: inf
ROOT
ATOM      1  C   UNL     1    -101.511  31.393 -33.317  1.00  0.00     0.000 C 
ENDROOT
BRANCH   1   2
ATOM      2  C   UNL     1    -100.337  30.448 -33.627  1.00  0.00     0.000 C 
BRANCH   2   3
ATOM      3  C   UNL     1     -99.495  30.919 -34.826  1.00  0.00     0.000 C 
BRANCH   3   4
ATOM      4  C   UNL     1    -100.210  30.696 -36.169  1.00  0.00     0.000 C 
BRANCH   4   5
ATOM      5  C   UNL     1    -100.151  31.929 -37.082  1.00  0.00     0.006 C 
BRANCH   5   6
ATOM      6  C   UNL     1     -99.262  31.666 -38.302  1.00  0.00     0.053 C 
BRANCH   6   7
ATOM      7  C   UNL     1     -98.341  32.822 -38.539  1.00  0.00     0.041 C 
ATOM      8  O   UNL     1     -98.565  33.932 -37.987  1.00  0.00    -0.550 OA
ATOM      9  O   UNL     1     -97.214  32.661 -39.333  1.00  0.00    -0.550 OA
ENDBRANCH   6   7
ENDBRANCH   5   6
ENDBRANCH   4   5
ENDBRANCH   3   4
ENDBRANCH   2   3
ENDBRANCH   1   2
BRANCH   1  10
ATOM     10  C   UNL     1    -102.750  30.649 -32.788  1.00  0.00     0.000 C 
BRANCH  10  11
ATOM     11  C   UNL     1    -103.916  31.601 -32.477  1.00  0.00    -0.000 C 
BRANCH  11  12
ATOM     12  C   UNL     1    -104.927  31.688 -33.635  1.00  0.00    -0.000 C 
BRANCH  12  13
ATOM     13  C   UNL     1    -104.862  33.032 -34.377  1.00  0.00    -0.000 C 
BRANCH  13  14
ATOM     14  C   UNL     1    -103.833  33.030 -35.523  1.00  0.00    -0.000 C 
BRANCH  14  15
ATOM     15  C   UNL     1    -103.829  31.695 -36.299  1.00  0.00    -0.000 C 
BRANCH  15  16
ATOM     16  C   UNL     1    -104.295  31.829 -37.759  1.00  0.00    -0.003 C 
ATOM     17  C   UNL     1    -103.338  31.180 -38.756  1.00  0.00     0.004 C 
ENDBRANCH  15  16
ENDBRANCH  14  15
ENDBRANCH  13  14
ENDBRANCH  12  13
ENDBRANCH  11  12
ENDBRANCH  10  11
ENDBRANCH   1  10
TORSDOF 13
ENDMDL
MODEL 2
REMARK VINA RESULT:    -3.790      2.305      5.064
REMARK INTER + INTRA:          -8.164
REMARK INTER:                  -6.686
REMARK INTRA:                  -1.478
REMARK UNBOUND:                -1.493
REMARK SMILES CCCCCCCCCCCCCCC(=O)[O-]
REMARK SMILES IDX 9 1 10 2 11 3 12 4 13 5 14 6 15 7 16 8 17 9 8 10 7 11 6 12
REMARK SMILES IDX 5 13 4 14 3 15 2 16 1 17
REMARK H PARENT
REMARK Flexibility Score: inf
ROOT
ATOM      1  C   UNL     1    -102.473  31.553 -32.771  1.00  0.00     0.000 C 
ENDROOT
BRANCH   1   2
ATOM      2  C   UNL     1    -103.964  31.198 -32.639  1.00  0.00     0.000 C 
BRANCH   2   3
ATOM      3  C   UNL     1    -104.732  31.360 -33.963  1.00  0.00     0.000 C 
BRANCH   3   4
ATOM      4  C   UNL     1    -104.635  32.786 -34.529  1.00  0.00     0.000 C 
BRANCH   4   5
ATOM      5  C   UNL     1    -104.072  32.819 -35.957  1.00  0.00     0.006 C 
BRANCH   5   6
ATOM      6  C   UNL     1    -104.317  31.486 -36.673  1.00  0.00     0.053 C 
BRANCH   6   7
ATOM      7  C   UNL     1    -104.378  31.690 -38.154  1.00  0.00     0.041 C 
ATOM      8  O   UNL     1    -105.318  32.356 -38.663  1.00  0.00    -0.550 OA
ATOM      9  O   UNL     1    -103.374  31.181 -38.968  1.00  0.00    -0.550 OA
ENDBRANCH   6   7
ENDBRANCH   5   6
ENDBRANCH   4   5
ENDBRANCH   3   4
ENDBRANCH   2   3
ENDBRANCH   1   2
BRANCH   1  10
ATOM     10  C   UNL     1    -101.610  30.350 -33.190  1.00  0.00     0.000 C 
BRANCH  10  11
ATOM     11  C   UNL     1    -100.335  30.774 -33.938  1.00  0.00    -0.000 C 
BRANCH  11  12
ATOM     12  C   UNL     1    -100.642  31.636 -35.176  1.00  0.00    -0.000 C 
BRANCH  12  13
ATOM     13  C   UNL     1    -100.621  30.825 -36.481  1.00  0.00    -0.000 C 
BRANCH  13  14
ATOM     14  C   UNL     1    -100.191  31.665 -37.697  1.00  0.00    -0.000 C 
BRANCH  14  15
ATOM     15  C   UNL     1     -98.811  32.324 -37.492  1.00  0.00    -0.000 C 
BRANCH  15  16
ATOM     16  C   UNL     1     -98.370  33.213 -38.667  1.00  0.00    -0.003 C 
ATOM     17  C   UNL     1     -97.020  32.807 -39.254  1.00  0.00     0.004 C 
ENDBRANCH  15  16
ENDBRANCH  14  15
ENDBRANCH  13  14
ENDBRANCH  12  13
ENDBRANCH  11  12
ENDBRANCH  10  11
ENDBRANCH   1  10
TORSDOF 13
ENDMDL
MODEL 3
REMARK VINA RESULT:    -3.727      3.826      6.680
REMARK INTER + INTRA:          -8.053
REMARK INTER:                  -6.764
REMARK INTRA:                  -1.289
REMARK UNBOUND:                -1.493
REMARK SMILES CCCCCCCCCCCCCCC(=O)[O-]
REMARK SMILES IDX 9 1 10 2 11 3 12 4 13 5 14 6 15 7 16 8 17 9 8 10 7 11 6 12
REMARK SMILES IDX 5 13 4 14 3 15 2 16 1 17
REMARK H PARENT
REMARK Flexibility Score: inf
ROOT
ATOM      1  C   UNL     1    -103.205  31.881 -35.814  1.00  0.00     0.000 C 
ENDROOT
BRANCH   1   2
ATOM      2  C   UNL     1    -103.217  31.194 -37.190  1.00  0.00     0.000 C 
BRANCH   2   3
ATOM      3  C   UNL     1    -104.149  31.893 -38.196  1.00  0.00     0.000 C 
BRANCH   3   4
ATOM      4  C   UNL     1    -104.908  33.075 -37.570  1.00  0.00     0.000 C 
BRANCH   4   5
ATOM      5  C   UNL     1    -106.412  33.040 -37.875  1.00  0.00     0.006 C 
BRANCH   5   6
ATOM      6  C   UNL     1    -107.225  32.799 -36.599  1.00  0.00     0.053 C 
BRANCH   6   7
ATOM      7  C   UNL     1    -107.753  31.400 -36.571  1.00  0.00     0.041 C 
ATOM      8  O   UNL     1    -108.992  31.189 -36.659  1.00  0.00    -0.550 OA
ATOM      9  O   UNL     1    -106.875  30.327 -36.489  1.00  0.00    -0.550 OA
ENDBRANCH   6   7
ENDBRANCH   5   6
ENDBRANCH   4   5
ENDBRANCH   3   4
ENDBRANCH   2   3
ENDBRANCH   1   2
BRANCH   1  10
ATOM     10  C   UNL     1    -101.823  32.445 -35.442  1.00  0.00     0.000 C 
BRANCH  10  11
ATOM     11  C   UNL     1    -100.908  31.385 -34.807  1.00  0.00    -0.000 C 
BRANCH  11  12
ATOM     12  C   UNL     1     -99.546  31.286 -35.517  1.00  0.00    -0.000 C 
BRANCH  12  13
ATOM     13  C   UNL     1     -99.629  30.529 -36.852  1.00  0.00    -0.000 C 
BRANCH  13  14
ATOM     14  C   UNL     1     -99.377  31.437 -38.068  1.00  0.00    -0.000 C 
BRANCH  14  15
ATOM     15  C   UNL     1     -99.022  32.881 -37.654  1.00  0.00    -0.000 C 
BRANCH  15  16
ATOM     16  C   UNL     1     -98.123  33.611 -38.666  1.00  0.00    -0.003 C 
ATOM     17  C   UNL     1     -97.184  32.673 -39.421  1.00  0.00     0.004 C 
ENDBRANCH  15  16
ENDBRANCH  14  15
ENDBRANCH  13  14
ENDBRANCH  12  13
ENDBRANCH  11  12
ENDBRANCH  10  11
ENDBRANCH   1  10
TORSDOF 13
ENDMDL
MODEL 4
REMARK VINA RESULT:    -3.672      1.324      2.095
REMARK INTER + INTRA:          -7.955
REMARK INTER:                  -6.519
REMARK INTRA:                  -1.437
REMARK UNBOUND:                -1.493
REMARK SMILES CCCCCCCCCCCCCCC(=O)[O-]
REMARK SMILES IDX 9 1 10 2 11 3 12 4 13 5 14 6 15 7 16 8 17 9 8 10 7 11 6 12
REMARK SMILES IDX 5 13 4 14 3 15 2 16 1 17
REMARK H PARENT
REMARK Flexibility Score: inf
ROOT
ATOM      1  C   UNL     1    -102.028  32.106 -33.694  1.00  0.00     0.000 C 
ENDROOT
BRANCH   1   2
ATOM      2  C   UNL     1    -101.012  30.952 -33.720  1.00  0.00     0.000 C 
BRANCH   2   3
ATOM      3  C   UNL     1    -100.990  30.211 -35.069  1.00  0.00     0.000 C 
BRANCH   3   4
ATOM      4  C   UNL     1     -99.773  30.591 -35.929  1.00  0.00     0.000 C 
BRANCH   4   5
ATOM      5  C   UNL     1    -100.093  31.688 -36.955  1.00  0.00     0.006 C 
BRANCH   5   6
ATOM      6  C   UNL     1     -99.283  31.488 -38.241  1.00  0.00     0.053 C 
BRANCH   6   7
ATOM      7  C   UNL     1     -98.402  32.671 -38.493  1.00  0.00     0.041 C 
ATOM      8  O   UNL     1     -98.614  33.758 -37.893  1.00  0.00    -0.550 OA
ATOM      9  O   UNL     1     -97.322  32.561 -39.359  1.00  0.00    -0.550 OA
ENDBRANCH   6   7
ENDBRANCH   5   6
ENDBRANCH   4   5
ENDBRANCH   3   4
ENDBRANCH   2   3
ENDBRANCH   1   2
BRANCH   1  10
ATOM     10  C   UNL     1    -103.422  31.662 -33.220  1.00  0.00     0.000 C 
BRANCH  10  11
ATOM     11  C   UNL     1    -104.474  31.737 -34.339  1.00  0.00    -0.000 C 
BRANCH  11  12
ATOM     12  C   UNL     1    -103.925  32.399 -35.616  1.00  0.00    -0.000 C 
BRANCH  12  13
ATOM     13  C   UNL     1    -104.073  31.504 -36.856  1.00  0.00    -0.000 C 
BRANCH  13  14
ATOM     14  C   UNL     1    -104.404  32.302 -38.130  1.00  0.00    -0.000 C 
BRANCH  14  15
ATOM     15  C   UNL     1    -105.483  33.377 -37.881  1.00  0.00    -0.000 C 
BRANCH  15  16
ATOM     16  C   UNL     1    -106.913  32.814 -37.814  1.00  0.00    -0.003 C 
ATOM     17  C   UNL     1    -107.541  32.930 -36.427  1.00  0.00     0.004 C 
ENDBRANCH  15  16
ENDBRANCH  14  15
ENDBRANCH  13  14
ENDBRANCH  12  13
ENDBRANCH  11  12
ENDBRANCH  10  11
ENDBRANCH   1  10
TORSDOF 13
ENDMDL
MODEL 5
REMARK VINA RESULT:    -3.659      3.391      6.295
REMARK INTER + INTRA:          -7.932
REMARK INTER:                  -6.157
REMARK INTRA:                  -1.775
REMARK UNBOUND:                -1.493
REMARK SMILES CCCCCCCCCCCCCCC(=O)[O-]
REMARK SMILES IDX 9 1 10 2 11 3 12 4 13 5 14 6 15 7 16 8 17 9 8 10 7 11 6 12
REMARK SMILES IDX 5 13 4 14 3 15 2 16 1 17
REMARK H PARENT
REMARK Flexibility Score: inf
ROOT
ATOM      1  C   UNL     1    -104.006  31.751 -38.286  1.00  0.00     0.000 C 
ENDROOT
BRANCH   1   2
ATOM      2  C   UNL     1    -104.117  31.541 -36.767  1.00  0.00     0.000 C 
BRANCH   2   3
ATOM      3  C   UNL     1    -103.770  32.809 -35.965  1.00  0.00     0.000 C 
BRANCH   3   4
ATOM      4  C   UNL     1    -102.523  32.625 -35.084  1.00  0.00     0.000 C 
BRANCH   4   5
ATOM      5  C   UNL     1    -102.455  31.234 -34.439  1.00  0.00     0.006 C 
BRANCH   5   6
ATOM      6  C   UNL     1    -102.408  31.340 -32.911  1.00  0.00     0.053 C 
BRANCH   6   7
ATOM      7  C   UNL     1    -103.791  31.308 -32.341  1.00  0.00     0.041 C 
ATOM      8  O   UNL     1    -104.243  30.246 -31.836  1.00  0.00    -0.550 OA
ATOM      9  O   UNL     1    -104.565  32.461 -32.330  1.00  0.00    -0.550 OA
ENDBRANCH   6   7
ENDBRANCH   5   6
ENDBRANCH   4   5
ENDBRANCH   3   4
ENDBRANCH   2   3
ENDBRANCH   1   2
BRANCH   1  10
ATOM     10  C   UNL     1    -102.980  30.811 -38.944  1.00  0.00     0.000 C 
BRANCH  10  11
ATOM     11  C   UNL     1    -102.158  30.025 -37.910  1.00  0.00    -0.000 C 
BRANCH  11  12
ATOM     12  C   UNL     1    -100.642  30.214 -38.100  1.00  0.00    -0.000 C 
BRANCH  12  13
ATOM     13  C   UNL     1     -99.866  30.140 -36.776  1.00  0.00    -0.000 C 
BRANCH  13  14
ATOM     14  C   UNL     1     -99.309  31.505 -36.335  1.00  0.00    -0.000 C 
BRANCH  14  15
ATOM     15  C   UNL     1     -99.388  32.558 -37.461  1.00  0.00    -0.000 C 
BRANCH  15  16
ATOM     16  C   UNL     1     -98.025  33.159 -37.842  1.00  0.00    -0.003 C 
ATOM     17  C   UNL     1     -97.606  32.836 -39.275  1.00  0.00     0.004 C 
ENDBRANCH  15  16
ENDBRANCH  14  15
ENDBRANCH  13  14
ENDBRANCH  12  13
ENDBRANCH  11  12
ENDBRANCH  10  11
ENDBRANCH   1  10
TORSDOF 13
ENDMDL
MODEL 6
REMARK VINA RESULT:    -3.559      1.380      3.773
REMARK INTER + INTRA:          -7.757
REMARK INTER:                  -6.471
REMARK INTRA:                  -1.286
REMARK UNBOUND:                -1.493
REMARK SMILES CCCCCCCCCCCCCCC(=O)[O-]
REMARK SMILES IDX 9 1 10 2 11 3 12 4 13 5 14 6 15 7 16 8 17 9 8 10 7 11 6 12
REMARK SMILES IDX 5 13 4 14 3 15 2 16 1 17
REMARK H PARENT
REMARK Flexibility Score: inf
ROOT
ATOM      1  C   UNL     1    -103.593  31.398 -38.848  1.00  0.00     0.000 C 
ENDROOT
BRANCH   1   2
ATOM      2  C   UNL     1    -103.049  30.393 -37.818  1.00  0.00     0.000 C 
BRANCH   2   3
ATOM      3  C   UNL     1    -101.511  30.364 -37.771  1.00  0.00     0.000 C 
BRANCH   3   4
ATOM      4  C   UNL     1    -100.947  31.083 -36.534  1.00  0.00     0.000 C 
BRANCH   4   5
ATOM      5  C   UNL     1     -99.872  32.120 -36.892  1.00  0.00     0.006 C 
BRANCH   5   6
ATOM      6  C   UNL     1     -99.136  31.726 -38.177  1.00  0.00     0.053 C 
BRANCH   6   7
ATOM      7  C   UNL     1     -98.247  32.839 -38.633  1.00  0.00     0.041 C 
ATOM      8  O   UNL     1     -98.463  34.019 -38.251  1.00  0.00    -0.550 OA
ATOM      9  O   UNL     1     -97.154  32.568 -39.446  1.00  0.00    -0.550 OA
ENDBRANCH   6   7
ENDBRANCH   5   6
ENDBRANCH   4   5
ENDBRANCH   3   4
ENDBRANCH   2   3
ENDBRANCH   1   2
BRANCH   1  10
ATOM     10  C   UNL     1    -105.104  31.644 -38.700  1.00  0.00     0.000 C 
BRANCH  10  11
ATOM     11  C   UNL     1    -105.418  33.007 -38.061  1.00  0.00    -0.000 C 
BRANCH  11  12
ATOM     12  C   UNL     1    -106.448  32.898 -36.923  1.00  0.00    -0.000 C 
BRANCH  12  13
ATOM     13  C   UNL     1    -105.882  32.193 -35.680  1.00  0.00    -0.000 C 
BRANCH  13  14
ATOM     14  C   UNL     1    -104.621  32.881 -35.128  1.00  0.00    -0.000 C 
BRANCH  14  15
ATOM     15  C   UNL     1    -103.666  31.883 -34.439  1.00  0.00    -0.000 C 
BRANCH  15  16
ATOM     16  C   UNL     1    -103.579  32.063 -32.914  1.00  0.00    -0.003 C 
ATOM     17  C   UNL     1    -104.249  30.932 -32.137  1.00  0.00     0.004 C 
ENDBRANCH  15  16
ENDBRANCH  14  15
ENDBRANCH  13  14
ENDBRANCH  12  13
ENDBRANCH  11  12
ENDBRANCH  10  11
ENDBRANCH   1  10
TORSDOF 13
ENDMDL
MODEL 7
REMARK VINA RESULT:    -3.548      3.235      5.330
REMARK INTER + INTRA:          -7.738
REMARK INTER:                  -5.956
REMARK INTRA:                  -1.781
REMARK UNBOUND:                -1.493
REMARK SMILES CCCCCCCCCCCCCCC(=O)[O-]
REMARK SMILES IDX 9 1 10 2 11 3 12 4 13 5 14 6 15 7 16 8 17 9 8 10 7 11 6 12
REMARK SMILES IDX 5 13 4 14 3 15 2 16 1 17
REMARK H PARENT
REMARK Flexibility Score: inf
ROOT
ATOM      1  C   UNL     1     -99.853  32.056 -36.346  1.00  0.00     0.000 C 
ENDROOT
BRANCH   1   2
ATOM      2  C   UNL     1     -98.817  31.421 -35.403  1.00  0.00     0.000 C 
BRANCH   2   3
ATOM      3  C   UNL     1     -99.437  30.379 -34.455  1.00  0.00     0.000 C 
BRANCH   3   4
ATOM      4  C   UNL     1    -100.968  30.303 -34.585  1.00  0.00     0.000 C 
BRANCH   4   5
ATOM      5  C   UNL     1    -101.688  30.562 -33.253  1.00  0.00     0.006 C 
BRANCH   5   6
ATOM      6  C   UNL     1    -102.202  32.004 -33.180  1.00  0.00     0.053 C 
BRANCH   6   7
ATOM      7  C   UNL     1    -103.646  32.025 -32.789  1.00  0.00     0.041 C 
ATOM      8  O   UNL     1    -104.067  32.883 -31.969  1.00  0.00    -0.550 OA
ATOM      9  O   UNL     1    -104.535  31.125 -33.362  1.00  0.00    -0.550 OA
ENDBRANCH   6   7
ENDBRANCH   5   6
ENDBRANCH   4   5
ENDBRANCH   3   4
ENDBRANCH   2   3
ENDBRANCH   1   2
BRANCH   1  10
ATOM     10  C   UNL     1     -99.540  31.802 -37.831  1.00  0.00     0.000 C 
BRANCH  10  11
ATOM     11  C   UNL     1     -99.911  30.377 -38.273  1.00  0.00    -0.000 C 
BRANCH  11  12
ATOM     12  C   UNL     1    -101.197  30.342 -39.119  1.00  0.00    -0.000 C 
BRANCH  12  13
ATOM     13  C   UNL     1    -102.458  30.125 -38.268  1.00  0.00    -0.000 C 
BRANCH  13  14
ATOM     14  C   UNL     1    -103.345  31.380 -38.187  1.00  0.00    -0.000 C 
BRANCH  14  15
ATOM     15  C   UNL     1    -103.542  31.862 -36.734  1.00  0.00    -0.000 C 
BRANCH  15  16
ATOM     16  C   UNL     1    -104.765  32.775 -36.547  1.00  0.00    -0.003 C 
ATOM     17  C   UNL     1    -105.355  33.267 -37.866  1.00  0.00     0.004 C 
ENDBRANCH  15  16
ENDBRANCH  14  15
ENDBRANCH  13  14
ENDBRANCH  12  13
ENDBRANCH  11  12
ENDBRANCH  10  11
ENDBRANCH   1  10
TORSDOF 13
ENDMDL
MODEL 8
REMARK VINA RESULT:    -3.350     14.775     16.620
REMARK INTER + INTRA:          -7.389
REMARK INTER:                  -5.854
REMARK INTRA:                  -1.535
REMARK UNBOUND:                -1.493
REMARK SMILES CCCCCCCCCCCCCCC(=O)[O-]
REMARK SMILES IDX 9 1 10 2 11 3 12 4 13 5 14 6 15 7 16 8 17 9 8 10 7 11 6 12
REMARK SMILES IDX 5 13 4 14 3 15 2 16 1 17
REMARK H PARENT
REMARK Flexibility Score: inf
ROOT
ATOM      1  C   UNL     1    -101.536  42.884 -47.139  1.00  0.00     0.000 C 
ENDROOT
BRANCH   1   2
ATOM      2  C   UNL     1    -102.182  41.507 -47.364  1.00  0.00     0.000 C 
BRANCH   2   3
ATOM      3  C   UNL     1    -102.613  41.285 -48.825  1.00  0.00     0.000 C 
BRANCH   3   4
ATOM      4  C   UNL     1    -101.885  40.099 -49.479  1.00  0.00     0.000 C 
BRANCH   4   5
ATOM      5  C   UNL     1    -100.741  39.556 -48.610  1.00  0.00     0.006 C 
BRANCH   5   6
ATOM      6  C   UNL     1     -99.590  39.039 -49.480  1.00  0.00     0.053 C 
BRANCH   6   7
ATOM      7  C   UNL     1     -99.132  37.698 -49.001  1.00  0.00     0.041 C 
ATOM      8  O   UNL     1     -99.886  36.695 -49.111  1.00  0.00    -0.550 OA
ATOM      9  O   UNL     1     -97.857  37.547 -48.472  1.00  0.00    -0.550 OA
ENDBRANCH   6   7
ENDBRANCH   5   6
ENDBRANCH   4   5
ENDBRANCH   3   4
ENDBRANCH   2   3
ENDBRANCH   1   2
BRANCH   1  10
ATOM     10  C   UNL     1    -101.464  43.726 -48.425  1.00  0.00     0.000 C 
BRANCH  10  11
ATOM     11  C   UNL     1    -100.018  44.069 -48.822  1.00  0.00    -0.000 C 
BRANCH  11  12
ATOM     12  C   UNL     1     -99.174  42.813 -49.102  1.00  0.00    -0.000 C 
BRANCH  12  13
ATOM     13  C   UNL     1     -97.817  42.841 -48.380  1.00  0.00    -0.000 C 
BRANCH  13  14
ATOM     14  C   UNL     1     -97.835  43.715 -47.113  1.00  0.00    -0.000 C 
BRANCH  14  15
ATOM     15  C   UNL     1     -96.539  43.571 -46.287  1.00  0.00    -0.000 C 
BRANCH  15  16
ATOM     16  C   UNL     1     -95.410  42.838 -47.032  1.00  0.00    -0.003 C 
ATOM     17  C   UNL     1     -94.130  42.712 -46.209  1.00  0.00     0.004 C 
ENDBRANCH  15  16
ENDBRANCH  14  15
ENDBRANCH  13  14
ENDBRANCH  12  13
ENDBRANCH  11  12
ENDBRANCH  10  11
ENDBRANCH   1  10
TORSDOF 13
ENDMDL
MODEL 9
REMARK VINA RESULT:    -3.319      3.363      6.503
REMARK INTER + INTRA:          -7.335
REMARK INTER:                  -5.973
REMARK INTRA:                  -1.362
REMARK UNBOUND:                -1.493
REMARK SMILES CCCCCCCCCCCCCCC(=O)[O-]
REMARK SMILES IDX 9 1 10 2 11 3 12 4 13 5 14 6 15 7 16 8 17 9 8 10 7 11 6 12
REMARK SMILES IDX 5 13 4 14 3 15 2 16 1 17
REMARK H PARENT
REMARK Flexibility Score: inf
ROOT
ATOM      1  C   UNL     1    -103.166  31.440 -38.102  1.00  0.00     0.000 C 
ENDROOT
BRANCH   1   2
ATOM      2  C   UNL     1    -104.603  31.754 -38.552  1.00  0.00     0.000 C 
BRANCH   2   3
ATOM      3  C   UNL     1    -105.652  31.394 -37.484  1.00  0.00     0.000 C 
BRANCH   3   4
ATOM      4  C   UNL     1    -106.052  32.603 -36.623  1.00  0.00     0.000 C 
BRANCH   4   5
ATOM      5  C   UNL     1    -105.150  32.778 -35.393  1.00  0.00     0.006 C 
BRANCH   5   6
ATOM      6  C   UNL     1    -105.984  32.905 -34.114  1.00  0.00     0.053 C 
BRANCH   6   7
ATOM      7  C   UNL     1    -105.304  32.212 -32.975  1.00  0.00     0.041 C 
ATOM      8  O   UNL     1    -104.136  32.542 -32.640  1.00  0.00    -0.550 OA
ATOM      9  O   UNL     1    -105.977  31.232 -32.257  1.00  0.00    -0.550 OA
ENDBRANCH   6   7
ENDBRANCH   5   6
ENDBRANCH   4   5
ENDBRANCH   3   4
ENDBRANCH   2   3
ENDBRANCH   1   2
BRANCH   1  10
ATOM     10  C   UNL     1    -103.069  30.140 -37.285  1.00  0.00     0.000 C 
BRANCH  10  11
ATOM     11  C   UNL     1    -102.245  30.316 -35.998  1.00  0.00    -0.000 C 
BRANCH  11  12
ATOM     12  C   UNL     1    -101.724  31.755 -35.829  1.00  0.00    -0.000 C 
BRANCH  12  13
ATOM     13  C   UNL     1    -100.191  31.819 -35.728  1.00  0.00    -0.000 C 
BRANCH  13  14
ATOM     14  C   UNL     1     -99.488  31.025 -36.844  1.00  0.00    -0.000 C 
BRANCH  14  15
ATOM     15  C   UNL     1     -99.364  31.839 -38.149  1.00  0.00    -0.000 C 
BRANCH  15  16
ATOM     16  C   UNL     1     -98.312  32.959 -38.081  1.00  0.00    -0.003 C 
ATOM     17  C   UNL     1     -97.247  32.850 -39.170  1.00  0.00     0.004 C 
ENDBRANCH  15  16
ENDBRANCH  14  15
ENDBRANCH  13  14
ENDBRANCH  12  13
ENDBRANCH  11  12
ENDBRANCH  10  11
ENDBRANCH   1  10
TORSDOF 13
ENDMDL
