MODEL 1
REMARK VINA RESULT:    -4.447      0.000      0.000
REMARK INTER + INTRA:          -6.937
REMARK INTER:                  -6.007
REMARK INTRA:                  -0.930
REMARK UNBOUND:                -0.930
REMARK SMILES O=C[C@H](O)[C@@H](O)[C@H](O)CO
REMARK SMILES IDX 7 1 9 2 10 3 5 5 3 6 2 7 1 8 4 9 6 11 8 13
REMARK H PARENT 10 4 4 10 6 12 8 14
REMARK Flexibility Score: inf
ROOT
ATOM      1  C   UNL     1     -10.179   3.353  19.218  1.00  0.00     0.171 C 
ENDROOT
BRANCH   1   2
ATOM      2  C   UNL     1      -9.298   2.901  18.039  1.00  0.00     0.190 C 
BRANCH   2   3
ATOM      3  O   UNL     1      -7.975   3.307  18.255  1.00  0.00    -0.394 OA
ATOM      4  H   UNL     1      -8.002   4.294  18.350  1.00  0.00     0.210 HD
ENDBRANCH   2   3
ENDBRANCH   1   2
BRANCH   1   5
ATOM      5  C   UNL     1     -10.087   4.891  19.442  1.00  0.00     0.181 C 
BRANCH   5   6
ATOM      6  C   UNL     1      -9.387   5.297  20.768  1.00  0.00     0.209 C 
BRANCH   6   7
ATOM      7  C   UNL     1      -9.299   6.787  20.963  1.00  0.00     0.258 C 
ATOM      8  O   UNL     1      -8.407   7.432  20.436  1.00  0.00    -0.300 OA
ENDBRANCH   6   7
BRANCH   6   9
ATOM      9  O   UNL     1      -8.089   4.762  20.811  1.00  0.00    -0.383 OA
ATOM     10  H   UNL     1      -7.464   5.498  20.580  1.00  0.00     0.211 HD
ENDBRANCH   6   9
ENDBRANCH   5   6
BRANCH   5  11
ATOM     11  O   UNL     1      -9.528   5.559  18.336  1.00  0.00    -0.387 OA
ATOM     12  H   UNL     1      -8.543   5.484  18.391  1.00  0.00     0.211 HD
ENDBRANCH   5  11
ENDBRANCH   1   5
BRANCH   1  13
ATOM     13  O   UNL     1      -9.872   2.631  20.386  1.00  0.00    -0.388 OA
ATOM     14  H   UNL     1     -10.298   3.088  21.157  1.00  0.00     0.211 HD
ENDBRANCH   1  13
TORSDOF 8
ENDMDL
MODEL 2
REMARK VINA RESULT:    -4.428      1.185      1.419
REMARK INTER + INTRA:          -6.911
REMARK INTER:                  -6.604
REMARK INTRA:                  -0.307
REMARK UNBOUND:                -0.930
REMARK SMILES O=C[C@H](O)[C@@H](O)[C@H](O)CO
REMARK SMILES IDX 7 1 9 2 10 3 5 5 3 6 2 7 1 8 4 9 6 11 8 13
REMARK H PARENT 10 4 4 10 6 12 8 14
REMARK Flexibility Score: inf
ROOT
ATOM      1  C   UNL     1     -10.362   2.943  19.495  1.00  0.00     0.171 C 
ENDROOT
BRANCH   1   2
ATOM      2  C   UNL     1     -11.151   2.585  18.223  1.00  0.00     0.190 C 
BRANCH   2   3
ATOM      3  O   UNL     1     -10.530   3.157  17.105  1.00  0.00    -0.394 OA
ATOM      4  H   UNL     1      -9.853   2.498  16.800  1.00  0.00     0.210 HD
ENDBRANCH   2   3
ENDBRANCH   1   2
BRANCH   1   5
ATOM      5  C   UNL     1      -9.384   4.128  19.246  1.00  0.00     0.181 C 
BRANCH   5   6
ATOM      6  C   UNL     1      -9.169   5.044  20.483  1.00  0.00     0.209 C 
BRANCH   6   7
ATOM      7  C   UNL     1      -9.331   6.508  20.176  1.00  0.00     0.258 C 
ATOM      8  O   UNL     1      -8.392   7.277  20.300  1.00  0.00    -0.300 OA
ENDBRANCH   6   7
BRANCH   6   9
ATOM      9  O   UNL     1      -7.887   4.836  21.018  1.00  0.00    -0.383 OA
ATOM     10  H   UNL     1      -7.975   4.141  21.721  1.00  0.00     0.211 HD
ENDBRANCH   6   9
ENDBRANCH   5   6
BRANCH   5  11
ATOM     11  O   UNL     1      -8.160   3.703  18.698  1.00  0.00    -0.387 OA
ATOM     12  H   UNL     1      -8.338   3.295  17.814  1.00  0.00     0.211 HD
ENDBRANCH   5  11
ENDBRANCH   1   5
BRANCH   1  13
ATOM     13  O   UNL     1      -9.701   1.814  20.016  1.00  0.00    -0.388 OA
ATOM     14  H   UNL     1     -10.385   1.181  20.354  1.00  0.00     0.211 HD
ENDBRANCH   1  13
TORSDOF 8
ENDMDL
MODEL 3
REMARK VINA RESULT:    -4.279      1.765      4.343
REMARK INTER + INTRA:          -6.710
REMARK INTER:                  -6.256
REMARK INTRA:                  -0.454
REMARK UNBOUND:                -0.930
REMARK SMILES O=C[C@H](O)[C@@H](O)[C@H](O)CO
REMARK SMILES IDX 7 1 9 2 10 3 5 5 3 6 2 7 1 8 4 9 6 11 8 13
REMARK H PARENT 10 4 4 10 6 12 8 14
REMARK Flexibility Score: inf
ROOT
ATOM      1  C   UNL     1      -9.371   4.391  19.528  1.00  0.00     0.171 C 
ENDROOT
BRANCH   1   2
ATOM      2  C   UNL     1      -9.210   4.980  20.941  1.00  0.00     0.190 C 
BRANCH   2   3
ATOM      3  O   UNL     1      -8.080   5.807  20.982  1.00  0.00    -0.394 OA
ATOM      4  H   UNL     1      -7.338   5.279  20.589  1.00  0.00     0.210 HD
ENDBRANCH   2   3
ENDBRANCH   1   2
BRANCH   1   5
ATOM      5  C   UNL     1     -10.433   3.254  19.501  1.00  0.00     0.181 C 
BRANCH   5   6
ATOM      6  C   UNL     1     -11.189   3.123  18.150  1.00  0.00     0.209 C 
BRANCH   6   7
ATOM      7  C   UNL     1     -12.028   1.878  18.055  1.00  0.00     0.258 C 
ATOM      8  O   UNL     1     -11.508   0.774  18.077  1.00  0.00    -0.300 OA
ENDBRANCH   6   7
BRANCH   6   9
ATOM      9  O   UNL     1     -10.274   3.131  17.084  1.00  0.00    -0.383 OA
ATOM     10  H   UNL     1      -9.415   2.781  17.437  1.00  0.00     0.211 HD
ENDBRANCH   6   9
ENDBRANCH   5   6
BRANCH   5  11
ATOM     11  O   UNL     1      -9.902   2.018  19.918  1.00  0.00    -0.387 OA
ATOM     12  H   UNL     1      -8.958   1.969  19.625  1.00  0.00     0.211 HD
ENDBRANCH   5  11
ENDBRANCH   1   5
BRANCH   1  13
ATOM     13  O   UNL     1      -8.132   3.968  19.011  1.00  0.00    -0.388 OA
ATOM     14  H   UNL     1      -7.416   4.278  19.624  1.00  0.00     0.211 HD
ENDBRANCH   1  13
TORSDOF 8
ENDMDL
MODEL 4
REMARK VINA RESULT:    -3.848      1.599      2.321
REMARK INTER + INTRA:          -6.127
REMARK INTER:                  -5.168
REMARK INTRA:                  -0.959
REMARK UNBOUND:                -0.930
REMARK SMILES O=C[C@H](O)[C@@H](O)[C@H](O)CO
REMARK SMILES IDX 7 1 9 2 10 3 5 5 3 6 2 7 1 8 4 9 6 11 8 13
REMARK H PARENT 10 4 4 10 6 12 8 14
REMARK Flexibility Score: inf
ROOT
ATOM      1  C   UNL     1      -9.616   3.393  18.183  1.00  0.00     0.171 C 
ENDROOT
BRANCH   1   2
ATOM      2  C   UNL     1      -8.378   2.627  17.682  1.00  0.00     0.190 C 
BRANCH   2   3
ATOM      3  O   UNL     1      -7.316   3.520  17.489  1.00  0.00    -0.394 OA
ATOM      4  H   UNL     1      -6.588   2.995  17.066  1.00  0.00     0.210 HD
ENDBRANCH   2   3
ENDBRANCH   1   2
BRANCH   1   5
ATOM      5  C   UNL     1      -9.219   4.730  18.873  1.00  0.00     0.181 C 
BRANCH   5   6
ATOM      6  C   UNL     1     -10.416   5.684  19.141  1.00  0.00     0.209 C 
BRANCH   6   7
ATOM      7  C   UNL     1     -10.899   5.648  20.566  1.00  0.00     0.258 C 
ATOM      8  O   UNL     1     -11.108   4.583  21.124  1.00  0.00    -0.300 OA
ENDBRANCH   6   7
BRANCH   6   9
ATOM      9  O   UNL     1     -11.488   5.361  18.295  1.00  0.00    -0.383 OA
ATOM     10  H   UNL     1     -11.104   4.903  17.502  1.00  0.00     0.211 HD
ENDBRANCH   6   9
ENDBRANCH   5   6
BRANCH   5  11
ATOM     11  O   UNL     1      -8.451   4.524  20.035  1.00  0.00    -0.387 OA
ATOM     12  H   UNL     1      -8.217   5.407  20.415  1.00  0.00     0.211 HD
ENDBRANCH   5  11
ENDBRANCH   1   5
BRANCH   1  13
ATOM     13  O   UNL     1     -10.409   2.583  19.018  1.00  0.00    -0.388 OA
ATOM     14  H   UNL     1     -10.132   1.638  18.891  1.00  0.00     0.211 HD
ENDBRANCH   1  13
TORSDOF 8
ENDMDL
MODEL 5
REMARK VINA RESULT:    -3.837      1.446      3.780
REMARK INTER + INTRA:          -6.112
REMARK INTER:                  -5.788
REMARK INTRA:                  -0.324
REMARK UNBOUND:                -0.930
REMARK SMILES O=C[C@H](O)[C@@H](O)[C@H](O)CO
REMARK SMILES IDX 7 1 9 2 10 3 5 5 3 6 2 7 1 8 4 9 6 11 8 13
REMARK H PARENT 10 4 4 10 6 12 8 14
REMARK Flexibility Score: inf
ROOT
ATOM      1  C   UNL     1      -9.959   5.229  19.441  1.00  0.00     0.171 C 
ENDROOT
BRANCH   1   2
ATOM      2  C   UNL     1      -9.488   5.947  20.719  1.00  0.00     0.190 C 
BRANCH   2   3
ATOM      3  O   UNL     1      -8.097   5.830  20.841  1.00  0.00    -0.394 OA
ATOM      4  H   UNL     1      -7.933   4.963  21.294  1.00  0.00     0.210 HD
ENDBRANCH   2   3
ENDBRANCH   1   2
BRANCH   1   5
ATOM      5  C   UNL     1      -9.057   4.006  19.108  1.00  0.00     0.181 C 
BRANCH   5   6
ATOM      6  C   UNL     1      -9.844   2.695  18.826  1.00  0.00     0.209 C 
BRANCH   6   7
ATOM      7  C   UNL     1     -11.308   2.925  18.561  1.00  0.00     0.258 C 
ATOM      8  O   UNL     1     -11.735   2.961  17.419  1.00  0.00    -0.300 OA
ENDBRANCH   6   7
BRANCH   6   9
ATOM      9  O   UNL     1      -9.717   1.814  19.912  1.00  0.00    -0.383 OA
ATOM     10  H   UNL     1     -10.038   0.927  19.604  1.00  0.00     0.211 HD
ENDBRANCH   6   9
ENDBRANCH   5   6
BRANCH   5  11
ATOM     11  O   UNL     1      -8.135   4.286  18.083  1.00  0.00    -0.387 OA
ATOM     12  H   UNL     1      -7.777   3.429  17.742  1.00  0.00     0.211 HD
ENDBRANCH   5  11
ENDBRANCH   1   5
BRANCH   1  13
ATOM     13  O   UNL     1     -10.052   6.126  18.360  1.00  0.00    -0.388 OA
ATOM     14  H   UNL     1     -10.693   5.754  17.700  1.00  0.00     0.211 HD
ENDBRANCH   1  13
TORSDOF 8
ENDMDL
MODEL 6
REMARK VINA RESULT:    -3.827      1.272      2.088
REMARK INTER + INTRA:          -6.099
REMARK INTER:                  -5.137
REMARK INTRA:                  -0.963
REMARK UNBOUND:                -0.930
REMARK SMILES O=C[C@H](O)[C@@H](O)[C@H](O)CO
REMARK SMILES IDX 7 1 9 2 10 3 5 5 3 6 2 7 1 8 4 9 6 11 8 13
REMARK H PARENT 10 4 4 10 6 12 8 14
REMARK Flexibility Score: inf
ROOT
ATOM      1  C   UNL     1      -9.164   4.328  19.160  1.00  0.00     0.171 C 
ENDROOT
BRANCH   1   2
ATOM      2  C   UNL     1      -9.561   2.888  18.789  1.00  0.00     0.190 C 
BRANCH   2   3
ATOM      3  O   UNL     1      -9.716   2.126  19.954  1.00  0.00    -0.394 OA
ATOM      4  H   UNL     1      -9.255   2.628  20.675  1.00  0.00     0.210 HD
ENDBRANCH   2   3
ENDBRANCH   1   2
BRANCH   1   5
ATOM      5  C   UNL     1      -9.592   4.682  20.613  1.00  0.00     0.181 C 
BRANCH   5   6
ATOM      6  C   UNL     1      -9.109   6.079  21.095  1.00  0.00     0.209 C 
BRANCH   6   7
ATOM      7  C   UNL     1     -10.203   7.112  21.117  1.00  0.00     0.258 C 
ATOM      8  O   UNL     1     -10.807   7.401  20.097  1.00  0.00    -0.300 OA
ENDBRANCH   6   7
BRANCH   6   9
ATOM      9  O   UNL     1      -8.072   6.541  20.268  1.00  0.00    -0.383 OA
ATOM     10  H   UNL     1      -8.303   6.276  19.339  1.00  0.00     0.211 HD
ENDBRANCH   6   9
ENDBRANCH   5   6
BRANCH   5  11
ATOM     11  O   UNL     1     -10.975   4.514  20.818  1.00  0.00    -0.387 OA
ATOM     12  H   UNL     1     -11.439   5.325  20.493  1.00  0.00     0.211 HD
ENDBRANCH   5  11
ENDBRANCH   1   5
BRANCH   1  13
ATOM     13  O   UNL     1      -9.668   5.250  18.222  1.00  0.00    -0.388 OA
ATOM     14  H   UNL     1     -10.614   5.441  18.450  1.00  0.00     0.211 HD
ENDBRANCH   1  13
TORSDOF 8
ENDMDL
MODEL 7
REMARK VINA RESULT:    -3.810      1.361      3.848
REMARK INTER + INTRA:          -6.077
REMARK INTER:                  -5.146
REMARK INTRA:                  -0.931
REMARK UNBOUND:                -0.930
REMARK SMILES O=C[C@H](O)[C@@H](O)[C@H](O)CO
REMARK SMILES IDX 7 1 9 2 10 3 5 5 3 6 2 7 1 8 4 9 6 11 8 13
REMARK H PARENT 10 4 4 10 6 12 8 14
REMARK Flexibility Score: inf
ROOT
ATOM      1  C   UNL     1      -9.561   5.717  19.434  1.00  0.00     0.171 C 
ENDROOT
BRANCH   1   2
ATOM      2  C   UNL     1      -8.786   6.562  20.461  1.00  0.00     0.190 C 
BRANCH   2   3
ATOM      3  O   UNL     1      -7.780   5.784  21.049  1.00  0.00    -0.394 OA
ATOM      4  H   UNL     1      -7.098   5.636  20.344  1.00  0.00     0.210 HD
ENDBRANCH   2   3
ENDBRANCH   1   2
BRANCH   1   5
ATOM      5  C   UNL     1     -10.386   4.593  20.126  1.00  0.00     0.181 C 
BRANCH   5   6
ATOM      6  C   UNL     1     -11.396   3.878  19.186  1.00  0.00     0.209 C 
BRANCH   6   7
ATOM      7  C   UNL     1     -10.897   2.553  18.674  1.00  0.00     0.258 C 
ATOM      8  O   UNL     1      -9.790   2.459  18.169  1.00  0.00    -0.300 OA
ENDBRANCH   6   7
BRANCH   6   9
ATOM      9  O   UNL     1     -11.697   4.699  18.087  1.00  0.00    -0.383 OA
ATOM     10  H   UNL     1     -12.603   5.073  18.245  1.00  0.00     0.211 HD
ENDBRANCH   6   9
ENDBRANCH   5   6
BRANCH   5  11
ATOM     11  O   UNL     1      -9.568   3.671  20.804  1.00  0.00    -0.387 OA
ATOM     12  H   UNL     1      -8.792   4.158  21.179  1.00  0.00     0.211 HD
ENDBRANCH   5  11
ENDBRANCH   1   5
BRANCH   1  13
ATOM     13  O   UNL     1      -8.700   5.206  18.444  1.00  0.00    -0.388 OA
ATOM     14  H   UNL     1      -8.594   4.231  18.596  1.00  0.00     0.211 HD
ENDBRANCH   1  13
TORSDOF 8
ENDMDL
MODEL 8
REMARK VINA RESULT:    -3.784      1.998      2.941
REMARK INTER + INTRA:          -6.042
REMARK INTER:                  -5.110
REMARK INTRA:                  -0.931
REMARK UNBOUND:                -0.930
REMARK SMILES O=C[C@H](O)[C@@H](O)[C@H](O)CO
REMARK SMILES IDX 7 1 9 2 10 3 5 5 3 6 2 7 1 8 4 9 6 11 8 13
REMARK H PARENT 10 4 4 10 6 12 8 14
REMARK Flexibility Score: inf
ROOT
ATOM      1  C   UNL     1     -11.266   3.068  18.089  1.00  0.00     0.171 C 
ENDROOT
BRANCH   1   2
ATOM      2  C   UNL     1     -12.015   1.736  17.900  1.00  0.00     0.190 C 
BRANCH   2   3
ATOM      3  O   UNL     1     -11.093   0.699  17.708  1.00  0.00    -0.394 OA
ATOM      4  H   UNL     1     -11.250   0.052  18.443  1.00  0.00     0.210 HD
ENDBRANCH   2   3
ENDBRANCH   1   2
BRANCH   1   5
ATOM      5  C   UNL     1      -9.875   2.851  18.751  1.00  0.00     0.181 C 
BRANCH   5   6
ATOM      6  C   UNL     1      -9.086   4.164  19.015  1.00  0.00     0.209 C 
BRANCH   6   7
ATOM      7  C   UNL     1      -9.153   4.622  20.447  1.00  0.00     0.258 C 
ATOM      8  O   UNL     1     -10.227   4.731  21.016  1.00  0.00    -0.300 OA
ENDBRANCH   6   7
BRANCH   6   9
ATOM      9  O   UNL     1      -9.575   5.193  18.192  1.00  0.00    -0.383 OA
ATOM     10  H   UNL     1     -10.465   5.450  18.548  1.00  0.00     0.211 HD
ENDBRANCH   6   9
ENDBRANCH   5   6
BRANCH   5  11
ATOM     11  O   UNL     1      -9.953   2.054  19.908  1.00  0.00    -0.387 OA
ATOM     12  H   UNL     1      -9.441   1.222  19.749  1.00  0.00     0.211 HD
ENDBRANCH   5  11
ENDBRANCH   1   5
BRANCH   1  13
ATOM     13  O   UNL     1     -12.051   3.994  18.802  1.00  0.00    -0.388 OA
ATOM     14  H   UNL     1     -11.650   4.116  19.702  1.00  0.00     0.211 HD
ENDBRANCH   1  13
TORSDOF 8
ENDMDL
MODEL 9
REMARK VINA RESULT:    -3.659      1.286      1.803
REMARK INTER + INTRA:          -5.872
REMARK INTER:                  -5.749
REMARK INTRA:                  -0.124
REMARK UNBOUND:                -0.930
REMARK SMILES O=C[C@H](O)[C@@H](O)[C@H](O)CO
REMARK SMILES IDX 7 1 9 2 10 3 5 5 3 6 2 7 1 8 4 9 6 11 8 13
REMARK H PARENT 10 4 4 10 6 12 8 14
REMARK Flexibility Score: inf
ROOT
ATOM      1  C   UNL     1      -9.873   2.888  18.816  1.00  0.00     0.171 C 
ENDROOT
BRANCH   1   2
ATOM      2  C   UNL     1      -8.524   3.240  18.164  1.00  0.00     0.190 C 
BRANCH   2   3
ATOM      3  O   UNL     1      -8.045   2.138  17.444  1.00  0.00    -0.394 OA
ATOM      4  H   UNL     1      -8.295   2.299  16.497  1.00  0.00     0.210 HD
ENDBRANCH   2   3
ENDBRANCH   1   2
BRANCH   1   5
ATOM      5  C   UNL     1     -10.576   4.151  19.392  1.00  0.00     0.181 C 
BRANCH   5   6
ATOM      6  C   UNL     1      -9.824   5.481  19.107  1.00  0.00     0.209 C 
BRANCH   6   7
ATOM      7  C   UNL     1      -9.527   6.276  20.350  1.00  0.00     0.258 C 
ATOM      8  O   UNL     1      -8.382   6.598  20.624  1.00  0.00    -0.300 OA
ENDBRANCH   6   7
BRANCH   6   9
ATOM      9  O   UNL     1     -10.576   6.281  18.231  1.00  0.00    -0.383 OA
ATOM     10  H   UNL     1     -10.586   5.818  17.353  1.00  0.00     0.211 HD
ENDBRANCH   6   9
ENDBRANCH   5   6
BRANCH   5  11
ATOM     11  O   UNL     1     -11.928   4.230  19.012  1.00  0.00    -0.387 OA
ATOM     12  H   UNL     1     -12.459   3.664  19.626  1.00  0.00     0.211 HD
ENDBRANCH   5  11
ENDBRANCH   1   5
BRANCH   1  13
ATOM     13  O   UNL     1      -9.720   1.880  19.787  1.00  0.00    -0.388 OA
ATOM     14  H   UNL     1      -8.763   1.842  20.049  1.00  0.00     0.211 HD
ENDBRANCH   1  13
TORSDOF 8
ENDMDL
