MODEL 1
REMARK VINA RESULT:     1.387      0.000      0.000
REMARK INTER + INTRA:           1.387
REMARK INTER:                   1.387
REMARK INTRA:                   0.000
REMARK UNBOUND:                 0.000
REMARK SMILES CC1(C)[C@@H]2CC[C@@]1(C)C(=O)C2
REMARK SMILES IDX 1 1 2 2 4 3 5 4 6 5 7 6 9 7 10 8 11 9 8 10 3 11
REMARK H PARENT
REMARK Flexibility Score: inf
ROOT
ATOM      1  C   UNL     1      -6.607   5.585  17.282  1.00  0.00     0.012 C 
ATOM      2  C   UNL     1      -6.776   5.281  15.763  1.00  0.00    -0.020 C 
ATOM      3  C   UNL     1      -8.213   4.868  15.364  1.00  0.00     0.003 C 
ATOM      4  C   UNL     1      -8.408   3.528  16.126  1.00  0.00     0.005 C 
ATOM      5  C   UNL     1      -7.000   2.885  16.062  1.00  0.00     0.015 C 
ATOM      6  C   UNL     1      -6.179   3.940  15.284  1.00  0.00     0.032 C 
ATOM      7  C   UNL     1      -6.717   3.884  13.875  1.00  0.00     0.139 C 
ATOM      8  O   UNL     1      -6.174   3.349  12.920  1.00  0.00    -0.299 OA
ATOM      9  C   UNL     1      -8.081   4.501  13.859  1.00  0.00     0.080 C 
ATOM     10  C   UNL     1      -4.658   3.788  15.403  1.00  0.00     0.020 C 
ATOM     11  C   UNL     1      -6.252   6.537  15.001  1.00  0.00     0.012 C 
ENDROOT
TORSDOF 0
ENDMDL
MODEL 2
REMARK VINA RESULT:     1.484      1.749      3.206
REMARK INTER + INTRA:           1.484
REMARK INTER:                   1.484
REMARK INTRA:                   0.000
REMARK UNBOUND:                 0.000
REMARK SMILES CC1(C)[C@@H]2CC[C@@]1(C)C(=O)C2
REMARK SMILES IDX 1 1 2 2 4 3 5 4 6 5 7 6 9 7 10 8 11 9 8 10 3 11
REMARK H PARENT
REMARK Flexibility Score: inf
ROOT
ATOM      1  C   UNL     1      -6.364   3.223  13.409  1.00  0.00     0.012 C 
ATOM      2  C   UNL     1      -6.019   3.647  14.868  1.00  0.00    -0.020 C 
ATOM      3  C   UNL     1      -6.645   2.734  15.949  1.00  0.00     0.003 C 
ATOM      4  C   UNL     1      -8.169   2.965  15.752  1.00  0.00     0.005 C 
ATOM      5  C   UNL     1      -8.247   4.465  15.372  1.00  0.00     0.015 C 
ATOM      6  C   UNL     1      -6.761   4.897  15.390  1.00  0.00     0.032 C 
ATOM      7  C   UNL     1      -6.368   4.865  16.846  1.00  0.00     0.139 C 
ATOM      8  O   UNL     1      -6.240   5.837  17.576  1.00  0.00    -0.299 OA
ATOM      9  C   UNL     1      -6.265   3.437  17.283  1.00  0.00     0.080 C 
ATOM     10  C   UNL     1      -6.467   6.217  14.668  1.00  0.00     0.020 C 
ATOM     11  C   UNL     1      -4.464   3.733  14.946  1.00  0.00     0.012 C 
ENDROOT
TORSDOF 0
ENDMDL
MODEL 3
REMARK VINA RESULT:     1.600      1.497      3.024
REMARK INTER + INTRA:           1.600
REMARK INTER:                   1.600
REMARK INTRA:                   0.000
REMARK UNBOUND:                 0.000
REMARK SMILES CC1(C)[C@@H]2CC[C@@]1(C)C(=O)C2
REMARK SMILES IDX 1 1 2 2 4 3 5 4 6 5 7 6 9 7 10 8 11 9 8 10 3 11
REMARK H PARENT
REMARK Flexibility Score: inf
ROOT
ATOM      1  C   UNL     1      -6.462   6.337  14.901  1.00  0.00     0.012 C 
ATOM      2  C   UNL     1      -6.420   5.014  15.723  1.00  0.00    -0.020 C 
ATOM      3  C   UNL     1      -5.186   4.130  15.423  1.00  0.00     0.003 C 
ATOM      4  C   UNL     1      -5.399   3.740  13.935  1.00  0.00     0.005 C 
ATOM      5  C   UNL     1      -6.937   3.586  13.832  1.00  0.00     0.015 C 
ATOM      6  C   UNL     1      -7.407   3.918  15.269  1.00  0.00     0.032 C 
ATOM      7  C   UNL     1      -6.937   2.755  16.107  1.00  0.00     0.139 C 
ATOM      8  O   UNL     1      -7.634   1.842  16.523  1.00  0.00    -0.299 OA
ATOM      9  C   UNL     1      -5.450   2.844  16.256  1.00  0.00     0.080 C 
ATOM     10  C   UNL     1      -8.900   4.246  15.396  1.00  0.00     0.020 C 
ATOM     11  C   UNL     1      -6.547   5.423  17.223  1.00  0.00     0.012 C 
ENDROOT
TORSDOF 0
ENDMDL
MODEL 4
REMARK VINA RESULT:     1.836      1.552      2.780
REMARK INTER + INTRA:           1.836
REMARK INTER:                   1.836
REMARK INTRA:                   0.000
REMARK UNBOUND:                 0.000
REMARK SMILES CC1(C)[C@@H]2CC[C@@]1(C)C(=O)C2
REMARK SMILES IDX 1 1 2 2 4 3 5 4 6 5 7 6 9 7 10 8 11 9 8 10 3 11
REMARK H PARENT
REMARK Flexibility Score: inf
ROOT
ATOM      1  C   UNL     1      -4.643   3.838  15.093  1.00  0.00     0.012 C 
ATOM      2  C   UNL     1      -6.133   4.154  14.764  1.00  0.00    -0.020 C 
ATOM      3  C   UNL     1      -6.449   5.667  14.690  1.00  0.00     0.003 C 
ATOM      4  C   UNL     1      -6.190   6.142  16.146  1.00  0.00     0.005 C 
ATOM      5  C   UNL     1      -6.670   4.938  16.995  1.00  0.00     0.015 C 
ATOM      6  C   UNL     1      -7.132   3.927  15.919  1.00  0.00     0.032 C 
ATOM      7  C   UNL     1      -8.381   4.534  15.330  1.00  0.00     0.139 C 
ATOM      8  O   UNL     1      -9.528   4.188  15.568  1.00  0.00    -0.299 OA
ATOM      9  C   UNL     1      -7.990   5.706  14.484  1.00  0.00     0.080 C 
ATOM     10  C   UNL     1      -7.285   2.485  16.416  1.00  0.00     0.020 C 
ATOM     11  C   UNL     1      -6.468   3.380  13.451  1.00  0.00     0.012 C 
ENDROOT
TORSDOF 0
ENDMDL
MODEL 5
REMARK VINA RESULT:     2.199      1.439      2.120
REMARK INTER + INTRA:           2.199
REMARK INTER:                   2.199
REMARK INTRA:                   0.000
REMARK UNBOUND:                 0.000
REMARK SMILES CC1(C)[C@@H]2CC[C@@]1(C)C(=O)C2
REMARK SMILES IDX 1 1 2 2 4 3 5 4 6 5 7 6 9 7 10 8 11 9 8 10 3 11
REMARK H PARENT
REMARK Flexibility Score: inf
ROOT
ATOM      1  C   UNL     1      -8.446   5.021  15.718  1.00  0.00     0.012 C 
ATOM      2  C   UNL     1      -6.987   4.716  15.263  1.00  0.00    -0.020 C 
ATOM      3  C   UNL     1      -6.897   3.961  13.916  1.00  0.00     0.003 C 
ATOM      4  C   UNL     1      -7.571   2.599  14.241  1.00  0.00     0.005 C 
ATOM      5  C   UNL     1      -7.132   2.335  15.703  1.00  0.00     0.015 C 
ATOM      6  C   UNL     1      -6.275   3.581  16.030  1.00  0.00     0.032 C 
ATOM      7  C   UNL     1      -5.028   3.421  15.196  1.00  0.00     0.139 C 
ATOM      8  O   UNL     1      -3.934   3.062  15.602  1.00  0.00    -0.299 OA
ATOM      9  C   UNL     1      -5.377   3.672  13.762  1.00  0.00     0.080 C 
ATOM     10  C   UNL     1      -6.027   3.817  17.525  1.00  0.00     0.020 C 
ATOM     11  C   UNL     1      -6.230   6.080  15.267  1.00  0.00     0.012 C 
ENDROOT
TORSDOF 0
ENDMDL
MODEL 6
REMARK VINA RESULT:     2.218      1.378      2.975
REMARK INTER + INTRA:           2.218
REMARK INTER:                   2.218
REMARK INTRA:                   0.000
REMARK UNBOUND:                 0.000
REMARK SMILES CC1(C)[C@@H]2CC[C@@]1(C)C(=O)C2
REMARK SMILES IDX 1 1 2 2 4 3 5 4 6 5 7 6 9 7 10 8 11 9 8 10 3 11
REMARK H PARENT
REMARK Flexibility Score: inf
ROOT
ATOM      1  C   UNL     1      -8.875   4.501  15.009  1.00  0.00     0.012 C 
ATOM      2  C   UNL     1      -7.579   3.842  15.567  1.00  0.00    -0.020 C 
ATOM      3  C   UNL     1      -7.004   4.552  16.816  1.00  0.00     0.003 C 
ATOM      4  C   UNL     1      -6.607   5.949  16.262  1.00  0.00     0.005 C 
ATOM      5  C   UNL     1      -6.111   5.627  14.830  1.00  0.00     0.015 C 
ATOM      6  C   UNL     1      -6.297   4.093  14.744  1.00  0.00     0.032 C 
ATOM      7  C   UNL     1      -5.253   3.525  15.673  1.00  0.00     0.139 C 
ATOM      8  O   UNL     1      -4.198   3.009  15.337  1.00  0.00    -0.299 OA
ATOM      9  C   UNL     1      -5.673   3.793  17.085  1.00  0.00     0.080 C 
ATOM     10  C   UNL     1      -6.276   3.523  13.320  1.00  0.00     0.020 C 
ATOM     11  C   UNL     1      -7.916   2.337  15.804  1.00  0.00     0.012 C 
ENDROOT
TORSDOF 0
ENDMDL
MODEL 7
REMARK VINA RESULT:     2.605      1.465      2.763
REMARK INTER + INTRA:           2.605
REMARK INTER:                   2.605
REMARK INTRA:                   0.000
REMARK UNBOUND:                 0.000
REMARK SMILES CC1(C)[C@@H]2CC[C@@]1(C)C(=O)C2
REMARK SMILES IDX 1 1 2 2 4 3 5 4 6 5 7 6 9 7 10 8 11 9 8 10 3 11
REMARK H PARENT
REMARK Flexibility Score: inf
ROOT
ATOM      1  C   UNL     1      -7.002   2.255  16.551  1.00  0.00     0.012 C 
ATOM      2  C   UNL     1      -7.350   3.532  15.729  1.00  0.00    -0.020 C 
ATOM      3  C   UNL     1      -7.049   3.403  14.217  1.00  0.00     0.003 C 
ATOM      4  C   UNL     1      -5.503   3.245  14.187  1.00  0.00     0.005 C 
ATOM      5  C   UNL     1      -5.038   4.161  15.347  1.00  0.00     0.015 C 
ATOM      6  C   UNL     1      -6.374   4.717  15.897  1.00  0.00     0.032 C 
ATOM      7  C   UNL     1      -6.876   5.646  14.820  1.00  0.00     0.139 C 
ATOM      8  O   UNL     1      -6.825   6.866  14.844  1.00  0.00    -0.299 OA
ATOM      9  C   UNL     1      -7.354   4.824  13.664  1.00  0.00     0.080 C 
ATOM     10  C   UNL     1      -6.284   5.336  17.297  1.00  0.00     0.020 C 
ATOM     11  C   UNL     1      -8.840   3.867  16.044  1.00  0.00     0.012 C 
ENDROOT
TORSDOF 0
ENDMDL
MODEL 8
REMARK VINA RESULT:     2.754      1.405      2.707
REMARK INTER + INTRA:           2.754
REMARK INTER:                   2.754
REMARK INTRA:                   0.000
REMARK UNBOUND:                 0.000
REMARK SMILES CC1(C)[C@@H]2CC[C@@]1(C)C(=O)C2
REMARK SMILES IDX 1 1 2 2 4 3 5 4 6 5 7 6 9 7 10 8 11 9 8 10 3 11
REMARK H PARENT
REMARK Flexibility Score: inf
ROOT
ATOM      1  C   UNL     1      -7.021   2.262  15.864  1.00  0.00     0.012 C 
ATOM      2  C   UNL     1      -6.530   3.739  15.815  1.00  0.00    -0.020 C 
ATOM      3  C   UNL     1      -7.166   4.646  16.896  1.00  0.00     0.003 C 
ATOM      4  C   UNL     1      -8.669   4.648  16.499  1.00  0.00     0.005 C 
ATOM      5  C   UNL     1      -8.619   4.618  14.951  1.00  0.00     0.015 C 
ATOM      6  C   UNL     1      -7.100   4.592  14.661  1.00  0.00     0.032 C 
ATOM      7  C   UNL     1      -6.608   5.962  15.057  1.00  0.00     0.139 C 
ATOM      8  O   UNL     1      -6.329   6.873  14.293  1.00  0.00    -0.299 OA
ATOM      9  C   UNL     1      -6.621   6.060  16.551  1.00  0.00     0.080 C 
ATOM     10  C   UNL     1      -6.725   4.155  13.239  1.00  0.00     0.020 C 
ATOM     11  C   UNL     1      -4.972   3.689  15.879  1.00  0.00     0.012 C 
ENDROOT
TORSDOF 0
ENDMDL
MODEL 9
REMARK VINA RESULT:     3.202      1.719      3.038
REMARK INTER + INTRA:           3.202
REMARK INTER:                   3.202
REMARK INTRA:                   0.000
REMARK UNBOUND:                 0.000
REMARK SMILES CC1(C)[C@@H]2CC[C@@]1(C)C(=O)C2
REMARK SMILES IDX 1 1 2 2 4 3 5 4 6 5 7 6 9 7 10 8 11 9 8 10 3 11
REMARK H PARENT
REMARK Flexibility Score: inf
ROOT
ATOM      1  C   UNL     1      -4.478   3.409  15.561  1.00  0.00     0.012 C 
ATOM      2  C   UNL     1      -6.010   3.497  15.829  1.00  0.00    -0.020 C 
ATOM      3  C   UNL     1      -6.877   2.854  14.720  1.00  0.00     0.003 C 
ATOM      4  C   UNL     1      -6.574   3.750  13.487  1.00  0.00     0.005 C 
ATOM      5  C   UNL     1      -6.419   5.159  14.111  1.00  0.00     0.015 C 
ATOM      6  C   UNL     1      -6.643   4.889  15.618  1.00  0.00     0.032 C 
ATOM      7  C   UNL     1      -8.108   4.550  15.736  1.00  0.00     0.139 C 
ATOM      8  O   UNL     1      -8.985   5.292  16.152  1.00  0.00    -0.299 OA
ATOM      9  C   UNL     1      -8.331   3.188  15.157  1.00  0.00     0.080 C 
ATOM     10  C   UNL     1      -6.160   6.008  16.549  1.00  0.00     0.020 C 
ATOM     11  C   UNL     1      -6.247   2.882  17.243  1.00  0.00     0.012 C 
ENDROOT
TORSDOF 0
ENDMDL
