MODEL 1
REMARK VINA RESULT:    -3.953      0.000      0.000
REMARK INTER + INTRA:          -4.609
REMARK INTER:                  -4.415
REMARK INTRA:                  -0.194
REMARK UNBOUND:                -0.194
REMARK SMILES O=C([O-])c1ccccc1C(=O)[O-]
REMARK SMILES IDX 4 1 9 2 5 3 8 4 6 5 7 6 2 7 1 8 3 9 10 10 11 11 12 12
REMARK H PARENT
REMARK Flexibility Score: inf
ROOT
ATOM      1  C   UNL     1      17.797  43.004  -0.206  1.00  0.00     0.006 A 
ATOM      2  C   UNL     1      16.393  42.810  -0.070  1.00  0.00     0.006 A 
ATOM      3  C   UNL     1      18.284  44.288  -0.514  1.00  0.00     0.010 A 
ATOM      4  C   UNL     1      15.536  43.920  -0.181  1.00  0.00     0.010 A 
ATOM      5  C   UNL     1      17.411  45.369  -0.642  1.00  0.00     0.001 A 
ATOM      6  C   UNL     1      16.043  45.189  -0.464  1.00  0.00     0.001 A 
ENDROOT
BRANCH   1   7
ATOM      7  C   UNL     1      18.788  41.927   0.028  1.00  0.00     0.072 C 
ATOM      8  O   UNL     1      19.424  41.862   1.113  1.00  0.00    -0.545 OA
ATOM      9  O   UNL     1      19.075  41.013  -0.980  1.00  0.00    -0.545 OA
ENDBRANCH   1   7
BRANCH   2  10
ATOM     10  C   UNL     1      15.776  41.476   0.118  1.00  0.00     0.072 C 
ATOM     11  O   UNL     1      15.234  40.875  -0.846  1.00  0.00    -0.545 OA
ATOM     12  O   UNL     1      15.729  40.902   1.383  1.00  0.00    -0.545 OA
ENDBRANCH   2  10
TORSDOF 2
ENDMDL
MODEL 2
REMARK VINA RESULT:    -3.944      0.030      3.168
REMARK INTER + INTRA:          -4.600
REMARK INTER:                  -4.399
REMARK INTRA:                  -0.200
REMARK UNBOUND:                -0.194
REMARK SMILES O=C([O-])c1ccccc1C(=O)[O-]
REMARK SMILES IDX 4 1 9 2 5 3 8 4 6 5 7 6 2 7 1 8 3 9 10 10 11 11 12 12
REMARK H PARENT
REMARK Flexibility Score: inf
ROOT
ATOM      1  C   UNL     1      16.416  42.812  -0.063  1.00  0.00     0.006 A 
ATOM      2  C   UNL     1      17.820  42.999  -0.211  1.00  0.00     0.006 A 
ATOM      3  C   UNL     1      15.563  43.926  -0.162  1.00  0.00     0.010 A 
ATOM      4  C   UNL     1      18.309  44.282  -0.519  1.00  0.00     0.010 A 
ATOM      5  C   UNL     1      16.074  45.193  -0.445  1.00  0.00     0.001 A 
ATOM      6  C   UNL     1      17.441  45.368  -0.635  1.00  0.00     0.001 A 
ENDROOT
BRANCH   1   7
ATOM      7  C   UNL     1      15.794  41.480   0.127  1.00  0.00     0.072 C 
ATOM      8  O   UNL     1      15.257  40.876  -0.839  1.00  0.00    -0.545 OA
ATOM      9  O   UNL     1      15.739  40.911   1.394  1.00  0.00    -0.545 OA
ENDBRANCH   1   7
BRANCH   2  10
ATOM     10  C   UNL     1      18.807  41.917   0.010  1.00  0.00     0.072 C 
ATOM     11  O   UNL     1      19.437  41.831   1.096  1.00  0.00    -0.545 OA
ATOM     12  O   UNL     1      19.100  41.022  -1.012  1.00  0.00    -0.545 OA
ENDBRANCH   2  10
TORSDOF 2
ENDMDL
MODEL 3
REMARK VINA RESULT:    -3.927     22.286     23.768
REMARK INTER + INTRA:          -4.580
REMARK INTER:                  -4.500
REMARK INTRA:                  -0.080
REMARK UNBOUND:                -0.194
REMARK SMILES O=C([O-])c1ccccc1C(=O)[O-]
REMARK SMILES IDX 4 1 9 2 5 3 8 4 6 5 7 6 2 7 1 8 3 9 10 10 11 11 12 12
REMARK H PARENT
REMARK Flexibility Score: inf
ROOT
ATOM      1  C   UNL     1      29.533  58.526 -11.700  1.00  0.00     0.006 A 
ATOM      2  C   UNL     1      30.791  58.756 -11.073  1.00  0.00     0.006 A 
ATOM      3  C   UNL     1      29.489  57.778 -12.891  1.00  0.00     0.010 A 
ATOM      4  C   UNL     1      31.946  58.172 -11.625  1.00  0.00     0.010 A 
ATOM      5  C   UNL     1      30.652  57.228 -13.431  1.00  0.00     0.001 A 
ATOM      6  C   UNL     1      31.875  57.414 -12.794  1.00  0.00     0.001 A 
ENDROOT
BRANCH   1   7
ATOM      7  C   UNL     1      28.248  58.984 -11.123  1.00  0.00     0.072 C 
ATOM      8  O   UNL     1      27.341  58.158 -10.835  1.00  0.00    -0.545 OA
ATOM      9  O   UNL     1      28.002  60.341 -10.955  1.00  0.00    -0.545 OA
ENDBRANCH   1   7
BRANCH   2  10
ATOM     10  C   UNL     1      30.958  59.641  -9.897  1.00  0.00     0.072 C 
ATOM     11  O   UNL     1      31.356  60.828 -10.035  1.00  0.00    -0.545 OA
ATOM     12  O   UNL     1      30.742  59.147  -8.617  1.00  0.00    -0.545 OA
ENDBRANCH   2  10
TORSDOF 2
ENDMDL
MODEL 4
REMARK VINA RESULT:    -3.917     23.272     24.071
REMARK INTER + INTRA:          -4.569
REMARK INTER:                  -4.356
REMARK INTRA:                  -0.214
REMARK UNBOUND:                -0.194
REMARK SMILES O=C([O-])c1ccccc1C(=O)[O-]
REMARK SMILES IDX 4 1 9 2 5 3 8 4 6 5 7 6 2 7 1 8 3 9 10 10 11 11 12 12
REMARK H PARENT
REMARK Flexibility Score: inf
ROOT
ATOM      1  C   UNL     1      30.872  57.881 -12.189  1.00  0.00     0.006 A 
ATOM      2  C   UNL     1      31.660  58.161 -11.036  1.00  0.00     0.006 A 
ATOM      3  C   UNL     1      29.567  58.400 -12.268  1.00  0.00     0.010 A 
ATOM      4  C   UNL     1      31.136  59.004 -10.039  1.00  0.00     0.010 A 
ATOM      5  C   UNL     1      29.060  59.215 -11.255  1.00  0.00     0.001 A 
ATOM      6  C   UNL     1      29.847  59.526 -10.150  1.00  0.00     0.001 A 
ENDROOT
BRANCH   1   7
ATOM      7  C   UNL     1      31.384  57.118 -13.352  1.00  0.00     0.072 C 
ATOM      8  O   UNL     1      31.100  55.900 -13.498  1.00  0.00    -0.545 OA
ATOM      9  O   UNL     1      32.243  57.726 -14.261  1.00  0.00    -0.545 OA
ENDBRANCH   1   7
BRANCH   2  10
ATOM     10  C   UNL     1      32.989  57.552 -10.799  1.00  0.00     0.072 C 
ATOM     11  O   UNL     1      33.116  56.560 -10.033  1.00  0.00    -0.545 OA
ATOM     12  O   UNL     1      34.125  58.115 -11.367  1.00  0.00    -0.545 OA
ENDBRANCH   2  10
TORSDOF 2
ENDMDL
MODEL 5
REMARK VINA RESULT:    -3.908     22.292     23.644
REMARK INTER + INTRA:          -4.559
REMARK INTER:                  -4.504
REMARK INTRA:                  -0.055
REMARK UNBOUND:                -0.194
REMARK SMILES O=C([O-])c1ccccc1C(=O)[O-]
REMARK SMILES IDX 4 1 9 2 5 3 8 4 6 5 7 6 2 7 1 8 3 9 10 10 11 11 12 12
REMARK H PARENT
REMARK Flexibility Score: inf
ROOT
ATOM      1  C   UNL     1      30.807  58.877 -10.943  1.00  0.00     0.006 A 
ATOM      2  C   UNL     1      29.577  58.600 -11.605  1.00  0.00     0.006 A 
ATOM      3  C   UNL     1      31.998  58.331 -11.457  1.00  0.00     0.010 A 
ATOM      4  C   UNL     1      29.594  57.844 -12.791  1.00  0.00     0.010 A 
ATOM      5  C   UNL     1      31.986  57.565 -12.623  1.00  0.00     0.001 A 
ATOM      6  C   UNL     1      30.789  57.332 -13.295  1.00  0.00     0.001 A 
ENDROOT
BRANCH   1   7
ATOM      7  C   UNL     1      30.909  59.773  -9.768  1.00  0.00     0.072 C 
ATOM      8  O   UNL     1      31.223  60.985  -9.907  1.00  0.00    -0.545 OA
ATOM      9  O   UNL     1      30.723  59.267  -8.487  1.00  0.00    -0.545 OA
ENDBRANCH   1   7
BRANCH   2  10
ATOM     10  C   UNL     1      28.260  59.015 -11.067  1.00  0.00     0.072 C 
ATOM     11  O   UNL     1      27.357  58.165 -10.847  1.00  0.00    -0.545 OA
ATOM     12  O   UNL     1      27.983  60.361 -10.863  1.00  0.00    -0.545 OA
ENDBRANCH   2  10
TORSDOF 2
ENDMDL
MODEL 6
REMARK VINA RESULT:    -3.906     23.296     24.007
REMARK INTER + INTRA:          -4.556
REMARK INTER:                  -4.347
REMARK INTRA:                  -0.209
REMARK UNBOUND:                -0.194
REMARK SMILES O=C([O-])c1ccccc1C(=O)[O-]
REMARK SMILES IDX 4 1 9 2 5 3 8 4 6 5 7 6 2 7 1 8 3 9 10 10 11 11 12 12
REMARK H PARENT
REMARK Flexibility Score: inf
ROOT
ATOM      1  C   UNL     1      31.661  58.204 -11.029  1.00  0.00     0.006 A 
ATOM      2  C   UNL     1      30.877  57.919 -12.182  1.00  0.00     0.006 A 
ATOM      3  C   UNL     1      31.133  59.046 -10.033  1.00  0.00     0.010 A 
ATOM      4  C   UNL     1      29.569  58.432 -12.263  1.00  0.00     0.010 A 
ATOM      5  C   UNL     1      29.842  59.562 -10.147  1.00  0.00     0.001 A 
ATOM      6  C   UNL     1      29.058  59.247 -11.253  1.00  0.00     0.001 A 
ENDROOT
BRANCH   1   7
ATOM      7  C   UNL     1      32.993  57.602 -10.788  1.00  0.00     0.072 C 
ATOM      8  O   UNL     1      33.127  56.625 -10.003  1.00  0.00    -0.545 OA
ATOM      9  O   UNL     1      34.125  58.153 -11.378  1.00  0.00    -0.545 OA
ENDBRANCH   1   7
BRANCH   2  10
ATOM     10  C   UNL     1      31.394  57.157 -13.343  1.00  0.00     0.072 C 
ATOM     11  O   UNL     1      31.116  55.938 -13.489  1.00  0.00    -0.545 OA
ATOM     12  O   UNL     1      32.251  57.767 -14.250  1.00  0.00    -0.545 OA
ENDBRANCH   2  10
TORSDOF 2
ENDMDL
MODEL 7
REMARK VINA RESULT:    -3.815      2.322      3.588
REMARK INTER + INTRA:          -4.456
REMARK INTER:                  -4.293
REMARK INTRA:                  -0.162
REMARK UNBOUND:                -0.194
REMARK SMILES O=C([O-])c1ccccc1C(=O)[O-]
REMARK SMILES IDX 4 1 9 2 5 3 8 4 6 5 7 6 2 7 1 8 3 9 10 10 11 11 12 12
REMARK H PARENT
REMARK Flexibility Score: inf
ROOT
ATOM      1  C   UNL     1      15.839  42.877   0.106  1.00  0.00     0.006 A 
ATOM      2  C   UNL     1      15.872  44.300   0.103  1.00  0.00     0.006 A 
ATOM      3  C   UNL     1      15.003  42.214   1.023  1.00  0.00     0.010 A 
ATOM      4  C   UNL     1      15.018  45.006   0.971  1.00  0.00     0.010 A 
ATOM      5  C   UNL     1      14.181  42.935   1.890  1.00  0.00     0.001 A 
ATOM      6  C   UNL     1      14.180  44.327   1.856  1.00  0.00     0.001 A 
ENDROOT
BRANCH   1   7
ATOM      7  C   UNL     1      16.597  42.049  -0.861  1.00  0.00     0.072 C 
ATOM      8  O   UNL     1      16.041  41.594  -1.895  1.00  0.00    -0.545 OA
ATOM      9  O   UNL     1      17.920  41.709  -0.600  1.00  0.00    -0.545 OA
ENDBRANCH   1   7
BRANCH   2  10
ATOM     10  C   UNL     1      16.816  45.085  -0.727  1.00  0.00     0.072 C 
ATOM     11  O   UNL     1      16.402  45.773  -1.697  1.00  0.00    -0.545 OA
ATOM     12  O   UNL     1      18.182  45.014  -0.484  1.00  0.00    -0.545 OA
ENDBRANCH   2  10
TORSDOF 2
ENDMDL
MODEL 8
REMARK VINA RESULT:    -3.813     23.560     24.018
REMARK INTER + INTRA:          -4.453
REMARK INTER:                  -4.256
REMARK INTRA:                  -0.197
REMARK UNBOUND:                -0.194
REMARK SMILES O=C([O-])c1ccccc1C(=O)[O-]
REMARK SMILES IDX 4 1 9 2 5 3 8 4 6 5 7 6 2 7 1 8 3 9 10 10 11 11 12 12
REMARK H PARENT
REMARK Flexibility Score: inf
ROOT
ATOM      1  C   UNL     1      32.001  57.522 -11.441  1.00  0.00     0.006 A 
ATOM      2  C   UNL     1      30.953  58.486 -11.419  1.00  0.00     0.006 A 
ATOM      3  C   UNL     1      32.034  56.572 -12.478  1.00  0.00     0.010 A 
ATOM      4  C   UNL     1      30.020  58.506 -12.471  1.00  0.00     0.010 A 
ATOM      5  C   UNL     1      31.083  56.597 -13.499  1.00  0.00     0.001 A 
ATOM      6  C   UNL     1      30.086  57.568 -13.503  1.00  0.00     0.001 A 
ENDROOT
BRANCH   1   7
ATOM      7  C   UNL     1      33.106  57.507 -10.454  1.00  0.00     0.072 C 
ATOM      8  O   UNL     1      34.125  58.229 -10.618  1.00  0.00    -0.545 OA
ATOM      9  O   UNL     1      33.059  56.642  -9.367  1.00  0.00    -0.545 OA
ENDBRANCH   1   7
BRANCH   2  10
ATOM     10  C   UNL     1      30.755  59.438 -10.301  1.00  0.00     0.072 C 
ATOM     11  O   UNL     1      29.842  59.254  -9.453  1.00  0.00    -0.545 OA
ATOM     12  O   UNL     1      31.533  60.586 -10.216  1.00  0.00    -0.545 OA
ENDBRANCH   2  10
TORSDOF 2
ENDMDL
MODEL 9
REMARK VINA RESULT:    -3.813      2.322      3.333
REMARK INTER + INTRA:          -4.453
REMARK INTER:                  -4.291
REMARK INTRA:                  -0.162
REMARK UNBOUND:                -0.194
REMARK SMILES O=C([O-])c1ccccc1C(=O)[O-]
REMARK SMILES IDX 4 1 9 2 5 3 8 4 6 5 7 6 2 7 1 8 3 9 10 10 11 11 12 12
REMARK H PARENT
REMARK Flexibility Score: inf
ROOT
ATOM      1  C   UNL     1      15.861  44.284   0.124  1.00  0.00     0.006 A 
ATOM      2  C   UNL     1      15.827  42.860   0.119  1.00  0.00     0.006 A 
ATOM      3  C   UNL     1      15.007  44.985   0.994  1.00  0.00     0.010 A 
ATOM      4  C   UNL     1      14.989  42.194   1.031  1.00  0.00     0.010 A 
ATOM      5  C   UNL     1      14.167  44.302   1.875  1.00  0.00     0.001 A 
ATOM      6  C   UNL     1      14.167  42.910   1.901  1.00  0.00     0.001 A 
ENDROOT
BRANCH   1   7
ATOM      7  C   UNL     1      16.806  45.072  -0.701  1.00  0.00     0.072 C 
ATOM      8  O   UNL     1      16.393  45.768  -1.667  1.00  0.00    -0.545 OA
ATOM      9  O   UNL     1      18.173  44.999  -0.458  1.00  0.00    -0.545 OA
ENDBRANCH   1   7
BRANCH   2  10
ATOM     10  C   UNL     1      16.586  42.037  -0.852  1.00  0.00     0.072 C 
ATOM     11  O   UNL     1      16.031  41.591  -1.891  1.00  0.00    -0.545 OA
ATOM     12  O   UNL     1      17.905  41.691  -0.590  1.00  0.00    -0.545 OA
ENDBRANCH   2  10
TORSDOF 2
ENDMDL
