MODEL 1
REMARK VINA RESULT:    -6.324      0.000      0.000
REMARK INTER + INTRA:          -8.449
REMARK INTER:                  -7.988
REMARK INTRA:                  -0.462
REMARK UNBOUND:                -0.462
REMARK SMILES O=C(C=Cc1ccc(O)cc1)c1ccc(O)cc1O
REMARK SMILES IDX 4 1 3 2 5 3 6 4 7 5 8 6 11 7 10 8 9 9 2 11 1 12 12 13 18 14
REMARK SMILES IDX 13 15 17 16 14 17 15 18 19 19 16 21
REMARK H PARENT 9 10 19 20 16 22
REMARK Flexibility Score: inf
ROOT
ATOM      1  C   UNL     1     182.053 179.072 176.487  1.00  0.00     0.012 C 
ATOM      2  C   UNL     1     181.992 179.369 175.181  1.00  0.00     0.053 C 
ENDROOT
BRANCH   1   3
ATOM      3  C   UNL     1     181.231 179.744 177.523  1.00  0.00    -0.025 A 
ATOM      4  C   UNL     1     180.447 180.848 177.149  1.00  0.00     0.012 A 
ATOM      5  C   UNL     1     179.649 181.505 178.090  1.00  0.00     0.047 A 
ATOM      6  C   UNL     1     179.615 181.060 179.417  1.00  0.00     0.115 A 
ATOM      7  C   UNL     1     181.178 179.293 178.858  1.00  0.00     0.012 A 
ATOM      8  C   UNL     1     180.378 179.953 179.795  1.00  0.00     0.047 A 
BRANCH   6   9
ATOM      9  O   UNL     1     178.824 181.708 180.363  1.00  0.00    -0.508 OA
ATOM     10  H   UNL     1     178.043 181.240 180.810  1.00  0.00     0.293 HD
ENDBRANCH   6   9
ENDBRANCH   1   3
BRANCH   2  11
ATOM     11  C   UNL     1     182.816 178.667 174.173  1.00  0.00     0.189 C 
ATOM     12  O   UNL     1     183.981 179.079 173.916  1.00  0.00    -0.289 OA
BRANCH  11  13
ATOM     13  C   UNL     1     182.317 177.450 173.490  1.00  0.00     0.064 A 
ATOM     14  C   UNL     1     183.122 176.716 172.592  1.00  0.00     0.130 A 
ATOM     15  C   UNL     1     181.013 177.001 173.764  1.00  0.00     0.020 A 
ATOM     16  C   UNL     1     182.600 175.578 171.957  1.00  0.00     0.093 A 
ATOM     17  C   UNL     1     180.505 175.863 173.130  1.00  0.00     0.047 A 
ATOM     18  C   UNL     1     181.297 175.152 172.223  1.00  0.00     0.119 A 
BRANCH  14  19
ATOM     19  O   UNL     1     184.443 177.095 172.349  1.00  0.00    -0.507 OA
ATOM     20  H   UNL     1     184.701 178.064 172.210  1.00  0.00     0.293 HD
ENDBRANCH  14  19
BRANCH  18  21
ATOM     21  O   UNL     1     180.800 174.019 171.583  1.00  0.00    -0.508 OA
ATOM     22  H   UNL     1     180.132 173.405 172.036  1.00  0.00     0.293 HD
ENDBRANCH  18  21
ENDBRANCH  11  13
ENDBRANCH   2  11
TORSDOF 6
ENDMDL
MODEL 2
REMARK VINA RESULT:    -6.298      4.876      6.949
REMARK INTER + INTRA:          -8.416
REMARK INTER:                  -7.948
REMARK INTRA:                  -0.469
REMARK UNBOUND:                -0.462
REMARK SMILES O=C(C=Cc1ccc(O)cc1)c1ccc(O)cc1O
REMARK SMILES IDX 4 1 3 2 5 3 6 4 7 5 8 6 11 7 10 8 9 9 2 11 1 12 12 13 18 14
REMARK SMILES IDX 13 15 17 16 14 17 15 18 19 19 16 21
REMARK H PARENT 9 10 19 20 16 22
REMARK Flexibility Score: inf
ROOT
ATOM      1  C   UNL     1     178.789 181.501 176.572  1.00  0.00     0.012 C 
ATOM      2  C   UNL     1     178.850 181.307 175.247  1.00  0.00     0.053 C 
ENDROOT
BRANCH   1   3
ATOM      3  C   UNL     1     179.668 180.810 177.546  1.00  0.00    -0.025 A 
ATOM      4  C   UNL     1     180.598 179.872 177.067  1.00  0.00     0.012 A 
ATOM      5  C   UNL     1     181.454 179.205 177.948  1.00  0.00     0.047 A 
ATOM      6  C   UNL     1     181.399 179.473 179.321  1.00  0.00     0.115 A 
ATOM      7  C   UNL     1     179.631 181.086 178.929  1.00  0.00     0.012 A 
ATOM      8  C   UNL     1     180.489 180.417 179.806  1.00  0.00     0.047 A 
BRANCH   6   9
ATOM      9  O   UNL     1     182.246 178.814 180.209  1.00  0.00    -0.508 OA
ATOM     10  H   UNL     1     182.886 179.323 180.808  1.00  0.00     0.293 HD
ENDBRANCH   6   9
ENDBRANCH   1   3
BRANCH   2  11
ATOM     11  C   UNL     1     177.968 182.027 174.302  1.00  0.00     0.189 C 
ATOM     12  O   UNL     1     176.784 181.630 174.123  1.00  0.00    -0.289 OA
BRANCH  11  13
ATOM     13  C   UNL     1     178.434 183.243 173.595  1.00  0.00     0.064 A 
ATOM     14  C   UNL     1     177.620 183.920 172.661  1.00  0.00     0.130 A 
ATOM     15  C   UNL     1     179.713 183.750 173.882  1.00  0.00     0.020 A 
ATOM     16  C   UNL     1     178.110 185.059 172.005  1.00  0.00     0.093 A 
ATOM     17  C   UNL     1     180.190 184.889 173.227  1.00  0.00     0.047 A 
ATOM     18  C   UNL     1     179.390 185.543 172.283  1.00  0.00     0.119 A 
BRANCH  14  19
ATOM     19  O   UNL     1     176.320 183.483 172.403  1.00  0.00    -0.507 OA
ATOM     20  H   UNL     1     175.582 183.572 173.091  1.00  0.00     0.293 HD
ENDBRANCH  14  19
BRANCH  18  21
ATOM     21  O   UNL     1     179.856 186.677 171.622  1.00  0.00    -0.508 OA
ATOM     22  H   UNL     1     179.468 186.968 170.731  1.00  0.00     0.293 HD
ENDBRANCH  18  21
ENDBRANCH  11  13
ENDBRANCH   2  11
TORSDOF 6
ENDMDL
MODEL 3
REMARK VINA RESULT:    -6.283      4.939      6.792
REMARK INTER + INTRA:          -8.398
REMARK INTER:                  -7.788
REMARK INTRA:                  -0.609
REMARK UNBOUND:                -0.462
REMARK SMILES O=C(C=Cc1ccc(O)cc1)c1ccc(O)cc1O
REMARK SMILES IDX 4 1 3 2 5 3 6 4 7 5 8 6 11 7 10 8 9 9 2 11 1 12 12 13 18 14
REMARK SMILES IDX 13 15 17 16 14 17 15 18 19 19 16 21
REMARK H PARENT 9 10 19 20 16 22
REMARK Flexibility Score: inf
ROOT
ATOM      1  C   UNL     1     180.448 182.404 175.415  1.00  0.00     0.012 C 
ATOM      2  C   UNL     1     181.184 183.517 175.285  1.00  0.00     0.053 C 
ENDROOT
BRANCH   1   3
ATOM      3  C   UNL     1     180.536 181.490 176.580  1.00  0.00    -0.025 A 
ATOM      4  C   UNL     1     179.735 181.753 177.704  1.00  0.00     0.012 A 
ATOM      5  C   UNL     1     179.778 180.913 178.820  1.00  0.00     0.047 A 
ATOM      6  C   UNL     1     180.615 179.791 178.825  1.00  0.00     0.115 A 
ATOM      7  C   UNL     1     181.364 180.348 176.587  1.00  0.00     0.012 A 
ATOM      8  C   UNL     1     181.403 179.511 177.705  1.00  0.00     0.047 A 
BRANCH   6   9
ATOM      9  O   UNL     1     180.666 178.947 179.932  1.00  0.00    -0.508 OA
ATOM     10  H   UNL     1     181.537 178.528 180.239  1.00  0.00     0.293 HD
ENDBRANCH   6   9
ENDBRANCH   1   3
BRANCH   2  11
ATOM     11  C   UNL     1     181.058 184.414 174.115  1.00  0.00     0.189 C 
ATOM     12  O   UNL     1     179.958 184.985 173.878  1.00  0.00    -0.289 OA
BRANCH  11  13
ATOM     13  C   UNL     1     182.219 184.696 173.239  1.00  0.00     0.064 A 
ATOM     14  C   UNL     1     182.072 184.902 171.850  1.00  0.00     0.130 A 
ATOM     15  C   UNL     1     183.499 184.787 173.812  1.00  0.00     0.020 A 
ATOM     16  C   UNL     1     183.203 185.152 171.058  1.00  0.00     0.093 A 
ATOM     17  C   UNL     1     184.618 185.042 173.015  1.00  0.00     0.047 A 
ATOM     18  C   UNL     1     184.472 185.221 171.635  1.00  0.00     0.119 A 
BRANCH  14  19
ATOM     19  O   UNL     1     180.807 184.886 171.259  1.00  0.00    -0.507 OA
ATOM     20  H   UNL     1     180.364 185.734 170.929  1.00  0.00     0.293 HD
ENDBRANCH  14  19
BRANCH  18  21
ATOM     21  O   UNL     1     185.581 185.472 170.830  1.00  0.00    -0.508 OA
ATOM     22  H   UNL     1     186.524 185.290 171.155  1.00  0.00     0.293 HD
ENDBRANCH  18  21
ENDBRANCH  11  13
ENDBRANCH   2  11
TORSDOF 6
ENDMDL
MODEL 4
REMARK VINA RESULT:    -6.262      5.167      5.999
REMARK INTER + INTRA:          -8.371
REMARK INTER:                  -7.761
REMARK INTRA:                  -0.610
REMARK UNBOUND:                -0.462
REMARK SMILES O=C(C=Cc1ccc(O)cc1)c1ccc(O)cc1O
REMARK SMILES IDX 4 1 3 2 5 3 6 4 7 5 8 6 11 7 10 8 9 9 2 11 1 12 12 13 18 14
REMARK SMILES IDX 13 15 17 16 14 17 15 18 19 19 16 21
REMARK H PARENT 9 10 19 20 16 22
REMARK Flexibility Score: inf
ROOT
ATOM      1  C   UNL     1     178.106 181.526 175.715  1.00  0.00     0.012 C 
ATOM      2  C   UNL     1     178.458 181.560 174.422  1.00  0.00     0.053 C 
ENDROOT
BRANCH   1   3
ATOM      3  C   UNL     1     178.949 180.932 176.781  1.00  0.00    -0.025 A 
ATOM      4  C   UNL     1     178.999 181.568 178.033  1.00  0.00     0.012 A 
ATOM      5  C   UNL     1     179.771 181.038 179.070  1.00  0.00     0.047 A 
ATOM      6  C   UNL     1     180.497 179.857 178.875  1.00  0.00     0.115 A 
ATOM      7  C   UNL     1     179.670 179.733 176.599  1.00  0.00     0.012 A 
ATOM      8  C   UNL     1     180.441 179.207 177.639  1.00  0.00     0.047 A 
BRANCH   6   9
ATOM      9  O   UNL     1     181.271 179.319 179.901  1.00  0.00    -0.508 OA
ATOM     10  H   UNL     1     182.253 179.552 180.000  1.00  0.00     0.293 HD
ENDBRANCH   6   9
ENDBRANCH   1   3
BRANCH   2  11
ATOM     11  C   UNL     1     177.599 182.176 173.387  1.00  0.00     0.189 C 
ATOM     12  O   UNL     1     177.446 183.428 173.361  1.00  0.00    -0.289 OA
BRANCH  11  13
ATOM     13  C   UNL     1     176.948 181.350 172.342  1.00  0.00     0.064 A 
ATOM     14  C   UNL     1     175.734 181.738 171.735  1.00  0.00     0.130 A 
ATOM     15  C   UNL     1     177.571 180.161 171.927  1.00  0.00     0.020 A 
ATOM     16  C   UNL     1     175.147 180.916 170.760  1.00  0.00     0.093 A 
ATOM     17  C   UNL     1     176.982 179.352 170.951  1.00  0.00     0.047 A 
ATOM     18  C   UNL     1     175.766 179.727 170.369  1.00  0.00     0.119 A 
BRANCH  14  19
ATOM     19  O   UNL     1     175.123 182.946 172.075  1.00  0.00    -0.507 OA
ATOM     20  H   UNL     1     175.640 183.817 172.094  1.00  0.00     0.293 HD
ENDBRANCH  14  19
BRANCH  18  21
ATOM     21  O   UNL     1     175.167 178.927 169.398  1.00  0.00    -0.508 OA
ATOM     22  H   UNL     1     174.630 178.104 169.647  1.00  0.00     0.293 HD
ENDBRANCH  18  21
ENDBRANCH  11  13
ENDBRANCH   2  11
TORSDOF 6
ENDMDL
MODEL 5
REMARK VINA RESULT:    -6.252      2.575      3.712
REMARK INTER + INTRA:          -8.358
REMARK INTER:                  -7.738
REMARK INTRA:                  -0.620
REMARK UNBOUND:                -0.462
REMARK SMILES O=C(C=Cc1ccc(O)cc1)c1ccc(O)cc1O
REMARK SMILES IDX 4 1 3 2 5 3 6 4 7 5 8 6 11 7 10 8 9 9 2 11 1 12 12 13 18 14
REMARK SMILES IDX 13 15 17 16 14 17 15 18 19 19 16 21
REMARK H PARENT 9 10 19 20 16 22
REMARK Flexibility Score: inf
ROOT
ATOM      1  C   UNL     1     182.573 179.110 175.730  1.00  0.00     0.012 C 
ATOM      2  C   UNL     1     182.289 179.198 174.422  1.00  0.00     0.053 C 
ENDROOT
BRANCH   1   3
ATOM      3  C   UNL     1     181.747 179.730 176.794  1.00  0.00    -0.025 A 
ATOM      4  C   UNL     1     181.078 180.934 176.512  1.00  0.00     0.012 A 
ATOM      5  C   UNL     1     180.281 181.548 177.482  1.00  0.00     0.047 A 
ATOM      6  C   UNL     1     180.131 180.963 178.745  1.00  0.00     0.115 A 
ATOM      7  C   UNL     1     181.577 179.139 178.063  1.00  0.00     0.012 A 
ATOM      8  C   UNL     1     180.778 179.757 179.029  1.00  0.00     0.047 A 
BRANCH   6   9
ATOM      9  O   UNL     1     179.340 181.567 179.719  1.00  0.00    -0.508 OA
ATOM     10  H   UNL     1     179.052 182.536 179.642  1.00  0.00     0.293 HD
ENDBRANCH   6   9
ENDBRANCH   1   3
BRANCH   2  11
ATOM     11  C   UNL     1     183.127 178.551 173.389  1.00  0.00     0.189 C 
ATOM     12  O   UNL     1     183.248 177.296 173.373  1.00  0.00    -0.289 OA
BRANCH  11  13
ATOM     13  C   UNL     1     183.793 179.351 172.334  1.00  0.00     0.064 A 
ATOM     14  C   UNL     1     184.997 178.931 171.727  1.00  0.00     0.130 A 
ATOM     15  C   UNL     1     183.196 180.550 171.908  1.00  0.00     0.020 A 
ATOM     16  C   UNL     1     185.599 179.729 170.742  1.00  0.00     0.093 A 
ATOM     17  C   UNL     1     183.801 181.335 170.922  1.00  0.00     0.047 A 
ATOM     18  C   UNL     1     185.006 180.927 170.341  1.00  0.00     0.119 A 
BRANCH  14  19
ATOM     19  O   UNL     1     185.581 177.713 172.078  1.00  0.00    -0.507 OA
ATOM     20  H   UNL     1     186.484 177.668 172.536  1.00  0.00     0.293 HD
ENDBRANCH  14  19
BRANCH  18  21
ATOM     21  O   UNL     1     185.620 181.704 169.360  1.00  0.00    -0.508 OA
ATOM     22  H   UNL     1     185.821 181.331 168.439  1.00  0.00     0.293 HD
ENDBRANCH  18  21
ENDBRANCH  11  13
ENDBRANCH   2  11
TORSDOF 6
ENDMDL
MODEL 6
REMARK VINA RESULT:    -6.248      2.701      3.760
REMARK INTER + INTRA:          -8.353
REMARK INTER:                  -7.736
REMARK INTRA:                  -0.618
REMARK UNBOUND:                -0.462
REMARK SMILES O=C(C=Cc1ccc(O)cc1)c1ccc(O)cc1O
REMARK SMILES IDX 4 1 3 2 5 3 6 4 7 5 8 6 11 7 10 8 9 9 2 11 1 12 12 13 18 14
REMARK SMILES IDX 13 15 17 16 14 17 15 18 19 19 16 21
REMARK H PARENT 9 10 19 20 16 22
REMARK Flexibility Score: inf
ROOT
ATOM      1  C   UNL     1     180.151 178.357 175.345  1.00  0.00     0.012 C 
ATOM      2  C   UNL     1     179.608 177.132 175.296  1.00  0.00     0.053 C 
ENDROOT
BRANCH   1   3
ATOM      3  C   UNL     1     180.088 179.239 176.536  1.00  0.00    -0.025 A 
ATOM      4  C   UNL     1     180.770 178.848 177.700  1.00  0.00     0.012 A 
ATOM      5  C   UNL     1     180.746 179.653 178.843  1.00  0.00     0.047 A 
ATOM      6  C   UNL     1     180.049 180.867 178.834  1.00  0.00     0.115 A 
ATOM      7  C   UNL     1     179.402 180.471 176.531  1.00  0.00     0.012 A 
ATOM      8  C   UNL     1     179.381 181.273 177.675  1.00  0.00     0.047 A 
BRANCH   6   9
ATOM      9  O   UNL     1     180.018 181.677 179.967  1.00  0.00    -0.508 OA
ATOM     10  H   UNL     1     180.338 181.340 180.868  1.00  0.00     0.293 HD
ENDBRANCH   6   9
ENDBRANCH   1   3
BRANCH   2  11
ATOM     11  C   UNL     1     179.705 176.273 174.096  1.00  0.00     0.189 C 
ATOM     12  O   UNL     1     180.801 175.718 173.808  1.00  0.00    -0.289 OA
BRANCH  11  13
ATOM     13  C   UNL     1     178.520 176.010 173.246  1.00  0.00     0.064 A 
ATOM     14  C   UNL     1     178.632 175.805 171.854  1.00  0.00     0.130 A 
ATOM     15  C   UNL     1     177.252 175.937 173.848  1.00  0.00     0.020 A 
ATOM     16  C   UNL     1     177.479 175.573 171.087  1.00  0.00     0.093 A 
ATOM     17  C   UNL     1     176.111 175.700 173.076  1.00  0.00     0.047 A 
ATOM     18  C   UNL     1     176.223 175.521 171.693  1.00  0.00     0.119 A 
BRANCH  14  19
ATOM     19  O   UNL     1     179.882 175.803 171.234  1.00  0.00    -0.507 OA
ATOM     20  H   UNL     1     180.717 175.500 171.721  1.00  0.00     0.293 HD
ENDBRANCH  14  19
BRANCH  18  21
ATOM     21  O   UNL     1     175.092 175.288 170.913  1.00  0.00    -0.508 OA
ATOM     22  H   UNL     1     174.480 176.044 170.629  1.00  0.00     0.293 HD
ENDBRANCH  18  21
ENDBRANCH  11  13
ENDBRANCH   2  11
TORSDOF 6
ENDMDL
MODEL 7
REMARK VINA RESULT:    -6.213      5.181      6.779
REMARK INTER + INTRA:          -8.308
REMARK INTER:                  -7.804
REMARK INTRA:                  -0.504
REMARK UNBOUND:                -0.462
REMARK SMILES O=C(C=Cc1ccc(O)cc1)c1ccc(O)cc1O
REMARK SMILES IDX 4 1 3 2 5 3 6 4 7 5 8 6 11 7 10 8 9 9 2 11 1 12 12 13 18 14
REMARK SMILES IDX 13 15 17 16 14 17 15 18 19 19 16 21
REMARK H PARENT 9 10 19 20 16 22
REMARK Flexibility Score: inf
ROOT
ATOM      1  C   UNL     1     181.136 182.283 175.339  1.00  0.00     0.012 C 
ATOM      2  C   UNL     1     180.991 183.613 175.415  1.00  0.00     0.053 C 
ENDROOT
BRANCH   1   3
ATOM      3  C   UNL     1     180.898 181.363 176.478  1.00  0.00    -0.025 A 
ATOM      4  C   UNL     1     180.025 181.770 177.502  1.00  0.00     0.012 A 
ATOM      5  C   UNL     1     179.763 180.932 178.589  1.00  0.00     0.047 A 
ATOM      6  C   UNL     1     180.361 179.668 178.663  1.00  0.00     0.115 A 
ATOM      7  C   UNL     1     181.483 180.082 176.554  1.00  0.00     0.012 A 
ATOM      8  C   UNL     1     181.217 179.247 177.642  1.00  0.00     0.047 A 
BRANCH   6   9
ATOM      9  O   UNL     1     180.108 178.824 179.742  1.00  0.00    -0.508 OA
ATOM     10  H   UNL     1     180.846 178.540 180.377  1.00  0.00     0.293 HD
ENDBRANCH   6   9
ENDBRANCH   1   3
BRANCH   2  11
ATOM     11  C   UNL     1     181.223 184.499 174.253  1.00  0.00     0.189 C 
ATOM     12  O   UNL     1     182.361 185.010 174.069  1.00  0.00    -0.289 OA
BRANCH  11  13
ATOM     13  C   UNL     1     180.149 184.761 173.265  1.00  0.00     0.064 A 
ATOM     14  C   UNL     1     180.419 185.348 172.010  1.00  0.00     0.130 A 
ATOM     15  C   UNL     1     178.830 184.390 173.578  1.00  0.00     0.020 A 
ATOM     16  C   UNL     1     179.367 185.590 171.112  1.00  0.00     0.093 A 
ATOM     17  C   UNL     1     177.791 184.631 172.674  1.00  0.00     0.047 A 
ATOM     18  C   UNL     1     178.058 185.235 171.441  1.00  0.00     0.119 A 
BRANCH  14  19
ATOM     19  O   UNL     1     181.726 185.666 171.640  1.00  0.00    -0.507 OA
ATOM     20  H   UNL     1     182.472 185.730 172.322  1.00  0.00     0.293 HD
ENDBRANCH  14  19
BRANCH  18  21
ATOM     21  O   UNL     1     177.029 185.483 170.534  1.00  0.00    -0.508 OA
ATOM     22  H   UNL     1     177.169 186.078 169.725  1.00  0.00     0.293 HD
ENDBRANCH  18  21
ENDBRANCH  11  13
ENDBRANCH   2  11
TORSDOF 6
ENDMDL
MODEL 8
REMARK VINA RESULT:    -6.199      1.862      3.127
REMARK INTER + INTRA:          -8.291
REMARK INTER:                  -7.783
REMARK INTRA:                  -0.508
REMARK UNBOUND:                -0.462
REMARK SMILES O=C(C=Cc1ccc(O)cc1)c1ccc(O)cc1O
REMARK SMILES IDX 4 1 3 2 5 3 6 4 7 5 8 6 11 7 10 8 9 9 2 11 1 12 12 13 18 14
REMARK SMILES IDX 13 15 17 16 14 17 15 18 19 19 16 21
REMARK H PARENT 9 10 19 20 16 22
REMARK Flexibility Score: inf
ROOT
ATOM      1  C   UNL     1     179.526 178.432 175.345  1.00  0.00     0.012 C 
ATOM      2  C   UNL     1     179.732 177.109 175.412  1.00  0.00     0.053 C 
ENDROOT
BRANCH   1   3
ATOM      3  C   UNL     1     179.738 179.356 176.486  1.00  0.00    -0.025 A 
ATOM      4  C   UNL     1     180.549 178.934 177.553  1.00  0.00     0.012 A 
ATOM      5  C   UNL     1     180.785 179.776 178.643  1.00  0.00     0.047 A 
ATOM      6  C   UNL     1     180.221 181.057 178.678  1.00  0.00     0.115 A 
ATOM      7  C   UNL     1     179.188 180.654 176.522  1.00  0.00     0.012 A 
ATOM      8  C   UNL     1     179.426 181.492 177.614  1.00  0.00     0.047 A 
BRANCH   6   9
ATOM      9  O   UNL     1     180.448 181.904 179.760  1.00  0.00    -0.508 OA
ATOM     10  H   UNL     1     179.826 181.919 180.561  1.00  0.00     0.293 HD
ENDBRANCH   6   9
ENDBRANCH   1   3
BRANCH   2  11
ATOM     11  C   UNL     1     179.526 176.219 174.248  1.00  0.00     0.189 C 
ATOM     12  O   UNL     1     178.400 175.681 174.061  1.00  0.00    -0.289 OA
BRANCH  11  13
ATOM     13  C   UNL     1     180.608 175.985 173.263  1.00  0.00     0.064 A 
ATOM     14  C   UNL     1     180.359 175.384 172.010  1.00  0.00     0.130 A 
ATOM     15  C   UNL     1     181.915 176.396 173.576  1.00  0.00     0.020 A 
ATOM     16  C   UNL     1     181.418 175.169 171.115  1.00  0.00     0.093 A 
ATOM     17  C   UNL     1     182.963 176.182 172.675  1.00  0.00     0.047 A 
ATOM     18  C   UNL     1     182.716 175.564 171.445  1.00  0.00     0.119 A 
BRANCH  14  19
ATOM     19  O   UNL     1     179.062 175.025 171.640  1.00  0.00    -0.507 OA
ATOM     20  H   UNL     1     178.367 175.720 171.395  1.00  0.00     0.293 HD
ENDBRANCH  14  19
BRANCH  18  21
ATOM     21  O   UNL     1     183.753 175.343 170.541  1.00  0.00    -0.508 OA
ATOM     22  H   UNL     1     184.106 176.086 169.948  1.00  0.00     0.293 HD
ENDBRANCH  18  21
ENDBRANCH  11  13
ENDBRANCH   2  11
TORSDOF 6
ENDMDL
MODEL 9
REMARK VINA RESULT:    -6.029      2.456      7.349
REMARK INTER + INTRA:          -8.076
REMARK INTER:                  -7.340
REMARK INTRA:                  -0.736
REMARK UNBOUND:                -0.462
REMARK SMILES O=C(C=Cc1ccc(O)cc1)c1ccc(O)cc1O
REMARK SMILES IDX 4 1 3 2 5 3 6 4 7 5 8 6 11 7 10 8 9 9 2 11 1 12 12 13 18 14
REMARK SMILES IDX 13 15 17 16 14 17 15 18 19 19 16 21
REMARK H PARENT 9 10 19 20 16 22
REMARK Flexibility Score: inf
ROOT
ATOM      1  C   UNL     1     182.018 179.426 174.347  1.00  0.00     0.012 C 
ATOM      2  C   UNL     1     181.273 178.359 174.668  1.00  0.00     0.053 C 
ENDROOT
BRANCH   1   3
ATOM      3  C   UNL     1     183.234 179.356 173.501  1.00  0.00    -0.025 A 
ATOM      4  C   UNL     1     184.390 180.033 173.924  1.00  0.00     0.012 A 
ATOM      5  C   UNL     1     185.562 179.985 173.163  1.00  0.00     0.047 A 
ATOM      6  C   UNL     1     185.598 179.250 171.973  1.00  0.00     0.115 A 
ATOM      7  C   UNL     1     183.285 178.604 172.308  1.00  0.00     0.012 A 
ATOM      8  C   UNL     1     184.459 178.559 171.551  1.00  0.00     0.047 A 
BRANCH   6   9
ATOM      9  O   UNL     1     186.760 179.196 171.206  1.00  0.00    -0.508 OA
ATOM     10  H   UNL     1     186.827 179.671 170.312  1.00  0.00     0.293 HD
ENDBRANCH   6   9
ENDBRANCH   1   3
BRANCH   2  11
ATOM     11  C   UNL     1     180.056 178.470 175.502  1.00  0.00     0.189 C 
ATOM     12  O   UNL     1     179.032 177.793 175.211  1.00  0.00    -0.289 OA
BRANCH  11  13
ATOM     13  C   UNL     1     180.032 179.328 176.710  1.00  0.00     0.064 A 
ATOM     14  C   UNL     1     179.243 180.497 176.778  1.00  0.00     0.130 A 
ATOM     15  C   UNL     1     180.796 178.952 177.829  1.00  0.00     0.020 A 
ATOM     16  C   UNL     1     179.264 181.286 177.938  1.00  0.00     0.093 A 
ATOM     17  C   UNL     1     180.805 179.742 178.981  1.00  0.00     0.047 A 
ATOM     18  C   UNL     1     180.042 180.914 179.036  1.00  0.00     0.119 A 
BRANCH  14  19
ATOM     19  O   UNL     1     178.421 180.862 175.712  1.00  0.00    -0.507 OA
ATOM     20  H   UNL     1     178.218 180.223 174.952  1.00  0.00     0.293 HD
ENDBRANCH  14  19
BRANCH  18  21
ATOM     21  O   UNL     1     180.046 181.711 180.179  1.00  0.00    -0.508 OA
ATOM     22  H   UNL     1     179.879 181.319 181.099  1.00  0.00     0.293 HD
ENDBRANCH  18  21
ENDBRANCH  11  13
ENDBRANCH   2  11
TORSDOF 6
ENDMDL
