MODEL 1
REMARK VINA RESULT:    -4.412      0.000      0.000
REMARK INTER + INTRA:         -14.937
REMARK INTER:                 -11.633
REMARK INTRA:                  -3.304
REMARK UNBOUND:                -3.304
REMARK SMILES CCCCCCCCCCCCCCCCCCCCCCCCCCCCCC(=O)[O-]
REMARK SMILES IDX 16 1 17 2 18 3 19 4 20 5 21 6 22 7 23 8 24 9 25 10 26 11
REMARK SMILES IDX 27 12 28 13 29 14 30 15 31 16 32 17 15 18 14 19 13 20 12 21
REMARK SMILES IDX 11 22 10 23 9 24 8 25 7 26 6 27 5 28 4 29 3 30 2 31 1 32
REMARK H PARENT
REMARK Flexibility Score: inf
ROOT
ATOM      1  C   UNL     1       8.187 -27.375 -27.355  1.00  0.00     0.000 C 
ENDROOT
BRANCH   1   2
ATOM      2  C   UNL     1       8.991 -26.565 -26.329  1.00  0.00     0.000 C 
BRANCH   2   3
ATOM      3  C   UNL     1      10.507 -26.822 -26.425  1.00  0.00     0.000 C 
BRANCH   3   4
ATOM      4  C   UNL     1      11.348 -25.601 -26.861  1.00  0.00     0.000 C 
BRANCH   4   5
ATOM      5  C   UNL     1      12.775 -25.926 -27.348  1.00  0.00     0.000 C 
BRANCH   5   6
ATOM      6  C   UNL     1      13.067 -27.426 -27.565  1.00  0.00     0.000 C 
BRANCH   6   7
ATOM      7  C   UNL     1      13.663 -28.153 -26.346  1.00  0.00     0.000 C 
BRANCH   7   8
ATOM      8  C   UNL     1      15.148 -28.513 -26.538  1.00  0.00     0.000 C 
BRANCH   8   9
ATOM      9  C   UNL     1      16.010 -27.294 -26.908  1.00  0.00     0.000 C 
BRANCH   9  10
ATOM     10  C   UNL     1      17.515 -27.614 -26.929  1.00  0.00     0.000 C 
BRANCH  10  11
ATOM     11  C   UNL     1      18.273 -26.815 -28.001  1.00  0.00     0.000 C 
BRANCH  11  12
ATOM     12  C   UNL     1      19.768 -27.176 -28.062  1.00  0.00     0.000 C 
BRANCH  12  13
ATOM     13  C   UNL     1      20.533 -26.410 -29.156  1.00  0.00     0.006 C 
BRANCH  13  14
ATOM     14  C   UNL     1      21.613 -25.457 -28.612  1.00  0.00     0.053 C 
BRANCH  14  15
ATOM     15  C   UNL     1      21.032 -24.296 -27.864  1.00  0.00     0.041 C 
ATOM     16  O   UNL     1      20.625 -24.444 -26.682  1.00  0.00    -0.550 OA
ATOM     17  O   UNL     1      20.985 -23.038 -28.452  1.00  0.00    -0.550 OA
ENDBRANCH  14  15
ENDBRANCH  13  14
ENDBRANCH  12  13
ENDBRANCH  11  12
ENDBRANCH  10  11
ENDBRANCH   9  10
ENDBRANCH   8   9
ENDBRANCH   7   8
ENDBRANCH   6   7
ENDBRANCH   5   6
ENDBRANCH   4   5
ENDBRANCH   3   4
ENDBRANCH   2   3
ENDBRANCH   1   2
BRANCH   1  18
ATOM     18  C   UNL     1       9.056 -28.466 -28.000  1.00  0.00     0.000 C 
BRANCH  18  19
ATOM     19  C   UNL     1       9.077 -28.384 -29.541  1.00  0.00     0.000 C 
BRANCH  19  20
ATOM     20  C   UNL     1      10.253 -27.567 -30.112  1.00  0.00     0.000 C 
BRANCH  20  21
ATOM     21  C   UNL     1      10.000 -26.054 -30.266  1.00  0.00     0.000 C 
BRANCH  21  22
ATOM     22  C   UNL     1      11.231 -25.229 -30.688  1.00  0.00     0.000 C 
BRANCH  22  23
ATOM     23  C   UNL     1      11.108 -23.743 -30.311  1.00  0.00     0.000 C 
BRANCH  23  24
ATOM     24  C   UNL     1      11.056 -22.831 -31.549  1.00  0.00    -0.000 C 
BRANCH  24  25
ATOM     25  C   UNL     1      11.053 -23.629 -32.864  1.00  0.00    -0.000 C 
BRANCH  25  26
ATOM     26  C   UNL     1      11.761 -22.893 -34.014  1.00  0.00    -0.000 C 
BRANCH  26  27
ATOM     27  C   UNL     1      13.257 -23.242 -34.149  1.00  0.00    -0.000 C 
BRANCH  27  28
ATOM     28  C   UNL     1      14.118 -22.013 -34.493  1.00  0.00    -0.000 C 
BRANCH  28  29
ATOM     29  C   UNL     1      15.147 -21.683 -33.400  1.00  0.00    -0.000 C 
BRANCH  29  30
ATOM     30  C   UNL     1      14.936 -22.507 -32.118  1.00  0.00    -0.000 C 
BRANCH  30  31
ATOM     31  C   UNL     1      14.423 -21.655 -30.946  1.00  0.00    -0.003 C 
ATOM     32  C   UNL     1      14.535 -22.370 -29.601  1.00  0.00     0.004 C 
ENDBRANCH  30  31
ENDBRANCH  29  30
ENDBRANCH  28  29
ENDBRANCH  27  28
ENDBRANCH  26  27
ENDBRANCH  25  26
ENDBRANCH  24  25
ENDBRANCH  23  24
ENDBRANCH  22  23
ENDBRANCH  21  22
ENDBRANCH  20  21
ENDBRANCH  19  20
ENDBRANCH  18  19
ENDBRANCH   1  18
TORSDOF 28
ENDMDL
MODEL 2
REMARK VINA RESULT:    -4.375      2.099      6.202
REMARK INTER + INTRA:         -14.840
REMARK INTER:                  -9.956
REMARK INTRA:                  -4.884
REMARK UNBOUND:                -3.304
REMARK SMILES CCCCCCCCCCCCCCCCCCCCCCCCCCCCCC(=O)[O-]
REMARK SMILES IDX 16 1 17 2 18 3 19 4 20 5 21 6 22 7 23 8 24 9 25 10 26 11
REMARK SMILES IDX 27 12 28 13 29 14 30 15 31 16 32 17 15 18 14 19 13 20 12 21
REMARK SMILES IDX 11 22 10 23 9 24 8 25 7 26 6 27 5 28 4 29 3 30 2 31 1 32
REMARK H PARENT
REMARK Flexibility Score: inf
ROOT
ATOM      1  C   UNL     1      10.576 -27.873 -30.050  1.00  0.00     0.000 C 
ENDROOT
BRANCH   1   2
ATOM      2  C   UNL     1      10.667 -26.879 -31.215  1.00  0.00     0.000 C 
BRANCH   2   3
ATOM      3  C   UNL     1       9.851 -25.596 -30.968  1.00  0.00     0.000 C 
BRANCH   3   4
ATOM      4  C   UNL     1      10.002 -24.508 -32.053  1.00  0.00     0.000 C 
BRANCH   4   5
ATOM      5  C   UNL     1      11.230 -23.588 -31.895  1.00  0.00     0.000 C 
BRANCH   5   6
ATOM      6  C   UNL     1      11.546 -23.163 -30.445  1.00  0.00     0.000 C 
BRANCH   6   7
ATOM      7  C   UNL     1      13.042 -22.951 -30.145  1.00  0.00     0.000 C 
BRANCH   7   8
ATOM      8  C   UNL     1      13.594 -21.654 -30.766  1.00  0.00     0.000 C 
BRANCH   8   9
ATOM      9  C   UNL     1      14.942 -21.234 -30.159  1.00  0.00     0.000 C 
BRANCH   9  10
ATOM     10  C   UNL     1      15.860 -22.434 -29.859  1.00  0.00     0.000 C 
BRANCH  10  11
ATOM     11  C   UNL     1      16.475 -22.369 -28.452  1.00  0.00     0.000 C 
BRANCH  11  12
ATOM     12  C   UNL     1      16.153 -23.614 -27.607  1.00  0.00     0.000 C 
BRANCH  12  13
ATOM     13  C   UNL     1      17.395 -24.231 -26.938  1.00  0.00     0.006 C 
BRANCH  13  14
ATOM     14  C   UNL     1      18.594 -24.406 -27.886  1.00  0.00     0.053 C 
BRANCH  14  15
ATOM     15  C   UNL     1      18.424 -25.565 -28.821  1.00  0.00     0.041 C 
ATOM     16  O   UNL     1      18.435 -26.743 -28.377  1.00  0.00    -0.550 OA
ATOM     17  O   UNL     1      18.203 -25.344 -30.175  1.00  0.00    -0.550 OA
ENDBRANCH  14  15
ENDBRANCH  13  14
ENDBRANCH  12  13
ENDBRANCH  11  12
ENDBRANCH  10  11
ENDBRANCH   9  10
ENDBRANCH   8   9
ENDBRANCH   7   8
ENDBRANCH   6   7
ENDBRANCH   5   6
ENDBRANCH   4   5
ENDBRANCH   3   4
ENDBRANCH   2   3
ENDBRANCH   1   2
BRANCH   1  18
ATOM     18  C   UNL     1       9.130 -28.354 -29.846  1.00  0.00     0.000 C 
BRANCH  18  19
ATOM     19  C   UNL     1       8.784 -28.601 -28.363  1.00  0.00     0.000 C 
BRANCH  19  20
ATOM     20  C   UNL     1       8.032 -27.435 -27.689  1.00  0.00     0.000 C 
BRANCH  20  21
ATOM     21  C   UNL     1       8.745 -26.792 -26.483  1.00  0.00     0.000 C 
BRANCH  21  22
ATOM     22  C   UNL     1      10.281 -26.738 -26.588  1.00  0.00     0.000 C 
BRANCH  22  23
ATOM     23  C   UNL     1      10.783 -25.469 -27.299  1.00  0.00     0.000 C 
BRANCH  23  24
ATOM     24  C   UNL     1      12.218 -25.629 -27.831  1.00  0.00    -0.000 C 
BRANCH  24  25
ATOM     25  C   UNL     1      12.941 -26.836 -27.209  1.00  0.00    -0.000 C 
BRANCH  25  26
ATOM     26  C   UNL     1      14.214 -26.441 -26.439  1.00  0.00    -0.000 C 
BRANCH  26  27
ATOM     27  C   UNL     1      13.965 -26.115 -24.952  1.00  0.00    -0.000 C 
BRANCH  27  28
ATOM     28  C   UNL     1      13.558 -24.647 -24.734  1.00  0.00    -0.000 C 
BRANCH  28  29
ATOM     29  C   UNL     1      12.447 -24.488 -23.683  1.00  0.00    -0.000 C 
BRANCH  29  30
ATOM     30  C   UNL     1      11.659 -25.789 -23.451  1.00  0.00    -0.000 C 
BRANCH  30  31
ATOM     31  C   UNL     1      10.187 -25.532 -23.094  1.00  0.00    -0.003 C 
ATOM     32  C   UNL     1       9.600 -24.331 -23.834  1.00  0.00     0.004 C 
ENDBRANCH  30  31
ENDBRANCH  29  30
ENDBRANCH  28  29
ENDBRANCH  27  28
ENDBRANCH  26  27
ENDBRANCH  25  26
ENDBRANCH  24  25
ENDBRANCH  23  24
ENDBRANCH  22  23
ENDBRANCH  21  22
ENDBRANCH  20  21
ENDBRANCH  19  20
ENDBRANCH  18  19
ENDBRANCH   1  18
TORSDOF 28
ENDMDL
MODEL 3
REMARK VINA RESULT:    -4.370      3.816      7.808
REMARK INTER + INTRA:         -14.829
REMARK INTER:                  -9.246
REMARK INTRA:                  -5.582
REMARK UNBOUND:                -3.304
REMARK SMILES CCCCCCCCCCCCCCCCCCCCCCCCCCCCCC(=O)[O-]
REMARK SMILES IDX 16 1 17 2 18 3 19 4 20 5 21 6 22 7 23 8 24 9 25 10 26 11
REMARK SMILES IDX 27 12 28 13 29 14 30 15 31 16 32 17 15 18 14 19 13 20 12 21
REMARK SMILES IDX 11 22 10 23 9 24 8 25 7 26 6 27 5 28 4 29 3 30 2 31 1 32
REMARK H PARENT
REMARK Flexibility Score: inf
ROOT
ATOM      1  C   UNL     1       9.598 -26.550 -25.384  1.00  0.00     0.000 C 
ENDROOT
BRANCH   1   2
ATOM      2  C   UNL     1       9.196 -26.477 -26.863  1.00  0.00     0.000 C 
BRANCH   2   3
ATOM      3  C   UNL     1       8.082 -27.478 -27.228  1.00  0.00     0.000 C 
BRANCH   3   4
ATOM      4  C   UNL     1       8.072 -27.931 -28.704  1.00  0.00     0.000 C 
BRANCH   4   5
ATOM      5  C   UNL     1       9.301 -28.751 -29.149  1.00  0.00     0.000 C 
BRANCH   5   6
ATOM      6  C   UNL     1       9.640 -29.960 -28.250  1.00  0.00     0.000 C 
BRANCH   6   7
ATOM      7  C   UNL     1      11.136 -30.125 -27.926  1.00  0.00     0.000 C 
BRANCH   7   8
ATOM      8  C   UNL     1      11.539 -29.430 -26.612  1.00  0.00     0.000 C 
BRANCH   8   9
ATOM      9  C   UNL     1      12.747 -28.495 -26.784  1.00  0.00     0.000 C 
BRANCH   9  10
ATOM     10  C   UNL     1      12.568 -27.496 -27.941  1.00  0.00     0.000 C 
BRANCH  10  11
ATOM     11  C   UNL     1      12.704 -26.034 -27.486  1.00  0.00     0.000 C 
BRANCH  11  12
ATOM     12  C   UNL     1      12.022 -25.048 -28.451  1.00  0.00     0.000 C 
BRANCH  12  13
ATOM     13  C   UNL     1      11.336 -25.741 -29.643  1.00  0.00     0.006 C 
BRANCH  13  14
ATOM     14  C   UNL     1      10.029 -25.063 -30.092  1.00  0.00     0.053 C 
BRANCH  14  15
ATOM     15  C   UNL     1      10.192 -24.284 -31.361  1.00  0.00     0.041 C 
ATOM     16  O   UNL     1       9.752 -24.745 -32.447  1.00  0.00    -0.550 OA
ATOM     17  O   UNL     1      10.783 -23.026 -31.340  1.00  0.00    -0.550 OA
ENDBRANCH  14  15
ENDBRANCH  13  14
ENDBRANCH  12  13
ENDBRANCH  11  12
ENDBRANCH  10  11
ENDBRANCH   9  10
ENDBRANCH   8   9
ENDBRANCH   7   8
ENDBRANCH   6   7
ENDBRANCH   5   6
ENDBRANCH   4   5
ENDBRANCH   3   4
ENDBRANCH   2   3
ENDBRANCH   1   2
BRANCH   1  18
ATOM     18  C   UNL     1       9.719 -25.144 -24.775  1.00  0.00     0.000 C 
BRANCH  18  19
ATOM     19  C   UNL     1      10.648 -25.101 -23.544  1.00  0.00     0.000 C 
BRANCH  19  20
ATOM     20  C   UNL     1      12.151 -25.134 -23.887  1.00  0.00     0.000 C 
BRANCH  20  21
ATOM     21  C   UNL     1      12.929 -26.355 -23.358  1.00  0.00     0.000 C 
BRANCH  21  22
ATOM     22  C   UNL     1      14.272 -26.625 -24.062  1.00  0.00     0.000 C 
BRANCH  22  23
ATOM     23  C   UNL     1      15.023 -27.829 -23.469  1.00  0.00     0.000 C 
BRANCH  23  24
ATOM     24  C   UNL     1      16.550 -27.665 -23.558  1.00  0.00    -0.000 C 
BRANCH  24  25
ATOM     25  C   UNL     1      17.217 -28.807 -24.342  1.00  0.00    -0.000 C 
BRANCH  25  26
ATOM     26  C   UNL     1      16.268 -29.480 -25.347  1.00  0.00    -0.000 C 
BRANCH  26  27
ATOM     27  C   UNL     1      16.554 -29.109 -26.817  1.00  0.00    -0.000 C 
BRANCH  27  28
ATOM     28  C   UNL     1      16.265 -27.626 -27.114  1.00  0.00    -0.000 C 
BRANCH  28  29
ATOM     29  C   UNL     1      17.538 -26.825 -27.433  1.00  0.00    -0.000 C 
BRANCH  29  30
ATOM     30  C   UNL     1      17.379 -25.321 -27.151  1.00  0.00    -0.000 C 
BRANCH  30  31
ATOM     31  C   UNL     1      17.854 -24.932 -25.742  1.00  0.00    -0.003 C 
ATOM     32  C   UNL     1      19.146 -25.640 -25.337  1.00  0.00     0.004 C 
ENDBRANCH  30  31
ENDBRANCH  29  30
ENDBRANCH  28  29
ENDBRANCH  27  28
ENDBRANCH  26  27
ENDBRANCH  25  26
ENDBRANCH  24  25
ENDBRANCH  23  24
ENDBRANCH  22  23
ENDBRANCH  21  22
ENDBRANCH  20  21
ENDBRANCH  19  20
ENDBRANCH  18  19
ENDBRANCH   1  18
TORSDOF 28
ENDMDL
MODEL 4
REMARK VINA RESULT:    -4.363      2.145      4.631
REMARK INTER + INTRA:         -14.810
REMARK INTER:                 -10.656
REMARK INTRA:                  -4.153
REMARK UNBOUND:                -3.304
REMARK SMILES CCCCCCCCCCCCCCCCCCCCCCCCCCCCCC(=O)[O-]
REMARK SMILES IDX 16 1 17 2 18 3 19 4 20 5 21 6 22 7 23 8 24 9 25 10 26 11
REMARK SMILES IDX 27 12 28 13 29 14 30 15 31 16 32 17 15 18 14 19 13 20 12 21
REMARK SMILES IDX 11 22 10 23 9 24 8 25 7 26 6 27 5 28 4 29 3 30 2 31 1 32
REMARK H PARENT
REMARK Flexibility Score: inf
ROOT
ATOM      1  C   UNL     1       9.450 -25.904 -25.243  1.00  0.00     0.000 C 
ENDROOT
BRANCH   1   2
ATOM      2  C   UNL     1       9.865 -25.563 -23.805  1.00  0.00     0.000 C 
BRANCH   2   3
ATOM      3  C   UNL     1       9.698 -24.067 -23.476  1.00  0.00     0.000 C 
BRANCH   3   4
ATOM      4  C   UNL     1      10.945 -23.392 -22.861  1.00  0.00     0.000 C 
BRANCH   4   5
ATOM      5  C   UNL     1      12.084 -23.086 -23.855  1.00  0.00     0.000 C 
BRANCH   5   6
ATOM      6  C   UNL     1      13.233 -24.116 -23.871  1.00  0.00     0.000 C 
BRANCH   6   7
ATOM      7  C   UNL     1      13.562 -24.698 -25.258  1.00  0.00     0.000 C 
BRANCH   7   8
ATOM      8  C   UNL     1      14.516 -25.904 -25.184  1.00  0.00     0.000 C 
BRANCH   8   9
ATOM      9  C   UNL     1      14.955 -26.398 -26.572  1.00  0.00     0.000 C 
BRANCH   9  10
ATOM     10  C   UNL     1      15.570 -27.809 -26.535  1.00  0.00     0.000 C 
BRANCH  10  11
ATOM     11  C   UNL     1      16.862 -27.911 -27.361  1.00  0.00     0.000 C 
BRANCH  11  12
ATOM     12  C   UNL     1      17.478 -26.535 -27.669  1.00  0.00     0.000 C 
BRANCH  12  13
ATOM     13  C   UNL     1      18.805 -26.285 -26.931  1.00  0.00     0.006 C 
BRANCH  13  14
ATOM     14  C   UNL     1      20.033 -26.897 -27.628  1.00  0.00     0.053 C 
BRANCH  14  15
ATOM     15  C   UNL     1      20.485 -26.093 -28.809  1.00  0.00     0.041 C 
ATOM     16  O   UNL     1      20.508 -26.611 -29.956  1.00  0.00    -0.550 OA
ATOM     17  O   UNL     1      20.833 -24.756 -28.653  1.00  0.00    -0.550 OA
ENDBRANCH  14  15
ENDBRANCH  13  14
ENDBRANCH  12  13
ENDBRANCH  11  12
ENDBRANCH  10  11
ENDBRANCH   9  10
ENDBRANCH   8   9
ENDBRANCH   7   8
ENDBRANCH   6   7
ENDBRANCH   5   6
ENDBRANCH   4   5
ENDBRANCH   3   4
ENDBRANCH   2   3
ENDBRANCH   1   2
BRANCH   1  18
ATOM     18  C   UNL     1      10.580 -26.639 -25.982  1.00  0.00     0.000 C 
BRANCH  18  19
ATOM     19  C   UNL     1      11.314 -27.663 -25.091  1.00  0.00     0.000 C 
BRANCH  19  20
ATOM     20  C   UNL     1      11.915 -28.855 -25.863  1.00  0.00     0.000 C 
BRANCH  20  21
ATOM     21  C   UNL     1      12.064 -28.656 -27.384  1.00  0.00     0.000 C 
BRANCH  21  22
ATOM     22  C   UNL     1      11.325 -29.693 -28.251  1.00  0.00     0.000 C 
BRANCH  22  23
ATOM     23  C   UNL     1       9.971 -30.111 -27.653  1.00  0.00     0.000 C 
BRANCH  23  24
ATOM     24  C   UNL     1       8.883 -30.266 -28.729  1.00  0.00    -0.000 C 
BRANCH  24  25
ATOM     25  C   UNL     1       8.874 -29.095 -29.726  1.00  0.00    -0.000 C 
BRANCH  25  26
ATOM     26  C   UNL     1       8.663 -27.730 -29.047  1.00  0.00    -0.000 C 
BRANCH  26  27
ATOM     27  C   UNL     1       9.650 -26.642 -29.519  1.00  0.00    -0.000 C 
BRANCH  27  28
ATOM     28  C   UNL     1      10.454 -27.078 -30.758  1.00  0.00    -0.000 C 
BRANCH  28  29
ATOM     29  C   UNL     1      10.743 -25.912 -31.718  1.00  0.00    -0.000 C 
BRANCH  29  30
ATOM     30  C   UNL     1      10.042 -24.609 -31.298  1.00  0.00    -0.000 C 
BRANCH  30  31
ATOM     31  C   UNL     1      10.978 -23.391 -31.353  1.00  0.00    -0.003 C 
ATOM     32  C   UNL     1      12.091 -23.452 -30.309  1.00  0.00     0.004 C 
ENDBRANCH  30  31
ENDBRANCH  29  30
ENDBRANCH  28  29
ENDBRANCH  27  28
ENDBRANCH  26  27
ENDBRANCH  25  26
ENDBRANCH  24  25
ENDBRANCH  23  24
ENDBRANCH  22  23
ENDBRANCH  21  22
ENDBRANCH  20  21
ENDBRANCH  19  20
ENDBRANCH  18  19
ENDBRANCH   1  18
TORSDOF 28
ENDMDL
MODEL 5
REMARK VINA RESULT:    -4.356      2.012      6.253
REMARK INTER + INTRA:         -14.792
REMARK INTER:                 -10.884
REMARK INTRA:                  -3.907
REMARK UNBOUND:                -3.304
REMARK SMILES CCCCCCCCCCCCCCCCCCCCCCCCCCCCCC(=O)[O-]
REMARK SMILES IDX 16 1 17 2 18 3 19 4 20 5 21 6 22 7 23 8 24 9 25 10 26 11
REMARK SMILES IDX 27 12 28 13 29 14 30 15 31 16 32 17 15 18 14 19 13 20 12 21
REMARK SMILES IDX 11 22 10 23 9 24 8 25 7 26 6 27 5 28 4 29 3 30 2 31 1 32
REMARK H PARENT
REMARK Flexibility Score: inf
ROOT
ATOM      1  C   UNL     1      10.979 -26.273 -31.042  1.00  0.00     0.000 C 
ENDROOT
BRANCH   1   2
ATOM      2  C   UNL     1      10.478 -24.924 -30.509  1.00  0.00     0.000 C 
BRANCH   2   3
ATOM      3  C   UNL     1      11.628 -23.976 -30.115  1.00  0.00     0.000 C 
BRANCH   3   4
ATOM      4  C   UNL     1      12.221 -23.153 -31.280  1.00  0.00     0.000 C 
BRANCH   4   5
ATOM      5  C   UNL     1      13.069 -21.935 -30.860  1.00  0.00     0.000 C 
BRANCH   5   6
ATOM      6  C   UNL     1      14.568 -22.027 -31.218  1.00  0.00     0.000 C 
BRANCH   6   7
ATOM      7  C   UNL     1      15.474 -22.534 -30.081  1.00  0.00     0.000 C 
BRANCH   7   8
ATOM      8  C   UNL     1      14.979 -22.099 -28.689  1.00  0.00     0.000 C 
BRANCH   8   9
ATOM      9  C   UNL     1      14.663 -23.294 -27.774  1.00  0.00     0.000 C 
BRANCH   9  10
ATOM     10  C   UNL     1      15.855 -23.694 -26.885  1.00  0.00     0.000 C 
BRANCH  10  11
ATOM     11  C   UNL     1      15.935 -25.211 -26.654  1.00  0.00     0.000 C 
BRANCH  11  12
ATOM     12  C   UNL     1      17.378 -25.703 -26.447  1.00  0.00     0.000 C 
BRANCH  12  13
ATOM     13  C   UNL     1      17.769 -26.853 -27.393  1.00  0.00     0.006 C 
BRANCH  13  14
ATOM     14  C   UNL     1      19.248 -26.837 -27.819  1.00  0.00     0.053 C 
BRANCH  14  15
ATOM     15  C   UNL     1      19.437 -26.345 -29.221  1.00  0.00     0.041 C 
ATOM     16  O   UNL     1      18.468 -25.854 -29.856  1.00  0.00    -0.550 OA
ATOM     17  O   UNL     1      20.695 -26.381 -29.812  1.00  0.00    -0.550 OA
ENDBRANCH  14  15
ENDBRANCH  13  14
ENDBRANCH  12  13
ENDBRANCH  11  12
ENDBRANCH  10  11
ENDBRANCH   9  10
ENDBRANCH   8   9
ENDBRANCH   7   8
ENDBRANCH   6   7
ENDBRANCH   5   6
ENDBRANCH   4   5
ENDBRANCH   3   4
ENDBRANCH   2   3
ENDBRANCH   1   2
BRANCH   1  18
ATOM     18  C   UNL     1      10.268 -27.442 -30.339  1.00  0.00     0.000 C 
BRANCH  18  19
ATOM     19  C   UNL     1       9.207 -26.973 -29.321  1.00  0.00     0.000 C 
BRANCH  19  20
ATOM     20  C   UNL     1       8.412 -28.121 -28.667  1.00  0.00     0.000 C 
BRANCH  20  21
ATOM     21  C   UNL     1       8.551 -29.499 -29.345  1.00  0.00     0.000 C 
BRANCH  21  22
ATOM     22  C   UNL     1       9.079 -30.622 -28.432  1.00  0.00     0.000 C 
BRANCH  22  23
ATOM     23  C   UNL     1      10.615 -30.652 -28.355  1.00  0.00     0.000 C 
BRANCH  23  24
ATOM     24  C   UNL     1      11.130 -30.415 -26.925  1.00  0.00    -0.000 C 
BRANCH  24  25
ATOM     25  C   UNL     1      12.083 -29.211 -26.837  1.00  0.00    -0.000 C 
BRANCH  25  26
ATOM     26  C   UNL     1      11.421 -27.964 -26.227  1.00  0.00    -0.000 C 
BRANCH  26  27
ATOM     27  C   UNL     1      11.866 -26.640 -26.882  1.00  0.00    -0.000 C 
BRANCH  27  28
ATOM     28  C   UNL     1      11.001 -25.447 -26.437  1.00  0.00    -0.000 C 
BRANCH  28  29
ATOM     29  C   UNL     1       9.647 -25.880 -25.853  1.00  0.00    -0.000 C 
BRANCH  29  30
ATOM     30  C   UNL     1       9.338 -25.206 -24.505  1.00  0.00    -0.000 C 
BRANCH  30  31
ATOM     31  C   UNL     1      10.533 -25.244 -23.539  1.00  0.00    -0.003 C 
ATOM     32  C   UNL     1      10.460 -26.409 -22.553  1.00  0.00     0.004 C 
ENDBRANCH  30  31
ENDBRANCH  29  30
ENDBRANCH  28  29
ENDBRANCH  27  28
ENDBRANCH  26  27
ENDBRANCH  25  26
ENDBRANCH  24  25
ENDBRANCH  23  24
ENDBRANCH  22  23
ENDBRANCH  21  22
ENDBRANCH  20  21
ENDBRANCH  19  20
ENDBRANCH  18  19
ENDBRANCH   1  18
TORSDOF 28
ENDMDL
MODEL 6
REMARK VINA RESULT:    -4.336      1.973      3.302
REMARK INTER + INTRA:         -14.737
REMARK INTER:                 -11.064
REMARK INTRA:                  -3.674
REMARK UNBOUND:                -3.304
REMARK SMILES CCCCCCCCCCCCCCCCCCCCCCCCCCCCCC(=O)[O-]
REMARK SMILES IDX 16 1 17 2 18 3 19 4 20 5 21 6 22 7 23 8 24 9 25 10 26 11
REMARK SMILES IDX 27 12 28 13 29 14 30 15 31 16 32 17 15 18 14 19 13 20 12 21
REMARK SMILES IDX 11 22 10 23 9 24 8 25 7 26 6 27 5 28 4 29 3 30 2 31 1 32
REMARK H PARENT
REMARK Flexibility Score: inf
ROOT
ATOM      1  C   UNL     1      10.623 -27.236 -30.233  1.00  0.00     0.000 C 
ENDROOT
BRANCH   1   2
ATOM      2  C   UNL     1       9.412 -28.083 -29.818  1.00  0.00     0.000 C 
BRANCH   2   3
ATOM      3  C   UNL     1       8.918 -27.758 -28.395  1.00  0.00     0.000 C 
BRANCH   3   4
ATOM      4  C   UNL     1       9.218 -26.322 -27.914  1.00  0.00     0.000 C 
BRANCH   4   5
ATOM      5  C   UNL     1      10.179 -26.218 -26.711  1.00  0.00     0.000 C 
BRANCH   5   6
ATOM      6  C   UNL     1      11.476 -25.425 -26.977  1.00  0.00     0.000 C 
BRANCH   6   7
ATOM      7  C   UNL     1      12.602 -26.233 -27.647  1.00  0.00     0.000 C 
BRANCH   7   8
ATOM      8  C   UNL     1      12.640 -27.699 -27.178  1.00  0.00     0.000 C 
BRANCH   8   9
ATOM      9  C   UNL     1      14.063 -28.177 -26.842  1.00  0.00     0.000 C 
BRANCH   9  10
ATOM     10  C   UNL     1      15.066 -27.016 -26.716  1.00  0.00     0.000 C 
BRANCH  10  11
ATOM     11  C   UNL     1      16.482 -27.409 -27.164  1.00  0.00     0.000 C 
BRANCH  11  12
ATOM     12  C   UNL     1      17.410 -26.193 -27.326  1.00  0.00     0.000 C 
BRANCH  12  13
ATOM     13  C   UNL     1      18.313 -26.280 -28.570  1.00  0.00     0.006 C 
BRANCH  13  14
ATOM     14  C   UNL     1      19.575 -25.401 -28.490  1.00  0.00     0.053 C 
BRANCH  14  15
ATOM     15  C   UNL     1      20.830 -26.208 -28.359  1.00  0.00     0.041 C 
ATOM     16  O   UNL     1      21.894 -25.818 -28.908  1.00  0.00    -0.550 OA
ATOM     17  O   UNL     1      20.841 -27.366 -27.589  1.00  0.00    -0.550 OA
ENDBRANCH  14  15
ENDBRANCH  13  14
ENDBRANCH  12  13
ENDBRANCH  11  12
ENDBRANCH  10  11
ENDBRANCH   9  10
ENDBRANCH   8   9
ENDBRANCH   7   8
ENDBRANCH   6   7
ENDBRANCH   5   6
ENDBRANCH   4   5
ENDBRANCH   3   4
ENDBRANCH   2   3
ENDBRANCH   1   2
BRANCH   1  18
ATOM     18  C   UNL     1      10.644 -27.013 -31.754  1.00  0.00     0.000 C 
BRANCH  18  19
ATOM     19  C   UNL     1      10.580 -25.521 -32.142  1.00  0.00     0.000 C 
BRANCH  19  20
ATOM     20  C   UNL     1       9.961 -24.614 -31.059  1.00  0.00     0.000 C 
BRANCH  20  21
ATOM     21  C   UNL     1      10.819 -23.408 -30.629  1.00  0.00     0.000 C 
BRANCH  21  22
ATOM     22  C   UNL     1      12.329 -23.559 -30.893  1.00  0.00     0.000 C 
BRANCH  22  23
ATOM     23  C   UNL     1      12.850 -22.570 -31.950  1.00  0.00     0.000 C 
BRANCH  23  24
ATOM     24  C   UNL     1      13.198 -23.267 -33.276  1.00  0.00    -0.000 C 
BRANCH  24  25
ATOM     25  C   UNL     1      12.368 -22.732 -34.455  1.00  0.00    -0.000 C 
BRANCH  25  26
ATOM     26  C   UNL     1      11.127 -21.941 -34.005  1.00  0.00    -0.000 C 
BRANCH  26  27
ATOM     27  C   UNL     1      10.554 -21.011 -35.094  1.00  0.00    -0.000 C 
BRANCH  27  28
ATOM     28  C   UNL     1      10.858 -19.528 -34.818  1.00  0.00    -0.000 C 
BRANCH  28  29
ATOM     29  C   UNL     1      11.144 -19.246 -33.334  1.00  0.00    -0.000 C 
BRANCH  29  30
ATOM     30  C   UNL     1       9.885 -18.823 -32.557  1.00  0.00    -0.000 C 
BRANCH  30  31
ATOM     31  C   UNL     1      10.057 -18.957 -31.036  1.00  0.00    -0.003 C 
ATOM     32  C   UNL     1      11.334 -19.701 -30.649  1.00  0.00     0.004 C 
ENDBRANCH  30  31
ENDBRANCH  29  30
ENDBRANCH  28  29
ENDBRANCH  27  28
ENDBRANCH  26  27
ENDBRANCH  25  26
ENDBRANCH  24  25
ENDBRANCH  23  24
ENDBRANCH  22  23
ENDBRANCH  21  22
ENDBRANCH  20  21
ENDBRANCH  19  20
ENDBRANCH  18  19
ENDBRANCH   1  18
TORSDOF 28
ENDMDL
MODEL 7
REMARK VINA RESULT:    -4.329      4.129      8.773
REMARK INTER + INTRA:         -14.718
REMARK INTER:                  -9.515
REMARK INTRA:                  -5.203
REMARK UNBOUND:                -3.304
REMARK SMILES CCCCCCCCCCCCCCCCCCCCCCCCCCCCCC(=O)[O-]
REMARK SMILES IDX 16 1 17 2 18 3 19 4 20 5 21 6 22 7 23 8 24 9 25 10 26 11
REMARK SMILES IDX 27 12 28 13 29 14 30 15 31 16 32 17 15 18 14 19 13 20 12 21
REMARK SMILES IDX 11 22 10 23 9 24 8 25 7 26 6 27 5 28 4 29 3 30 2 31 1 32
REMARK H PARENT
REMARK Flexibility Score: inf
ROOT
ATOM      1  C   UNL     1       9.650 -26.250 -26.733  1.00  0.00     0.000 C 
ENDROOT
BRANCH   1   2
ATOM      2  C   UNL     1      10.625 -25.396 -27.555  1.00  0.00     0.000 C 
BRANCH   2   3
ATOM      3  C   UNL     1      10.204 -25.268 -29.032  1.00  0.00     0.000 C 
BRANCH   3   4
ATOM      4  C   UNL     1      11.061 -26.082 -30.026  1.00  0.00     0.000 C 
BRANCH   4   5
ATOM      5  C   UNL     1      10.475 -27.450 -30.431  1.00  0.00     0.000 C 
BRANCH   5   6
ATOM      6  C   UNL     1       9.066 -27.749 -29.875  1.00  0.00     0.000 C 
BRANCH   6   7
ATOM      7  C   UNL     1       8.741 -29.244 -29.706  1.00  0.00     0.000 C 
BRANCH   7   8
ATOM      8  C   UNL     1       9.066 -29.766 -28.294  1.00  0.00     0.000 C 
BRANCH   8   9
ATOM      9  C   UNL     1       9.928 -31.040 -28.318  1.00  0.00     0.000 C 
BRANCH   9  10
ATOM     10  C   UNL     1      11.286 -30.853 -27.617  1.00  0.00     0.000 C 
BRANCH  10  11
ATOM     11  C   UNL     1      11.400 -29.498 -26.902  1.00  0.00     0.000 C 
BRANCH  11  12
ATOM     12  C   UNL     1      12.414 -28.557 -27.576  1.00  0.00     0.000 C 
BRANCH  12  13
ATOM     13  C   UNL     1      13.556 -28.124 -26.638  1.00  0.00     0.006 C 
BRANCH  13  14
ATOM     14  C   UNL     1      14.045 -26.683 -26.873  1.00  0.00     0.053 C 
BRANCH  14  15
ATOM     15  C   UNL     1      15.479 -26.493 -26.487  1.00  0.00     0.041 C 
ATOM     16  O   UNL     1      15.775 -25.836 -25.454  1.00  0.00    -0.550 OA
ATOM     17  O   UNL     1      16.491 -27.082 -27.237  1.00  0.00    -0.550 OA
ENDBRANCH  14  15
ENDBRANCH  13  14
ENDBRANCH  12  13
ENDBRANCH  11  12
ENDBRANCH  10  11
ENDBRANCH   9  10
ENDBRANCH   8   9
ENDBRANCH   7   8
ENDBRANCH   6   7
ENDBRANCH   5   6
ENDBRANCH   4   5
ENDBRANCH   3   4
ENDBRANCH   2   3
ENDBRANCH   1   2
BRANCH   1  18
ATOM     18  C   UNL     1       9.715 -25.880 -25.242  1.00  0.00     0.000 C 
BRANCH  18  19
ATOM     19  C   UNL     1      10.699 -26.764 -24.447  1.00  0.00     0.000 C 
BRANCH  19  20
ATOM     20  C   UNL     1      11.852 -25.984 -23.782  1.00  0.00     0.000 C 
BRANCH  20  21
ATOM     21  C   UNL     1      12.185 -24.619 -24.417  1.00  0.00     0.000 C 
BRANCH  21  22
ATOM     22  C   UNL     1      11.988 -23.405 -23.489  1.00  0.00     0.000 C 
BRANCH  22  23
ATOM     23  C   UNL     1      10.765 -22.555 -23.874  1.00  0.00     0.000 C 
BRANCH  23  24
ATOM     24  C   UNL     1       9.492 -22.996 -23.133  1.00  0.00    -0.000 C 
BRANCH  24  25
ATOM     25  C   UNL     1       9.500 -22.572 -21.654  1.00  0.00    -0.000 C 
BRANCH  25  26
ATOM     26  C   UNL     1       9.438 -23.767 -20.687  1.00  0.00    -0.000 C 
BRANCH  26  27
ATOM     27  C   UNL     1      10.809 -24.166 -20.103  1.00  0.00    -0.000 C 
BRANCH  27  28
ATOM     28  C   UNL     1      11.125 -25.657 -20.317  1.00  0.00    -0.000 C 
BRANCH  28  29
ATOM     29  C   UNL     1       9.879 -26.483 -20.677  1.00  0.00    -0.000 C 
BRANCH  29  30
ATOM     30  C   UNL     1       9.502 -27.497 -19.583  1.00  0.00    -0.000 C 
BRANCH  30  31
ATOM     31  C   UNL     1       8.955 -26.822 -18.316  1.00  0.00    -0.003 C 
ATOM     32  C   UNL     1       7.438 -26.645 -18.347  1.00  0.00     0.004 C 
ENDBRANCH  30  31
ENDBRANCH  29  30
ENDBRANCH  28  29
ENDBRANCH  27  28
ENDBRANCH  26  27
ENDBRANCH  25  26
ENDBRANCH  24  25
ENDBRANCH  23  24
ENDBRANCH  22  23
ENDBRANCH  21  22
ENDBRANCH  20  21
ENDBRANCH  19  20
ENDBRANCH  18  19
ENDBRANCH   1  18
TORSDOF 28
ENDMDL
MODEL 8
REMARK VINA RESULT:    -4.290      1.813      6.012
REMARK INTER + INTRA:         -14.615
REMARK INTER:                 -10.357
REMARK INTRA:                  -4.258
REMARK UNBOUND:                -3.304
REMARK SMILES CCCCCCCCCCCCCCCCCCCCCCCCCCCCCC(=O)[O-]
REMARK SMILES IDX 16 1 17 2 18 3 19 4 20 5 21 6 22 7 23 8 24 9 25 10 26 11
REMARK SMILES IDX 27 12 28 13 29 14 30 15 31 16 32 17 15 18 14 19 13 20 12 21
REMARK SMILES IDX 11 22 10 23 9 24 8 25 7 26 6 27 5 28 4 29 3 30 2 31 1 32
REMARK H PARENT
REMARK Flexibility Score: inf
ROOT
ATOM      1  C   UNL     1      11.264 -26.180 -29.673  1.00  0.00     0.000 C 
ENDROOT
BRANCH   1   2
ATOM      2  C   UNL     1      10.645 -24.778 -29.596  1.00  0.00     0.000 C 
BRANCH   2   3
ATOM      3  C   UNL     1       9.530 -24.562 -30.638  1.00  0.00     0.000 C 
BRANCH   3   4
ATOM      4  C   UNL     1      10.026 -24.241 -32.065  1.00  0.00     0.000 C 
BRANCH   4   5
ATOM      5  C   UNL     1      11.315 -23.396 -32.139  1.00  0.00     0.000 C 
BRANCH   5   6
ATOM      6  C   UNL     1      11.262 -22.054 -31.379  1.00  0.00     0.000 C 
BRANCH   6   7
ATOM      7  C   UNL     1      12.532 -21.714 -30.577  1.00  0.00     0.000 C 
BRANCH   7   8
ATOM      8  C   UNL     1      13.612 -22.806 -30.685  1.00  0.00     0.000 C 
BRANCH   8   9
ATOM      9  C   UNL     1      15.018 -22.285 -30.344  1.00  0.00     0.000 C 
BRANCH   9  10
ATOM     10  C   UNL     1      15.353 -22.411 -28.847  1.00  0.00     0.000 C 
BRANCH  10  11
ATOM     11  C   UNL     1      16.853 -22.243 -28.562  1.00  0.00     0.000 C 
BRANCH  11  12
ATOM     12  C   UNL     1      17.692 -23.416 -29.099  1.00  0.00     0.000 C 
BRANCH  12  13
ATOM     13  C   UNL     1      18.508 -24.129 -28.005  1.00  0.00     0.006 C 
BRANCH  13  14
ATOM     14  C   UNL     1      20.024 -24.151 -28.271  1.00  0.00     0.053 C 
BRANCH  14  15
ATOM     15  C   UNL     1      20.534 -25.525 -28.581  1.00  0.00     0.041 C 
ATOM     16  O   UNL     1      19.730 -26.485 -28.711  1.00  0.00    -0.550 OA
ATOM     17  O   UNL     1      21.894 -25.740 -28.775  1.00  0.00    -0.550 OA
ENDBRANCH  14  15
ENDBRANCH  13  14
ENDBRANCH  12  13
ENDBRANCH  11  12
ENDBRANCH  10  11
ENDBRANCH   9  10
ENDBRANCH   8   9
ENDBRANCH   7   8
ENDBRANCH   6   7
ENDBRANCH   5   6
ENDBRANCH   4   5
ENDBRANCH   3   4
ENDBRANCH   2   3
ENDBRANCH   1   2
BRANCH   1  18
ATOM     18  C   UNL     1      10.276 -27.187 -30.286  1.00  0.00     0.000 C 
BRANCH  18  19
ATOM     19  C   UNL     1       9.840 -28.281 -29.289  1.00  0.00     0.000 C 
BRANCH  19  20
ATOM     20  C   UNL     1       8.398 -28.118 -28.766  1.00  0.00     0.000 C 
BRANCH  20  21
ATOM     21  C   UNL     1       8.257 -27.386 -27.417  1.00  0.00     0.000 C 
BRANCH  21  22
ATOM     22  C   UNL     1       9.547 -27.318 -26.577  1.00  0.00     0.000 C 
BRANCH  22  23
ATOM     23  C   UNL     1       9.876 -25.891 -26.107  1.00  0.00     0.000 C 
BRANCH  23  24
ATOM     24  C   UNL     1      10.653 -25.880 -24.780  1.00  0.00    -0.000 C 
BRANCH  24  25
ATOM     25  C   UNL     1      12.064 -25.286 -24.932  1.00  0.00    -0.000 C 
BRANCH  25  26
ATOM     26  C   UNL     1      12.388 -24.872 -26.378  1.00  0.00    -0.000 C 
BRANCH  26  27
ATOM     27  C   UNL     1      13.865 -25.082 -26.768  1.00  0.00    -0.000 C 
BRANCH  27  28
ATOM     28  C   UNL     1      14.356 -26.509 -26.461  1.00  0.00    -0.000 C 
BRANCH  28  29
ATOM     29  C   UNL     1      13.589 -27.583 -27.250  1.00  0.00    -0.000 C 
BRANCH  29  30
ATOM     30  C   UNL     1      13.567 -28.944 -26.533  1.00  0.00    -0.000 C 
BRANCH  30  31
ATOM     31  C   UNL     1      12.788 -28.900 -25.209  1.00  0.00    -0.003 C 
ATOM     32  C   UNL     1      11.782 -30.043 -25.076  1.00  0.00     0.004 C 
ENDBRANCH  30  31
ENDBRANCH  29  30
ENDBRANCH  28  29
ENDBRANCH  27  28
ENDBRANCH  26  27
ENDBRANCH  25  26
ENDBRANCH  24  25
ENDBRANCH  23  24
ENDBRANCH  22  23
ENDBRANCH  21  22
ENDBRANCH  20  21
ENDBRANCH  19  20
ENDBRANCH  18  19
ENDBRANCH   1  18
TORSDOF 28
ENDMDL
MODEL 9
REMARK VINA RESULT:    -4.283      2.800      6.925
REMARK INTER + INTRA:         -14.597
REMARK INTER:                  -9.773
REMARK INTRA:                  -4.824
REMARK UNBOUND:                -3.304
REMARK SMILES CCCCCCCCCCCCCCCCCCCCCCCCCCCCCC(=O)[O-]
REMARK SMILES IDX 16 1 17 2 18 3 19 4 20 5 21 6 22 7 23 8 24 9 25 10 26 11
REMARK SMILES IDX 27 12 28 13 29 14 30 15 31 16 32 17 15 18 14 19 13 20 12 21
REMARK SMILES IDX 11 22 10 23 9 24 8 25 7 26 6 27 5 28 4 29 3 30 2 31 1 32
REMARK H PARENT
REMARK Flexibility Score: inf
ROOT
ATOM      1  C   UNL     1      10.704 -27.578 -29.863  1.00  0.00     0.000 C 
ENDROOT
BRANCH   1   2
ATOM      2  C   UNL     1      11.062 -26.105 -30.106  1.00  0.00     0.000 C 
BRANCH   2   3
ATOM      3  C   UNL     1       9.876 -25.155 -29.850  1.00  0.00     0.000 C 
BRANCH   3   4
ATOM      4  C   UNL     1       9.413 -24.345 -31.081  1.00  0.00     0.000 C 
BRANCH   4   5
ATOM      5  C   UNL     1      10.079 -24.739 -32.416  1.00  0.00     0.000 C 
BRANCH   5   6
ATOM      6  C   UNL     1      10.761 -23.581 -33.174  1.00  0.00     0.000 C 
BRANCH   6   7
ATOM      7  C   UNL     1      11.494 -22.565 -32.279  1.00  0.00     0.000 C 
BRANCH   7   8
ATOM      8  C   UNL     1      12.759 -23.153 -31.626  1.00  0.00     0.000 C 
BRANCH   8   9
ATOM      9  C   UNL     1      13.035 -22.564 -30.233  1.00  0.00     0.000 C 
BRANCH   9  10
ATOM     10  C   UNL     1      14.186 -21.541 -30.238  1.00  0.00     0.000 C 
BRANCH  10  11
ATOM     11  C   UNL     1      14.919 -21.471 -28.889  1.00  0.00     0.000 C 
BRANCH  11  12
ATOM     12  C   UNL     1      15.012 -22.842 -28.196  1.00  0.00     0.000 C 
BRANCH  12  13
ATOM     13  C   UNL     1      16.249 -22.980 -27.288  1.00  0.00     0.006 C 
BRANCH  13  14
ATOM     14  C   UNL     1      16.919 -21.640 -26.937  1.00  0.00     0.053 C 
BRANCH  14  15
ATOM     15  C   UNL     1      18.333 -21.558 -27.426  1.00  0.00     0.041 C 
ATOM     16  O   UNL     1      19.246 -21.154 -26.659  1.00  0.00    -0.550 OA
ATOM     17  O   UNL     1      18.654 -21.976 -28.713  1.00  0.00    -0.550 OA
ENDBRANCH  14  15
ENDBRANCH  13  14
ENDBRANCH  12  13
ENDBRANCH  11  12
ENDBRANCH  10  11
ENDBRANCH   9  10
ENDBRANCH   8   9
ENDBRANCH   7   8
ENDBRANCH   6   7
ENDBRANCH   5   6
ENDBRANCH   4   5
ENDBRANCH   3   4
ENDBRANCH   2   3
ENDBRANCH   1   2
BRANCH   1  18
ATOM     18  C   UNL     1       9.188 -27.754 -29.678  1.00  0.00     0.000 C 
BRANCH  18  19
ATOM     19  C   UNL     1       8.817 -28.363 -28.310  1.00  0.00     0.000 C 
BRANCH  19  20
ATOM     20  C   UNL     1       8.314 -27.334 -27.277  1.00  0.00     0.000 C 
BRANCH  20  21
ATOM     21  C   UNL     1       9.411 -26.606 -26.474  1.00  0.00     0.000 C 
BRANCH  21  22
ATOM     22  C   UNL     1      10.565 -27.504 -25.988  1.00  0.00     0.000 C 
BRANCH  22  23
ATOM     23  C   UNL     1      11.945 -26.988 -26.429  1.00  0.00     0.000 C 
BRANCH  23  24
ATOM     24  C   UNL     1      11.958 -25.463 -26.634  1.00  0.00    -0.000 C 
BRANCH  24  25
ATOM     25  C   UNL     1      13.015 -24.764 -25.763  1.00  0.00    -0.000 C 
BRANCH  25  26
ATOM     26  C   UNL     1      13.241 -25.468 -24.414  1.00  0.00    -0.000 C 
BRANCH  26  27
ATOM     27  C   UNL     1      12.382 -24.902 -23.265  1.00  0.00    -0.000 C 
BRANCH  27  28
ATOM     28  C   UNL     1      11.383 -25.937 -22.715  1.00  0.00    -0.000 C 
BRANCH  28  29
ATOM     29  C   UNL     1       9.921 -25.483 -22.855  1.00  0.00    -0.000 C 
BRANCH  29  30
ATOM     30  C   UNL     1       9.754 -24.310 -23.837  1.00  0.00    -0.000 C 
BRANCH  30  31
ATOM     31  C   UNL     1       9.188 -23.051 -23.163  1.00  0.00    -0.003 C 
ATOM     32  C   UNL     1       9.908 -21.774 -23.594  1.00  0.00     0.004 C 
ENDBRANCH  30  31
ENDBRANCH  29  30
ENDBRANCH  28  29
ENDBRANCH  27  28
ENDBRANCH  26  27
ENDBRANCH  25  26
ENDBRANCH  24  25
ENDBRANCH  23  24
ENDBRANCH  22  23
ENDBRANCH  21  22
ENDBRANCH  20  21
ENDBRANCH  19  20
ENDBRANCH  18  19
ENDBRANCH   1  18
TORSDOF 28
ENDMDL
