MODEL 1
REMARK VINA RESULT:    -5.089      0.000      0.000
REMARK INTER + INTRA:          -5.935
REMARK INTER:                  -5.684
REMARK INTRA:                  -0.251
REMARK UNBOUND:                -0.251
REMARK SMILES CC=C(C)C=CC=C(C)C
REMARK SMILES IDX 5 1 6 2 3 3 1 4 2 5 4 6 7 7 8 8 9 9 10 10
REMARK H PARENT
REMARK Flexibility Score: inf
ROOT
ATOM      1  C   UNL     1       1.729  13.197   3.906  1.00  0.00     0.003 C 
ATOM      2  C   UNL     1       1.341  13.394   5.172  1.00  0.00     0.000 C 
ENDROOT
BRANCH   1   3
ATOM      3  C   UNL     1       2.626  14.125   3.171  1.00  0.00    -0.055 C 
ATOM      4  C   UNL     1       2.860  15.887   1.391  1.00  0.00     0.036 C 
ATOM      5  C   UNL     1       2.075  14.940   2.250  1.00  0.00    -0.027 C 
ATOM      6  C   UNL     1       4.119  14.100   3.414  1.00  0.00     0.044 C 
ENDBRANCH   1   3
BRANCH   2   7
ATOM      7  C   UNL     1       0.453  12.423   5.848  1.00  0.00    -0.001 C 
ATOM      8  C   UNL     1      -0.843  12.658   6.126  1.00  0.00    -0.076 C 
ATOM      9  C   UNL     1      -1.637  11.584   6.818  1.00  0.00     0.039 C 
ATOM     10  C   UNL     1      -1.513  13.960   5.764  1.00  0.00     0.039 C 
ENDBRANCH   2   7
TORSDOF 2
ENDMDL
MODEL 2
REMARK VINA RESULT:    -4.988      1.247      5.286
REMARK INTER + INTRA:          -5.822
REMARK INTER:                  -5.587
REMARK INTRA:                  -0.235
REMARK UNBOUND:                -0.251
REMARK SMILES CC=C(C)C=CC=C(C)C
REMARK SMILES IDX 5 1 6 2 3 3 1 4 2 5 4 6 7 7 8 8 9 9 10 10
REMARK H PARENT
REMARK Flexibility Score: inf
ROOT
ATOM      1  C   UNL     1       0.273  13.685   5.701  1.00  0.00     0.003 C 
ATOM      2  C   UNL     1       1.210  12.821   5.291  1.00  0.00     0.000 C 
ENDROOT
BRANCH   1   3
ATOM      3  C   UNL     1      -1.120  13.286   6.032  1.00  0.00    -0.055 C 
ATOM      4  C   UNL     1      -3.509  13.998   6.366  1.00  0.00     0.036 C 
ATOM      5  C   UNL     1      -2.074  14.238   6.001  1.00  0.00    -0.027 C 
ATOM      6  C   UNL     1      -1.430  11.867   6.453  1.00  0.00     0.044 C 
ENDBRANCH   1   3
BRANCH   2   7
ATOM      7  C   UNL     1       2.581  13.284   4.987  1.00  0.00    -0.001 C 
ATOM      8  C   UNL     1       3.020  13.567   3.747  1.00  0.00    -0.076 C 
ATOM      9  C   UNL     1       4.441  14.031   3.575  1.00  0.00     0.039 C 
ATOM     10  C   UNL     1       2.131  13.434   2.536  1.00  0.00     0.039 C 
ENDBRANCH   2   7
TORSDOF 2
ENDMDL
MODEL 3
REMARK VINA RESULT:    -4.907      1.167      5.558
REMARK INTER + INTRA:          -5.732
REMARK INTER:                  -5.514
REMARK INTRA:                  -0.218
REMARK UNBOUND:                -0.251
REMARK SMILES CC=C(C)C=CC=C(C)C
REMARK SMILES IDX 5 1 6 2 3 3 1 4 2 5 4 6 7 7 8 8 9 9 10 10
REMARK H PARENT
REMARK Flexibility Score: inf
ROOT
ATOM      1  C   UNL     1       0.784  13.909   3.758  1.00  0.00     0.003 C 
ATOM      2  C   UNL     1       1.939  14.131   3.118  1.00  0.00     0.000 C 
ENDROOT
BRANCH   1   3
ATOM      3  C   UNL     1       0.698  13.237   5.081  1.00  0.00    -0.055 C 
ATOM      4  C   UNL     1      -0.674  11.861   6.677  1.00  0.00     0.036 C 
ATOM      5  C   UNL     1      -0.420  12.541   5.365  1.00  0.00    -0.027 C 
ATOM      6  C   UNL     1       1.812  13.394   6.093  1.00  0.00     0.044 C 
ENDBRANCH   1   3
BRANCH   2   7
ATOM      7  C   UNL     1       1.954  14.814   1.806  1.00  0.00    -0.001 C 
ATOM      8  C   UNL     1       2.851  15.755   1.460  1.00  0.00    -0.076 C 
ATOM      9  C   UNL     1       2.755  16.372   0.091  1.00  0.00     0.039 C 
ATOM     10  C   UNL     1       3.940  16.204   2.402  1.00  0.00     0.039 C 
ENDBRANCH   2   7
TORSDOF 2
ENDMDL
MODEL 4
REMARK VINA RESULT:    -4.899      1.037      1.679
REMARK INTER + INTRA:          -5.723
REMARK INTER:                  -5.453
REMARK INTRA:                  -0.270
REMARK UNBOUND:                -0.251
REMARK SMILES CC=C(C)C=CC=C(C)C
REMARK SMILES IDX 5 1 6 2 3 3 1 4 2 5 4 6 7 7 8 8 9 9 10 10
REMARK H PARENT
REMARK Flexibility Score: inf
ROOT
ATOM      1  C   UNL     1       1.006  13.798   2.899  1.00  0.00     0.003 C 
ATOM      2  C   UNL     1       1.203  13.742   4.222  1.00  0.00     0.000 C 
ENDROOT
BRANCH   1   3
ATOM      3  C   UNL     1       1.588  14.853   2.029  1.00  0.00    -0.055 C 
ATOM      4  C   UNL     1       3.521  16.393   1.562  1.00  0.00     0.036 C 
ATOM      5  C   UNL     1       2.829  15.295   2.314  1.00  0.00    -0.027 C 
ATOM      6  C   UNL     1       0.773  15.452   0.903  1.00  0.00     0.044 C 
ENDBRANCH   1   3
BRANCH   2   7
ATOM      7  C   UNL     1       0.602  12.657   5.028  1.00  0.00    -0.001 C 
ATOM      8  C   UNL     1      -0.507  12.804   5.776  1.00  0.00    -0.076 C 
ATOM      9  C   UNL     1      -1.017  11.618   6.549  1.00  0.00     0.039 C 
ATOM     10  C   UNL     1      -1.247  14.117   5.858  1.00  0.00     0.039 C 
ENDBRANCH   2   7
TORSDOF 2
ENDMDL
MODEL 5
REMARK VINA RESULT:    -4.863      2.230      5.595
REMARK INTER + INTRA:          -5.682
REMARK INTER:                  -5.455
REMARK INTRA:                  -0.228
REMARK UNBOUND:                -0.251
REMARK SMILES CC=C(C)C=CC=C(C)C
REMARK SMILES IDX 5 1 6 2 3 3 1 4 2 5 4 6 7 7 8 8 9 9 10 10
REMARK H PARENT
REMARK Flexibility Score: inf
ROOT
ATOM      1  C   UNL     1      -1.771  14.918   6.400  1.00  0.00     0.003 C 
ATOM      2  C   UNL     1      -1.099  13.930   5.797  1.00  0.00     0.000 C 
ENDROOT
BRANCH   1   3
ATOM      3  C   UNL     1      -3.183  15.259   6.085  1.00  0.00    -0.055 C 
ATOM      4  C   UNL     1      -4.835  17.018   5.378  1.00  0.00     0.036 C 
ATOM      5  C   UNL     1      -3.454  16.513   5.676  1.00  0.00    -0.027 C 
ATOM      6  C   UNL     1      -4.280  14.236   6.287  1.00  0.00     0.044 C 
ENDBRANCH   1   3
BRANCH   2   7
ATOM      7  C   UNL     1       0.304  13.638   6.165  1.00  0.00    -0.001 C 
ATOM      8  C   UNL     1       1.322  13.617   5.285  1.00  0.00    -0.076 C 
ATOM      9  C   UNL     1       2.705  13.307   5.791  1.00  0.00     0.039 C 
ATOM     10  C   UNL     1       1.114  13.896   3.817  1.00  0.00     0.039 C 
ENDBRANCH   2   7
TORSDOF 2
ENDMDL
MODEL 6
REMARK VINA RESULT:    -4.770      1.782      5.634
REMARK INTER + INTRA:          -5.578
REMARK INTER:                  -5.336
REMARK INTRA:                  -0.242
REMARK UNBOUND:                -0.251
REMARK SMILES CC=C(C)C=CC=C(C)C
REMARK SMILES IDX 5 1 6 2 3 3 1 4 2 5 4 6 7 7 8 8 9 9 10 10
REMARK H PARENT
REMARK Flexibility Score: inf
ROOT
ATOM      1  C   UNL     1      -0.158  12.256   5.399  1.00  0.00     0.003 C 
ATOM      2  C   UNL     1       0.588  13.227   4.858  1.00  0.00     0.000 C 
ENDROOT
BRANCH   1   3
ATOM      3  C   UNL     1      -1.395  12.514   6.181  1.00  0.00    -0.055 C 
ATOM      4  C   UNL     1      -3.151  11.606   7.736  1.00  0.00     0.036 C 
ATOM      5  C   UNL     1      -1.883  11.513   6.939  1.00  0.00    -0.027 C 
ATOM      6  C   UNL     1      -2.109  13.843   6.067  1.00  0.00     0.044 C 
ENDBRANCH   1   3
BRANCH   2   7
ATOM      7  C   UNL     1       1.805  12.900   4.082  1.00  0.00    -0.001 C 
ATOM      8  C   UNL     1       3.057  13.099   4.532  1.00  0.00    -0.076 C 
ATOM      9  C   UNL     1       4.210  12.720   3.641  1.00  0.00     0.039 C 
ATOM     10  C   UNL     1       3.334  13.685   5.894  1.00  0.00     0.039 C 
ENDBRANCH   2   7
TORSDOF 2
ENDMDL
MODEL 7
REMARK VINA RESULT:    -4.718      1.339      2.145
REMARK INTER + INTRA:          -5.521
REMARK INTER:                  -5.323
REMARK INTRA:                  -0.197
REMARK UNBOUND:                -0.251
REMARK SMILES CC=C(C)C=CC=C(C)C
REMARK SMILES IDX 5 1 6 2 3 3 1 4 2 5 4 6 7 7 8 8 9 9 10 10
REMARK H PARENT
REMARK Flexibility Score: inf
ROOT
ATOM      1  C   UNL     1       0.988  14.570   2.449  1.00  0.00     0.003 C 
ATOM      2  C   UNL     1       1.367  14.053   3.625  1.00  0.00     0.000 C 
ENDROOT
BRANCH   1   3
ATOM      3  C   UNL     1       1.892  15.356   1.571  1.00  0.00    -0.055 C 
ATOM      4  C   UNL     1       2.259  16.445  -0.667  1.00  0.00     0.036 C 
ATOM      5  C   UNL     1       1.441  15.704   0.349  1.00  0.00    -0.027 C 
ATOM      6  C   UNL     1       3.297  15.691   2.022  1.00  0.00     0.044 C 
ENDBRANCH   1   3
BRANCH   2   7
ATOM      7  C   UNL     1       0.418  13.272   4.447  1.00  0.00    -0.001 C 
ATOM      8  C   UNL     1       0.627  12.956   5.738  1.00  0.00    -0.076 C 
ATOM      9  C   UNL     1      -0.422  12.156   6.462  1.00  0.00     0.039 C 
ATOM     10  C   UNL     1       1.875  13.380   6.472  1.00  0.00     0.039 C 
ENDBRANCH   2   7
TORSDOF 2
ENDMDL
MODEL 8
REMARK VINA RESULT:    -4.712      1.592      5.204
REMARK INTER + INTRA:          -5.514
REMARK INTER:                  -5.251
REMARK INTRA:                  -0.263
REMARK UNBOUND:                -0.251
REMARK SMILES CC=C(C)C=CC=C(C)C
REMARK SMILES IDX 5 1 6 2 3 3 1 4 2 5 4 6 7 7 8 8 9 9 10 10
REMARK H PARENT
REMARK Flexibility Score: inf
ROOT
ATOM      1  C   UNL     1       1.546  13.184   3.939  1.00  0.00     0.003 C 
ATOM      2  C   UNL     1       1.179  14.245   3.211  1.00  0.00     0.000 C 
ENDROOT
BRANCH   1   3
ATOM      3  C   UNL     1       0.974  12.869   5.274  1.00  0.00    -0.055 C 
ATOM      4  C   UNL     1      -0.890  11.808   6.588  1.00  0.00     0.036 C 
ATOM      5  C   UNL     1      -0.166  12.152   5.320  1.00  0.00    -0.027 C 
ATOM      6  C   UNL     1       1.626  13.401   6.531  1.00  0.00     0.044 C 
ENDBRANCH   1   3
BRANCH   2   7
ATOM      7  C   UNL     1       1.783  14.495   1.884  1.00  0.00    -0.001 C 
ATOM      8  C   UNL     1       1.125  14.350   0.720  1.00  0.00    -0.076 C 
ATOM      9  C   UNL     1       1.857  14.638  -0.563  1.00  0.00     0.039 C 
ATOM     10  C   UNL     1      -0.318  13.910   0.667  1.00  0.00     0.039 C 
ENDBRANCH   2   7
TORSDOF 2
ENDMDL
MODEL 9
REMARK VINA RESULT:    -4.555      2.053      3.313
REMARK INTER + INTRA:          -5.339
REMARK INTER:                  -5.096
REMARK INTRA:                  -0.243
REMARK UNBOUND:                -0.251
REMARK SMILES CC=C(C)C=CC=C(C)C
REMARK SMILES IDX 5 1 6 2 3 3 1 4 2 5 4 6 7 7 8 8 9 9 10 10
REMARK H PARENT
REMARK Flexibility Score: inf
ROOT
ATOM      1  C   UNL     1       1.476  14.857   2.296  1.00  0.00     0.003 C 
ATOM      2  C   UNL     1       1.048  13.743   2.902  1.00  0.00     0.000 C 
ENDROOT
BRANCH   1   3
ATOM      3  C   UNL     1       1.608  14.988   0.822  1.00  0.00    -0.055 C 
ATOM      4  C   UNL     1       1.416  13.891  -1.433  1.00  0.00     0.036 C 
ATOM      5  C   UNL     1       1.280  13.926   0.061  1.00  0.00    -0.027 C 
ATOM      6  C   UNL     1       2.158  16.260   0.213  1.00  0.00     0.044 C 
ENDBRANCH   1   3
BRANCH   2   7
ATOM      7  C   UNL     1       0.931  13.683   4.375  1.00  0.00    -0.001 C 
ATOM      8  C   UNL     1       1.936  13.319   5.194  1.00  0.00    -0.076 C 
ATOM      9  C   UNL     1       1.685  13.302   6.677  1.00  0.00     0.039 C 
ATOM     10  C   UNL     1       3.295  12.933   4.666  1.00  0.00     0.039 C 
ENDBRANCH   2   7
TORSDOF 2
ENDMDL
