MODEL 1
REMARK VINA RESULT:    -3.569      0.000      0.000
REMARK INTER + INTRA:          -5.118
REMARK INTER:                  -4.821
REMARK INTRA:                  -0.297
REMARK UNBOUND:                -0.297
REMARK SMILES CCCCCCCC(=O)[O-]
REMARK SMILES IDX 5 1 6 2 7 3 8 4 9 5 10 6 4 7 3 8 2 9 1 10
REMARK H PARENT
REMARK Flexibility Score: inf
ROOT
ATOM      1  C   UNL     1       7.997  -7.314  41.996  1.00  0.00     0.000 C 
ENDROOT
BRANCH   1   2
ATOM      2  C   UNL     1       7.940  -6.295  43.150  1.00  0.00     0.006 C 
BRANCH   2   3
ATOM      3  C   UNL     1       7.488  -4.888  42.721  1.00  0.00     0.053 C 
BRANCH   3   4
ATOM      4  C   UNL     1       8.344  -4.318  41.631  1.00  0.00     0.041 C 
ATOM      5  O   UNL     1       9.541  -4.006  41.861  1.00  0.00    -0.550 OA
ATOM      6  O   UNL     1       7.808  -4.098  40.368  1.00  0.00    -0.550 OA
ENDBRANCH   3   4
ENDBRANCH   2   3
ENDBRANCH   1   2
BRANCH   1   7
ATOM      7  C   UNL     1       7.715  -8.776  42.392  1.00  0.00     0.000 C 
BRANCH   7   8
ATOM      8  C   UNL     1       7.915  -9.100  43.884  1.00  0.00    -0.000 C 
BRANCH   8   9
ATOM      9  C   UNL     1       7.119 -10.331  44.340  1.00  0.00    -0.003 C 
ATOM     10  C   UNL     1       6.241 -10.866  43.212  1.00  0.00     0.004 C 
ENDBRANCH   8   9
ENDBRANCH   7   8
ENDBRANCH   1   7
TORSDOF 6
ENDMDL
MODEL 2
REMARK VINA RESULT:    -3.552      2.624      5.482
REMARK INTER + INTRA:          -5.096
REMARK INTER:                  -4.747
REMARK INTRA:                  -0.349
REMARK UNBOUND:                -0.297
REMARK SMILES CCCCCCCC(=O)[O-]
REMARK SMILES IDX 5 1 6 2 7 3 8 4 9 5 10 6 4 7 3 8 2 9 1 10
REMARK H PARENT
REMARK Flexibility Score: inf
ROOT
ATOM      1  C   UNL     1       7.316  -5.232  42.762  1.00  0.00     0.000 C 
ENDROOT
BRANCH   1   2
ATOM      2  C   UNL     1       7.692  -6.068  41.523  1.00  0.00     0.006 C 
BRANCH   2   3
ATOM      3  C   UNL     1       7.782  -7.580  41.793  1.00  0.00     0.053 C 
BRANCH   3   4
ATOM      4  C   UNL     1       8.444  -7.891  43.102  1.00  0.00     0.041 C 
ATOM      5  O   UNL     1       9.644  -7.570  43.298  1.00  0.00    -0.550 OA
ATOM      6  O   UNL     1       7.743  -8.567  44.092  1.00  0.00    -0.550 OA
ENDBRANCH   3   4
ENDBRANCH   2   3
ENDBRANCH   1   2
BRANCH   1   7
ATOM      7  C   UNL     1       7.895  -3.804  42.795  1.00  0.00     0.000 C 
BRANCH   7   8
ATOM      8  C   UNL     1       8.826  -3.449  41.622  1.00  0.00    -0.000 C 
BRANCH   8   9
ATOM      9  C   UNL     1       8.274  -2.319  40.742  1.00  0.00    -0.003 C 
ATOM     10  C   UNL     1       7.575  -2.878  39.505  1.00  0.00     0.004 C 
ENDBRANCH   8   9
ENDBRANCH   7   8
ENDBRANCH   1   7
TORSDOF 6
ENDMDL
MODEL 3
REMARK VINA RESULT:    -3.494      1.816      2.745
REMARK INTER + INTRA:          -5.017
REMARK INTER:                  -4.797
REMARK INTRA:                  -0.219
REMARK UNBOUND:                -0.297
REMARK SMILES CCCCCCCC(=O)[O-]
REMARK SMILES IDX 5 1 6 2 7 3 8 4 9 5 10 6 4 7 3 8 2 9 1 10
REMARK H PARENT
REMARK Flexibility Score: inf
ROOT
ATOM      1  C   UNL     1       7.811  -9.340  44.040  1.00  0.00     0.000 C 
ENDROOT
BRANCH   1   2
ATOM      2  C   UNL     1       8.152  -8.373  42.889  1.00  0.00     0.006 C 
BRANCH   2   3
ATOM      3  C   UNL     1       8.445  -6.934  43.347  1.00  0.00     0.053 C 
BRANCH   3   4
ATOM      4  C   UNL     1       7.620  -5.919  42.614  1.00  0.00     0.041 C 
ATOM      5  O   UNL     1       7.486  -5.992  41.366  1.00  0.00    -0.550 OA
ATOM      6  O   UNL     1       7.029  -4.871  43.309  1.00  0.00    -0.550 OA
ENDBRANCH   3   4
ENDBRANCH   2   3
ENDBRANCH   1   2
BRANCH   1   7
ATOM      7  C   UNL     1       6.866 -10.500  43.670  1.00  0.00     0.000 C 
BRANCH   7   8
ATOM      8  C   UNL     1       7.084 -11.098  42.268  1.00  0.00    -0.000 C 
BRANCH   8   9
ATOM      9  C   UNL     1       5.920 -10.810  41.309  1.00  0.00    -0.003 C 
ATOM     10  C   UNL     1       6.348 -10.994  39.855  1.00  0.00     0.004 C 
ENDBRANCH   8   9
ENDBRANCH   7   8
ENDBRANCH   1   7
TORSDOF 6
ENDMDL
MODEL 4
REMARK VINA RESULT:    -3.465      2.704      5.556
REMARK INTER + INTRA:          -4.978
REMARK INTER:                  -4.653
REMARK INTRA:                  -0.326
REMARK UNBOUND:                -0.297
REMARK SMILES CCCCCCCC(=O)[O-]
REMARK SMILES IDX 5 1 6 2 7 3 8 4 9 5 10 6 4 7 3 8 2 9 1 10
REMARK H PARENT
REMARK Flexibility Score: inf
ROOT
ATOM      1  C   UNL     1       8.482  -3.722  42.728  1.00  0.00     0.000 C 
ENDROOT
BRANCH   1   2
ATOM      2  C   UNL     1       7.468  -4.881  42.777  1.00  0.00     0.006 C 
BRANCH   2   3
ATOM      3  C   UNL     1       8.102  -6.256  43.052  1.00  0.00     0.053 C 
BRANCH   3   4
ATOM      4  C   UNL     1       8.394  -7.015  41.793  1.00  0.00     0.041 C 
ATOM      5  O   UNL     1       7.657  -7.974  41.444  1.00  0.00    -0.550 OA
ATOM      6  O   UNL     1       9.502  -6.686  41.023  1.00  0.00    -0.550 OA
ENDBRANCH   3   4
ENDBRANCH   2   3
ENDBRANCH   1   2
BRANCH   1   7
ATOM      7  C   UNL     1       8.478  -2.896  41.427  1.00  0.00     0.000 C 
BRANCH   7   8
ATOM      8  C   UNL     1       7.865  -3.604  40.205  1.00  0.00    -0.000 C 
BRANCH   8   9
ATOM      9  C   UNL     1       7.339  -2.622  39.148  1.00  0.00    -0.003 C 
ATOM     10  C   UNL     1       7.171  -3.309  37.796  1.00  0.00     0.004 C 
ENDBRANCH   8   9
ENDBRANCH   7   8
ENDBRANCH   1   7
TORSDOF 6
ENDMDL
MODEL 5
REMARK VINA RESULT:    -3.443      3.461      5.462
REMARK INTER + INTRA:          -4.948
REMARK INTER:                  -4.658
REMARK INTRA:                  -0.290
REMARK UNBOUND:                -0.297
REMARK SMILES CCCCCCCC(=O)[O-]
REMARK SMILES IDX 5 1 6 2 7 3 8 4 9 5 10 6 4 7 3 8 2 9 1 10
REMARK H PARENT
REMARK Flexibility Score: inf
ROOT
ATOM      1  C   UNL     1       8.686  -7.635  42.384  1.00  0.00     0.000 C 
ENDROOT
BRANCH   1   2
ATOM      2  C   UNL     1       7.563  -8.333  41.591  1.00  0.00     0.006 C 
BRANCH   2   3
ATOM      3  C   UNL     1       7.376  -9.819  41.948  1.00  0.00     0.053 C 
BRANCH   3   4
ATOM      4  C   UNL     1       6.303 -10.474  41.132  1.00  0.00     0.041 C 
ATOM      5  O   UNL     1       5.271 -10.929  41.689  1.00  0.00    -0.550 OA
ATOM      6  O   UNL     1       6.460 -10.613  39.759  1.00  0.00    -0.550 OA
ENDBRANCH   3   4
ENDBRANCH   2   3
ENDBRANCH   1   2
BRANCH   1   7
ATOM      7  C   UNL     1       8.212  -6.677  43.494  1.00  0.00     0.000 C 
BRANCH   7   8
ATOM      8  C   UNL     1       7.369  -5.483  43.011  1.00  0.00    -0.000 C 
BRANCH   8   9
ATOM      9  C   UNL     1       8.219  -4.366  42.389  1.00  0.00    -0.003 C 
ATOM     10  C   UNL     1       7.953  -4.244  40.891  1.00  0.00     0.004 C 
ENDBRANCH   8   9
ENDBRANCH   7   8
ENDBRANCH   1   7
TORSDOF 6
ENDMDL
MODEL 6
REMARK VINA RESULT:    -3.418      2.987      4.566
REMARK INTER + INTRA:          -4.915
REMARK INTER:                  -4.627
REMARK INTRA:                  -0.288
REMARK UNBOUND:                -0.297
REMARK SMILES CCCCCCCC(=O)[O-]
REMARK SMILES IDX 5 1 6 2 7 3 8 4 9 5 10 6 4 7 3 8 2 9 1 10
REMARK H PARENT
REMARK Flexibility Score: inf
ROOT
ATOM      1  C   UNL     1       8.288  -2.732  41.428  1.00  0.00     0.000 C 
ENDROOT
BRANCH   1   2
ATOM      2  C   UNL     1       7.879  -3.453  40.128  1.00  0.00     0.006 C 
BRANCH   2   3
ATOM      3  C   UNL     1       7.770  -2.525  38.906  1.00  0.00     0.053 C 
BRANCH   3   4
ATOM      4  C   UNL     1       7.603  -3.282  37.623  1.00  0.00     0.041 C 
ATOM      5  O   UNL     1       6.474  -3.360  37.074  1.00  0.00    -0.550 OA
ATOM      6  O   UNL     1       8.691  -3.933  37.053  1.00  0.00    -0.550 OA
ENDBRANCH   3   4
ENDBRANCH   2   3
ENDBRANCH   1   2
BRANCH   1   7
ATOM      7  C   UNL     1       8.490  -3.645  42.653  1.00  0.00     0.000 C 
BRANCH   7   8
ATOM      8  C   UNL     1       7.429  -4.745  42.831  1.00  0.00    -0.000 C 
BRANCH   8   9
ATOM      9  C   UNL     1       8.038  -6.149  42.956  1.00  0.00    -0.003 C 
ATOM     10  C   UNL     1       7.789  -6.970  41.694  1.00  0.00     0.004 C 
ENDBRANCH   8   9
ENDBRANCH   7   8
ENDBRANCH   1   7
TORSDOF 6
ENDMDL
MODEL 7
REMARK VINA RESULT:    -3.404      4.619      6.560
REMARK INTER + INTRA:          -4.895
REMARK INTER:                  -4.738
REMARK INTRA:                  -0.157
REMARK UNBOUND:                -0.297
REMARK SMILES CCCCCCCC(=O)[O-]
REMARK SMILES IDX 5 1 6 2 7 3 8 4 9 5 10 6 4 7 3 8 2 9 1 10
REMARK H PARENT
REMARK Flexibility Score: inf
ROOT
ATOM      1  C   UNL     1       7.223  -2.218  38.779  1.00  0.00     0.000 C 
ENDROOT
BRANCH   1   2
ATOM      2  C   UNL     1       6.064  -2.284  37.765  1.00  0.00     0.006 C 
BRANCH   2   3
ATOM      3  C   UNL     1       6.149  -1.228  36.649  1.00  0.00     0.053 C 
BRANCH   3   4
ATOM      4  C   UNL     1       6.577  -1.813  35.337  1.00  0.00     0.041 C 
ATOM      5  O   UNL     1       7.594  -2.551  35.273  1.00  0.00    -0.550 OA
ATOM      6  O   UNL     1       5.873  -1.512  34.178  1.00  0.00    -0.550 OA
ENDBRANCH   3   4
ENDBRANCH   2   3
ENDBRANCH   1   2
BRANCH   1   7
ATOM      7  C   UNL     1       7.853  -3.575  39.149  1.00  0.00     0.000 C 
BRANCH   7   8
ATOM      8  C   UNL     1       8.141  -3.775  40.648  1.00  0.00    -0.000 C 
BRANCH   8   9
ATOM      9  C   UNL     1       8.073  -5.248  41.078  1.00  0.00    -0.003 C 
ATOM     10  C   UNL     1       7.346  -5.398  42.411  1.00  0.00     0.004 C 
ENDBRANCH   8   9
ENDBRANCH   7   8
ENDBRANCH   1   7
TORSDOF 6
ENDMDL
MODEL 8
REMARK VINA RESULT:    -3.370      3.031      5.557
REMARK INTER + INTRA:          -4.849
REMARK INTER:                  -4.557
REMARK INTRA:                  -0.292
REMARK UNBOUND:                -0.297
REMARK SMILES CCCCCCCC(=O)[O-]
REMARK SMILES IDX 5 1 6 2 7 3 8 4 9 5 10 6 4 7 3 8 2 9 1 10
REMARK H PARENT
REMARK Flexibility Score: inf
ROOT
ATOM      1  C   UNL     1       7.879  -6.367  42.853  1.00  0.00     0.000 C 
ENDROOT
BRANCH   1   2
ATOM      2  C   UNL     1       8.331  -7.040  41.542  1.00  0.00     0.006 C 
BRANCH   2   3
ATOM      3  C   UNL     1       8.670  -8.533  41.690  1.00  0.00     0.053 C 
BRANCH   3   4
ATOM      4  C   UNL     1       7.452  -9.380  41.901  1.00  0.00     0.041 C 
ATOM      5  O   UNL     1       7.196  -9.852  43.039  1.00  0.00    -0.550 OA
ATOM      6  O   UNL     1       6.618  -9.679  40.831  1.00  0.00    -0.550 OA
ENDBRANCH   3   4
ENDBRANCH   2   3
ENDBRANCH   1   2
BRANCH   1   7
ATOM      7  C   UNL     1       7.545  -4.867  42.743  1.00  0.00     0.000 C 
BRANCH   7   8
ATOM      8  C   UNL     1       7.902  -4.214  41.396  1.00  0.00    -0.000 C 
BRANCH   8   9
ATOM      9  C   UNL     1       8.747  -2.942  41.554  1.00  0.00    -0.003 C 
ATOM     10  C   UNL     1       8.717  -2.437  42.994  1.00  0.00     0.004 C 
ENDBRANCH   8   9
ENDBRANCH   7   8
ENDBRANCH   1   7
TORSDOF 6
ENDMDL
MODEL 9
REMARK VINA RESULT:    -3.347      3.819      7.133
REMARK INTER + INTRA:          -4.818
REMARK INTER:                  -4.596
REMARK INTRA:                  -0.221
REMARK UNBOUND:                -0.297
REMARK SMILES CCCCCCCC(=O)[O-]
REMARK SMILES IDX 5 1 6 2 7 3 8 4 9 5 10 6 4 7 3 8 2 9 1 10
REMARK H PARENT
REMARK Flexibility Score: inf
ROOT
ATOM      1  C   UNL     1       7.845  -1.870  39.682  1.00  0.00     0.000 C 
ENDROOT
BRANCH   1   2
ATOM      2  C   UNL     1       8.269  -2.672  40.928  1.00  0.00     0.006 C 
BRANCH   2   3
ATOM      3  C   UNL     1       7.955  -4.176  40.840  1.00  0.00     0.053 C 
BRANCH   3   4
ATOM      4  C   UNL     1       8.116  -4.874  42.157  1.00  0.00     0.041 C 
ATOM      5  O   UNL     1       7.105  -5.188  42.836  1.00  0.00    -0.550 OA
ATOM      6  O   UNL     1       9.386  -5.144  42.650  1.00  0.00    -0.550 OA
ENDBRANCH   3   4
ENDBRANCH   2   3
ENDBRANCH   1   2
BRANCH   1   7
ATOM      7  C   UNL     1       7.401  -2.715  38.473  1.00  0.00     0.000 C 
BRANCH   7   8
ATOM      8  C   UNL     1       6.031  -2.341  37.880  1.00  0.00    -0.000 C 
BRANCH   8   9
ATOM      9  C   UNL     1       6.136  -1.353  36.710  1.00  0.00    -0.003 C 
ATOM     10  C   UNL     1       5.611   0.025  37.105  1.00  0.00     0.004 C 
ENDBRANCH   8   9
ENDBRANCH   7   8
ENDBRANCH   1   7
TORSDOF 6
ENDMDL
