MODEL 1
REMARK VINA RESULT:    -3.764      0.000      0.000
REMARK INTER + INTRA:          -4.415
REMARK INTER:                  -4.314
REMARK INTRA:                  -0.101
REMARK UNBOUND:                -0.101
REMARK SMILES COc1cc(C(=O)[O-])ccc1O
REMARK SMILES IDX 5 1 9 2 4 3 10 4 3 5 11 6 6 7 7 8 8 9 2 10 1 11 12 12
REMARK H PARENT 12 13
REMARK Flexibility Score: inf
ROOT
ATOM      1  C   UNL     1      12.324  10.532 -12.899  1.00  0.00     0.001 A 
ATOM      2  C   UNL     1      12.933  10.573 -14.165  1.00  0.00     0.014 A 
ATOM      3  C   UNL     1      11.165   9.754 -12.723  1.00  0.00     0.060 A 
ATOM      4  C   UNL     1      12.395   9.851 -15.231  1.00  0.00     0.051 A 
ATOM      5  C   UNL     1      10.620   9.023 -13.798  1.00  0.00     0.161 A 
ATOM      6  C   UNL     1      11.242   9.077 -15.053  1.00  0.00     0.157 A 
ENDROOT
BRANCH   1   7
ATOM      7  C   UNL     1      12.898  11.299 -11.772  1.00  0.00     0.072 C 
ATOM      8  O   UNL     1      12.646  10.974 -10.580  1.00  0.00    -0.545 OA
ATOM      9  O   UNL     1      13.724  12.391 -12.010  1.00  0.00    -0.545 OA
ENDBRANCH   1   7
BRANCH   5  10
ATOM     10  O   UNL     1       9.465   8.236 -13.659  1.00  0.00    -0.493 OA
ATOM     11  C   UNL     1       8.135   8.744 -13.683  1.00  0.00     0.278 C 
ENDBRANCH   5  10
BRANCH   6  12
ATOM     12  O   UNL     1      10.707   8.357 -16.119  1.00  0.00    -0.504 OA
ATOM     13  H   UNL     1      10.997   7.405 -16.315  1.00  0.00     0.293 HD
ENDBRANCH   6  12
TORSDOF 3
ENDMDL
MODEL 2
REMARK VINA RESULT:    -3.676      1.520      4.308
REMARK INTER + INTRA:          -4.314
REMARK INTER:                  -4.237
REMARK INTRA:                  -0.077
REMARK UNBOUND:                -0.101
REMARK SMILES COc1cc(C(=O)[O-])ccc1O
REMARK SMILES IDX 5 1 9 2 4 3 10 4 3 5 11 6 6 7 7 8 8 9 2 10 1 11 12 12
REMARK H PARENT 12 13
REMARK Flexibility Score: inf
ROOT
ATOM      1  C   UNL     1      10.031   8.775 -14.175  1.00  0.00     0.001 A 
ATOM      2  C   UNL     1      10.513   8.809 -15.494  1.00  0.00     0.014 A 
ATOM      3  C   UNL     1      10.758   9.432 -13.164  1.00  0.00     0.060 A 
ATOM      4  C   UNL     1      11.695   9.485 -15.797  1.00  0.00     0.051 A 
ATOM      5  C   UNL     1      11.952  10.116 -13.467  1.00  0.00     0.161 A 
ATOM      6  C   UNL     1      12.416  10.138 -14.789  1.00  0.00     0.157 A 
ENDROOT
BRANCH   1   7
ATOM      7  C   UNL     1       8.777   8.056 -13.858  1.00  0.00     0.072 C 
ATOM      8  O   UNL     1       7.769   8.681 -13.432  1.00  0.00    -0.545 OA
ATOM      9  O   UNL     1       8.693   6.679 -14.027  1.00  0.00    -0.545 OA
ENDBRANCH   1   7
BRANCH   5  10
ATOM     10  O   UNL     1      12.703  10.783 -12.486  1.00  0.00    -0.493 OA
ATOM     11  C   UNL     1      12.648  10.493 -11.093  1.00  0.00     0.278 C 
ENDBRANCH   5  10
BRANCH   6  12
ATOM     12  O   UNL     1      13.596  10.814 -15.094  1.00  0.00    -0.504 OA
ATOM     13  H   UNL     1      14.488  10.333 -15.135  1.00  0.00     0.293 HD
ENDBRANCH   6  12
TORSDOF 3
ENDMDL
MODEL 3
REMARK VINA RESULT:    -3.353      1.622      4.515
REMARK INTER + INTRA:          -3.945
REMARK INTER:                  -3.851
REMARK INTRA:                  -0.094
REMARK UNBOUND:                -0.101
REMARK SMILES COc1cc(C(=O)[O-])ccc1O
REMARK SMILES IDX 5 1 9 2 4 3 10 4 3 5 11 6 6 7 7 8 8 9 2 10 1 11 12 12
REMARK H PARENT 12 13
REMARK Flexibility Score: inf
ROOT
ATOM      1  C   UNL     1      10.285   8.944 -13.789  1.00  0.00     0.001 A 
ATOM      2  C   UNL     1      10.757   9.504 -12.591  1.00  0.00     0.014 A 
ATOM      3  C   UNL     1      11.003   9.166 -14.979  1.00  0.00     0.060 A 
ATOM      4  C   UNL     1      11.924  10.270 -12.580  1.00  0.00     0.051 A 
ATOM      5  C   UNL     1      12.182   9.939 -14.972  1.00  0.00     0.161 A 
ATOM      6  C   UNL     1      12.637  10.489 -13.765  1.00  0.00     0.157 A 
ENDROOT
BRANCH   1   7
ATOM      7  C   UNL     1       9.047   8.133 -13.795  1.00  0.00     0.072 C 
ATOM      8  O   UNL     1       7.938   8.653 -13.495  1.00  0.00    -0.545 OA
ATOM      9  O   UNL     1       9.088   6.785 -14.131  1.00  0.00    -0.545 OA
ENDBRANCH   1   7
BRANCH   5  10
ATOM     10  O   UNL     1      12.926  10.182 -16.138  1.00  0.00    -0.493 OA
ATOM     11  C   UNL     1      12.624  11.198 -17.089  1.00  0.00     0.278 C 
ENDBRANCH   5  10
BRANCH   6  12
ATOM     12  O   UNL     1      13.803  11.253 -13.753  1.00  0.00    -0.504 OA
ATOM     13  H   UNL     1      13.867  12.115 -13.222  1.00  0.00     0.293 HD
ENDBRANCH   6  12
TORSDOF 3
ENDMDL
MODEL 4
REMARK VINA RESULT:    -3.342      1.134      2.504
REMARK INTER + INTRA:          -3.932
REMARK INTER:                  -3.850
REMARK INTRA:                  -0.082
REMARK UNBOUND:                -0.101
REMARK SMILES COc1cc(C(=O)[O-])ccc1O
REMARK SMILES IDX 5 1 9 2 4 3 10 4 3 5 11 6 6 7 7 8 8 9 2 10 1 11 12 12
REMARK H PARENT 12 13
REMARK Flexibility Score: inf
ROOT
ATOM      1  C   UNL     1      11.692   9.992 -12.760  1.00  0.00     0.001 A 
ATOM      2  C   UNL     1      10.806   9.034 -12.239  1.00  0.00     0.014 A 
ATOM      3  C   UNL     1      11.816  10.123 -14.155  1.00  0.00     0.060 A 
ATOM      4  C   UNL     1      10.057   8.225 -13.095  1.00  0.00     0.051 A 
ATOM      5  C   UNL     1      11.061   9.308 -15.023  1.00  0.00     0.161 A 
ATOM      6  C   UNL     1      10.182   8.358 -14.484  1.00  0.00     0.157 A 
ENDROOT
BRANCH   1   7
ATOM      7  C   UNL     1      12.484  10.847 -11.847  1.00  0.00     0.072 C 
ATOM      8  O   UNL     1      12.309  10.789 -10.600  1.00  0.00    -0.545 OA
ATOM      9  O   UNL     1      13.434  11.727 -12.352  1.00  0.00    -0.545 OA
ENDBRANCH   1   7
BRANCH   5  10
ATOM     10  O   UNL     1      11.157   9.411 -16.420  1.00  0.00    -0.493 OA
ATOM     11  C   UNL     1      11.965  10.362 -17.104  1.00  0.00     0.278 C 
ENDBRANCH   5  10
BRANCH   6  12
ATOM     12  O   UNL     1       9.433   7.550 -15.337  1.00  0.00    -0.504 OA
ATOM     13  H   UNL     1       9.588   6.550 -15.392  1.00  0.00     0.293 HD
ENDBRANCH   6  12
TORSDOF 3
ENDMDL
MODEL 5
REMARK VINA RESULT:    -3.302     14.845     15.737
REMARK INTER + INTRA:          -3.886
REMARK INTER:                  -3.787
REMARK INTRA:                  -0.100
REMARK UNBOUND:                -0.101
REMARK SMILES COc1cc(C(=O)[O-])ccc1O
REMARK SMILES IDX 5 1 9 2 4 3 10 4 3 5 11 6 6 7 7 8 8 9 2 10 1 11 12 12
REMARK H PARENT 12 13
REMARK Flexibility Score: inf
ROOT
ATOM      1  C   UNL     1      12.482  23.704  -5.569  1.00  0.00     0.001 A 
ATOM      2  C   UNL     1      13.376  23.266  -6.559  1.00  0.00     0.014 A 
ATOM      3  C   UNL     1      11.237  24.233  -5.957  1.00  0.00     0.060 A 
ATOM      4  C   UNL     1      13.034  23.353  -7.909  1.00  0.00     0.051 A 
ATOM      5  C   UNL     1      10.888  24.322  -7.319  1.00  0.00     0.161 A 
ATOM      6  C   UNL     1      11.794  23.879  -8.293  1.00  0.00     0.157 A 
ENDROOT
BRANCH   1   7
ATOM      7  C   UNL     1      12.850  23.610  -4.138  1.00  0.00     0.072 C 
ATOM      8  O   UNL     1      14.001  23.944  -3.749  1.00  0.00    -0.545 OA
ATOM      9  O   UNL     1      11.930  23.151  -3.202  1.00  0.00    -0.545 OA
ENDBRANCH   1   7
BRANCH   5  10
ATOM     10  O   UNL     1       9.655  24.843  -7.745  1.00  0.00    -0.493 OA
ATOM     11  C   UNL     1       8.423  24.129  -7.709  1.00  0.00     0.278 C 
ENDBRANCH   5  10
BRANCH   6  12
ATOM     12  O   UNL     1      11.454  23.965  -9.641  1.00  0.00    -0.504 OA
ATOM     13  H   UNL     1      12.046  23.572 -10.364  1.00  0.00     0.293 HD
ENDBRANCH   6  12
TORSDOF 3
ENDMDL
MODEL 6
REMARK VINA RESULT:    -3.001     19.136     20.306
REMARK INTER + INTRA:          -3.541
REMARK INTER:                  -3.454
REMARK INTRA:                  -0.088
REMARK UNBOUND:                -0.101
REMARK SMILES COc1cc(C(=O)[O-])ccc1O
REMARK SMILES IDX 5 1 9 2 4 3 10 4 3 5 11 6 6 7 7 8 8 9 2 10 1 11 12 12
REMARK H PARENT 12 13
REMARK Flexibility Score: inf
ROOT
ATOM      1  C   UNL     1      -2.523  23.476 -11.238  1.00  0.00     0.001 A 
ATOM      2  C   UNL     1      -2.698  23.800  -9.882  1.00  0.00     0.014 A 
ATOM      3  C   UNL     1      -3.568  22.836 -11.929  1.00  0.00     0.060 A 
ATOM      4  C   UNL     1      -3.893  23.491  -9.231  1.00  0.00     0.051 A 
ATOM      5  C   UNL     1      -4.776  22.523 -11.275  1.00  0.00     0.161 A 
ATOM      6  C   UNL     1      -4.932  22.854  -9.922  1.00  0.00     0.157 A 
ENDROOT
BRANCH   1   7
ATOM      7  C   UNL     1      -1.253  23.806 -11.923  1.00  0.00     0.072 C 
ATOM      8  O   UNL     1      -0.441  22.896 -12.242  1.00  0.00    -0.545 OA
ATOM      9  O   UNL     1      -0.937  25.125 -12.225  1.00  0.00    -0.545 OA
ENDBRANCH   1   7
BRANCH   5  10
ATOM     10  O   UNL     1      -5.840  21.885 -11.932  1.00  0.00    -0.493 OA
ATOM     11  C   UNL     1      -5.728  20.657 -12.645  1.00  0.00     0.278 C 
ENDBRANCH   5  10
BRANCH   6  12
ATOM     12  O   UNL     1      -6.125  22.547  -9.270  1.00  0.00    -0.504 OA
ATOM     13  H   UNL     1      -6.399  21.587  -9.089  1.00  0.00     0.293 HD
ENDBRANCH   6  12
TORSDOF 3
ENDMDL
MODEL 7
REMARK VINA RESULT:    -2.983     18.871     20.471
REMARK INTER + INTRA:          -3.520
REMARK INTER:                  -3.434
REMARK INTRA:                  -0.086
REMARK UNBOUND:                -0.101
REMARK SMILES COc1cc(C(=O)[O-])ccc1O
REMARK SMILES IDX 5 1 9 2 4 3 10 4 3 5 11 6 6 7 7 8 8 9 2 10 1 11 12 12
REMARK H PARENT 12 13
REMARK Flexibility Score: inf
ROOT
ATOM      1  C   UNL     1      -4.978  20.965 -13.173  1.00  0.00     0.001 A 
ATOM      2  C   UNL     1      -6.107  20.974 -12.338  1.00  0.00     0.014 A 
ATOM      3  C   UNL     1      -3.865  21.754 -12.829  1.00  0.00     0.060 A 
ATOM      4  C   UNL     1      -6.124  21.755 -11.181  1.00  0.00     0.051 A 
ATOM      5  C   UNL     1      -3.878  22.544 -11.661  1.00  0.00     0.161 A 
ATOM      6  C   UNL     1      -5.014  22.539 -10.840  1.00  0.00     0.157 A 
ENDROOT
BRANCH   1   7
ATOM      7  C   UNL     1      -4.966  20.136 -14.399  1.00  0.00     0.072 C 
ATOM      8  O   UNL     1      -5.626  19.063 -14.454  1.00  0.00    -0.545 OA
ATOM      9  O   UNL     1      -4.227  20.528 -15.509  1.00  0.00    -0.545 OA
ENDBRANCH   1   7
BRANCH   5  10
ATOM     10  O   UNL     1      -2.787  23.343 -11.285  1.00  0.00    -0.493 OA
ATOM     11  C   UNL     1      -1.422  22.959 -11.422  1.00  0.00     0.278 C 
ENDBRANCH   5  10
BRANCH   6  12
ATOM     12  O   UNL     1      -5.032  23.318  -9.685  1.00  0.00    -0.504 OA
ATOM     13  H   UNL     1      -4.183  23.717  -9.301  1.00  0.00     0.293 HD
ENDBRANCH   6  12
TORSDOF 3
ENDMDL
MODEL 8
REMARK VINA RESULT:    -2.956     18.179     19.226
REMARK INTER + INTRA:          -3.490
REMARK INTER:                  -3.396
REMARK INTRA:                  -0.094
REMARK UNBOUND:                -0.101
REMARK SMILES COc1cc(C(=O)[O-])ccc1O
REMARK SMILES IDX 5 1 9 2 4 3 10 4 3 5 11 6 6 7 7 8 8 9 2 10 1 11 12 12
REMARK H PARENT 12 13
REMARK Flexibility Score: inf
ROOT
ATOM      1  C   UNL     1      -2.386  23.007 -11.313  1.00  0.00     0.001 A 
ATOM      2  C   UNL     1      -3.501  22.595 -12.063  1.00  0.00     0.014 A 
ATOM      3  C   UNL     1      -1.264  23.527 -11.984  1.00  0.00     0.060 A 
ATOM      4  C   UNL     1      -3.494  22.702 -13.455  1.00  0.00     0.051 A 
ATOM      5  C   UNL     1      -1.255  23.636 -13.389  1.00  0.00     0.161 A 
ATOM      6  C   UNL     1      -2.376  23.220 -14.120  1.00  0.00     0.157 A 
ENDROOT
BRANCH   1   7
ATOM      7  C   UNL     1      -2.398  22.891  -9.838  1.00  0.00     0.072 C 
ATOM      8  O   UNL     1      -1.568  22.150  -9.246  1.00  0.00    -0.545 OA
ATOM      9  O   UNL     1      -3.326  23.599  -9.083  1.00  0.00    -0.545 OA
ENDBRANCH   1   7
BRANCH   5  10
ATOM     10  O   UNL     1      -0.154  24.151 -14.093  1.00  0.00    -0.493 OA
ATOM     11  C   UNL     1       1.133  23.543 -14.133  1.00  0.00     0.278 C 
ENDBRANCH   5  10
BRANCH   6  12
ATOM     12  O   UNL     1      -2.372  23.327 -15.509  1.00  0.00    -0.504 OA
ATOM     13  H   UNL     1      -2.590  24.201 -15.975  1.00  0.00     0.293 HD
ENDBRANCH   6  12
TORSDOF 3
ENDMDL
MODEL 9
REMARK VINA RESULT:    -2.749      2.274      3.803
REMARK INTER + INTRA:          -3.253
REMARK INTER:                  -3.166
REMARK INTRA:                  -0.086
REMARK UNBOUND:                -0.101
REMARK SMILES COc1cc(C(=O)[O-])ccc1O
REMARK SMILES IDX 5 1 9 2 4 3 10 4 3 5 11 6 6 7 7 8 8 9 2 10 1 11 12 12
REMARK H PARENT 12 13
REMARK Flexibility Score: inf
ROOT
ATOM      1  C   UNL     1      10.610   8.904 -14.452  1.00  0.00     0.001 A 
ATOM      2  C   UNL     1       9.654   9.805 -13.953  1.00  0.00     0.014 A 
ATOM      3  C   UNL     1      10.284   7.538 -14.537  1.00  0.00     0.060 A 
ATOM      4  C   UNL     1       8.398   9.350 -13.550  1.00  0.00     0.051 A 
ATOM      5  C   UNL     1       9.016   7.075 -14.130  1.00  0.00     0.161 A 
ATOM      6  C   UNL     1       8.076   7.990 -13.636  1.00  0.00     0.157 A 
ENDROOT
BRANCH   1   7
ATOM      7  C   UNL     1      11.941   9.391 -14.878  1.00  0.00     0.072 C 
ATOM      8  O   UNL     1      12.485   8.940 -15.921  1.00  0.00    -0.545 OA
ATOM      9  O   UNL     1      12.611  10.355 -14.133  1.00  0.00    -0.545 OA
ENDBRANCH   1   7
BRANCH   5  10
ATOM     10  O   UNL     1       8.654   5.720 -14.201  1.00  0.00    -0.493 OA
ATOM     11  C   UNL     1       8.912   4.875 -15.318  1.00  0.00     0.278 C 
ENDBRANCH   5  10
BRANCH   6  12
ATOM     12  O   UNL     1       6.821   7.538 -13.233  1.00  0.00    -0.504 OA
ATOM     13  H   UNL     1       6.707   6.937 -12.424  1.00  0.00     0.293 HD
ENDBRANCH   6  12
TORSDOF 3
ENDMDL
