MODEL 1
REMARK VINA RESULT:    -5.397      0.000      0.000
REMARK INTER + INTRA:         -13.892
REMARK INTER:                 -12.337
REMARK INTRA:                  -1.555
REMARK UNBOUND:                -1.555
REMARK SMILES CCCCCCCCCCCCCCCCCCCCCCCC(=O)[O-]
REMARK SMILES IDX 13 1 14 2 15 3 16 4 17 5 18 6 19 7 20 8 21 9 22 10 23 11
REMARK SMILES IDX 24 12 25 13 26 14 12 15 11 16 10 17 9 18 8 19 7 20 6 21 5 22
REMARK SMILES IDX 4 23 3 24 2 25 1 26
REMARK H PARENT
REMARK Flexibility Score: inf
ROOT
ATOM      1  C   UNL     1      12.425  22.325  45.493  1.00  0.00     0.000 C 
ENDROOT
BRANCH   1   2
ATOM      2  C   UNL     1      12.142  23.318  44.350  1.00  0.00     0.000 C 
BRANCH   2   3
ATOM      3  C   UNL     1      11.643  22.634  43.069  1.00  0.00     0.000 C 
BRANCH   3   4
ATOM      4  C   UNL     1      10.184  23.007  42.777  1.00  0.00     0.000 C 
BRANCH   4   5
ATOM      5  C   UNL     1       9.889  22.940  41.271  1.00  0.00     0.000 C 
BRANCH   5   6
ATOM      6  C   UNL     1       9.656  21.503  40.772  1.00  0.00     0.000 C 
BRANCH   6   7
ATOM      7  C   UNL     1      10.248  21.194  39.381  1.00  0.00     0.000 C 
BRANCH   7   8
ATOM      8  C   UNL     1      11.323  22.184  38.893  1.00  0.00     0.000 C 
BRANCH   8   9
ATOM      9  C   UNL     1      11.685  22.065  37.402  1.00  0.00     0.000 C 
BRANCH   9  10
ATOM     10  C   UNL     1      13.128  22.507  37.103  1.00  0.00     0.006 C 
BRANCH  10  11
ATOM     11  C   UNL     1      13.216  23.402  35.860  1.00  0.00     0.053 C 
BRANCH  11  12
ATOM     12  C   UNL     1      12.981  22.629  34.599  1.00  0.00     0.041 C 
ATOM     13  O   UNL     1      13.556  21.522  34.418  1.00  0.00    -0.550 OA
ATOM     14  O   UNL     1      12.144  23.138  33.613  1.00  0.00    -0.550 OA
ENDBRANCH  11  12
ENDBRANCH  10  11
ENDBRANCH   9  10
ENDBRANCH   8   9
ENDBRANCH   7   8
ENDBRANCH   6   7
ENDBRANCH   5   6
ENDBRANCH   4   5
ENDBRANCH   3   4
ENDBRANCH   2   3
ENDBRANCH   1   2
BRANCH   1  15
ATOM     15  C   UNL     1      12.865  22.965  46.822  1.00  0.00     0.000 C 
BRANCH  15  16
ATOM     16  C   UNL     1      14.366  23.296  46.862  1.00  0.00     0.000 C 
BRANCH  16  17
ATOM     17  C   UNL     1      15.223  22.229  46.161  1.00  0.00     0.000 C 
BRANCH  17  18
ATOM     18  C   UNL     1      16.664  22.700  45.901  1.00  0.00    -0.000 C 
BRANCH  18  19
ATOM     19  C   UNL     1      17.283  23.415  47.113  1.00  0.00    -0.000 C 
BRANCH  19  20
ATOM     20  C   UNL     1      17.592  22.452  48.271  1.00  0.00    -0.000 C 
BRANCH  20  21
ATOM     21  C   UNL     1      19.033  21.921  48.232  1.00  0.00    -0.000 C 
BRANCH  21  22
ATOM     22  C   UNL     1      20.027  22.835  48.972  1.00  0.00    -0.000 C 
BRANCH  22  23
ATOM     23  C   UNL     1      20.675  23.873  48.030  1.00  0.00    -0.000 C 
BRANCH  23  24
ATOM     24  C   UNL     1      21.454  23.242  46.863  1.00  0.00    -0.000 C 
BRANCH  24  25
ATOM     25  C   UNL     1      20.817  23.527  45.497  1.00  0.00    -0.003 C 
ATOM     26  C   UNL     1      20.698  22.251  44.668  1.00  0.00     0.004 C 
ENDBRANCH  24  25
ENDBRANCH  23  24
ENDBRANCH  22  23
ENDBRANCH  21  22
ENDBRANCH  20  21
ENDBRANCH  19  20
ENDBRANCH  18  19
ENDBRANCH  17  18
ENDBRANCH  16  17
ENDBRANCH  15  16
ENDBRANCH   1  15
TORSDOF 22
ENDMDL
MODEL 2
REMARK VINA RESULT:    -5.354      6.550      9.837
REMARK INTER + INTRA:         -13.795
REMARK INTER:                 -11.911
REMARK INTRA:                  -1.884
REMARK UNBOUND:                -1.555
REMARK SMILES CCCCCCCCCCCCCCCCCCCCCCCC(=O)[O-]
REMARK SMILES IDX 13 1 14 2 15 3 16 4 17 5 18 6 19 7 20 8 21 9 22 10 23 11
REMARK SMILES IDX 24 12 25 13 26 14 12 15 11 16 10 17 9 18 8 19 7 20 6 21 5 22
REMARK SMILES IDX 4 23 3 24 2 25 1 26
REMARK H PARENT
REMARK Flexibility Score: inf
ROOT
ATOM      1  C   UNL     1      15.096  21.867  34.243  1.00  0.00     0.000 C 
ENDROOT
BRANCH   1   2
ATOM      2  C   UNL     1      14.273  23.149  34.464  1.00  0.00     0.000 C 
BRANCH   2   3
ATOM      3  C   UNL     1      12.763  22.934  34.282  1.00  0.00     0.000 C 
BRANCH   3   4
ATOM      4  C   UNL     1      12.269  21.746  35.117  1.00  0.00     0.000 C 
BRANCH   4   5
ATOM      5  C   UNL     1      11.392  22.221  36.285  1.00  0.00     0.000 C 
BRANCH   5   6
ATOM      6  C   UNL     1      12.015  21.925  37.660  1.00  0.00     0.000 C 
BRANCH   6   7
ATOM      7  C   UNL     1      13.347  22.651  37.941  1.00  0.00     0.000 C 
BRANCH   7   8
ATOM      8  C   UNL     1      13.343  23.569  39.179  1.00  0.00     0.000 C 
BRANCH   8   9
ATOM      9  C   UNL     1      12.324  23.185  40.268  1.00  0.00     0.000 C 
BRANCH   9  10
ATOM     10  C   UNL     1      11.233  24.250  40.464  1.00  0.00     0.006 C 
BRANCH  10  11
ATOM     11  C   UNL     1       9.837  23.726  40.104  1.00  0.00     0.053 C 
BRANCH  11  12
ATOM     12  C   UNL     1       9.390  22.642  41.038  1.00  0.00     0.041 C 
ATOM     13  O   UNL     1       9.329  21.449  40.639  1.00  0.00    -0.550 OA
ATOM     14  O   UNL     1       9.021  22.952  42.341  1.00  0.00    -0.550 OA
ENDBRANCH  11  12
ENDBRANCH  10  11
ENDBRANCH   9  10
ENDBRANCH   8   9
ENDBRANCH   7   8
ENDBRANCH   6   7
ENDBRANCH   5   6
ENDBRANCH   4   5
ENDBRANCH   3   4
ENDBRANCH   2   3
ENDBRANCH   1   2
BRANCH   1  15
ATOM     15  C   UNL     1      16.166  21.584  35.313  1.00  0.00     0.000 C 
BRANCH  15  16
ATOM     16  C   UNL     1      17.575  21.411  34.722  1.00  0.00     0.000 C 
BRANCH  16  17
ATOM     17  C   UNL     1      17.731  22.104  33.359  1.00  0.00     0.000 C 
BRANCH  17  18
ATOM     18  C   UNL     1      18.961  21.611  32.577  1.00  0.00    -0.000 C 
BRANCH  18  19
ATOM     19  C   UNL     1      19.857  20.676  33.407  1.00  0.00    -0.000 C 
BRANCH  19  20
ATOM     20  C   UNL     1      21.075  21.402  34.002  1.00  0.00    -0.000 C 
BRANCH  20  21
ATOM     21  C   UNL     1      21.210  21.188  35.517  1.00  0.00    -0.000 C 
BRANCH  21  22
ATOM     22  C   UNL     1      21.957  22.338  36.219  1.00  0.00    -0.000 C 
BRANCH  22  23
ATOM     23  C   UNL     1      22.638  21.878  37.525  1.00  0.00    -0.000 C 
BRANCH  23  24
ATOM     24  C   UNL     1      24.000  21.197  37.301  1.00  0.00    -0.000 C 
BRANCH  24  25
ATOM     25  C   UNL     1      24.897  21.965  36.320  1.00  0.00    -0.003 C 
ATOM     26  C   UNL     1      25.440  23.241  36.957  1.00  0.00     0.004 C 
ENDBRANCH  24  25
ENDBRANCH  23  24
ENDBRANCH  22  23
ENDBRANCH  21  22
ENDBRANCH  20  21
ENDBRANCH  19  20
ENDBRANCH  18  19
ENDBRANCH  17  18
ENDBRANCH  16  17
ENDBRANCH  15  16
ENDBRANCH   1  15
TORSDOF 22
ENDMDL
MODEL 3
REMARK VINA RESULT:    -5.340      5.102     10.626
REMARK INTER + INTRA:         -13.764
REMARK INTER:                 -12.403
REMARK INTRA:                  -1.361
REMARK UNBOUND:                -1.555
REMARK SMILES CCCCCCCCCCCCCCCCCCCCCCCC(=O)[O-]
REMARK SMILES IDX 13 1 14 2 15 3 16 4 17 5 18 6 19 7 20 8 21 9 22 10 23 11
REMARK SMILES IDX 24 12 25 13 26 14 12 15 11 16 10 17 9 18 8 19 7 20 6 21 5 22
REMARK SMILES IDX 4 23 3 24 2 25 1 26
REMARK H PARENT
REMARK Flexibility Score: inf
ROOT
ATOM      1  C   UNL     1      12.511  22.324  37.376  1.00  0.00     0.000 C 
ENDROOT
BRANCH   1   2
ATOM      2  C   UNL     1      12.078  21.839  38.771  1.00  0.00     0.000 C 
BRANCH   2   3
ATOM      3  C   UNL     1      10.590  22.089  39.060  1.00  0.00     0.000 C 
BRANCH   3   4
ATOM      4  C   UNL     1      10.190  21.520  40.427  1.00  0.00     0.000 C 
BRANCH   4   5
ATOM      5  C   UNL     1       9.564  22.606  41.315  1.00  0.00     0.000 C 
BRANCH   5   6
ATOM      6  C   UNL     1      10.317  22.798  42.644  1.00  0.00     0.000 C 
BRANCH   6   7
ATOM      7  C   UNL     1      11.840  22.996  42.506  1.00  0.00     0.000 C 
BRANCH   7   8
ATOM      8  C   UNL     1      12.684  22.387  43.642  1.00  0.00     0.000 C 
BRANCH   8   9
ATOM      9  C   UNL     1      12.038  22.454  45.038  1.00  0.00     0.000 C 
BRANCH   9  10
ATOM     10  C   UNL     1      12.986  21.991  46.156  1.00  0.00     0.006 C 
BRANCH  10  11
ATOM     11  C   UNL     1      13.583  23.169  46.937  1.00  0.00     0.053 C 
BRANCH  11  12
ATOM     12  C   UNL     1      15.062  23.286  46.724  1.00  0.00     0.041 C 
ATOM     13  O   UNL     1      15.525  23.418  45.560  1.00  0.00    -0.550 OA
ATOM     14  O   UNL     1      15.930  23.228  47.808  1.00  0.00    -0.550 OA
ENDBRANCH  11  12
ENDBRANCH  10  11
ENDBRANCH   9  10
ENDBRANCH   8   9
ENDBRANCH   7   8
ENDBRANCH   6   7
ENDBRANCH   5   6
ENDBRANCH   4   5
ENDBRANCH   3   4
ENDBRANCH   2   3
ENDBRANCH   1   2
BRANCH   1  15
ATOM     15  C   UNL     1      11.438  22.199  36.278  1.00  0.00     0.000 C 
BRANCH  15  16
ATOM     16  C   UNL     1      12.015  21.761  34.921  1.00  0.00     0.000 C 
BRANCH  16  17
ATOM     17  C   UNL     1      13.434  22.302  34.682  1.00  0.00     0.000 C 
BRANCH  17  18
ATOM     18  C   UNL     1      14.494  21.189  34.620  1.00  0.00    -0.000 C 
BRANCH  18  19
ATOM     19  C   UNL     1      15.925  21.720  34.803  1.00  0.00    -0.000 C 
BRANCH  19  20
ATOM     20  C   UNL     1      16.590  22.095  33.468  1.00  0.00    -0.000 C 
BRANCH  20  21
ATOM     21  C   UNL     1      18.101  22.335  33.605  1.00  0.00    -0.000 C 
BRANCH  21  22
ATOM     22  C   UNL     1      18.904  21.780  32.414  1.00  0.00    -0.000 C 
BRANCH  22  23
ATOM     23  C   UNL     1      19.933  20.716  32.851  1.00  0.00    -0.000 C 
BRANCH  23  24
ATOM     24  C   UNL     1      20.206  20.712  34.365  1.00  0.00    -0.000 C 
BRANCH  24  25
ATOM     25  C   UNL     1      21.491  21.461  34.743  1.00  0.00    -0.003 C 
ATOM     26  C   UNL     1      21.283  22.315  35.991  1.00  0.00     0.004 C 
ENDBRANCH  24  25
ENDBRANCH  23  24
ENDBRANCH  22  23
ENDBRANCH  21  22
ENDBRANCH  20  21
ENDBRANCH  19  20
ENDBRANCH  18  19
ENDBRANCH  17  18
ENDBRANCH  16  17
ENDBRANCH  15  16
ENDBRANCH   1  15
TORSDOF 22
ENDMDL
MODEL 4
REMARK VINA RESULT:    -5.336      5.633     10.176
REMARK INTER + INTRA:         -13.755
REMARK INTER:                 -12.737
REMARK INTRA:                  -1.017
REMARK UNBOUND:                -1.555
REMARK SMILES CCCCCCCCCCCCCCCCCCCCCCCC(=O)[O-]
REMARK SMILES IDX 13 1 14 2 15 3 16 4 17 5 18 6 19 7 20 8 21 9 22 10 23 11
REMARK SMILES IDX 24 12 25 13 26 14 12 15 11 16 10 17 9 18 8 19 7 20 6 21 5 22
REMARK SMILES IDX 4 23 3 24 2 25 1 26
REMARK H PARENT
REMARK Flexibility Score: inf
ROOT
ATOM      1  C   UNL     1      12.626  21.534  34.653  1.00  0.00     0.000 C 
ENDROOT
BRANCH   1   2
ATOM      2  C   UNL     1      11.854  21.936  35.924  1.00  0.00     0.000 C 
BRANCH   2   3
ATOM      3  C   UNL     1      12.712  22.726  36.924  1.00  0.00     0.000 C 
BRANCH   3   4
ATOM      4  C   UNL     1      12.345  22.369  38.369  1.00  0.00     0.000 C 
BRANCH   4   5
ATOM      5  C   UNL     1      10.823  22.260  38.540  1.00  0.00     0.000 C 
BRANCH   5   6
ATOM      6  C   UNL     1      10.407  21.106  39.472  1.00  0.00     0.000 C 
BRANCH   6   7
ATOM      7  C   UNL     1       9.614  21.535  40.723  1.00  0.00     0.000 C 
BRANCH   7   8
ATOM      8  C   UNL     1       9.943  22.943  41.256  1.00  0.00     0.000 C 
BRANCH   8   9
ATOM      9  C   UNL     1      10.501  22.980  42.690  1.00  0.00     0.000 C 
BRANCH   9  10
ATOM     10  C   UNL     1      11.998  22.635  42.755  1.00  0.00     0.006 C 
BRANCH  10  11
ATOM     11  C   UNL     1      12.677  23.222  44.000  1.00  0.00     0.053 C 
BRANCH  11  12
ATOM     12  C   UNL     1      12.959  22.171  45.029  1.00  0.00     0.041 C 
ATOM     13  O   UNL     1      12.078  21.860  45.874  1.00  0.00    -0.550 OA
ATOM     14  O   UNL     1      14.202  21.550  45.070  1.00  0.00    -0.550 OA
ENDBRANCH  11  12
ENDBRANCH  10  11
ENDBRANCH   9  10
ENDBRANCH   8   9
ENDBRANCH   7   8
ENDBRANCH   6   7
ENDBRANCH   5   6
ENDBRANCH   4   5
ENDBRANCH   3   4
ENDBRANCH   2   3
ENDBRANCH   1   2
BRANCH   1  15
ATOM     15  C   UNL     1      14.116  21.210  34.868  1.00  0.00     0.000 C 
BRANCH  15  16
ATOM     16  C   UNL     1      15.040  22.399  34.556  1.00  0.00     0.000 C 
BRANCH  16  17
ATOM     17  C   UNL     1      16.528  22.013  34.591  1.00  0.00     0.000 C 
BRANCH  17  18
ATOM     18  C   UNL     1      17.146  21.898  33.186  1.00  0.00    -0.000 C 
BRANCH  18  19
ATOM     19  C   UNL     1      18.586  22.435  33.125  1.00  0.00    -0.000 C 
BRANCH  19  20
ATOM     20  C   UNL     1      19.610  21.338  32.788  1.00  0.00    -0.000 C 
BRANCH  20  21
ATOM     21  C   UNL     1      20.393  20.860  34.021  1.00  0.00    -0.000 C 
BRANCH  21  22
ATOM     22  C   UNL     1      21.342  21.936  34.579  1.00  0.00    -0.000 C 
BRANCH  22  23
ATOM     23  C   UNL     1      22.083  21.456  35.847  1.00  0.00    -0.000 C 
BRANCH  23  24
ATOM     24  C   UNL     1      23.079  22.488  36.403  1.00  0.00    -0.000 C 
BRANCH  24  25
ATOM     25  C   UNL     1      24.462  21.888  36.691  1.00  0.00    -0.003 C 
ATOM     26  C   UNL     1      25.536  22.972  36.723  1.00  0.00     0.004 C 
ENDBRANCH  24  25
ENDBRANCH  23  24
ENDBRANCH  22  23
ENDBRANCH  21  22
ENDBRANCH  20  21
ENDBRANCH  19  20
ENDBRANCH  18  19
ENDBRANCH  17  18
ENDBRANCH  16  17
ENDBRANCH  15  16
ENDBRANCH   1  15
TORSDOF 22
ENDMDL
MODEL 5
REMARK VINA RESULT:    -5.324      5.567      9.898
REMARK INTER + INTRA:         -13.725
REMARK INTER:                 -12.491
REMARK INTRA:                  -1.234
REMARK UNBOUND:                -1.555
REMARK SMILES CCCCCCCCCCCCCCCCCCCCCCCC(=O)[O-]
REMARK SMILES IDX 13 1 14 2 15 3 16 4 17 5 18 6 19 7 20 8 21 9 22 10 23 11
REMARK SMILES IDX 24 12 25 13 26 14 12 15 11 16 10 17 9 18 8 19 7 20 6 21 5 22
REMARK SMILES IDX 4 23 3 24 2 25 1 26
REMARK H PARENT
REMARK Flexibility Score: inf
ROOT
ATOM      1  C   UNL     1      14.971  21.431  35.183  1.00  0.00     0.000 C 
ENDROOT
BRANCH   1   2
ATOM      2  C   UNL     1      13.762  20.770  34.495  1.00  0.00     0.000 C 
BRANCH   2   3
ATOM      3  C   UNL     1      12.429  21.454  34.833  1.00  0.00     0.000 C 
BRANCH   3   4
ATOM      4  C   UNL     1      12.577  22.383  36.045  1.00  0.00     0.000 C 
BRANCH   4   5
ATOM      5  C   UNL     1      11.354  22.283  36.968  1.00  0.00     0.000 C 
BRANCH   5   6
ATOM      6  C   UNL     1      11.681  21.629  38.323  1.00  0.00     0.000 C 
BRANCH   6   7
ATOM      7  C   UNL     1      10.496  21.545  39.307  1.00  0.00     0.000 C 
BRANCH   7   8
ATOM      8  C   UNL     1      10.044  22.893  39.903  1.00  0.00     0.000 C 
BRANCH   8   9
ATOM      9  C   UNL     1       9.195  22.784  41.183  1.00  0.00     0.000 C 
BRANCH   9  10
ATOM     10  C   UNL     1      10.026  22.960  42.465  1.00  0.00     0.006 C 
BRANCH  10  11
ATOM     11  C   UNL     1      11.493  23.293  42.166  1.00  0.00     0.053 C 
BRANCH  11  12
ATOM     12  C   UNL     1      12.422  22.242  42.693  1.00  0.00     0.041 C 
ATOM     13  O   UNL     1      12.695  21.230  41.994  1.00  0.00    -0.550 OA
ATOM     14  O   UNL     1      12.968  22.367  43.965  1.00  0.00    -0.550 OA
ENDBRANCH  11  12
ENDBRANCH  10  11
ENDBRANCH   9  10
ENDBRANCH   8   9
ENDBRANCH   7   8
ENDBRANCH   6   7
ENDBRANCH   5   6
ENDBRANCH   4   5
ENDBRANCH   3   4
ENDBRANCH   2   3
ENDBRANCH   1   2
BRANCH   1  15
ATOM     15  C   UNL     1      15.860  22.286  34.262  1.00  0.00     0.000 C 
BRANCH  15  16
ATOM     16  C   UNL     1      17.222  21.636  33.969  1.00  0.00     0.000 C 
BRANCH  16  17
ATOM     17  C   UNL     1      17.765  22.005  32.579  1.00  0.00     0.000 C 
BRANCH  17  18
ATOM     18  C   UNL     1      19.295  21.873  32.482  1.00  0.00    -0.000 C 
BRANCH  18  19
ATOM     19  C   UNL     1      20.006  22.236  33.797  1.00  0.00    -0.000 C 
BRANCH  19  20
ATOM     20  C   UNL     1      21.150  21.264  34.134  1.00  0.00    -0.000 C 
BRANCH  20  21
ATOM     21  C   UNL     1      22.259  21.922  34.970  1.00  0.00    -0.000 C 
BRANCH  21  22
ATOM     22  C   UNL     1      21.803  22.269  36.399  1.00  0.00    -0.000 C 
BRANCH  22  23
ATOM     23  C   UNL     1      22.090  21.125  37.395  1.00  0.00    -0.000 C 
BRANCH  23  24
ATOM     24  C   UNL     1      23.290  21.401  38.317  1.00  0.00    -0.000 C 
BRANCH  24  25
ATOM     25  C   UNL     1      24.612  20.858  37.756  1.00  0.00    -0.003 C 
ATOM     26  C   UNL     1      25.310  21.901  36.888  1.00  0.00     0.004 C 
ENDBRANCH  24  25
ENDBRANCH  23  24
ENDBRANCH  22  23
ENDBRANCH  21  22
ENDBRANCH  20  21
ENDBRANCH  19  20
ENDBRANCH  18  19
ENDBRANCH  17  18
ENDBRANCH  16  17
ENDBRANCH  15  16
ENDBRANCH   1  15
TORSDOF 22
ENDMDL
MODEL 6
REMARK VINA RESULT:    -5.297      1.408      3.438
REMARK INTER + INTRA:         -13.664
REMARK INTER:                 -11.528
REMARK INTRA:                  -2.136
REMARK UNBOUND:                -1.555
REMARK SMILES CCCCCCCCCCCCCCCCCCCCCCCC(=O)[O-]
REMARK SMILES IDX 13 1 14 2 15 3 16 4 17 5 18 6 19 7 20 8 21 9 22 10 23 11
REMARK SMILES IDX 24 12 25 13 26 14 12 15 11 16 10 17 9 18 8 19 7 20 6 21 5 22
REMARK SMILES IDX 4 23 3 24 2 25 1 26
REMARK H PARENT
REMARK Flexibility Score: inf
ROOT
ATOM      1  C   UNL     1      14.384  22.666  47.083  1.00  0.00     0.000 C 
ENDROOT
BRANCH   1   2
ATOM      2  C   UNL     1      13.057  23.326  47.500  1.00  0.00     0.000 C 
BRANCH   2   3
ATOM      3  C   UNL     1      12.427  24.168  46.380  1.00  0.00     0.000 C 
BRANCH   3   4
ATOM      4  C   UNL     1      12.954  23.741  45.005  1.00  0.00     0.000 C 
BRANCH   4   5
ATOM      5  C   UNL     1      12.079  22.634  44.398  1.00  0.00     0.000 C 
BRANCH   5   6
ATOM      6  C   UNL     1      11.616  22.956  42.966  1.00  0.00     0.000 C 
BRANCH   6   7
ATOM      7  C   UNL     1      10.088  22.941  42.758  1.00  0.00     0.000 C 
BRANCH   7   8
ATOM      8  C   UNL     1       9.628  22.824  41.291  1.00  0.00     0.000 C 
BRANCH   8   9
ATOM      9  C   UNL     1       9.754  21.416  40.683  1.00  0.00     0.000 C 
BRANCH   9  10
ATOM     10  C   UNL     1      10.344  21.432  39.262  1.00  0.00     0.006 C 
BRANCH  10  11
ATOM     11  C   UNL     1      11.602  22.304  39.164  1.00  0.00     0.053 C 
BRANCH  11  12
ATOM     12  C   UNL     1      12.405  21.989  37.939  1.00  0.00     0.041 C 
ATOM     13  O   UNL     1      11.905  22.157  36.795  1.00  0.00    -0.550 OA
ATOM     14  O   UNL     1      13.696  21.489  38.060  1.00  0.00    -0.550 OA
ENDBRANCH  11  12
ENDBRANCH  10  11
ENDBRANCH   9  10
ENDBRANCH   8   9
ENDBRANCH   7   8
ENDBRANCH   6   7
ENDBRANCH   5   6
ENDBRANCH   4   5
ENDBRANCH   3   4
ENDBRANCH   2   3
ENDBRANCH   1   2
BRANCH   1  15
ATOM     15  C   UNL     1      15.652  23.333  47.648  1.00  0.00     0.000 C 
BRANCH  15  16
ATOM     16  C   UNL     1      16.858  23.230  46.698  1.00  0.00     0.000 C 
BRANCH  16  17
ATOM     17  C   UNL     1      16.585  22.310  45.497  1.00  0.00     0.000 C 
BRANCH  17  18
ATOM     18  C   UNL     1      17.784  21.410  45.153  1.00  0.00    -0.000 C 
BRANCH  18  19
ATOM     19  C   UNL     1      18.266  21.592  43.704  1.00  0.00    -0.000 C 
BRANCH  19  20
ATOM     20  C   UNL     1      19.766  21.921  43.619  1.00  0.00    -0.000 C 
BRANCH  20  21
ATOM     21  C   UNL     1      20.462  21.868  44.988  1.00  0.00    -0.000 C 
BRANCH  21  22
ATOM     22  C   UNL     1      20.991  23.240  45.443  1.00  0.00    -0.000 C 
BRANCH  22  23
ATOM     23  C   UNL     1      21.378  23.248  46.937  1.00  0.00    -0.000 C 
BRANCH  23  24
ATOM     24  C   UNL     1      20.351  23.961  47.834  1.00  0.00    -0.000 C 
BRANCH  24  25
ATOM     25  C   UNL     1      19.936  23.122  49.050  1.00  0.00    -0.003 C 
ATOM     26  C   UNL     1      19.333  21.788  48.618  1.00  0.00     0.004 C 
ENDBRANCH  24  25
ENDBRANCH  23  24
ENDBRANCH  22  23
ENDBRANCH  21  22
ENDBRANCH  20  21
ENDBRANCH  19  20
ENDBRANCH  18  19
ENDBRANCH  17  18
ENDBRANCH  16  17
ENDBRANCH  15  16
ENDBRANCH   1  15
TORSDOF 22
ENDMDL
MODEL 7
REMARK VINA RESULT:    -5.282      5.962     12.205
REMARK INTER + INTRA:         -13.631
REMARK INTER:                 -12.405
REMARK INTRA:                  -1.226
REMARK UNBOUND:                -1.555
REMARK SMILES CCCCCCCCCCCCCCCCCCCCCCCC(=O)[O-]
REMARK SMILES IDX 13 1 14 2 15 3 16 4 17 5 18 6 19 7 20 8 21 9 22 10 23 11
REMARK SMILES IDX 24 12 25 13 26 14 12 15 11 16 10 17 9 18 8 19 7 20 6 21 5 22
REMARK SMILES IDX 4 23 3 24 2 25 1 26
REMARK H PARENT
REMARK Flexibility Score: inf
ROOT
ATOM      1  C   UNL     1      17.017  21.845  34.352  1.00  0.00     0.000 C 
ENDROOT
BRANCH   1   2
ATOM      2  C   UNL     1      17.574  22.163  32.953  1.00  0.00     0.000 C 
BRANCH   2   3
ATOM      3  C   UNL     1      18.979  21.589  32.719  1.00  0.00     0.000 C 
BRANCH   3   4
ATOM      4  C   UNL     1      19.435  20.743  33.915  1.00  0.00     0.000 C 
BRANCH   4   5
ATOM      5  C   UNL     1      20.967  20.730  34.028  1.00  0.00     0.000 C 
BRANCH   5   6
ATOM      6  C   UNL     1      21.527  21.996  34.700  1.00  0.00     0.000 C 
BRANCH   6   7
ATOM      7  C   UNL     1      22.590  21.740  35.787  1.00  0.00     0.000 C 
BRANCH   7   8
ATOM      8  C   UNL     1      24.002  22.263  35.458  1.00  0.00     0.000 C 
BRANCH   8   9
ATOM      9  C   UNL     1      25.057  22.016  36.551  1.00  0.00     0.000 C 
BRANCH   9  10
ATOM     10  C   UNL     1      24.766  22.795  37.845  1.00  0.00     0.006 C 
BRANCH  10  11
ATOM     11  C   UNL     1      24.493  21.865  39.035  1.00  0.00     0.053 C 
BRANCH  11  12
ATOM     12  C   UNL     1      23.184  22.175  39.694  1.00  0.00     0.041 C 
ATOM     13  O   UNL     1      22.158  21.499  39.412  1.00  0.00    -0.550 OA
ATOM     14  O   UNL     1      23.090  23.222  40.603  1.00  0.00    -0.550 OA
ENDBRANCH  11  12
ENDBRANCH  10  11
ENDBRANCH   9  10
ENDBRANCH   8   9
ENDBRANCH   7   8
ENDBRANCH   6   7
ENDBRANCH   5   6
ENDBRANCH   4   5
ENDBRANCH   3   4
ENDBRANCH   2   3
ENDBRANCH   1   2
BRANCH   1  15
ATOM     15  C   UNL     1      15.511  22.112  34.534  1.00  0.00     0.000 C 
BRANCH  15  16
ATOM     16  C   UNL     1      14.810  21.042  35.387  1.00  0.00     0.000 C 
BRANCH  16  17
ATOM     17  C   UNL     1      13.310  20.926  35.071  1.00  0.00     0.000 C 
BRANCH  17  18
ATOM     18  C   UNL     1      12.538  22.224  35.366  1.00  0.00    -0.000 C 
BRANCH  18  19
ATOM     19  C   UNL     1      11.420  22.027  36.404  1.00  0.00    -0.000 C 
BRANCH  19  20
ATOM     20  C   UNL     1      11.943  22.075  37.849  1.00  0.00    -0.000 C 
BRANCH  20  21
ATOM     21  C   UNL     1      10.869  22.523  38.853  1.00  0.00    -0.000 C 
BRANCH  21  22
ATOM     22  C   UNL     1      10.432  21.394  39.804  1.00  0.00    -0.000 C 
BRANCH  22  23
ATOM     23  C   UNL     1       9.434  21.888  40.873  1.00  0.00    -0.000 C 
BRANCH  23  24
ATOM     24  C   UNL     1      10.070  22.815  41.924  1.00  0.00    -0.000 C 
BRANCH  24  25
ATOM     25  C   UNL     1      11.368  22.249  42.513  1.00  0.00    -0.003 C 
ATOM     26  C   UNL     1      12.472  23.304  42.527  1.00  0.00     0.004 C 
ENDBRANCH  24  25
ENDBRANCH  23  24
ENDBRANCH  22  23
ENDBRANCH  21  22
ENDBRANCH  20  21
ENDBRANCH  19  20
ENDBRANCH  18  19
ENDBRANCH  17  18
ENDBRANCH  16  17
ENDBRANCH  15  16
ENDBRANCH   1  15
TORSDOF 22
ENDMDL
MODEL 8
REMARK VINA RESULT:    -5.277      3.909     10.718
REMARK INTER + INTRA:         -13.619
REMARK INTER:                 -12.014
REMARK INTRA:                  -1.605
REMARK UNBOUND:                -1.555
REMARK SMILES CCCCCCCCCCCCCCCCCCCCCCCC(=O)[O-]
REMARK SMILES IDX 13 1 14 2 15 3 16 4 17 5 18 6 19 7 20 8 21 9 22 10 23 11
REMARK SMILES IDX 24 12 25 13 26 14 12 15 11 16 10 17 9 18 8 19 7 20 6 21 5 22
REMARK SMILES IDX 4 23 3 24 2 25 1 26
REMARK H PARENT
REMARK Flexibility Score: inf
ROOT
ATOM      1  C   UNL     1      13.605  24.324  44.852  1.00  0.00     0.000 C 
ENDROOT
BRANCH   1   2
ATOM      2  C   UNL     1      12.594  24.304  46.014  1.00  0.00     0.000 C 
BRANCH   2   3
ATOM      3  C   UNL     1      13.139  23.612  47.272  1.00  0.00     0.000 C 
BRANCH   3   4
ATOM      4  C   UNL     1      14.319  22.694  46.931  1.00  0.00     0.000 C 
BRANCH   4   5
ATOM      5  C   UNL     1      15.577  23.100  47.712  1.00  0.00     0.000 C 
BRANCH   5   6
ATOM      6  C   UNL     1      16.750  23.491  46.795  1.00  0.00     0.000 C 
BRANCH   6   7
ATOM      7  C   UNL     1      18.005  22.606  46.930  1.00  0.00     0.000 C 
BRANCH   7   8
ATOM      8  C   UNL     1      18.406  22.256  48.377  1.00  0.00     0.000 C 
BRANCH   8   9
ATOM      9  C   UNL     1      19.747  22.854  48.841  1.00  0.00     0.000 C 
BRANCH   9  10
ATOM     10  C   UNL     1      20.316  23.880  47.846  1.00  0.00     0.006 C 
BRANCH  10  11
ATOM     11  C   UNL     1      21.551  23.350  47.106  1.00  0.00     0.053 C 
BRANCH  11  12
ATOM     12  C   UNL     1      21.316  23.250  45.630  1.00  0.00     0.041 C 
ATOM     13  O   UNL     1      20.668  24.149  45.031  1.00  0.00    -0.550 OA
ATOM     14  O   UNL     1      21.792  22.155  44.920  1.00  0.00    -0.550 OA
ENDBRANCH  11  12
ENDBRANCH  10  11
ENDBRANCH   9  10
ENDBRANCH   8   9
ENDBRANCH   7   8
ENDBRANCH   6   7
ENDBRANCH   5   6
ENDBRANCH   4   5
ENDBRANCH   3   4
ENDBRANCH   2   3
ENDBRANCH   1   2
BRANCH   1  15
ATOM     15  C   UNL     1      13.103  23.697  43.538  1.00  0.00     0.000 C 
BRANCH  15  16
ATOM     16  C   UNL     1      11.908  22.750  43.743  1.00  0.00     0.000 C 
BRANCH  16  17
ATOM     17  C   UNL     1      11.343  22.219  42.415  1.00  0.00     0.000 C 
BRANCH  17  18
ATOM     18  C   UNL     1      10.062  22.952  41.978  1.00  0.00    -0.000 C 
BRANCH  18  19
ATOM     19  C   UNL     1       9.559  22.496  40.598  1.00  0.00    -0.000 C 
BRANCH  19  20
ATOM     20  C   UNL     1      10.543  21.544  39.898  1.00  0.00    -0.000 C 
BRANCH  20  21
ATOM     21  C   UNL     1      10.779  21.913  38.426  1.00  0.00    -0.000 C 
BRANCH  21  22
ATOM     22  C   UNL     1      12.190  22.474  38.169  1.00  0.00    -0.000 C 
BRANCH  22  23
ATOM     23  C   UNL     1      13.233  21.354  37.966  1.00  0.00    -0.000 C 
BRANCH  23  24
ATOM     24  C   UNL     1      13.795  21.291  36.535  1.00  0.00    -0.000 C 
BRANCH  24  25
ATOM     25  C   UNL     1      12.701  21.139  35.470  1.00  0.00    -0.003 C 
ATOM     26  C   UNL     1      12.667  22.348  34.539  1.00  0.00     0.004 C 
ENDBRANCH  24  25
ENDBRANCH  23  24
ENDBRANCH  22  23
ENDBRANCH  21  22
ENDBRANCH  20  21
ENDBRANCH  19  20
ENDBRANCH  18  19
ENDBRANCH  17  18
ENDBRANCH  16  17
ENDBRANCH  15  16
ENDBRANCH   1  15
TORSDOF 22
ENDMDL
MODEL 9
REMARK VINA RESULT:    -5.241      4.915      9.539
REMARK INTER + INTRA:         -13.537
REMARK INTER:                 -12.269
REMARK INTRA:                  -1.268
REMARK UNBOUND:                -1.555
REMARK SMILES CCCCCCCCCCCCCCCCCCCCCCCC(=O)[O-]
REMARK SMILES IDX 13 1 14 2 15 3 16 4 17 5 18 6 19 7 20 8 21 9 22 10 23 11
REMARK SMILES IDX 24 12 25 13 26 14 12 15 11 16 10 17 9 18 8 19 7 20 6 21 5 22
REMARK SMILES IDX 4 23 3 24 2 25 1 26
REMARK H PARENT
REMARK Flexibility Score: inf
ROOT
ATOM      1  C   UNL     1      12.093  21.866  34.735  1.00  0.00     0.000 C 
ENDROOT
BRANCH   1   2
ATOM      2  C   UNL     1      13.140  20.764  34.980  1.00  0.00     0.000 C 
BRANCH   2   3
ATOM      3  C   UNL     1      14.526  21.115  34.419  1.00  0.00     0.000 C 
BRANCH   3   4
ATOM      4  C   UNL     1      15.000  22.480  34.934  1.00  0.00     0.000 C 
BRANCH   4   5
ATOM      5  C   UNL     1      16.470  22.421  35.376  1.00  0.00     0.000 C 
BRANCH   5   6
ATOM      6  C   UNL     1      17.340  21.559  34.444  1.00  0.00     0.000 C 
BRANCH   6   7
ATOM      7  C   UNL     1      18.038  22.331  33.306  1.00  0.00     0.000 C 
BRANCH   7   8
ATOM      8  C   UNL     1      19.145  21.552  32.569  1.00  0.00     0.000 C 
BRANCH   8   9
ATOM      9  C   UNL     1      20.283  21.036  33.468  1.00  0.00     0.000 C 
BRANCH   9  10
ATOM     10  C   UNL     1      20.739  22.075  34.506  1.00  0.00     0.006 C 
BRANCH  10  11
ATOM     11  C   UNL     1      22.167  21.814  35.001  1.00  0.00     0.053 C 
BRANCH  11  12
ATOM     12  C   UNL     1      22.375  22.321  36.396  1.00  0.00     0.041 C 
ATOM     13  O   UNL     1      23.462  22.873  36.713  1.00  0.00    -0.550 OA
ATOM     14  O   UNL     1      21.377  22.164  37.351  1.00  0.00    -0.550 OA
ENDBRANCH  11  12
ENDBRANCH  10  11
ENDBRANCH   9  10
ENDBRANCH   8   9
ENDBRANCH   7   8
ENDBRANCH   6   7
ENDBRANCH   5   6
ENDBRANCH   4   5
ENDBRANCH   3   4
ENDBRANCH   2   3
ENDBRANCH   1   2
BRANCH   1  15
ATOM     15  C   UNL     1      11.254  22.257  35.966  1.00  0.00     0.000 C 
BRANCH  15  16
ATOM     16  C   UNL     1      12.079  22.307  37.263  1.00  0.00     0.000 C 
BRANCH  16  17
ATOM     17  C   UNL     1      11.294  21.793  38.481  1.00  0.00     0.000 C 
BRANCH  17  18
ATOM     18  C   UNL     1      10.802  22.928  39.395  1.00  0.00    -0.000 C 
BRANCH  18  19
ATOM     19  C   UNL     1       9.739  22.461  40.403  1.00  0.00    -0.000 C 
BRANCH  19  20
ATOM     20  C   UNL     1      10.001  22.991  41.823  1.00  0.00    -0.000 C 
BRANCH  20  21
ATOM     21  C   UNL     1      11.178  22.283  42.511  1.00  0.00    -0.000 C 
BRANCH  21  22
ATOM     22  C   UNL     1      12.368  23.223  42.775  1.00  0.00    -0.000 C 
BRANCH  22  23
ATOM     23  C   UNL     1      13.137  22.842  44.059  1.00  0.00    -0.000 C 
BRANCH  23  24
ATOM     24  C   UNL     1      12.235  22.274  45.169  1.00  0.00    -0.000 C 
BRANCH  24  25
ATOM     25  C   UNL     1      12.669  22.714  46.574  1.00  0.00    -0.003 C 
ATOM     26  C   UNL     1      12.536  24.225  46.742  1.00  0.00     0.004 C 
ENDBRANCH  24  25
ENDBRANCH  23  24
ENDBRANCH  22  23
ENDBRANCH  21  22
ENDBRANCH  20  21
ENDBRANCH  19  20
ENDBRANCH  18  19
ENDBRANCH  17  18
ENDBRANCH  16  17
ENDBRANCH  15  16
ENDBRANCH   1  15
TORSDOF 22
ENDMDL
