MODEL 1
REMARK VINA RESULT:    -6.237      0.000      0.000
REMARK INTER + INTRA:         -12.920
REMARK INTER:                  -9.883
REMARK INTRA:                  -3.037
REMARK UNBOUND:                -3.037
REMARK SMILES C[C@H]1O[C@@H](O[C@@H]2CC[C@]3(C)[C@H](CC[C@]4(C)[C@H]3C=C[C@@]35OC[C@]6(CCC(C)(C)C[C@H]63)[C@@H](O)C[C@@]45C)[C@]2(C)CO)[C@@H](O)[C@@H](O[C@@H]2O[C@H](CO)[C@@H](O)[C@H](O)[C@@H]2O)[C@@H]1O
REMARK SMILES IDX 1 1 2 2 54 3 41 4 39 5 4 6 3 7 55 8 42 10 43 11 52 12 44 13
REMARK SMILES IDX 50 14 45 15 48 16 53 17 51 19 46 21 47 22 49 24 5 26 6 27
REMARK SMILES IDX 7 28 35 29 8 30 11 31 36 32 9 33 12 34 10 35 16 36 13 37
REMARK SMILES IDX 14 38 17 39 15 40 33 41 18 42 19 43 32 44 34 45 29 46 20 47
REMARK SMILES IDX 30 48 22 49 28 50 21 51 23 52 25 53 24 54 26 55 27 56 37 57
REMARK SMILES IDX 38 58 31 60 40 62
REMARK H PARENT 55 9 53 18 51 20 47 23 49 25 38 59 31 61 40 63
REMARK Flexibility Score: inf
ROOT
ATOM      1  C   UNL     1     -10.116  -6.190  90.847  1.00  0.00     0.041 C 
ATOM      2  C   UNL     1      -9.116  -7.355  90.760  1.00  0.00     0.150 C 
ATOM      3  C   UNL     1      -9.291  -8.204  89.480  1.00  0.00     0.175 C 
ATOM      4  C   UNL     1     -10.453  -9.228  89.581  1.00  0.00     0.186 C 
ATOM      5  C   UNL     1     -10.431  -9.926  90.960  1.00  0.00     0.202 C 
ATOM      6  C   UNL     1     -10.179  -8.976  92.154  1.00  0.00     0.282 C 
ATOM      7  O   UNL     1      -9.057  -8.138  91.944  1.00  0.00    -0.344 OA
ENDROOT
BRANCH   3   8
ATOM      8  O   UNL     1      -8.091  -8.879  89.169  1.00  0.00    -0.388 OA
ATOM      9  H   UNL     1      -7.820  -9.414  89.958  1.00  0.00     0.211 HD
ENDBRANCH   3   8
BRANCH   4  10
ATOM     10  O   UNL     1     -11.738  -8.658  89.355  1.00  0.00    -0.341 OA
BRANCH  10  11
ATOM     11  C   UNL     1     -12.263  -8.892  88.044  1.00  0.00     0.282 C 
ATOM     12  C   UNL     1     -13.135 -10.164  87.901  1.00  0.00     0.202 C 
ATOM     13  O   UNL     1     -12.972  -7.741  87.601  1.00  0.00    -0.341 OA
ATOM     14  C   UNL     1     -14.471 -10.051  88.675  1.00  0.00     0.179 C 
ATOM     15  C   UNL     1     -14.199  -7.504  88.302  1.00  0.00     0.178 C 
ATOM     16  C   UNL     1     -15.180  -8.721  88.315  1.00  0.00     0.177 C 
BRANCH  12  17
ATOM     17  O   UNL     1     -12.432 -11.332  88.252  1.00  0.00    -0.385 OA
ATOM     18  H   UNL     1     -11.893 -11.117  89.061  1.00  0.00     0.211 HD
ENDBRANCH  12  17
BRANCH  14  19
ATOM     19  O   UNL     1     -14.341 -10.140  90.077  1.00  0.00    -0.387 OA
ATOM     20  H   UNL     1     -13.730  -9.422  90.395  1.00  0.00     0.211 HD
ENDBRANCH  14  19
BRANCH  15  21
ATOM     21  C   UNL     1     -13.977  -6.881  89.696  1.00  0.00     0.191 C 
BRANCH  21  22
ATOM     22  O   UNL     1     -15.052  -7.210  90.553  1.00  0.00    -0.394 OA
ATOM     23  H   UNL     1     -14.684  -7.189  91.483  1.00  0.00     0.210 HD
ENDBRANCH  21  22
ENDBRANCH  15  21
BRANCH  16  24
ATOM     24  O   UNL     1     -15.854  -8.845  87.083  1.00  0.00    -0.387 OA
ATOM     25  H   UNL     1     -15.295  -8.429  86.365  1.00  0.00     0.211 HD
ENDBRANCH  16  24
ENDBRANCH  10  11
ENDBRANCH   4  10
BRANCH   6  26
ATOM     26  O   UNL     1     -11.312  -8.187  92.490  1.00  0.00    -0.346 OA
BRANCH  26  27
ATOM     27  C   UNL     1     -11.382  -7.805  93.861  1.00  0.00     0.130 C 
ATOM     28  C   UNL     1     -10.425  -8.745  94.612  1.00  0.00     0.033 C 
ATOM     29  C   UNL     1     -12.858  -7.881  94.421  1.00  0.00     0.020 C 
ATOM     30  C   UNL     1     -10.430  -8.516  96.118  1.00  0.00     0.010 C 
ATOM     31  C   UNL     1     -12.827  -7.787  96.028  1.00  0.00     0.006 C 
ATOM     32  C   UNL     1     -13.625  -6.627  93.898  1.00  0.00     0.017 C 
ATOM     33  C   UNL     1     -11.826  -8.715  96.792  1.00  0.00    -0.022 C 
ATOM     34  C   UNL     1     -14.194  -7.825  96.739  1.00  0.00     0.005 C 
ATOM     35  C   UNL     1     -12.205 -10.223  96.687  1.00  0.00     0.012 C 
ATOM     36  C   UNL     1     -11.715  -8.259  98.331  1.00  0.00     0.024 C 
ATOM     37  C   UNL     1     -14.133  -7.145  98.104  1.00  0.00     0.008 C 
ATOM     38  C   UNL     1     -12.970  -7.595  99.092  1.00  0.00    -0.017 C 
ATOM     39  C   UNL     1     -10.954  -9.280  99.165  1.00  0.00    -0.024 C 
ATOM     40  C   UNL     1     -12.433  -6.245  99.680  1.00  0.00     0.013 C 
ATOM     41  C   UNL     1     -13.569  -8.540 100.277  1.00  0.00     0.009 C 
ATOM     42  C   UNL     1     -11.293  -9.721 100.378  1.00  0.00     0.005 C 
ATOM     43  C   UNL     1     -12.440  -9.174 101.208  1.00  0.00     0.096 C 
ATOM     44  C   UNL     1     -14.655  -7.782 101.166  1.00  0.00     0.043 C 
ATOM     45  C   UNL     1     -14.307  -9.762  99.631  1.00  0.00     0.015 C 
ATOM     46  C   UNL     1     -11.918  -8.240 102.330  1.00  0.00     0.037 C 
ATOM     47  O   UNL     1     -13.016 -10.268 101.919  1.00  0.00    -0.369 OA
ATOM     48  C   UNL     1     -14.280  -7.396 102.632  1.00  0.00     0.124 C 
ATOM     49  C   UNL     1     -13.131  -8.271 103.246  1.00  0.00     0.026 C 
ATOM     50  C   UNL     1     -10.628  -8.783 103.027  1.00  0.00     0.014 C 
ATOM     51  C   UNL     1     -13.514  -9.761 103.145  1.00  0.00     0.171 C 
ATOM     52  C   UNL     1     -12.867  -7.819 104.719  1.00  0.00     0.013 C 
ATOM     53  C   UNL     1     -10.342  -8.157 104.411  1.00  0.00    -0.035 C 
ATOM     54  C   UNL     1     -11.569  -8.373 105.320  1.00  0.00     0.007 C 
ATOM     55  C   UNL     1      -9.987  -6.654 104.283  1.00  0.00     0.011 C 
ATOM     56  C   UNL     1      -9.124  -8.886 105.027  1.00  0.00     0.011 C 
BRANCH  29  57
ATOM     57  C   UNL     1     -13.585  -9.132  93.816  1.00  0.00     0.165 C 
BRANCH  57  58
ATOM     58  O   UNL     1     -13.918  -8.954  92.471  1.00  0.00    -0.396 OA
ATOM     59  H   UNL     1     -14.870  -9.218  92.382  1.00  0.00     0.210 HD
ENDBRANCH  57  58
ENDBRANCH  29  57
BRANCH  48  60
ATOM     60  O   UNL     1     -14.072  -6.001 102.732  1.00  0.00    -0.392 OA
ATOM     61  H   UNL     1     -13.972  -5.739 103.677  1.00  0.00     0.210 HD
ENDBRANCH  48  60
ENDBRANCH  26  27
ENDBRANCH   6  26
BRANCH   5  62
ATOM     62  O   UNL     1     -11.620 -10.642  91.179  1.00  0.00    -0.385 OA
ATOM     63  H   UNL     1     -11.433 -11.599  90.948  1.00  0.00     0.211 HD
ENDBRANCH   5  62
TORSDOF 14
ENDMDL
MODEL 2
REMARK VINA RESULT:    -6.158      1.858      4.138
REMARK INTER + INTRA:         -12.794
REMARK INTER:                 -10.759
REMARK INTRA:                  -2.035
REMARK UNBOUND:                -3.037
REMARK SMILES C[C@H]1O[C@@H](O[C@@H]2CC[C@]3(C)[C@H](CC[C@]4(C)[C@H]3C=C[C@@]35OC[C@]6(CCC(C)(C)C[C@H]63)[C@@H](O)C[C@@]45C)[C@]2(C)CO)[C@@H](O)[C@@H](O[C@@H]2O[C@H](CO)[C@@H](O)[C@H](O)[C@@H]2O)[C@@H]1O
REMARK SMILES IDX 1 1 2 2 54 3 41 4 39 5 4 6 3 7 55 8 42 10 43 11 52 12 44 13
REMARK SMILES IDX 50 14 45 15 48 16 53 17 51 19 46 21 47 22 49 24 5 26 6 27
REMARK SMILES IDX 7 28 35 29 8 30 11 31 36 32 9 33 12 34 10 35 16 36 13 37
REMARK SMILES IDX 14 38 17 39 15 40 33 41 18 42 19 43 32 44 34 45 29 46 20 47
REMARK SMILES IDX 30 48 22 49 28 50 21 51 23 52 25 53 24 54 26 55 27 56 37 57
REMARK SMILES IDX 38 58 31 60 40 62
REMARK H PARENT 55 9 53 18 51 20 47 23 49 25 38 59 31 61 40 63
REMARK Flexibility Score: inf
ROOT
ATOM      1  C   UNL     1     -11.890 -10.624  89.509  1.00  0.00     0.041 C 
ATOM      2  C   UNL     1     -13.313 -10.815  88.955  1.00  0.00     0.150 C 
ATOM      3  C   UNL     1     -13.684  -9.774  87.875  1.00  0.00     0.175 C 
ATOM      4  C   UNL     1     -14.113  -8.405  88.467  1.00  0.00     0.186 C 
ATOM      5  C   UNL     1     -15.057  -8.619  89.674  1.00  0.00     0.202 C 
ATOM      6  C   UNL     1     -14.610  -9.736  90.645  1.00  0.00     0.282 C 
ATOM      7  O   UNL     1     -14.300 -10.942  89.969  1.00  0.00    -0.344 OA
ENDROOT
BRANCH   3   8
ATOM      8  O   UNL     1     -14.708 -10.272  87.042  1.00  0.00    -0.388 OA
ATOM      9  H   UNL     1     -14.291 -10.792  86.309  1.00  0.00     0.211 HD
ENDBRANCH   3   8
BRANCH   4  10
ATOM     10  O   UNL     1     -13.019  -7.582  88.858  1.00  0.00    -0.341 OA
BRANCH  10  11
ATOM     11  C   UNL     1     -12.747  -6.502  87.958  1.00  0.00     0.282 C 
ATOM     12  C   UNL     1     -13.253  -5.114  88.423  1.00  0.00     0.202 C 
ATOM     13  O   UNL     1     -11.355  -6.461  87.670  1.00  0.00    -0.341 OA
ATOM     14  C   UNL     1     -12.485  -4.593  89.662  1.00  0.00     0.179 C 
ATOM     15  C   UNL     1     -10.540  -6.051  88.776  1.00  0.00     0.178 C 
ATOM     16  C   UNL     1     -10.959  -4.689  89.416  1.00  0.00     0.177 C 
BRANCH  12  17
ATOM     17  O   UNL     1     -14.646  -5.101  88.635  1.00  0.00    -0.385 OA
ATOM     18  H   UNL     1     -15.066  -4.760  87.800  1.00  0.00     0.211 HD
ENDBRANCH  12  17
BRANCH  14  19
ATOM     19  O   UNL     1     -12.802  -5.256  90.865  1.00  0.00    -0.387 OA
ATOM     20  H   UNL     1     -13.783  -5.200  91.022  1.00  0.00     0.211 HD
ENDBRANCH  14  19
BRANCH  15  21
ATOM     21  C   UNL     1     -10.333  -7.177  89.811  1.00  0.00     0.191 C 
BRANCH  21  22
ATOM     22  O   UNL     1      -9.382  -8.108  89.334  1.00  0.00    -0.394 OA
ATOM     23  H   UNL     1      -9.457  -8.911  89.925  1.00  0.00     0.210 HD
ENDBRANCH  21  22
ENDBRANCH  15  21
BRANCH  16  24
ATOM     24  O   UNL     1     -10.520  -3.602  88.632  1.00  0.00    -0.387 OA
ATOM     25  H   UNL     1     -10.186  -2.879  89.238  1.00  0.00     0.211 HD
ENDBRANCH  16  24
ENDBRANCH  10  11
ENDBRANCH   4  10
BRANCH   6  26
ATOM     26  O   UNL     1     -13.519  -9.355  91.472  1.00  0.00    -0.346 OA
BRANCH  26  27
ATOM     27  C   UNL     1     -13.848  -9.197  92.850  1.00  0.00     0.130 C 
ATOM     28  C   UNL     1     -13.278  -7.832  93.268  1.00  0.00     0.033 C 
ATOM     29  C   UNL     1     -13.279 -10.379  93.732  1.00  0.00     0.020 C 
ATOM     30  C   UNL     1     -13.484  -7.531  94.747  1.00  0.00     0.010 C 
ATOM     31  C   UNL     1     -13.370  -9.976  95.289  1.00  0.00     0.006 C 
ATOM     32  C   UNL     1     -14.207 -11.615  93.519  1.00  0.00     0.017 C 
ATOM     33  C   UNL     1     -12.825  -8.572  95.710  1.00  0.00    -0.022 C 
ATOM     34  C   UNL     1     -12.872 -11.033  96.295  1.00  0.00     0.005 C 
ATOM     35  C   UNL     1     -11.278  -8.457  95.563  1.00  0.00     0.012 C 
ATOM     36  C   UNL     1     -13.284  -8.231  97.214  1.00  0.00     0.024 C 
ATOM     37  C   UNL     1     -13.526 -10.853  97.662  1.00  0.00     0.008 C 
ATOM     38  C   UNL     1     -13.485  -9.398  98.304  1.00  0.00    -0.017 C 
ATOM     39  C   UNL     1     -12.572  -6.996  97.751  1.00  0.00    -0.024 C 
ATOM     40  C   UNL     1     -14.934  -9.196  98.868  1.00  0.00     0.013 C 
ATOM     41  C   UNL     1     -12.388  -9.342  99.508  1.00  0.00     0.009 C 
ATOM     42  C   UNL     1     -12.037  -6.859  98.966  1.00  0.00     0.005 C 
ATOM     43  C   UNL     1     -12.163  -7.873 100.087  1.00  0.00     0.096 C 
ATOM     44  C   UNL     1     -12.734 -10.353 100.691  1.00  0.00     0.043 C 
ATOM     45  C   UNL     1     -10.993  -9.783  98.948  1.00  0.00     0.015 C 
ATOM     46  C   UNL     1     -13.212  -7.416 101.133  1.00  0.00     0.037 C 
ATOM     47  O   UNL     1     -10.936  -7.867 100.814  1.00  0.00    -0.369 OA
ATOM     48  C   UNL     1     -13.215  -9.767 102.057  1.00  0.00     0.124 C 
ATOM     49  C   UNL     1     -12.772  -8.282 102.303  1.00  0.00     0.026 C 
ATOM     50  C   UNL     1     -13.129  -5.888 101.457  1.00  0.00     0.014 C 
ATOM     51  C   UNL     1     -11.240  -8.176 102.162  1.00  0.00     0.171 C 
ATOM     52  C   UNL     1     -13.278  -7.817 103.706  1.00  0.00     0.013 C 
ATOM     53  C   UNL     1     -13.806  -5.481 102.784  1.00  0.00    -0.035 C 
ATOM     54  C   UNL     1     -13.187  -6.302 103.933  1.00  0.00     0.007 C 
ATOM     55  C   UNL     1     -15.342  -5.674 102.711  1.00  0.00     0.011 C 
ATOM     56  C   UNL     1     -13.524  -3.980 103.029  1.00  0.00     0.011 C 
BRANCH  29  57
ATOM     57  C   UNL     1     -11.861 -10.791  93.206  1.00  0.00     0.165 C 
BRANCH  57  58
ATOM     58  O   UNL     1     -11.567 -12.133  93.463  1.00  0.00    -0.396 OA
ATOM     59  H   UNL     1     -11.496 -12.577  92.579  1.00  0.00     0.210 HD
ENDBRANCH  57  58
ENDBRANCH  29  57
BRANCH  48  60
ATOM     60  O   UNL     1     -14.598 -10.002 102.229  1.00  0.00    -0.392 OA
ATOM     61  H   UNL     1     -14.761 -10.456 103.089  1.00  0.00     0.210 HD
ENDBRANCH  48  60
ENDBRANCH  26  27
ENDBRANCH   6  26
BRANCH   5  62
ATOM     62  O   UNL     1     -15.233  -7.424  90.390  1.00  0.00    -0.385 OA
ATOM     63  H   UNL     1     -14.514  -7.390  91.087  1.00  0.00     0.211 HD
ENDBRANCH   5  62
TORSDOF 14
ENDMDL
MODEL 3
REMARK VINA RESULT:    -5.998      1.877      3.073
REMARK INTER + INTRA:         -12.541
REMARK INTER:                  -9.977
REMARK INTRA:                  -2.563
REMARK UNBOUND:                -3.037
REMARK SMILES C[C@H]1O[C@@H](O[C@@H]2CC[C@]3(C)[C@H](CC[C@]4(C)[C@H]3C=C[C@@]35OC[C@]6(CCC(C)(C)C[C@H]63)[C@@H](O)C[C@@]45C)[C@]2(C)CO)[C@@H](O)[C@@H](O[C@@H]2O[C@H](CO)[C@@H](O)[C@H](O)[C@@H]2O)[C@@H]1O
REMARK SMILES IDX 1 1 2 2 54 3 41 4 39 5 4 6 3 7 55 8 42 10 43 11 52 12 44 13
REMARK SMILES IDX 50 14 45 15 48 16 53 17 51 19 46 21 47 22 49 24 5 26 6 27
REMARK SMILES IDX 7 28 35 29 8 30 11 31 36 32 9 33 12 34 10 35 16 36 13 37
REMARK SMILES IDX 14 38 17 39 15 40 33 41 18 42 19 43 32 44 34 45 29 46 20 47
REMARK SMILES IDX 30 48 22 49 28 50 21 51 23 52 25 53 24 54 26 55 27 56 37 57
REMARK SMILES IDX 38 58 31 60 40 62
REMARK H PARENT 55 9 53 18 51 20 47 23 49 25 38 59 31 61 40 63
REMARK Flexibility Score: inf
ROOT
ATOM      1  C   UNL     1     -10.186  -8.397  90.805  1.00  0.00     0.041 C 
ATOM      2  C   UNL     1     -10.594  -9.813  90.366  1.00  0.00     0.150 C 
ATOM      3  C   UNL     1     -11.596  -9.813  89.188  1.00  0.00     0.175 C 
ATOM      4  C   UNL     1     -13.059  -9.543  89.631  1.00  0.00     0.186 C 
ATOM      5  C   UNL     1     -13.387 -10.350  90.909  1.00  0.00     0.202 C 
ATOM      6  C   UNL     1     -12.274 -10.327  91.983  1.00  0.00     0.282 C 
ATOM      7  O   UNL     1     -11.003 -10.643  91.445  1.00  0.00    -0.344 OA
ENDROOT
BRANCH   3   8
ATOM      8  O   UNL     1     -11.531 -11.035  88.487  1.00  0.00    -0.388 OA
ATOM      9  H   UNL     1     -11.183 -11.731  89.102  1.00  0.00     0.211 HD
ENDBRANCH   3   8
BRANCH   4  10
ATOM     10  O   UNL     1     -13.346  -8.166  89.850  1.00  0.00    -0.341 OA
BRANCH  10  11
ATOM     11  C   UNL     1     -14.569  -7.720  89.256  1.00  0.00     0.282 C 
ATOM     12  C   UNL     1     -15.296  -6.585  90.018  1.00  0.00     0.202 C 
ATOM     13  O   UNL     1     -14.334  -7.348  87.903  1.00  0.00    -0.341 OA
ATOM     14  C   UNL     1     -14.510  -5.251  89.978  1.00  0.00     0.179 C 
ATOM     15  C   UNL     1     -13.554  -6.155  87.750  1.00  0.00     0.178 C 
ATOM     16  C   UNL     1     -14.113  -4.916  88.519  1.00  0.00     0.177 C 
BRANCH  12  17
ATOM     17  O   UNL     1     -15.619  -6.954  91.339  1.00  0.00    -0.385 OA
ATOM     18  H   UNL     1     -16.310  -6.314  91.661  1.00  0.00     0.211 HD
ENDBRANCH  12  17
BRANCH  14  19
ATOM     19  O   UNL     1     -13.355  -5.232  90.787  1.00  0.00    -0.387 OA
ATOM     20  H   UNL     1     -13.428  -5.941  91.480  1.00  0.00     0.211 HD
ENDBRANCH  14  19
BRANCH  15  21
ATOM     21  C   UNL     1     -12.048  -6.396  87.988  1.00  0.00     0.191 C 
BRANCH  21  22
ATOM     22  O   UNL     1     -11.583  -7.437  87.153  1.00  0.00    -0.394 OA
ATOM     23  H   UNL     1     -12.397  -7.848  86.740  1.00  0.00     0.210 HD
ENDBRANCH  21  22
ENDBRANCH  15  21
BRANCH  16  24
ATOM     24  O   UNL     1     -15.206  -4.343  87.835  1.00  0.00    -0.387 OA
ATOM     25  H   UNL     1     -15.963  -4.997  87.828  1.00  0.00     0.211 HD
ENDBRANCH  16  24
ENDBRANCH  10  11
ENDBRANCH   4  10
BRANCH   6  26
ATOM     26  O   UNL     1     -12.205  -9.096  92.690  1.00  0.00    -0.346 OA
BRANCH  26  27
ATOM     27  C   UNL     1     -11.792  -9.217  94.049  1.00  0.00     0.130 C 
ATOM     28  C   UNL     1     -12.539 -10.437  94.612  1.00  0.00     0.033 C 
ATOM     29  C   UNL     1     -12.087  -7.901  94.874  1.00  0.00     0.020 C 
ATOM     30  C   UNL     1     -12.262 -10.670  96.091  1.00  0.00     0.010 C 
ATOM     31  C   UNL     1     -11.933  -8.210  96.447  1.00  0.00     0.006 C 
ATOM     32  C   UNL     1     -10.992  -6.855  94.499  1.00  0.00     0.017 C 
ATOM     33  C   UNL     1     -12.661  -9.473  97.015  1.00  0.00    -0.022 C 
ATOM     34  C   UNL     1     -12.167  -7.022  97.400  1.00  0.00     0.005 C 
ATOM     35  C   UNL     1     -14.213  -9.336  96.987  1.00  0.00     0.012 C 
ATOM     36  C   UNL     1     -12.140  -9.787  98.504  1.00  0.00     0.024 C 
ATOM     37  C   UNL     1     -11.440  -7.219  98.727  1.00  0.00     0.008 C 
ATOM     38  C   UNL     1     -11.662  -8.601  99.483  1.00  0.00    -0.017 C 
ATOM     39  C   UNL     1     -12.996 -10.846  99.185  1.00  0.00    -0.024 C 
ATOM     40  C   UNL     1     -10.224  -9.006  99.955  1.00  0.00     0.013 C 
ATOM     41  C   UNL     1     -12.650  -8.393 100.762  1.00  0.00     0.009 C 
ATOM     42  C   UNL     1     -13.443 -10.812 100.442  1.00  0.00     0.005 C 
ATOM     43  C   UNL     1     -13.062  -9.762 101.469  1.00  0.00     0.096 C 
ATOM     44  C   UNL     1     -12.048  -7.379 101.835  1.00  0.00     0.043 C 
ATOM     45  C   UNL     1     -13.997  -7.762 100.270  1.00  0.00     0.015 C 
ATOM     46  C   UNL     1     -12.017 -10.320 102.471  1.00  0.00     0.037 C 
ATOM     47  O   UNL     1     -14.208  -9.515 102.279  1.00  0.00    -0.369 OA
ATOM     48  C   UNL     1     -11.556  -7.947 103.204  1.00  0.00     0.124 C 
ATOM     49  C   UNL     1     -12.212  -9.317 103.597  1.00  0.00     0.026 C 
ATOM     50  C   UNL     1     -12.320 -11.787 102.918  1.00  0.00     0.014 C 
ATOM     51  C   UNL     1     -13.747  -9.173 103.575  1.00  0.00     0.171 C 
ATOM     52  C   UNL     1     -11.673  -9.768 104.993  1.00  0.00     0.013 C 
ATOM     53  C   UNL     1     -11.609 -12.215 104.221  1.00  0.00    -0.035 C 
ATOM     54  C   UNL     1     -11.989 -11.228 105.344  1.00  0.00     0.007 C 
ATOM     55  C   UNL     1     -10.074 -12.287 104.024  1.00  0.00     0.011 C 
ATOM     56  C   UNL     1     -12.110 -13.627 104.602  1.00  0.00     0.011 C 
BRANCH  29  57
ATOM     57  C   UNL     1     -13.458  -7.292  94.420  1.00  0.00     0.165 C 
BRANCH  57  58
ATOM     58  O   UNL     1     -13.386  -6.704  93.154  1.00  0.00    -0.396 OA
ATOM     59  H   UNL     1     -12.500  -6.262  93.103  1.00  0.00     0.210 HD
ENDBRANCH  57  58
ENDBRANCH  29  57
BRANCH  48  60
ATOM     60  O   UNL     1     -10.143  -7.936 103.259  1.00  0.00    -0.392 OA
ATOM     61  H   UNL     1      -9.835  -8.235 104.146  1.00  0.00     0.210 HD
ENDBRANCH  48  60
ENDBRANCH  26  27
ENDBRANCH   6  26
BRANCH   5  62
ATOM     62  O   UNL     1     -14.594  -9.915  91.480  1.00  0.00    -0.385 OA
ATOM     63  H   UNL     1     -14.450  -8.973  91.788  1.00  0.00     0.211 HD
ENDBRANCH   5  62
TORSDOF 14
ENDMDL
MODEL 4
REMARK VINA RESULT:    -5.918      1.898     12.064
REMARK INTER + INTRA:         -12.414
REMARK INTER:                  -9.474
REMARK INTRA:                  -2.940
REMARK UNBOUND:                -3.037
REMARK SMILES C[C@H]1O[C@@H](O[C@@H]2CC[C@]3(C)[C@H](CC[C@]4(C)[C@H]3C=C[C@@]35OC[C@]6(CCC(C)(C)C[C@H]63)[C@@H](O)C[C@@]45C)[C@]2(C)CO)[C@@H](O)[C@@H](O[C@@H]2O[C@H](CO)[C@@H](O)[C@H](O)[C@@H]2O)[C@@H]1O
REMARK SMILES IDX 1 1 2 2 54 3 41 4 39 5 4 6 3 7 55 8 42 10 43 11 52 12 44 13
REMARK SMILES IDX 50 14 45 15 48 16 53 17 51 19 46 21 47 22 49 24 5 26 6 27
REMARK SMILES IDX 7 28 35 29 8 30 11 31 36 32 9 33 12 34 10 35 16 36 13 37
REMARK SMILES IDX 14 38 17 39 15 40 33 41 18 42 19 43 32 44 34 45 29 46 20 47
REMARK SMILES IDX 30 48 22 49 28 50 21 51 23 52 25 53 24 54 26 55 27 56 37 57
REMARK SMILES IDX 38 58 31 60 40 62
REMARK H PARENT 55 9 53 18 51 20 47 23 49 25 38 59 31 61 40 63
REMARK Flexibility Score: inf
ROOT
ATOM      1  C   UNL     1     -10.943  -6.425 101.933  1.00  0.00     0.041 C 
ATOM      2  C   UNL     1     -12.336  -5.781 102.047  1.00  0.00     0.150 C 
ATOM      3  C   UNL     1     -13.175  -6.363 103.208  1.00  0.00     0.175 C 
ATOM      4  C   UNL     1     -13.846  -7.718 102.857  1.00  0.00     0.186 C 
ATOM      5  C   UNL     1     -14.450  -7.661 101.434  1.00  0.00     0.202 C 
ATOM      6  C   UNL     1     -13.538  -6.994 100.378  1.00  0.00     0.282 C 
ATOM      7  O   UNL     1     -13.042  -5.741 100.815  1.00  0.00    -0.344 OA
ENDROOT
BRANCH   3   8
ATOM      8  O   UNL     1     -14.160  -5.438 103.614  1.00  0.00    -0.388 OA
ATOM      9  H   UNL     1     -13.987  -5.191 104.559  1.00  0.00     0.211 HD
ENDBRANCH   3   8
BRANCH   4  10
ATOM     10  O   UNL     1     -12.968  -8.834 102.958  1.00  0.00    -0.341 OA
BRANCH  10  11
ATOM     11  C   UNL     1     -13.455  -9.890 103.791  1.00  0.00     0.282 C 
ATOM     12  C   UNL     1     -13.129 -11.322 103.299  1.00  0.00     0.202 C 
ATOM     13  O   UNL     1     -12.994  -9.698 105.124  1.00  0.00    -0.341 OA
ATOM     14  C   UNL     1     -11.616 -11.639 103.372  1.00  0.00     0.179 C 
ATOM     15  C   UNL     1     -11.586  -9.903 105.291  1.00  0.00     0.178 C 
ATOM     16  C   UNL     1     -11.069 -11.285 104.778  1.00  0.00     0.177 C 
BRANCH  12  17
ATOM     17  O   UNL     1     -13.647 -11.572 102.013  1.00  0.00    -0.385 OA
ATOM     18  H   UNL     1     -13.874 -12.540 101.972  1.00  0.00     0.211 HD
ENDBRANCH  12  17
BRANCH  14  19
ATOM     19  O   UNL     1     -10.836 -10.985 102.396  1.00  0.00    -0.387 OA
ATOM     20  H   UNL     1     -10.492 -11.656 101.748  1.00  0.00     0.211 HD
ENDBRANCH  14  19
BRANCH  15  21
ATOM     21  C   UNL     1     -10.748  -8.710 104.786  1.00  0.00     0.191 C 
BRANCH  21  22
ATOM     22  O   UNL     1      -9.479  -9.156 104.350  1.00  0.00    -0.394 OA
ATOM     23  H   UNL     1      -9.202  -8.535 103.615  1.00  0.00     0.210 HD
ENDBRANCH  21  22
ENDBRANCH  15  21
BRANCH  16  24
ATOM     24  O   UNL     1     -11.374 -12.314 105.694  1.00  0.00    -0.387 OA
ATOM     25  H   UNL     1     -10.865 -12.154 106.541  1.00  0.00     0.211 HD
ENDBRANCH  16  24
ENDBRANCH  10  11
ENDBRANCH   4  10
BRANCH   6  26
ATOM     26  O   UNL     1     -12.460  -7.822  99.967  1.00  0.00    -0.346 OA
BRANCH  26  27
ATOM     27  C   UNL     1     -12.106  -7.692  98.592  1.00  0.00     0.130 C 
ATOM     28  C   UNL     1     -13.292  -6.990  97.913  1.00  0.00     0.033 C 
ATOM     29  C   UNL     1     -11.780  -9.092  97.932  1.00  0.00     0.020 C 
ATOM     30  C   UNL     1     -13.105  -6.832  96.410  1.00  0.00     0.010 C 
ATOM     31  C   UNL     1     -11.736  -8.931  96.330  1.00  0.00     0.006 C 
ATOM     32  C   UNL     1     -10.350  -9.510  98.395  1.00  0.00     0.017 C 
ATOM     33  C   UNL     1     -12.924  -8.182  95.641  1.00  0.00    -0.022 C 
ATOM     34  C   UNL     1     -11.408 -10.204  95.527  1.00  0.00     0.005 C 
ATOM     35  C   UNL     1     -14.263  -8.973  95.726  1.00  0.00     0.012 C 
ATOM     36  C   UNL     1     -12.553  -7.848  94.112  1.00  0.00     0.024 C 
ATOM     37  C   UNL     1     -10.804  -9.867  94.167  1.00  0.00     0.008 C 
ATOM     38  C   UNL     1     -11.584  -8.815  93.264  1.00  0.00    -0.017 C 
ATOM     39  C   UNL     1     -13.765  -7.350  93.337  1.00  0.00    -0.024 C 
ATOM     40  C   UNL     1     -10.451  -7.885  92.709  1.00  0.00     0.013 C 
ATOM     41  C   UNL     1     -12.351  -9.576  92.044  1.00  0.00     0.009 C 
ATOM     42  C   UNL     1     -14.121  -7.719  92.105  1.00  0.00     0.005 C 
ATOM     43  C   UNL     1     -13.296  -8.611  91.196  1.00  0.00     0.096 C 
ATOM     44  C   UNL     1     -11.342 -10.346  91.079  1.00  0.00     0.043 C 
ATOM     45  C   UNL     1     -13.304 -10.666  92.642  1.00  0.00     0.015 C 
ATOM     46  C   UNL     1     -12.571  -7.776  90.109  1.00  0.00     0.037 C 
ATOM     47  O   UNL     1     -14.202  -9.422  90.451  1.00  0.00    -0.369 OA
ATOM     48  C   UNL     1     -11.110  -9.783  89.641  1.00  0.00     0.124 C 
ATOM     49  C   UNL     1     -12.284  -8.888  89.111  1.00  0.00     0.026 C 
ATOM     50  C   UNL     1     -13.467  -6.647  89.504  1.00  0.00     0.014 C 
ATOM     51  C   UNL     1     -13.606  -9.678  89.191  1.00  0.00     0.171 C 
ATOM     52  C   UNL     1     -11.958  -8.413  87.658  1.00  0.00     0.013 C 
ATOM     53  C   UNL     1     -12.979  -6.108  88.141  1.00  0.00    -0.035 C 
ATOM     54  C   UNL     1     -12.866  -7.285  87.150  1.00  0.00     0.007 C 
ATOM     55  C   UNL     1     -11.632  -5.356  88.286  1.00  0.00     0.011 C 
ATOM     56  C   UNL     1     -14.032  -5.105  87.614  1.00  0.00     0.011 C 
BRANCH  29  57
ATOM     57  C   UNL     1     -12.764 -10.177  98.491  1.00  0.00     0.165 C 
BRANCH  57  58
ATOM     58  O   UNL     1     -12.481 -10.521  99.815  1.00  0.00    -0.396 OA
ATOM     59  H   UNL     1     -11.880  -9.814 100.164  1.00  0.00     0.210 HD
ENDBRANCH  57  58
ENDBRANCH  29  57
BRANCH  48  60
ATOM     60  O   UNL     1      -9.831  -9.188  89.549  1.00  0.00    -0.392 OA
ATOM     61  H   UNL     1      -9.238  -9.546  90.250  1.00  0.00     0.210 HD
ENDBRANCH  48  60
ENDBRANCH  26  27
ENDBRANCH   6  26
BRANCH   5  62
ATOM     62  O   UNL     1     -14.811  -8.944 100.992  1.00  0.00    -0.385 OA
ATOM     63  H   UNL     1     -15.349  -9.366 101.724  1.00  0.00     0.211 HD
ENDBRANCH   5  62
TORSDOF 14
ENDMDL
MODEL 5
REMARK VINA RESULT:    -5.830      6.237      8.897
REMARK INTER + INTRA:         -12.276
REMARK INTER:                  -9.584
REMARK INTRA:                  -2.692
REMARK UNBOUND:                -3.037
REMARK SMILES C[C@H]1O[C@@H](O[C@@H]2CC[C@]3(C)[C@H](CC[C@]4(C)[C@H]3C=C[C@@]35OC[C@]6(CCC(C)(C)C[C@H]63)[C@@H](O)C[C@@]45C)[C@]2(C)CO)[C@@H](O)[C@@H](O[C@@H]2O[C@H](CO)[C@@H](O)[C@H](O)[C@@H]2O)[C@@H]1O
REMARK SMILES IDX 1 1 2 2 54 3 41 4 39 5 4 6 3 7 55 8 42 10 43 11 52 12 44 13
REMARK SMILES IDX 50 14 45 15 48 16 53 17 51 19 46 21 47 22 49 24 5 26 6 27
REMARK SMILES IDX 7 28 35 29 8 30 11 31 36 32 9 33 12 34 10 35 16 36 13 37
REMARK SMILES IDX 14 38 17 39 15 40 33 41 18 42 19 43 32 44 34 45 29 46 20 47
REMARK SMILES IDX 30 48 22 49 28 50 21 51 23 52 25 53 24 54 26 55 27 56 37 57
REMARK SMILES IDX 38 58 31 60 40 62
REMARK H PARENT 55 9 53 18 51 20 47 23 49 25 38 59 31 61 40 63
REMARK Flexibility Score: inf
ROOT
ATOM      1  C   UNL     1     -13.062  -5.306  91.671  1.00  0.00     0.041 C 
ATOM      2  C   UNL     1     -12.673  -4.425  90.471  1.00  0.00     0.150 C 
ATOM      3  C   UNL     1     -13.076  -5.044  89.113  1.00  0.00     0.175 C 
ATOM      4  C   UNL     1     -12.084  -6.131  88.619  1.00  0.00     0.186 C 
ATOM      5  C   UNL     1     -10.626  -5.662  88.839  1.00  0.00     0.202 C 
ATOM      6  C   UNL     1     -10.369  -4.997  90.212  1.00  0.00     0.282 C 
ATOM      7  O   UNL     1     -11.321  -3.990  90.505  1.00  0.00    -0.344 OA
ENDROOT
BRANCH   3   8
ATOM      8  O   UNL     1     -13.204  -4.038  88.132  1.00  0.00    -0.388 OA
ATOM      9  H   UNL     1     -13.772  -4.387  87.398  1.00  0.00     0.211 HD
ENDBRANCH   3   8
BRANCH   4  10
ATOM     10  O   UNL     1     -12.274  -7.401  89.233  1.00  0.00    -0.341 OA
BRANCH  10  11
ATOM     11  C   UNL     1     -12.457  -8.478  88.309  1.00  0.00     0.282 C 
ATOM     12  C   UNL     1     -11.620  -9.748  88.602  1.00  0.00     0.202 C 
ATOM     13  O   UNL     1     -13.840  -8.796  88.215  1.00  0.00    -0.341 OA
ATOM     14  C   UNL     1     -12.074 -10.465  89.897  1.00  0.00     0.179 C 
ATOM     15  C   UNL     1     -14.382  -9.408  89.392  1.00  0.00     0.178 C 
ATOM     16  C   UNL     1     -13.608 -10.678  89.873  1.00  0.00     0.177 C 
BRANCH  12  17
ATOM     17  O   UNL     1     -10.238  -9.481  88.617  1.00  0.00    -0.385 OA
ATOM     18  H   UNL     1      -9.908  -9.695  89.531  1.00  0.00     0.211 HD
ENDBRANCH  12  17
BRANCH  14  19
ATOM     19  O   UNL     1     -11.719  -9.797  91.087  1.00  0.00    -0.387 OA
ATOM     20  H   UNL     1     -12.347 -10.063  91.811  1.00  0.00     0.211 HD
ENDBRANCH  14  19
BRANCH  15  21
ATOM     21  C   UNL     1     -14.651  -8.390  90.521  1.00  0.00     0.191 C 
BRANCH  21  22
ATOM     22  O   UNL     1     -14.451  -8.998  91.782  1.00  0.00    -0.394 OA
ATOM     23  H   UNL     1     -14.660  -8.298  92.465  1.00  0.00     0.210 HD
ENDBRANCH  21  22
ENDBRANCH  15  21
BRANCH  16  24
ATOM     24  O   UNL     1     -13.934 -11.801  89.085  1.00  0.00    -0.387 OA
ATOM     25  H   UNL     1     -14.812 -11.637  88.634  1.00  0.00     0.211 HD
ENDBRANCH  16  24
ENDBRANCH  10  11
ENDBRANCH   4  10
BRANCH   6  26
ATOM     26  O   UNL     1     -10.309  -5.929  91.282  1.00  0.00    -0.346 OA
BRANCH  26  27
ATOM     27  C   UNL     1      -9.387  -5.586  92.314  1.00  0.00     0.130 C 
ATOM     28  C   UNL     1      -8.664  -4.317  91.832  1.00  0.00     0.033 C 
ATOM     29  C   UNL     1      -8.381  -6.766  92.623  1.00  0.00     0.020 C 
ATOM     30  C   UNL     1      -7.583  -3.849  92.797  1.00  0.00     0.010 C 
ATOM     31  C   UNL     1      -7.166  -6.212  93.522  1.00  0.00     0.006 C 
ATOM     32  C   UNL     1      -9.146  -7.824  93.479  1.00  0.00     0.017 C 
ATOM     33  C   UNL     1      -6.454  -4.900  93.054  1.00  0.00    -0.022 C 
ATOM     34  C   UNL     1      -6.099  -7.245  93.935  1.00  0.00     0.005 C 
ATOM     35  C   UNL     1      -5.656  -5.088  91.730  1.00  0.00     0.012 C 
ATOM     36  C   UNL     1      -5.501  -4.343  94.224  1.00  0.00     0.024 C 
ATOM     37  C   UNL     1      -5.376  -6.822  95.210  1.00  0.00     0.008 C 
ATOM     38  C   UNL     1      -4.782  -5.347  95.257  1.00  0.00    -0.017 C 
ATOM     39  C   UNL     1      -4.603  -3.218  93.727  1.00  0.00    -0.024 C 
ATOM     40  C   UNL     1      -5.176  -4.829  96.683  1.00  0.00     0.013 C 
ATOM     41  C   UNL     1      -3.161  -5.385  95.087  1.00  0.00     0.009 C 
ATOM     42  C   UNL     1      -3.303  -3.070  93.988  1.00  0.00     0.005 C 
ATOM     43  C   UNL     1      -2.509  -3.936  94.949  1.00  0.00     0.096 C 
ATOM     44  C   UNL     1      -2.448  -6.201  96.256  1.00  0.00     0.043 C 
ATOM     45  C   UNL     1      -2.805  -6.126  93.754  1.00  0.00     0.015 C 
ATOM     46  C   UNL     1      -2.269  -3.197  96.292  1.00  0.00     0.037 C 
ATOM     47  O   UNL     1      -1.199  -4.090  94.409  1.00  0.00    -0.369 OA
ATOM     48  C   UNL     1      -1.610  -5.412  97.312  1.00  0.00     0.124 C 
ATOM     49  C   UNL     1      -1.097  -4.019  96.806  1.00  0.00     0.026 C 
ATOM     50  C   UNL     1      -1.904  -1.689  96.104  1.00  0.00     0.014 C 
ATOM     51  C   UNL     1      -0.302  -4.212  95.499  1.00  0.00     0.171 C 
ATOM     52  C   UNL     1      -0.248  -3.341  97.929  1.00  0.00     0.013 C 
ATOM     53  C   UNL     1      -1.219  -1.042  97.329  1.00  0.00    -0.035 C 
ATOM     54  C   UNL     1       0.044  -1.854  97.681  1.00  0.00     0.007 C 
ATOM     55  C   UNL     1      -2.192  -0.954  98.532  1.00  0.00     0.011 C 
ATOM     56  C   UNL     1      -0.802   0.396  96.944  1.00  0.00     0.011 C 
BRANCH  29  57
ATOM     57  C   UNL     1      -7.983  -7.480  91.286  1.00  0.00     0.165 C 
BRANCH  57  58
ATOM     58  O   UNL     1      -8.932  -8.424  90.883  1.00  0.00    -0.396 OA
ATOM     59  H   UNL     1      -8.896  -9.158  91.549  1.00  0.00     0.210 HD
ENDBRANCH  57  58
ENDBRANCH  29  57
BRANCH  48  60
ATOM     60  O   UNL     1      -2.296  -5.370  98.548  1.00  0.00    -0.392 OA
ATOM     61  H   UNL     1      -1.682  -5.099  99.269  1.00  0.00     0.210 HD
ENDBRANCH  48  60
ENDBRANCH  26  27
ENDBRANCH   6  26
BRANCH   5  62
ATOM     62  O   UNL     1      -9.726  -6.725  88.662  1.00  0.00    -0.385 OA
ATOM     63  H   UNL     1      -9.904  -7.386  89.394  1.00  0.00     0.211 HD
ENDBRANCH   5  62
TORSDOF 14
ENDMDL
MODEL 6
REMARK VINA RESULT:    -5.827      5.758     11.602
REMARK INTER + INTRA:         -12.270
REMARK INTER:                  -9.218
REMARK INTRA:                  -3.053
REMARK UNBOUND:                -3.037
REMARK SMILES C[C@H]1O[C@@H](O[C@@H]2CC[C@]3(C)[C@H](CC[C@]4(C)[C@H]3C=C[C@@]35OC[C@]6(CCC(C)(C)C[C@H]63)[C@@H](O)C[C@@]45C)[C@]2(C)CO)[C@@H](O)[C@@H](O[C@@H]2O[C@H](CO)[C@@H](O)[C@H](O)[C@@H]2O)[C@@H]1O
REMARK SMILES IDX 1 1 2 2 54 3 41 4 39 5 4 6 3 7 55 8 42 10 43 11 52 12 44 13
REMARK SMILES IDX 50 14 45 15 48 16 53 17 51 19 46 21 47 22 49 24 5 26 6 27
REMARK SMILES IDX 7 28 35 29 8 30 11 31 36 32 9 33 12 34 10 35 16 36 13 37
REMARK SMILES IDX 14 38 17 39 15 40 33 41 18 42 19 43 32 44 34 45 29 46 20 47
REMARK SMILES IDX 30 48 22 49 28 50 21 51 23 52 25 53 24 54 26 55 27 56 37 57
REMARK SMILES IDX 38 58 31 60 40 62
REMARK H PARENT 55 9 53 18 51 20 47 23 49 25 38 59 31 61 40 63
REMARK Flexibility Score: inf
ROOT
ATOM      1  C   UNL     1      -5.569  -7.203  97.682  1.00  0.00     0.041 C 
ATOM      2  C   UNL     1      -4.569  -8.169  97.023  1.00  0.00     0.150 C 
ATOM      3  C   UNL     1      -3.133  -7.601  96.963  1.00  0.00     0.175 C 
ATOM      4  C   UNL     1      -2.919  -6.604  95.792  1.00  0.00     0.186 C 
ATOM      5  C   UNL     1      -3.578  -7.147  94.503  1.00  0.00     0.202 C 
ATOM      6  C   UNL     1      -4.986  -7.751  94.709  1.00  0.00     0.282 C 
ATOM      7  O   UNL     1      -5.018  -8.682  95.776  1.00  0.00    -0.344 OA
ENDROOT
BRANCH   3   8
ATOM      8  O   UNL     1      -2.193  -8.649  96.871  1.00  0.00    -0.388 OA
ATOM      9  H   UNL     1      -2.298  -9.087  95.987  1.00  0.00     0.211 HD
ENDBRANCH   3   8
BRANCH   4  10
ATOM     10  O   UNL     1      -3.406  -5.293  96.061  1.00  0.00    -0.341 OA
BRANCH  10  11
ATOM     11  C   UNL     1      -2.397  -4.367  96.477  1.00  0.00     0.282 C 
ATOM     12  C   UNL     1      -1.760  -3.531  95.339  1.00  0.00     0.202 C 
ATOM     13  O   UNL     1      -2.918  -3.519  97.493  1.00  0.00    -0.341 OA
ATOM     14  C   UNL     1      -2.762  -2.530  94.713  1.00  0.00     0.179 C 
ATOM     15  C   UNL     1      -3.909  -2.591  97.032  1.00  0.00     0.178 C 
ATOM     16  C   UNL     1      -3.452  -1.706  95.828  1.00  0.00     0.177 C 
BRANCH  12  17
ATOM     17  O   UNL     1      -1.160  -4.343  94.357  1.00  0.00    -0.385 OA
ATOM     18  H   UNL     1      -1.895  -4.813  93.877  1.00  0.00     0.211 HD
ENDBRANCH  12  17
BRANCH  14  19
ATOM     19  O   UNL     1      -3.750  -3.125  93.901  1.00  0.00    -0.387 OA
ATOM     20  H   UNL     1      -4.100  -2.448  93.262  1.00  0.00     0.211 HD
ENDBRANCH  14  19
BRANCH  15  21
ATOM     21  C   UNL     1      -5.287  -3.251  96.819  1.00  0.00     0.191 C 
BRANCH  21  22
ATOM     22  O   UNL     1      -6.014  -2.551  95.828  1.00  0.00    -0.394 OA
ATOM     23  H   UNL     1      -6.350  -1.716  96.265  1.00  0.00     0.210 HD
ENDBRANCH  21  22
ENDBRANCH  15  21
BRANCH  16  24
ATOM     24  O   UNL     1      -2.607  -0.661  96.257  1.00  0.00    -0.387 OA
ATOM     25  H   UNL     1      -3.158   0.163  96.400  1.00  0.00     0.211 HD
ENDBRANCH  16  24
ENDBRANCH  10  11
ENDBRANCH   4  10
BRANCH   6  26
ATOM     26  O   UNL     1      -5.994  -6.768  94.898  1.00  0.00    -0.346 OA
BRANCH  26  27
ATOM     27  C   UNL     1      -7.284  -7.145  94.423  1.00  0.00     0.130 C 
ATOM     28  C   UNL     1      -7.062  -8.367  93.517  1.00  0.00     0.033 C 
ATOM     29  C   UNL     1      -8.003  -5.959  93.664  1.00  0.00     0.020 C 
ATOM     30  C   UNL     1      -8.346  -8.862  92.865  1.00  0.00     0.010 C 
ATOM     31  C   UNL     1      -9.274  -6.533  92.857  1.00  0.00     0.006 C 
ATOM     32  C   UNL     1      -8.546  -4.970  94.741  1.00  0.00     0.017 C 
ATOM     33  C   UNL     1      -9.059  -7.800  91.965  1.00  0.00    -0.022 C 
ATOM     34  C   UNL     1     -10.106  -5.499  92.074  1.00  0.00     0.005 C 
ATOM     35  C   UNL     1      -8.149  -7.519  90.732  1.00  0.00     0.012 C 
ATOM     36  C   UNL     1     -10.479  -8.397  91.504  1.00  0.00     0.024 C 
ATOM     37  C   UNL     1     -11.542  -5.974  91.872  1.00  0.00     0.008 C 
ATOM     38  C   UNL     1     -11.750  -7.435  91.277  1.00  0.00    -0.017 C 
ATOM     39  C   UNL     1     -10.316  -9.471  90.437  1.00  0.00    -0.024 C 
ATOM     40  C   UNL     1     -12.894  -8.040  92.160  1.00  0.00     0.013 C 
ATOM     41  C   UNL     1     -12.213  -7.348  89.716  1.00  0.00     0.009 C 
ATOM     42  C   UNL     1     -11.047  -9.601  89.328  1.00  0.00     0.005 C 
ATOM     43  C   UNL     1     -12.274  -8.771  88.998  1.00  0.00     0.096 C 
ATOM     44  C   UNL     1     -13.599  -6.581  89.537  1.00  0.00     0.043 C 
ATOM     45  C   UNL     1     -11.149  -6.525  88.913  1.00  0.00     0.015 C 
ATOM     46  C   UNL     1     -13.574  -9.576  89.254  1.00  0.00     0.037 C 
ATOM     47  O   UNL     1     -12.282  -8.555  87.589  1.00  0.00    -0.369 OA
ATOM     48  C   UNL     1     -14.861  -7.406  89.130  1.00  0.00     0.124 C 
ATOM     49  C   UNL     1     -14.531  -8.756  88.403  1.00  0.00     0.026 C 
ATOM     50  C   UNL     1     -13.477 -11.063  88.780  1.00  0.00     0.014 C 
ATOM     51  C   UNL     1     -13.636  -8.472  87.180  1.00  0.00     0.171 C 
ATOM     52  C   UNL     1     -15.863  -9.475  88.015  1.00  0.00     0.013 C 
ATOM     53  C   UNL     1     -14.842 -11.760  88.584  1.00  0.00    -0.035 C 
ATOM     54  C   UNL     1     -15.684 -10.938  87.587  1.00  0.00     0.007 C 
ATOM     55  C   UNL     1     -15.578 -11.939  89.936  1.00  0.00     0.011 C 
ATOM     56  C   UNL     1     -14.586 -13.164  87.989  1.00  0.00     0.011 C 
BRANCH  29  57
ATOM     57  C   UNL     1      -6.951  -5.163  92.818  1.00  0.00     0.165 C 
BRANCH  57  58
ATOM     58  O   UNL     1      -6.139  -4.347  93.611  1.00  0.00    -0.396 OA
ATOM     59  H   UNL     1      -6.010  -4.831  94.468  1.00  0.00     0.210 HD
ENDBRANCH  57  58
ENDBRANCH  29  57
BRANCH  48  60
ATOM     60  O   UNL     1     -15.738  -7.533  90.232  1.00  0.00    -0.392 OA
ATOM     61  H   UNL     1     -16.671  -7.596  89.919  1.00  0.00     0.210 HD
ENDBRANCH  48  60
ENDBRANCH  26  27
ENDBRANCH   6  26
BRANCH   5  62
ATOM     62  O   UNL     1      -3.640  -6.150  93.515  1.00  0.00    -0.385 OA
ATOM     63  H   UNL     1      -2.918  -5.487  93.720  1.00  0.00     0.211 HD
ENDBRANCH   5  62
TORSDOF 14
ENDMDL
MODEL 7
REMARK VINA RESULT:    -5.816      5.467      7.888
REMARK INTER + INTRA:         -12.253
REMARK INTER:                  -9.560
REMARK INTRA:                  -2.693
REMARK UNBOUND:                -3.037
REMARK SMILES C[C@H]1O[C@@H](O[C@@H]2CC[C@]3(C)[C@H](CC[C@]4(C)[C@H]3C=C[C@@]35OC[C@]6(CCC(C)(C)C[C@H]63)[C@@H](O)C[C@@]45C)[C@]2(C)CO)[C@@H](O)[C@@H](O[C@@H]2O[C@H](CO)[C@@H](O)[C@H](O)[C@@H]2O)[C@@H]1O
REMARK SMILES IDX 1 1 2 2 54 3 41 4 39 5 4 6 3 7 55 8 42 10 43 11 52 12 44 13
REMARK SMILES IDX 50 14 45 15 48 16 53 17 51 19 46 21 47 22 49 24 5 26 6 27
REMARK SMILES IDX 7 28 35 29 8 30 11 31 36 32 9 33 12 34 10 35 16 36 13 37
REMARK SMILES IDX 14 38 17 39 15 40 33 41 18 42 19 43 32 44 34 45 29 46 20 47
REMARK SMILES IDX 30 48 22 49 28 50 21 51 23 52 25 53 24 54 26 55 27 56 37 57
REMARK SMILES IDX 38 58 31 60 40 62
REMARK H PARENT 55 9 53 18 51 20 47 23 49 25 38 59 31 61 40 63
REMARK Flexibility Score: inf
ROOT
ATOM      1  C   UNL     1     -13.858  -5.295  91.135  1.00  0.00     0.041 C 
ATOM      2  C   UNL     1     -13.551  -4.472  89.871  1.00  0.00     0.150 C 
ATOM      3  C   UNL     1     -14.013  -5.169  88.572  1.00  0.00     0.175 C 
ATOM      4  C   UNL     1     -13.027  -6.263  88.081  1.00  0.00     0.186 C 
ATOM      5  C   UNL     1     -11.570  -5.758  88.198  1.00  0.00     0.202 C 
ATOM      6  C   UNL     1     -11.253  -5.016  89.518  1.00  0.00     0.282 C 
ATOM      7  O   UNL     1     -12.208  -4.012  89.810  1.00  0.00    -0.344 OA
ENDROOT
BRANCH   3   8
ATOM      8  O   UNL     1     -14.214  -4.219  87.548  1.00  0.00    -0.388 OA
ATOM      9  H   UNL     1     -13.756  -3.379  87.807  1.00  0.00     0.211 HD
ENDBRANCH   3   8
BRANCH   4  10
ATOM     10  O   UNL     1     -13.158  -7.502  88.770  1.00  0.00    -0.341 OA
BRANCH  10  11
ATOM     11  C   UNL     1     -13.737  -8.551  87.986  1.00  0.00     0.282 C 
ATOM     12  C   UNL     1     -12.770  -9.700  87.606  1.00  0.00     0.202 C 
ATOM     13  O   UNL     1     -14.889  -9.059  88.647  1.00  0.00    -0.341 OA
ATOM     14  C   UNL     1     -12.335 -10.533  88.836  1.00  0.00     0.179 C 
ATOM     15  C   UNL     1     -14.602  -9.796  89.842  1.00  0.00     0.178 C 
ATOM     16  C   UNL     1     -13.580 -10.962  89.651  1.00  0.00     0.177 C 
BRANCH  12  17
ATOM     17  O   UNL     1     -11.658  -9.237  86.876  1.00  0.00    -0.385 OA
ATOM     18  H   UNL     1     -10.847  -9.631  87.297  1.00  0.00     0.211 HD
ENDBRANCH  12  17
BRANCH  14  19
ATOM     19  O   UNL     1     -11.426  -9.877  89.692  1.00  0.00    -0.387 OA
ATOM     20  H   UNL     1     -11.198 -10.478  90.451  1.00  0.00     0.211 HD
ENDBRANCH  14  19
BRANCH  15  21
ATOM     21  C   UNL     1     -14.270  -8.881  91.039  1.00  0.00     0.191 C 
BRANCH  21  22
ATOM     22  O   UNL     1     -13.526  -9.594  92.006  1.00  0.00    -0.394 OA
ATOM     23  H   UNL     1     -13.617 -10.562  91.770  1.00  0.00     0.210 HD
ENDBRANCH  21  22
ENDBRANCH  15  21
BRANCH  16  24
ATOM     24  O   UNL     1     -14.192 -12.083  89.054  1.00  0.00    -0.387 OA
ATOM     25  H   UNL     1     -15.020 -11.784  88.577  1.00  0.00     0.211 HD
ENDBRANCH  16  24
ENDBRANCH  10  11
ENDBRANCH   4  10
BRANCH   6  26
ATOM     26  O   UNL     1     -11.117  -5.889  90.631  1.00  0.00    -0.346 OA
BRANCH  26  27
ATOM     27  C   UNL     1     -10.120  -5.497  91.571  1.00  0.00     0.130 C 
ATOM     28  C   UNL     1      -8.785  -5.528  90.812  1.00  0.00     0.033 C 
ATOM     29  C   UNL     1     -10.108  -6.436  92.844  1.00  0.00     0.020 C 
ATOM     30  C   UNL     1      -7.591  -5.197  91.698  1.00  0.00     0.010 C 
ATOM     31  C   UNL     1      -8.762  -6.174  93.688  1.00  0.00     0.006 C 
ATOM     32  C   UNL     1     -11.310  -6.020  93.747  1.00  0.00     0.017 C 
ATOM     33  C   UNL     1      -7.404  -6.167  92.910  1.00  0.00    -0.022 C 
ATOM     34  C   UNL     1      -8.598  -6.998  94.980  1.00  0.00     0.005 C 
ATOM     35  C   UNL     1      -7.023  -7.572  92.354  1.00  0.00     0.012 C 
ATOM     36  C   UNL     1      -6.234  -5.586  93.848  1.00  0.00     0.024 C 
ATOM     37  C   UNL     1      -7.682  -6.295  95.978  1.00  0.00     0.008 C 
ATOM     38  C   UNL     1      -6.269  -5.796  95.444  1.00  0.00    -0.017 C 
ATOM     39  C   UNL     1      -4.861  -5.794  93.225  1.00  0.00    -0.024 C 
ATOM     40  C   UNL     1      -6.122  -4.361  96.056  1.00  0.00     0.013 C 
ATOM     41  C   UNL     1      -5.083  -6.775  95.984  1.00  0.00     0.009 C 
ATOM     42  C   UNL     1      -3.763  -6.219  93.855  1.00  0.00     0.005 C 
ATOM     43  C   UNL     1      -3.657  -6.444  95.351  1.00  0.00     0.096 C 
ATOM     44  C   UNL     1      -4.988  -6.793  97.575  1.00  0.00     0.043 C 
ATOM     45  C   UNL     1      -5.397  -8.246  95.547  1.00  0.00     0.015 C 
ATOM     46  C   UNL     1      -2.894  -5.279  96.034  1.00  0.00     0.037 C 
ATOM     47  O   UNL     1      -2.808  -7.571  95.558  1.00  0.00    -0.369 OA
ATOM     48  C   UNL     1      -3.763  -6.105  98.257  1.00  0.00     0.124 C 
ATOM     49  C   UNL     1      -2.506  -5.978  97.328  1.00  0.00     0.026 C 
ATOM     50  C   UNL     1      -1.649  -4.800  95.218  1.00  0.00     0.014 C 
ATOM     51  C   UNL     1      -2.129  -7.372  96.786  1.00  0.00     0.171 C 
ATOM     52  C   UNL     1      -1.339  -5.310  98.124  1.00  0.00     0.013 C 
ATOM     53  C   UNL     1      -0.620  -3.995  96.041  1.00  0.00    -0.035 C 
ATOM     54  C   UNL     1      -0.169  -4.844  97.246  1.00  0.00     0.007 C 
ATOM     55  C   UNL     1      -1.206  -2.633  96.493  1.00  0.00     0.011 C 
ATOM     56  C   UNL     1       0.604  -3.712  95.138  1.00  0.00     0.011 C 
BRANCH  29  57
ATOM     57  C   UNL     1     -10.372  -7.917  92.405  1.00  0.00     0.165 C 
BRANCH  57  58
ATOM     58  O   UNL     1     -11.219  -8.591  93.289  1.00  0.00    -0.396 OA
ATOM     59  H   UNL     1     -11.894  -9.055  92.730  1.00  0.00     0.210 HD
ENDBRANCH  57  58
ENDBRANCH  29  57
BRANCH  48  60
ATOM     60  O   UNL     1      -4.161  -4.896  98.873  1.00  0.00    -0.392 OA
ATOM     61  H   UNL     1      -5.074  -4.655  98.590  1.00  0.00     0.210 HD
ENDBRANCH  48  60
ENDBRANCH  26  27
ENDBRANCH   6  26
BRANCH   5  62
ATOM     62  O   UNL     1     -10.659  -6.813  88.028  1.00  0.00    -0.385 OA
ATOM     63  H   UNL     1     -11.120  -7.514  87.480  1.00  0.00     0.211 HD
ENDBRANCH   5  62
TORSDOF 14
ENDMDL
MODEL 8
REMARK VINA RESULT:    -5.800      2.275     12.147
REMARK INTER + INTRA:         -12.227
REMARK INTER:                  -9.745
REMARK INTRA:                  -2.482
REMARK UNBOUND:                -3.037
REMARK SMILES C[C@H]1O[C@@H](O[C@@H]2CC[C@]3(C)[C@H](CC[C@]4(C)[C@H]3C=C[C@@]35OC[C@]6(CCC(C)(C)C[C@H]63)[C@@H](O)C[C@@]45C)[C@]2(C)CO)[C@@H](O)[C@@H](O[C@@H]2O[C@H](CO)[C@@H](O)[C@H](O)[C@@H]2O)[C@@H]1O
REMARK SMILES IDX 1 1 2 2 54 3 41 4 39 5 4 6 3 7 55 8 42 10 43 11 52 12 44 13
REMARK SMILES IDX 50 14 45 15 48 16 53 17 51 19 46 21 47 22 49 24 5 26 6 27
REMARK SMILES IDX 7 28 35 29 8 30 11 31 36 32 9 33 12 34 10 35 16 36 13 37
REMARK SMILES IDX 14 38 17 39 15 40 33 41 18 42 19 43 32 44 34 45 29 46 20 47
REMARK SMILES IDX 30 48 22 49 28 50 21 51 23 52 25 53 24 54 26 55 27 56 37 57
REMARK SMILES IDX 38 58 31 60 40 62
REMARK H PARENT 55 9 53 18 51 20 47 23 49 25 38 59 31 61 40 63
REMARK Flexibility Score: inf
ROOT
ATOM      1  C   UNL     1     -11.957  -7.108 102.391  1.00  0.00     0.041 C 
ATOM      2  C   UNL     1     -13.264  -7.686 102.961  1.00  0.00     0.150 C 
ATOM      3  C   UNL     1     -13.042  -8.532 104.236  1.00  0.00     0.175 C 
ATOM      4  C   UNL     1     -12.552  -9.974 103.935  1.00  0.00     0.186 C 
ATOM      5  C   UNL     1     -13.350 -10.572 102.753  1.00  0.00     0.202 C 
ATOM      6  C   UNL     1     -13.562  -9.602 101.567  1.00  0.00     0.282 C 
ATOM      7  O   UNL     1     -14.061  -8.345 101.987  1.00  0.00    -0.344 OA
ENDROOT
BRANCH   3   8
ATOM      8  O   UNL     1     -14.226  -8.585 105.003  1.00  0.00    -0.388 OA
ATOM      9  H   UNL     1     -14.312  -9.497 105.383  1.00  0.00     0.211 HD
ENDBRANCH   3   8
BRANCH   4  10
ATOM     10  O   UNL     1     -11.158 -10.058 103.660  1.00  0.00    -0.341 OA
BRANCH  10  11
ATOM     11  C   UNL     1     -10.398 -10.719 104.677  1.00  0.00     0.282 C 
ATOM     12  C   UNL     1      -9.387 -11.775 104.163  1.00  0.00     0.202 C 
ATOM     13  O   UNL     1      -9.747  -9.752 105.491  1.00  0.00    -0.341 OA
ATOM     14  C   UNL     1      -8.221 -11.135 103.372  1.00  0.00     0.179 C 
ATOM     15  C   UNL     1      -8.686  -9.049 104.831  1.00  0.00     0.178 C 
ATOM     16  C   UNL     1      -7.602  -9.973 104.189  1.00  0.00     0.177 C 
BRANCH  12  17
ATOM     17  O   UNL     1     -10.015 -12.794 103.422  1.00  0.00    -0.385 OA
ATOM     18  H   UNL     1     -10.099 -13.584 104.023  1.00  0.00     0.211 HD
ENDBRANCH  12  17
BRANCH  14  19
ATOM     19  O   UNL     1      -8.576 -10.661 102.092  1.00  0.00    -0.387 OA
ATOM     20  H   UNL     1      -8.260  -9.723 101.990  1.00  0.00     0.211 HD
ENDBRANCH  14  19
BRANCH  15  21
ATOM     21  C   UNL     1      -9.204  -7.955 103.874  1.00  0.00     0.191 C 
BRANCH  21  22
ATOM     22  O   UNL     1      -8.334  -7.825 102.768  1.00  0.00    -0.394 OA
ATOM     23  H   UNL     1      -8.126  -8.755 102.465  1.00  0.00     0.210 HD
ENDBRANCH  21  22
ENDBRANCH  15  21
BRANCH  16  24
ATOM     24  O   UNL     1      -6.720 -10.478 105.166  1.00  0.00    -0.387 OA
ATOM     25  H   UNL     1      -5.786 -10.444 104.808  1.00  0.00     0.211 HD
ENDBRANCH  16  24
ENDBRANCH  10  11
ENDBRANCH   4  10
BRANCH   6  26
ATOM     26  O   UNL     1     -12.393  -9.417 100.780  1.00  0.00    -0.346 OA
BRANCH  26  27
ATOM     27  C   UNL     1     -12.643  -9.019  99.435  1.00  0.00     0.130 C 
ATOM     28  C   UNL     1     -13.309 -10.224  98.752  1.00  0.00     0.033 C 
ATOM     29  C   UNL     1     -11.319  -8.569  98.697  1.00  0.00     0.020 C 
ATOM     30  C   UNL     1     -13.585  -9.990  97.273  1.00  0.00     0.010 C 
ATOM     31  C   UNL     1     -11.596  -8.472  97.113  1.00  0.00     0.006 C 
ATOM     32  C   UNL     1     -10.968  -7.132  99.194  1.00  0.00     0.017 C 
ATOM     33  C   UNL     1     -12.309  -9.682  96.424  1.00  0.00    -0.022 C 
ATOM     34  C   UNL     1     -10.408  -8.023  96.241  1.00  0.00     0.005 C 
ATOM     35  C   UNL     1     -11.424 -10.964  96.396  1.00  0.00     0.012 C 
ATOM     36  C   UNL     1     -12.774  -9.275  94.939  1.00  0.00     0.024 C 
ATOM     37  C   UNL     1     -10.880  -7.391  94.935  1.00  0.00     0.008 C 
ATOM     38  C   UNL     1     -11.938  -8.207  94.071  1.00  0.00    -0.017 C 
ATOM     39  C   UNL     1     -13.242 -10.488  94.146  1.00  0.00    -0.024 C 
ATOM     40  C   UNL     1     -12.980  -7.122  93.631  1.00  0.00     0.013 C 
ATOM     41  C   UNL     1     -11.214  -8.869  92.770  1.00  0.00     0.009 C 
ATOM     42  C   UNL     1     -12.937 -10.768  92.877  1.00  0.00     0.005 C 
ATOM     43  C   UNL     1     -12.170  -9.846  91.948  1.00  0.00     0.096 C 
ATOM     44  C   UNL     1     -10.585  -7.771  91.801  1.00  0.00     0.043 C 
ATOM     45  C   UNL     1     -10.022  -9.765  93.250  1.00  0.00     0.015 C 
ATOM     46  C   UNL     1     -13.127  -9.140  90.953  1.00  0.00     0.037 C 
ATOM     47  O   UNL     1     -11.354 -10.662  91.110  1.00  0.00    -0.369 OA
ATOM     48  C   UNL     1     -11.262  -7.522  90.416  1.00  0.00     0.124 C 
ATOM     49  C   UNL     1     -12.111  -8.735  89.896  1.00  0.00     0.026 C 
ATOM     50  C   UNL     1     -14.232 -10.089  90.387  1.00  0.00     0.014 C 
ATOM     51  C   UNL     1     -11.229  -9.999  89.864  1.00  0.00     0.171 C 
ATOM     52  C   UNL     1     -12.709  -8.386  88.495  1.00  0.00     0.013 C 
ATOM     53  C   UNL     1     -14.898  -9.587  89.086  1.00  0.00    -0.035 C 
ATOM     54  C   UNL     1     -13.805  -9.351  88.024  1.00  0.00     0.007 C 
ATOM     55  C   UNL     1     -15.728  -8.303  89.342  1.00  0.00     0.011 C 
ATOM     56  C   UNL     1     -15.861 -10.687  88.582  1.00  0.00     0.011 C 
BRANCH  29  57
ATOM     57  C   UNL     1     -10.133  -9.494  99.136  1.00  0.00     0.165 C 
BRANCH  57  58
ATOM     58  O   UNL     1      -9.368  -8.930 100.161  1.00  0.00    -0.396 OA
ATOM     59  H   UNL     1      -9.905  -8.180 100.528  1.00  0.00     0.210 HD
ENDBRANCH  57  58
ENDBRANCH  29  57
BRANCH  48  60
ATOM     60  O   UNL     1     -11.949  -6.286  90.422  1.00  0.00    -0.392 OA
ATOM     61  H   UNL     1     -11.332  -5.554  90.187  1.00  0.00     0.210 HD
ENDBRANCH  48  60
ENDBRANCH  26  27
ENDBRANCH   6  26
BRANCH   5  62
ATOM     62  O   UNL     1     -12.745 -11.751 102.286  1.00  0.00    -0.385 OA
ATOM     63  H   UNL     1     -13.464 -12.301 101.858  1.00  0.00     0.211 HD
ENDBRANCH   5  62
TORSDOF 14
ENDMDL
MODEL 9
REMARK VINA RESULT:    -5.786      5.869      8.920
REMARK INTER + INTRA:         -12.206
REMARK INTER:                  -9.823
REMARK INTRA:                  -2.383
REMARK UNBOUND:                -3.037
REMARK SMILES C[C@H]1O[C@@H](O[C@@H]2CC[C@]3(C)[C@H](CC[C@]4(C)[C@H]3C=C[C@@]35OC[C@]6(CCC(C)(C)C[C@H]63)[C@@H](O)C[C@@]45C)[C@]2(C)CO)[C@@H](O)[C@@H](O[C@@H]2O[C@H](CO)[C@@H](O)[C@H](O)[C@@H]2O)[C@@H]1O
REMARK SMILES IDX 1 1 2 2 54 3 41 4 39 5 4 6 3 7 55 8 42 10 43 11 52 12 44 13
REMARK SMILES IDX 50 14 45 15 48 16 53 17 51 19 46 21 47 22 49 24 5 26 6 27
REMARK SMILES IDX 7 28 35 29 8 30 11 31 36 32 9 33 12 34 10 35 16 36 13 37
REMARK SMILES IDX 14 38 17 39 15 40 33 41 18 42 19 43 32 44 34 45 29 46 20 47
REMARK SMILES IDX 30 48 22 49 28 50 21 51 23 52 25 53 24 54 26 55 27 56 37 57
REMARK SMILES IDX 38 58 31 60 40 62
REMARK H PARENT 55 9 53 18 51 20 47 23 49 25 38 59 31 61 40 63
REMARK Flexibility Score: inf
ROOT
ATOM      1  C   UNL     1     -12.956  -7.465  91.591  1.00  0.00     0.041 C 
ATOM      2  C   UNL     1     -12.635  -8.746  90.802  1.00  0.00     0.150 C 
ATOM      3  C   UNL     1     -13.352  -9.994  91.365  1.00  0.00     0.175 C 
ATOM      4  C   UNL     1     -12.643 -10.598  92.607  1.00  0.00     0.186 C 
ATOM      5  C   UNL     1     -11.113 -10.636  92.382  1.00  0.00     0.202 C 
ATOM      6  C   UNL     1     -10.528  -9.351  91.750  1.00  0.00     0.282 C 
ATOM      7  O   UNL     1     -11.244  -8.948  90.596  1.00  0.00    -0.344 OA
ENDROOT
BRANCH   3   8
ATOM      8  O   UNL     1     -13.478 -10.982  90.365  1.00  0.00    -0.388 OA
ATOM      9  H   UNL     1     -14.020 -11.728  90.729  1.00  0.00     0.211 HD
ENDBRANCH   3   8
BRANCH   4  10
ATOM     10  O   UNL     1     -12.930  -9.911  93.820  1.00  0.00    -0.341 OA
BRANCH  10  11
ATOM     11  C   UNL     1     -13.797 -10.624  94.707  1.00  0.00     0.282 C 
ATOM     12  C   UNL     1     -13.082 -11.484  95.779  1.00  0.00     0.202 C 
ATOM     13  O   UNL     1     -14.709  -9.716  95.315  1.00  0.00    -0.341 OA
ATOM     14  C   UNL     1     -12.332 -10.619  96.821  1.00  0.00     0.179 C 
ATOM     15  C   UNL     1     -14.103  -8.819  96.255  1.00  0.00     0.178 C 
ATOM     16  C   UNL     1     -13.275  -9.524  97.378  1.00  0.00     0.177 C 
BRANCH  12  17
ATOM     17  O   UNL     1     -12.235 -12.451  95.204  1.00  0.00    -0.385 OA
ATOM     18  H   UNL     1     -12.819 -13.161  94.823  1.00  0.00     0.211 HD
ENDBRANCH  12  17
BRANCH  14  19
ATOM     19  O   UNL     1     -11.155 -10.011  96.335  1.00  0.00    -0.387 OA
ATOM     20  H   UNL     1     -11.212  -9.028  96.476  1.00  0.00     0.211 HD
ENDBRANCH  14  19
BRANCH  15  21
ATOM     21  C   UNL     1     -13.345  -7.663  95.570  1.00  0.00     0.191 C 
BRANCH  21  22
ATOM     22  O   UNL     1     -14.190  -7.008  94.645  1.00  0.00    -0.394 OA
ATOM     23  H   UNL     1     -14.048  -6.028  94.782  1.00  0.00     0.210 HD
ENDBRANCH  21  22
ENDBRANCH  15  21
BRANCH  16  24
ATOM     24  O   UNL     1     -14.120 -10.065  98.369  1.00  0.00    -0.387 OA
ATOM     25  H   UNL     1     -14.418  -9.328  98.978  1.00  0.00     0.211 HD
ENDBRANCH  16  24
ENDBRANCH  10  11
ENDBRANCH   4  10
BRANCH   6  26
ATOM     26  O   UNL     1     -10.442  -8.267  92.664  1.00  0.00    -0.346 OA
BRANCH  26  27
ATOM     27  C   UNL     1      -9.127  -8.008  93.151  1.00  0.00     0.130 C 
ATOM     28  C   UNL     1      -9.289  -7.635  94.633  1.00  0.00     0.033 C 
ATOM     29  C   UNL     1      -8.405  -6.871  92.323  1.00  0.00     0.020 C 
ATOM     30  C   UNL     1      -7.972  -7.256  95.297  1.00  0.00     0.010 C 
ATOM     31  C   UNL     1      -7.093  -6.381  93.118  1.00  0.00     0.006 C 
ATOM     32  C   UNL     1      -7.923  -7.501  90.979  1.00  0.00     0.017 C 
ATOM     33  C   UNL     1      -7.248  -6.038  94.636  1.00  0.00    -0.022 C 
ATOM     34  C   UNL     1      -6.254  -5.283  92.436  1.00  0.00     0.005 C 
ATOM     35  C   UNL     1      -8.117  -4.767  94.879  1.00  0.00     0.012 C 
ATOM     36  C   UNL     1      -5.799  -5.879  95.317  1.00  0.00     0.024 C 
ATOM     37  C   UNL     1      -4.802  -5.318  92.903  1.00  0.00     0.008 C 
ATOM     38  C   UNL     1      -4.541  -5.334  94.473  1.00  0.00    -0.017 C 
ATOM     39  C   UNL     1      -5.900  -5.302  96.722  1.00  0.00    -0.024 C 
ATOM     40  C   UNL     1      -3.419  -6.413  94.655  1.00  0.00     0.013 C 
ATOM     41  C   UNL     1      -4.021  -3.873  94.974  1.00  0.00     0.009 C 
ATOM     42  C   UNL     1      -5.125  -4.348  97.242  1.00  0.00     0.005 C 
ATOM     43  C   UNL     1      -3.904  -3.758  96.561  1.00  0.00     0.096 C 
ATOM     44  C   UNL     1      -2.646  -3.451  94.288  1.00  0.00     0.043 C 
ATOM     45  C   UNL     1      -5.071  -2.788  94.558  1.00  0.00     0.015 C 
ATOM     46  C   UNL     1      -2.598  -4.338  97.163  1.00  0.00     0.037 C 
ATOM     47  O   UNL     1      -3.848  -2.374  96.900  1.00  0.00    -0.369 OA
ATOM     48  C   UNL     1      -1.353  -3.426  95.163  1.00  0.00     0.124 C 
ATOM     49  C   UNL     1      -1.627  -3.263  96.699  1.00  0.00     0.026 C 
ATOM     50  C   UNL     1      -2.647  -4.468  98.720  1.00  0.00     0.014 C 
ATOM     51  C   UNL     1      -2.481  -2.001  96.935  1.00  0.00     0.171 C 
ATOM     52  C   UNL     1      -0.267  -3.217  97.467  1.00  0.00     0.013 C 
ATOM     53  C   UNL     1      -1.261  -4.591  99.392  1.00  0.00    -0.035 C 
ATOM     54  C   UNL     1      -0.400  -3.378  98.987  1.00  0.00     0.007 C 
ATOM     55  C   UNL     1      -0.573  -5.928  99.015  1.00  0.00     0.011 C 
ATOM     56  C   UNL     1      -1.466  -4.574 100.925  1.00  0.00     0.011 C 
BRANCH  29  57
ATOM     57  C   UNL     1      -9.441  -5.757  91.946  1.00  0.00     0.165 C 
BRANCH  57  58
ATOM     58  O   UNL     1     -10.058  -5.998  90.715  1.00  0.00    -0.396 OA
ATOM     59  H   UNL     1      -9.665  -6.840  90.367  1.00  0.00     0.210 HD
ENDBRANCH  57  58
ENDBRANCH  29  57
BRANCH  48  60
ATOM     60  O   UNL     1      -0.515  -4.515  94.830  1.00  0.00    -0.392 OA
ATOM     61  H   UNL     1       0.375  -4.397  95.237  1.00  0.00     0.210 HD
ENDBRANCH  48  60
ENDBRANCH  26  27
ENDBRANCH   6  26
BRANCH   5  62
ATOM     62  O   UNL     1     -10.438 -10.913  93.581  1.00  0.00    -0.385 OA
ATOM     63  H   UNL     1     -11.125 -10.924  94.310  1.00  0.00     0.211 HD
ENDBRANCH   5  62
TORSDOF 14
ENDMDL
