MODEL 1
REMARK VINA RESULT:    -2.869      0.000      0.000
REMARK INTER + INTRA:          -4.291
REMARK INTER:                  -4.378
REMARK INTRA:                   0.087
REMARK UNBOUND:                 0.087
REMARK SMILES CC1=CCC[C@H](C)C(=O)C[C@H](C(C)C)C(=O)C1
REMARK SMILES IDX 8 1 9 2 6 3 7 4 5 5 4 6 3 7 2 8 1 9 10 11 11 12 15 13 16 14
REMARK SMILES IDX 17 15 12 17 13 18 14 19
REMARK H PARENT
REMARK Flexibility Score: 70.00
ROOT
ATOM      1  C   UNL     1     165.671 199.910 302.911  1.00  0.00     0.136 C 
ATOM      2  O   UNL     1     165.446 198.753 302.581  1.00  0.00    -0.299 OA
ENDROOT
BRANCH   1   3
ATOM      3  C   UNL     1     165.085 200.435 304.209  1.00  0.00     0.053 C 
ATOM      4  C   UNL     1     165.589 199.615 305.402  1.00  0.00     0.016 C 
BRANCH   3   5
ATOM      5  C   UNL     1     165.439 201.940 304.363  1.00  0.00     0.015 C 
BRANCH   5   6
ATOM      6  C   UNL     1     164.230 202.895 304.362  1.00  0.00     0.028 C 
BRANCH   6   7
ATOM      7  C   UNL     1     163.216 202.687 303.255  1.00  0.00    -0.028 C 
ATOM      8  C   UNL     1     163.430 202.836 301.926  1.00  0.00    -0.070 CG0
ATOM      9  C   UNL     1     162.256 202.656 300.994  1.00  0.00     0.039 C 
ATOM     10  G   UNL     1     164.793 203.109 301.320  1.00  0.00     0.000 G0
ENDBRANCH   6   7
ENDBRANCH   5   6
ENDBRANCH   3   5
ENDBRANCH   1   3
BRANCH   1  11
ATOM     11  C   UNL     1     166.531 200.772 302.010  1.00  0.00     0.087 C 
BRANCH  11  12
ATOM     12  C   UNL     1     166.035 200.836 300.537  1.00  0.00     0.066 C 
BRANCH  12  13
ATOM     13  C   UNL     1     165.237 202.107 300.248  1.00  0.00     0.140 C 
ATOM     14  O   UNL     1     164.894 202.337 299.097  1.00  0.00    -0.299 OA
BRANCH  13  15
ATOM     15  C   UNL     1     164.819 203.101 301.319  1.00  0.00     0.106 CG0
ATOM     16  G   UNL     1     163.451 202.837 301.919  1.00  0.00     0.000 G0
ENDBRANCH  13  15
ENDBRANCH  12  13
BRANCH  12  17
ATOM     17  C   UNL     1     167.167 200.640 299.480  1.00  0.00    -0.006 C 
ATOM     18  C   UNL     1     168.096 201.854 299.310  1.00  0.00     0.008 C 
ATOM     19  C   UNL     1     168.001 199.380 299.765  1.00  0.00     0.008 C 
ENDBRANCH  12  17
ENDBRANCH  11  12
ENDBRANCH   1  11
TORSDOF 1
ENDMDL
MODEL 2
REMARK VINA RESULT:    -2.769      2.299      5.191
REMARK INTER + INTRA:          -4.138
REMARK INTER:                  -4.843
REMARK INTRA:                   0.706
REMARK UNBOUND:                 0.087
REMARK SMILES CC1=CCC[C@H](C)C(=O)C[C@H](C(C)C)C(=O)C1
REMARK SMILES IDX 8 1 9 2 6 3 7 4 5 5 4 6 3 7 2 8 1 9 10 11 11 12 15 13 16 14
REMARK SMILES IDX 17 15 12 17 13 18 14 19
REMARK H PARENT
REMARK Flexibility Score: 70.00
ROOT
ATOM      1  C   UNL     1     164.345 202.294 303.949  1.00  0.00     0.136 C 
ATOM      2  O   UNL     1     163.180 202.100 304.269  1.00  0.00    -0.299 OA
ENDROOT
BRANCH   1   3
ATOM      3  C   UNL     1     164.643 203.087 302.690  1.00  0.00     0.053 C 
ATOM      4  C   UNL     1     166.148 203.096 302.398  1.00  0.00     0.016 C 
BRANCH   3   5
ATOM      5  C   UNL     1     163.837 202.494 301.502  1.00  0.00     0.015 C 
BRANCH   5   6
ATOM      6  C   UNL     1     164.034 200.983 301.273  1.00  0.00     0.028 C 
BRANCH   6   7
ATOM      7  C   UNL     1     165.446 200.536 300.949  1.00  0.00    -0.028 C 
ATOM      8  C   UNL     1     166.197 199.658 301.656  1.00  0.00    -0.070 CG0
ATOM      9  C   UNL     1     167.616 199.412 301.202  1.00  0.00     0.039 C 
ATOM     10  G   UNL     1     165.671 198.863 302.835  1.00  0.00     0.000 G0
ENDBRANCH   6   7
ENDBRANCH   5   6
ENDBRANCH   3   5
ENDBRANCH   1   3
BRANCH   1  11
ATOM     11  C   UNL     1     165.446 201.735 304.826  1.00  0.00     0.087 C 
BRANCH  11  12
ATOM     12  C   UNL     1     165.300 200.217 305.131  1.00  0.00     0.066 C 
BRANCH  12  13
ATOM     13  C   UNL     1     166.149 199.353 304.200  1.00  0.00     0.140 C 
ATOM     14  O   UNL     1     167.267 199.017 304.565  1.00  0.00    -0.299 OA
BRANCH  13  15
ATOM     15  C   UNL     1     165.674 198.859 302.843  1.00  0.00     0.106 CG0
ATOM     16  G   UNL     1     166.200 199.657 301.666  1.00  0.00     0.000 G0
ENDBRANCH  13  15
ENDBRANCH  12  13
BRANCH  12  17
ATOM     17  C   UNL     1     165.563 199.845 306.625  1.00  0.00    -0.006 C 
ATOM     18  C   UNL     1     164.570 200.471 307.620  1.00  0.00     0.008 C 
ATOM     19  C   UNL     1     165.621 198.323 306.832  1.00  0.00     0.008 C 
ENDBRANCH  12  17
ENDBRANCH  11  12
ENDBRANCH   1  11
TORSDOF 1
ENDMDL
MODEL 3
REMARK VINA RESULT:    -2.557      2.098      4.578
REMARK INTER + INTRA:          -3.814
REMARK INTER:                  -4.070
REMARK INTRA:                   0.256
REMARK UNBOUND:                 0.087
REMARK SMILES CC1=CCC[C@H](C)C(=O)C[C@H](C(C)C)C(=O)C1
REMARK SMILES IDX 8 1 9 2 6 3 7 4 5 5 4 6 3 7 2 8 1 9 10 11 11 12 15 13 16 14
REMARK SMILES IDX 17 15 12 17 13 18 14 19
REMARK H PARENT
REMARK Flexibility Score: 70.00
ROOT
ATOM      1  C   UNL     1     163.085 202.319 302.179  1.00  0.00     0.136 C 
ATOM      2  O   UNL     1     162.035 202.901 302.413  1.00  0.00    -0.299 OA
ENDROOT
BRANCH   1   3
ATOM      3  C   UNL     1     163.401 201.909 300.753  1.00  0.00     0.053 C 
ATOM      4  C   UNL     1     162.121 201.511 300.007  1.00  0.00     0.016 C 
BRANCH   3   5
ATOM      5  C   UNL     1     164.140 203.070 300.033  1.00  0.00     0.015 C 
BRANCH   5   6
ATOM      6  C   UNL     1     165.168 202.629 298.973  1.00  0.00     0.028 C 
BRANCH   6   7
ATOM      7  C   UNL     1     166.041 201.446 299.343  1.00  0.00    -0.028 C 
ATOM      8  C   UNL     1     166.967 201.404 300.330  1.00  0.00    -0.070 CG0
ATOM      9  C   UNL     1     167.788 200.146 300.479  1.00  0.00     0.039 C 
ATOM     10  G   UNL     1     167.177 202.523 301.332  1.00  0.00     0.000 G0
ENDBRANCH   6   7
ENDBRANCH   5   6
ENDBRANCH   3   5
ENDBRANCH   1   3
BRANCH   1  11
ATOM     11  C   UNL     1     164.032 202.033 303.326  1.00  0.00     0.087 C 
BRANCH  11  12
ATOM     12  C   UNL     1     165.349 201.326 302.896  1.00  0.00     0.066 C 
BRANCH  12  13
ATOM     13  C   UNL     1     166.491 202.315 302.667  1.00  0.00     0.140 C 
ATOM     14  O   UNL     1     166.912 202.958 303.619  1.00  0.00    -0.299 OA
BRANCH  13  15
ATOM     15  C   UNL     1     167.160 202.532 301.320  1.00  0.00     0.106 CG0
ATOM     16  G   UNL     1     166.960 201.400 300.331  1.00  0.00     0.000 G0
ENDBRANCH  13  15
ENDBRANCH  12  13
BRANCH  12  17
ATOM     17  C   UNL     1     165.793 200.179 303.858  1.00  0.00    -0.006 C 
ATOM     18  C   UNL     1     165.246 200.302 305.291  1.00  0.00     0.008 C 
ATOM     19  C   UNL     1     165.456 198.793 303.287  1.00  0.00     0.008 C 
ENDBRANCH  12  17
ENDBRANCH  11  12
ENDBRANCH   1  11
TORSDOF 1
ENDMDL
MODEL 4
REMARK VINA RESULT:    -2.411      1.498      4.381
REMARK INTER + INTRA:          -3.592
REMARK INTER:                  -4.534
REMARK INTRA:                   0.942
REMARK UNBOUND:                 0.087
REMARK SMILES CC1=CCC[C@H](C)C(=O)C[C@H](C(C)C)C(=O)C1
REMARK SMILES IDX 8 1 9 2 6 3 7 4 5 5 4 6 3 7 2 8 1 9 10 11 11 12 15 13 16 14
REMARK SMILES IDX 17 15 12 17 13 18 14 19
REMARK H PARENT
REMARK Flexibility Score: 70.00
ROOT
ATOM      1  C   UNL     1     166.478 199.391 301.968  1.00  0.00     0.136 C 
ATOM      2  O   UNL     1     165.338 199.408 301.523  1.00  0.00    -0.299 OA
ENDROOT
BRANCH   1   3
ATOM      3  C   UNL     1     167.611 199.936 301.119  1.00  0.00     0.053 C 
ATOM      4  C   UNL     1     168.396 198.793 300.464  1.00  0.00     0.016 C 
BRANCH   3   5
ATOM      5  C   UNL     1     167.036 200.912 300.056  1.00  0.00     0.015 C 
BRANCH   5   6
ATOM      6  C   UNL     1     166.914 202.377 300.516  1.00  0.00     0.028 C 
BRANCH   6   7
ATOM      7  C   UNL     1     165.544 202.812 301.001  1.00  0.00    -0.028 C 
ATOM      8  C   UNL     1     165.062 202.703 302.262  1.00  0.00    -0.070 CG0
ATOM      9  C   UNL     1     163.635 203.125 302.515  1.00  0.00     0.039 C 
ATOM     10  G   UNL     1     165.896 202.243 303.442  1.00  0.00     0.000 G0
ENDBRANCH   6   7
ENDBRANCH   5   6
ENDBRANCH   3   5
ENDBRANCH   1   3
BRANCH   1  11
ATOM     11  C   UNL     1     166.712 198.826 303.354  1.00  0.00     0.087 C 
BRANCH  11  12
ATOM     12  C   UNL     1     166.435 199.837 304.503  1.00  0.00     0.066 C 
BRANCH  12  13
ATOM     13  C   UNL     1     165.462 200.939 304.085  1.00  0.00     0.140 C 
ATOM     14  O   UNL     1     164.266 200.773 304.278  1.00  0.00    -0.299 OA
BRANCH  13  15
ATOM     15  C   UNL     1     165.898 202.255 303.459  1.00  0.00     0.106 CG0
ATOM     16  G   UNL     1     165.069 202.685 302.265  1.00  0.00     0.000 G0
ENDBRANCH  13  15
ENDBRANCH  12  13
BRANCH  12  17
ATOM     17  C   UNL     1     165.974 199.168 305.836  1.00  0.00    -0.006 C 
ATOM     18  C   UNL     1     166.690 197.846 306.165  1.00  0.00     0.008 C 
ATOM     19  C   UNL     1     166.085 200.133 307.027  1.00  0.00     0.008 C 
ENDBRANCH  12  17
ENDBRANCH  11  12
ENDBRANCH   1  11
TORSDOF 1
ENDMDL
MODEL 5
REMARK VINA RESULT:    -2.361      2.097      4.274
REMARK INTER + INTRA:          -3.515
REMARK INTER:                  -4.322
REMARK INTRA:                   0.807
REMARK UNBOUND:                 0.087
REMARK SMILES CC1=CCC[C@H](C)C(=O)C[C@H](C(C)C)C(=O)C1
REMARK SMILES IDX 8 1 9 2 6 3 7 4 5 5 4 6 3 7 2 8 1 9 10 11 11 12 15 13 16 14
REMARK SMILES IDX 17 15 12 17 13 18 14 19
REMARK H PARENT
REMARK Flexibility Score: 70.00
ROOT
ATOM      1  C   UNL     1     164.643 201.125 305.283  1.00  0.00     0.136 C 
ATOM      2  O   UNL     1     163.975 201.939 305.906  1.00  0.00    -0.299 OA
ENDROOT
BRANCH   1   3
ATOM      3  C   UNL     1     165.720 200.342 306.011  1.00  0.00     0.053 C 
ATOM      4  C   UNL     1     165.130 199.086 306.664  1.00  0.00     0.016 C 
BRANCH   3   5
ATOM      5  C   UNL     1     166.859 199.984 305.018  1.00  0.00     0.015 C 
BRANCH   5   6
ATOM      6  C   UNL     1     166.492 198.925 303.961  1.00  0.00     0.028 C 
BRANCH   6   7
ATOM      7  C   UNL     1     167.356 198.898 302.715  1.00  0.00    -0.028 C 
ATOM      8  C   UNL     1     167.040 199.410 301.502  1.00  0.00    -0.070 CG0
ATOM      9  C   UNL     1     168.016 199.203 300.369  1.00  0.00     0.039 C 
ATOM     10  G   UNL     1     165.794 200.232 301.237  1.00  0.00     0.000 G0
ENDBRANCH   6   7
ENDBRANCH   5   6
ENDBRANCH   3   5
ENDBRANCH   1   3
BRANCH   1  11
ATOM     11  C   UNL     1     164.367 200.930 303.807  1.00  0.00     0.087 C 
BRANCH  11  12
ATOM     12  C   UNL     1     164.853 202.106 302.913  1.00  0.00     0.066 C 
BRANCH  12  13
ATOM     13  C   UNL     1     165.828 201.647 301.830  1.00  0.00     0.140 C 
ATOM     14  O   UNL     1     166.690 202.425 301.446  1.00  0.00    -0.299 OA
BRANCH  13  15
ATOM     15  C   UNL     1     165.807 200.258 301.211  1.00  0.00     0.106 CG0
ATOM     16  G   UNL     1     167.034 199.420 301.513  1.00  0.00     0.000 G0
ENDBRANCH  13  15
ENDBRANCH  12  13
BRANCH  12  17
ATOM     17  C   UNL     1     163.694 202.950 302.294  1.00  0.00    -0.006 C 
ATOM     18  C   UNL     1     163.176 202.425 300.943  1.00  0.00     0.008 C 
ATOM     19  C   UNL     1     162.522 203.116 303.274  1.00  0.00     0.008 C 
ENDBRANCH  12  17
ENDBRANCH  11  12
ENDBRANCH   1  11
TORSDOF 1
ENDMDL
MODEL 6
REMARK VINA RESULT:    -2.294      2.062      3.888
REMARK INTER + INTRA:          -3.413
REMARK INTER:                  -4.527
REMARK INTRA:                   1.114
REMARK UNBOUND:                 0.087
REMARK SMILES CC1=CCC[C@H](C)C(=O)C[C@H](C(C)C)C(=O)C1
REMARK SMILES IDX 8 1 9 2 6 3 7 4 5 5 4 6 3 7 2 8 1 9 10 11 11 12 15 13 16 14
REMARK SMILES IDX 17 15 12 17 13 18 14 19
REMARK H PARENT
REMARK Flexibility Score: 70.00
ROOT
ATOM      1  C   UNL     1     165.964 202.070 303.633  1.00  0.00     0.136 C 
ATOM      2  O   UNL     1     166.697 202.911 304.135  1.00  0.00    -0.299 OA
ENDROOT
BRANCH   1   3
ATOM      3  C   UNL     1     166.247 200.600 303.881  1.00  0.00     0.053 C 
ATOM      4  C   UNL     1     166.517 200.343 305.368  1.00  0.00     0.016 C 
BRANCH   3   5
ATOM      5  C   UNL     1     165.054 199.750 303.364  1.00  0.00     0.015 C 
BRANCH   5   6
ATOM      6  C   UNL     1     165.203 199.228 301.922  1.00  0.00     0.028 C 
BRANCH   6   7
ATOM      7  C   UNL     1     166.616 199.176 301.375  1.00  0.00    -0.028 C 
ATOM      8  C   UNL     1     167.154 200.005 300.448  1.00  0.00    -0.070 CG0
ATOM      9  C   UNL     1     168.562 199.727 299.980  1.00  0.00     0.039 C 
ATOM     10  G   UNL     1     166.445 201.231 299.906  1.00  0.00     0.000 G0
ENDBRANCH   6   7
ENDBRANCH   5   6
ENDBRANCH   3   5
ENDBRANCH   1   3
BRANCH   1  11
ATOM     11  C   UNL     1     164.799 202.532 302.782  1.00  0.00     0.087 C 
BRANCH  11  12
ATOM     12  C   UNL     1     165.216 203.107 301.399  1.00  0.00     0.066 C 
BRANCH  12  13
ATOM     13  C   UNL     1     166.478 202.443 300.850  1.00  0.00     0.140 C 
ATOM     14  O   UNL     1     167.568 202.876 301.197  1.00  0.00    -0.299 OA
BRANCH  13  15
ATOM     15  C   UNL     1     166.462 201.249 299.910  1.00  0.00     0.106 CG0
ATOM     16  G   UNL     1     167.157 200.015 300.452  1.00  0.00     0.000 G0
ENDBRANCH  13  15
ENDBRANCH  12  13
BRANCH  12  17
ATOM     17  C   UNL     1     164.072 203.086 300.335  1.00  0.00    -0.006 C 
ATOM     18  C   UNL     1     164.550 202.857 298.891  1.00  0.00     0.008 C 
ATOM     19  C   UNL     1     162.980 202.065 300.692  1.00  0.00     0.008 C 
ENDBRANCH  12  17
ENDBRANCH  11  12
ENDBRANCH   1  11
TORSDOF 1
ENDMDL
MODEL 7
REMARK VINA RESULT:    -2.217      1.952      4.305
REMARK INTER + INTRA:          -3.296
REMARK INTER:                  -3.954
REMARK INTRA:                   0.657
REMARK UNBOUND:                 0.087
REMARK SMILES CC1=CCC[C@H](C)C(=O)C[C@H](C(C)C)C(=O)C1
REMARK SMILES IDX 8 1 9 2 6 3 7 4 5 5 4 6 3 7 2 8 1 9 10 11 11 12 15 13 16 14
REMARK SMILES IDX 17 15 12 17 13 18 14 19
REMARK H PARENT
REMARK Flexibility Score: 70.00
ROOT
ATOM      1  C   UNL     1     165.985 200.238 304.739  1.00  0.00     0.136 C 
ATOM      2  O   UNL     1     166.665 200.402 305.743  1.00  0.00    -0.299 OA
ENDROOT
BRANCH   1   3
ATOM      3  C   UNL     1     166.521 199.370 303.616  1.00  0.00     0.053 C 
ATOM      4  C   UNL     1     167.286 198.166 304.179  1.00  0.00     0.016 C 
BRANCH   3   5
ATOM      5  C   UNL     1     165.347 198.921 302.704  1.00  0.00     0.015 C 
BRANCH   5   6
ATOM      6  C   UNL     1     164.948 199.931 301.611  1.00  0.00     0.028 C 
BRANCH   6   7
ATOM      7  C   UNL     1     166.082 200.722 300.989  1.00  0.00    -0.028 C 
ATOM      8  C   UNL     1     166.279 202.059 301.079  1.00  0.00    -0.070 CG0
ATOM      9  C   UNL     1     167.433 202.660 300.313  1.00  0.00     0.039 C 
ATOM     10  G   UNL     1     165.447 202.972 301.959  1.00  0.00     0.000 G0
ENDBRANCH   6   7
ENDBRANCH   5   6
ENDBRANCH   3   5
ENDBRANCH   1   3
BRANCH   1  11
ATOM     11  C   UNL     1     164.629 200.908 304.659  1.00  0.00     0.087 C 
BRANCH  11  12
ATOM     12  C   UNL     1     164.696 202.451 304.479  1.00  0.00     0.066 C 
BRANCH  12  13
ATOM     13  C   UNL     1     165.745 202.870 303.450  1.00  0.00     0.140 C 
ATOM     14  O   UNL     1     166.885 203.100 303.831  1.00  0.00    -0.299 OA
BRANCH  13  15
ATOM     15  C   UNL     1     165.463 202.995 301.961  1.00  0.00     0.106 CG0
ATOM     16  G   UNL     1     166.284 202.068 301.087  1.00  0.00     0.000 G0
ENDBRANCH  13  15
ENDBRANCH  12  13
BRANCH  12  17
ATOM     17  C   UNL     1     163.317 203.111 304.164  1.00  0.00    -0.006 C 
ATOM     18  C   UNL     1     162.645 202.599 302.878  1.00  0.00     0.008 C 
ATOM     19  C   UNL     1     162.343 202.989 305.347  1.00  0.00     0.008 C 
ENDBRANCH  12  17
ENDBRANCH  11  12
ENDBRANCH   1  11
TORSDOF 1
ENDMDL
MODEL 8
REMARK VINA RESULT:    -2.178      1.800      4.077
REMARK INTER + INTRA:          -3.237
REMARK INTER:                  -4.370
REMARK INTRA:                   1.133
REMARK UNBOUND:                 0.087
REMARK SMILES CC1=CCC[C@H](C)C(=O)C[C@H](C(C)C)C(=O)C1
REMARK SMILES IDX 8 1 9 2 6 3 7 4 5 5 4 6 3 7 2 8 1 9 10 11 11 12 15 13 16 14
REMARK SMILES IDX 17 15 12 17 13 18 14 19
REMARK H PARENT
REMARK Flexibility Score: 70.00
ROOT
ATOM      1  C   UNL     1     167.613 199.448 301.202  1.00  0.00     0.136 C 
ATOM      2  O   UNL     1     168.472 198.809 301.792  1.00  0.00    -0.299 OA
ENDROOT
BRANCH   1   3
ATOM      3  C   UNL     1     168.003 200.257 299.979  1.00  0.00     0.053 C 
ATOM      4  C   UNL     1     168.663 199.361 298.924  1.00  0.00     0.016 C 
BRANCH   3   5
ATOM      5  C   UNL     1     166.747 200.972 299.410  1.00  0.00     0.015 C 
BRANCH   5   6
ATOM      6  C   UNL     1     166.518 202.402 299.936  1.00  0.00     0.028 C 
BRANCH   6   7
ATOM      7  C   UNL     1     165.121 202.963 299.758  1.00  0.00    -0.028 C 
ATOM      8  C   UNL     1     163.974 202.450 300.263  1.00  0.00    -0.070 CG0
ATOM      9  C   UNL     1     162.673 203.122 299.897  1.00  0.00     0.039 C 
ATOM     10  G   UNL     1     163.932 201.279 301.227  1.00  0.00     0.000 G0
ENDBRANCH   6   7
ENDBRANCH   5   6
ENDBRANCH   3   5
ENDBRANCH   1   3
BRANCH   1  11
ATOM     11  C   UNL     1     166.189 199.404 301.715  1.00  0.00     0.087 C 
BRANCH  11  12
ATOM     12  C   UNL     1     165.896 200.424 302.852  1.00  0.00     0.066 C 
BRANCH  12  13
ATOM     13  C   UNL     1     164.837 201.451 302.453  1.00  0.00     0.140 C 
ATOM     14  O   UNL     1     164.724 202.470 303.120  1.00  0.00    -0.299 OA
BRANCH  13  15
ATOM     15  C   UNL     1     163.923 201.294 301.249  1.00  0.00     0.106 CG0
ATOM     16  G   UNL     1     163.986 202.442 300.260  1.00  0.00     0.000 G0
ENDBRANCH  13  15
ENDBRANCH  12  13
BRANCH  12  17
ATOM     17  C   UNL     1     165.536 199.760 304.219  1.00  0.00    -0.006 C 
ATOM     18  C   UNL     1     166.593 198.774 304.746  1.00  0.00     0.008 C 
ATOM     19  C   UNL     1     165.216 200.809 305.296  1.00  0.00     0.008 C 
ENDBRANCH  12  17
ENDBRANCH  11  12
ENDBRANCH   1  11
TORSDOF 1
ENDMDL
MODEL 9
REMARK VINA RESULT:    -2.143      1.836      3.138
REMARK INTER + INTRA:          -3.183
REMARK INTER:                  -3.918
REMARK INTRA:                   0.735
REMARK UNBOUND:                 0.087
REMARK SMILES CC1=CCC[C@H](C)C(=O)C[C@H](C(C)C)C(=O)C1
REMARK SMILES IDX 8 1 9 2 6 3 7 4 5 5 4 6 3 7 2 8 1 9 10 11 11 12 15 13 16 14
REMARK SMILES IDX 17 15 12 17 13 18 14 19
REMARK H PARENT
REMARK Flexibility Score: 70.00
ROOT
ATOM      1  C   UNL     1     166.507 200.299 301.282  1.00  0.00     0.136 C 
ATOM      2  O   UNL     1     167.171 200.065 300.281  1.00  0.00    -0.299 OA
ENDROOT
BRANCH   1   3
ATOM      3  C   UNL     1     166.115 199.152 302.194  1.00  0.00     0.053 C 
ATOM      4  C   UNL     1     167.323 198.665 303.004  1.00  0.00     0.016 C 
BRANCH   3   5
ATOM      5  C   UNL     1     164.954 199.604 303.122  1.00  0.00     0.015 C 
BRANCH   5   6
ATOM      6  C   UNL     1     165.395 200.203 304.471  1.00  0.00     0.028 C 
BRANCH   6   7
ATOM      7  C   UNL     1     164.367 201.054 305.190  1.00  0.00    -0.028 C 
ATOM      8  C   UNL     1     164.051 202.343 304.916  1.00  0.00    -0.070 CG0
ATOM      9  C   UNL     1     163.051 203.034 305.811  1.00  0.00     0.039 C 
ATOM     10  G   UNL     1     164.598 203.105 303.724  1.00  0.00     0.000 G0
ENDBRANCH   6   7
ENDBRANCH   5   6
ENDBRANCH   3   5
ENDBRANCH   1   3
BRANCH   1  11
ATOM     11  C   UNL     1     166.105 201.730 301.571  1.00  0.00     0.087 C 
BRANCH  11  12
ATOM     12  C   UNL     1     164.617 202.045 301.248  1.00  0.00     0.066 C 
BRANCH  12  13
ATOM     13  C   UNL     1     163.915 202.775 302.393  1.00  0.00     0.140 C 
ATOM     14  O   UNL     1     162.740 203.085 302.260  1.00  0.00    -0.299 OA
BRANCH  13  15
ATOM     15  C   UNL     1     164.590 203.121 303.710  1.00  0.00     0.106 CG0
ATOM     16  G   UNL     1     164.070 202.344 304.904  1.00  0.00     0.000 G0
ENDBRANCH  13  15
ENDBRANCH  12  13
BRANCH  12  17
ATOM     17  C   UNL     1     164.411 202.804 299.898  1.00  0.00    -0.006 C 
ATOM     18  C   UNL     1     165.635 202.790 298.967  1.00  0.00     0.008 C 
ATOM     19  C   UNL     1     163.173 202.295 299.142  1.00  0.00     0.008 C 
ENDBRANCH  12  17
ENDBRANCH  11  12
ENDBRANCH   1  11
TORSDOF 1
ENDMDL
