MODEL 1
REMARK VINA RESULT:    -4.903      0.000      0.000
REMARK INTER + INTRA:         -16.534
REMARK INTER:                 -12.929
REMARK INTRA:                  -3.605
REMARK UNBOUND:                -3.605
REMARK SMILES CCCCCCCCCCCCCCCCCCCCCCCCCCCCCC(=O)[O-]
REMARK SMILES IDX 16 1 17 2 18 3 19 4 20 5 21 6 22 7 23 8 24 9 25 10 26 11
REMARK SMILES IDX 27 12 28 13 29 14 30 15 31 16 32 17 15 18 14 19 13 20 12 21
REMARK SMILES IDX 11 22 10 23 9 24 8 25 7 26 6 27 5 28 4 29 3 30 2 31 1 32
REMARK H PARENT
REMARK Flexibility Score: inf
ROOT
ATOM      1  C   UNL     1      21.343   0.821  47.721  1.00  0.00     0.000 C 
ENDROOT
BRANCH   1   2
ATOM      2  C   UNL     1      21.512   0.298  46.283  1.00  0.00     0.000 C 
BRANCH   2   3
ATOM      3  C   UNL     1      20.917  -1.102  46.029  1.00  0.00     0.000 C 
BRANCH   3   4
ATOM      4  C   UNL     1      19.425  -1.120  45.636  1.00  0.00     0.000 C 
BRANCH   4   5
ATOM      5  C   UNL     1      18.557  -2.107  46.439  1.00  0.00     0.000 C 
BRANCH   5   6
ATOM      6  C   UNL     1      17.826  -1.427  47.609  1.00  0.00     0.000 C 
BRANCH   6   7
ATOM      7  C   UNL     1      17.514   0.056  47.340  1.00  0.00     0.000 C 
BRANCH   7   8
ATOM      8  C   UNL     1      16.135   0.537  47.838  1.00  0.00     0.000 C 
BRANCH   8   9
ATOM      9  C   UNL     1      15.073  -0.567  47.992  1.00  0.00     0.000 C 
BRANCH   9  10
ATOM     10  C   UNL     1      14.112  -0.648  46.794  1.00  0.00     0.000 C 
BRANCH  10  11
ATOM     11  C   UNL     1      14.494  -1.758  45.804  1.00  0.00     0.000 C 
BRANCH  11  12
ATOM     12  C   UNL     1      13.639  -1.734  44.526  1.00  0.00     0.000 C 
BRANCH  12  13
ATOM     13  C   UNL     1      12.489  -0.728  44.652  1.00  0.00     0.006 C 
BRANCH  13  14
ATOM     14  C   UNL     1      12.485   0.251  43.473  1.00  0.00     0.053 C 
BRANCH  14  15
ATOM     15  C   UNL     1      12.295   1.655  43.956  1.00  0.00     0.041 C 
ATOM     16  O   UNL     1      11.802   2.529  43.193  1.00  0.00    -0.550 OA
ATOM     17  O   UNL     1      12.621   1.990  45.264  1.00  0.00    -0.550 OA
ENDBRANCH  14  15
ENDBRANCH  13  14
ENDBRANCH  12  13
ENDBRANCH  11  12
ENDBRANCH  10  11
ENDBRANCH   9  10
ENDBRANCH   8   9
ENDBRANCH   7   8
ENDBRANCH   6   7
ENDBRANCH   5   6
ENDBRANCH   4   5
ENDBRANCH   3   4
ENDBRANCH   2   3
ENDBRANCH   1   2
BRANCH   1  18
ATOM     18  C   UNL     1      22.685   1.002  48.451  1.00  0.00     0.000 C 
BRANCH  18  19
ATOM     19  C   UNL     1      23.602  -0.221  48.296  1.00  0.00     0.000 C 
BRANCH  19  20
ATOM     20  C   UNL     1      24.733  -0.236  49.340  1.00  0.00     0.000 C 
BRANCH  20  21
ATOM     21  C   UNL     1      25.076  -1.657  49.815  1.00  0.00     0.000 C 
BRANCH  21  22
ATOM     22  C   UNL     1      26.515  -2.059  49.465  1.00  0.00     0.000 C 
BRANCH  22  23
ATOM     23  C   UNL     1      26.557  -2.854  48.153  1.00  0.00     0.000 C 
BRANCH  23  24
ATOM     24  C   UNL     1      27.222  -2.036  47.035  1.00  0.00    -0.000 C 
BRANCH  24  25
ATOM     25  C   UNL     1      28.026  -0.835  47.566  1.00  0.00    -0.000 C 
BRANCH  25  26
ATOM     26  C   UNL     1      27.600   0.535  47.008  1.00  0.00    -0.000 C 
BRANCH  26  27
ATOM     27  C   UNL     1      27.788   1.677  48.020  1.00  0.00    -0.000 C 
BRANCH  27  28
ATOM     28  C   UNL     1      27.008   2.942  47.631  1.00  0.00    -0.000 C 
BRANCH  28  29
ATOM     29  C   UNL     1      25.588   2.635  47.124  1.00  0.00    -0.000 C 
BRANCH  29  30
ATOM     30  C   UNL     1      24.788   3.921  46.824  1.00  0.00    -0.000 C 
BRANCH  30  31
ATOM     31  C   UNL     1      23.503   3.668  46.016  1.00  0.00    -0.003 C 
ATOM     32  C   UNL     1      23.753   2.910  44.713  1.00  0.00     0.004 C 
ENDBRANCH  30  31
ENDBRANCH  29  30
ENDBRANCH  28  29
ENDBRANCH  27  28
ENDBRANCH  26  27
ENDBRANCH  25  26
ENDBRANCH  24  25
ENDBRANCH  23  24
ENDBRANCH  22  23
ENDBRANCH  21  22
ENDBRANCH  20  21
ENDBRANCH  19  20
ENDBRANCH  18  19
ENDBRANCH   1  18
TORSDOF 28
ENDMDL
MODEL 2
REMARK VINA RESULT:    -4.819      2.670      5.170
REMARK INTER + INTRA:         -16.312
REMARK INTER:                 -11.480
REMARK INTRA:                  -4.832
REMARK UNBOUND:                -3.605
REMARK SMILES CCCCCCCCCCCCCCCCCCCCCCCCCCCCCC(=O)[O-]
REMARK SMILES IDX 16 1 17 2 18 3 19 4 20 5 21 6 22 7 23 8 24 9 25 10 26 11
REMARK SMILES IDX 27 12 28 13 29 14 30 15 31 16 32 17 15 18 14 19 13 20 12 21
REMARK SMILES IDX 11 22 10 23 9 24 8 25 7 26 6 27 5 28 4 29 3 30 2 31 1 32
REMARK H PARENT
REMARK Flexibility Score: inf
ROOT
ATOM      1  C   UNL     1      21.973   0.982  48.253  1.00  0.00     0.000 C 
ENDROOT
BRANCH   1   2
ATOM      2  C   UNL     1      21.376   1.645  46.999  1.00  0.00     0.000 C 
BRANCH   2   3
ATOM      3  C   UNL     1      22.416   2.211  46.009  1.00  0.00     0.000 C 
BRANCH   3   4
ATOM      4  C   UNL     1      22.248   1.751  44.545  1.00  0.00     0.000 C 
BRANCH   4   5
ATOM      5  C   UNL     1      22.871   0.380  44.222  1.00  0.00     0.000 C 
BRANCH   5   6
ATOM      6  C   UNL     1      21.807  -0.705  43.985  1.00  0.00     0.000 C 
BRANCH   6   7
ATOM      7  C   UNL     1      20.386  -0.131  43.847  1.00  0.00     0.000 C 
BRANCH   7   8
ATOM      8  C   UNL     1      19.321  -0.791  44.747  1.00  0.00     0.000 C 
BRANCH   8   9
ATOM      9  C   UNL     1      19.860  -1.423  46.043  1.00  0.00     0.000 C 
BRANCH   9  10
ATOM     10  C   UNL     1      18.939  -1.193  47.253  1.00  0.00     0.000 C 
BRANCH  10  11
ATOM     11  C   UNL     1      17.901  -2.313  47.426  1.00  0.00     0.000 C 
BRANCH  11  12
ATOM     12  C   UNL     1      16.500  -1.902  46.944  1.00  0.00     0.000 C 
BRANCH  12  13
ATOM     13  C   UNL     1      16.193  -0.448  47.318  1.00  0.00     0.006 C 
BRANCH  13  14
ATOM     14  C   UNL     1      14.982  -0.365  48.253  1.00  0.00     0.053 C 
BRANCH  14  15
ATOM     15  C   UNL     1      14.480   1.043  48.342  1.00  0.00     0.041 C 
ATOM     16  O   UNL     1      13.248   1.287  48.239  1.00  0.00    -0.550 OA
ATOM     17  O   UNL     1      15.369   2.083  48.583  1.00  0.00    -0.550 OA
ENDBRANCH  14  15
ENDBRANCH  13  14
ENDBRANCH  12  13
ENDBRANCH  11  12
ENDBRANCH  10  11
ENDBRANCH   9  10
ENDBRANCH   8   9
ENDBRANCH   7   8
ENDBRANCH   6   7
ENDBRANCH   5   6
ENDBRANCH   4   5
ENDBRANCH   3   4
ENDBRANCH   2   3
ENDBRANCH   1   2
BRANCH   1  18
ATOM     18  C   UNL     1      23.225   0.142  47.945  1.00  0.00     0.000 C 
BRANCH  18  19
ATOM     19  C   UNL     1      24.413   0.516  48.844  1.00  0.00     0.000 C 
BRANCH  19  20
ATOM     20  C   UNL     1      25.510   1.271  48.072  1.00  0.00     0.000 C 
BRANCH  20  21
ATOM     21  C   UNL     1      25.197   2.768  47.921  1.00  0.00     0.000 C 
BRANCH  21  22
ATOM     22  C   UNL     1      25.956   3.411  46.752  1.00  0.00     0.000 C 
BRANCH  22  23
ATOM     23  C   UNL     1      26.068   2.437  45.571  1.00  0.00     0.000 C 
BRANCH  23  24
ATOM     24  C   UNL     1      25.734   3.138  44.246  1.00  0.00    -0.000 C 
BRANCH  24  25
ATOM     25  C   UNL     1      24.870   4.399  44.434  1.00  0.00    -0.000 C 
BRANCH  25  26
ATOM     26  C   UNL     1      24.492   5.132  43.134  1.00  0.00    -0.000 C 
BRANCH  26  27
ATOM     27  C   UNL     1      23.655   4.263  42.180  1.00  0.00    -0.000 C 
BRANCH  27  28
ATOM     28  C   UNL     1      24.434   3.853  40.922  1.00  0.00    -0.000 C 
BRANCH  28  29
ATOM     29  C   UNL     1      23.673   2.835  40.054  1.00  0.00    -0.000 C 
BRANCH  29  30
ATOM     30  C   UNL     1      23.792   1.398  40.605  1.00  0.00    -0.000 C 
BRANCH  30  31
ATOM     31  C   UNL     1      22.487   0.590  40.493  1.00  0.00    -0.003 C 
ATOM     32  C   UNL     1      22.723  -0.916  40.376  1.00  0.00     0.004 C 
ENDBRANCH  30  31
ENDBRANCH  29  30
ENDBRANCH  28  29
ENDBRANCH  27  28
ENDBRANCH  26  27
ENDBRANCH  25  26
ENDBRANCH  24  25
ENDBRANCH  23  24
ENDBRANCH  22  23
ENDBRANCH  21  22
ENDBRANCH  20  21
ENDBRANCH  19  20
ENDBRANCH  18  19
ENDBRANCH   1  18
TORSDOF 28
ENDMDL
MODEL 3
REMARK VINA RESULT:    -4.758      1.648      3.495
REMARK INTER + INTRA:         -16.151
REMARK INTER:                 -13.247
REMARK INTRA:                  -2.904
REMARK UNBOUND:                -3.605
REMARK SMILES CCCCCCCCCCCCCCCCCCCCCCCCCCCCCC(=O)[O-]
REMARK SMILES IDX 16 1 17 2 18 3 19 4 20 5 21 6 22 7 23 8 24 9 25 10 26 11
REMARK SMILES IDX 27 12 28 13 29 14 30 15 31 16 32 17 15 18 14 19 13 20 12 21
REMARK SMILES IDX 11 22 10 23 9 24 8 25 7 26 6 27 5 28 4 29 3 30 2 31 1 32
REMARK H PARENT
REMARK Flexibility Score: inf
ROOT
ATOM      1  C   UNL     1      18.982  -0.197  47.177  1.00  0.00     0.000 C 
ENDROOT
BRANCH   1   2
ATOM      2  C   UNL     1      18.167  -1.317  47.849  1.00  0.00     0.000 C 
BRANCH   2   3
ATOM      3  C   UNL     1      18.000  -2.594  47.000  1.00  0.00     0.000 C 
BRANCH   3   4
ATOM      4  C   UNL     1      17.164  -2.425  45.714  1.00  0.00     0.000 C 
BRANCH   4   5
ATOM      5  C   UNL     1      15.658  -2.700  45.882  1.00  0.00     0.000 C 
BRANCH   5   6
ATOM      6  C   UNL     1      14.844  -2.279  44.646  1.00  0.00     0.000 C 
BRANCH   6   7
ATOM      7  C   UNL     1      13.327  -2.449  44.841  1.00  0.00     0.000 C 
BRANCH   7   8
ATOM      8  C   UNL     1      12.474  -2.229  43.574  1.00  0.00     0.000 C 
BRANCH   8   9
ATOM      9  C   UNL     1      11.675  -0.914  43.544  1.00  0.00     0.000 C 
BRANCH   9  10
ATOM     10  C   UNL     1      12.410   0.218  42.806  1.00  0.00     0.000 C 
BRANCH  10  11
ATOM     11  C   UNL     1      12.271   1.573  43.516  1.00  0.00     0.000 C 
BRANCH  11  12
ATOM     12  C   UNL     1      11.891   1.430  44.999  1.00  0.00     0.000 C 
BRANCH  12  13
ATOM     13  C   UNL     1      13.115   1.618  45.901  1.00  0.00     0.006 C 
BRANCH  13  14
ATOM     14  C   UNL     1      13.282   0.429  46.854  1.00  0.00     0.053 C 
BRANCH  14  15
ATOM     15  C   UNL     1      14.661   0.410  47.436  1.00  0.00     0.041 C 
ATOM     16  O   UNL     1      14.901  -0.248  48.484  1.00  0.00    -0.550 OA
ATOM     17  O   UNL     1      15.695   1.081  46.794  1.00  0.00    -0.550 OA
ENDBRANCH  14  15
ENDBRANCH  13  14
ENDBRANCH  12  13
ENDBRANCH  11  12
ENDBRANCH  10  11
ENDBRANCH   9  10
ENDBRANCH   8   9
ENDBRANCH   7   8
ENDBRANCH   6   7
ENDBRANCH   5   6
ENDBRANCH   4   5
ENDBRANCH   3   4
ENDBRANCH   2   3
ENDBRANCH   1   2
BRANCH   1  18
ATOM     18  C   UNL     1      20.020   0.432  48.123  1.00  0.00     0.000 C 
BRANCH  18  19
ATOM     19  C   UNL     1      21.234   0.991  47.365  1.00  0.00     0.000 C 
BRANCH  19  20
ATOM     20  C   UNL     1      22.499   1.029  48.241  1.00  0.00     0.000 C 
BRANCH  20  21
ATOM     21  C   UNL     1      23.301  -0.281  48.173  1.00  0.00     0.000 C 
BRANCH  21  22
ATOM     22  C   UNL     1      24.381  -0.364  49.260  1.00  0.00     0.000 C 
BRANCH  22  23
ATOM     23  C   UNL     1      25.233  -1.627  49.089  1.00  0.00     0.000 C 
BRANCH  23  24
ATOM     24  C   UNL     1      26.730  -1.283  49.066  1.00  0.00    -0.000 C 
BRANCH  24  25
ATOM     25  C   UNL     1      27.120  -0.378  47.883  1.00  0.00    -0.000 C 
BRANCH  25  26
ATOM     26  C   UNL     1      28.010   0.825  48.245  1.00  0.00    -0.000 C 
BRANCH  26  27
ATOM     27  C   UNL     1      27.456   2.159  47.718  1.00  0.00    -0.000 C 
BRANCH  27  28
ATOM     28  C   UNL     1      26.012   2.035  47.208  1.00  0.00    -0.000 C 
BRANCH  28  29
ATOM     29  C   UNL     1      25.169   3.292  47.492  1.00  0.00    -0.000 C 
BRANCH  29  30
ATOM     30  C   UNL     1      24.623   3.930  46.197  1.00  0.00    -0.000 C 
BRANCH  30  31
ATOM     31  C   UNL     1      24.869   5.446  46.110  1.00  0.00    -0.003 C 
ATOM     32  C   UNL     1      25.156   5.927  44.688  1.00  0.00     0.004 C 
ENDBRANCH  30  31
ENDBRANCH  29  30
ENDBRANCH  28  29
ENDBRANCH  27  28
ENDBRANCH  26  27
ENDBRANCH  25  26
ENDBRANCH  24  25
ENDBRANCH  23  24
ENDBRANCH  22  23
ENDBRANCH  21  22
ENDBRANCH  20  21
ENDBRANCH  19  20
ENDBRANCH  18  19
ENDBRANCH   1  18
TORSDOF 28
ENDMDL
MODEL 4
REMARK VINA RESULT:    -4.735      2.101      4.499
REMARK INTER + INTRA:         -16.091
REMARK INTER:                 -11.286
REMARK INTRA:                  -4.805
REMARK UNBOUND:                -3.605
REMARK SMILES CCCCCCCCCCCCCCCCCCCCCCCCCCCCCC(=O)[O-]
REMARK SMILES IDX 16 1 17 2 18 3 19 4 20 5 21 6 22 7 23 8 24 9 25 10 26 11
REMARK SMILES IDX 27 12 28 13 29 14 30 15 31 16 32 17 15 18 14 19 13 20 12 21
REMARK SMILES IDX 11 22 10 23 9 24 8 25 7 26 6 27 5 28 4 29 3 30 2 31 1 32
REMARK H PARENT
REMARK Flexibility Score: inf
ROOT
ATOM      1  C   UNL     1      25.405   1.364  48.298  1.00  0.00     0.000 C 
ENDROOT
BRANCH   1   2
ATOM      2  C   UNL     1      24.758   2.702  47.898  1.00  0.00     0.000 C 
BRANCH   2   3
ATOM      3  C   UNL     1      24.472   2.857  46.390  1.00  0.00     0.000 C 
BRANCH   3   4
ATOM      4  C   UNL     1      23.004   3.164  46.028  1.00  0.00     0.000 C 
BRANCH   4   5
ATOM      5  C   UNL     1      22.136   1.925  45.741  1.00  0.00     0.000 C 
BRANCH   5   6
ATOM      6  C   UNL     1      21.430   1.399  47.003  1.00  0.00     0.000 C 
BRANCH   6   7
ATOM      7  C   UNL     1      21.529  -0.130  47.151  1.00  0.00     0.000 C 
BRANCH   7   8
ATOM      8  C   UNL     1      21.100  -0.938  45.908  1.00  0.00     0.000 C 
BRANCH   8   9
ATOM      9  C   UNL     1      19.598  -0.881  45.577  1.00  0.00     0.000 C 
BRANCH   9  10
ATOM     10  C   UNL     1      18.779  -1.960  46.307  1.00  0.00     0.000 C 
BRANCH  10  11
ATOM     11  C   UNL     1      18.193  -1.459  47.635  1.00  0.00     0.000 C 
BRANCH  11  12
ATOM     12  C   UNL     1      17.475  -0.106  47.494  1.00  0.00     0.000 C 
BRANCH  12  13
ATOM     13  C   UNL     1      16.005  -0.301  47.107  1.00  0.00     0.006 C 
BRANCH  13  14
ATOM     14  C   UNL     1      15.075   0.322  48.152  1.00  0.00     0.053 C 
BRANCH  14  15
ATOM     15  C   UNL     1      13.954   1.059  47.487  1.00  0.00     0.041 C 
ATOM     16  O   UNL     1      13.052   1.606  48.179  1.00  0.00    -0.550 OA
ATOM     17  O   UNL     1      13.929   1.183  46.104  1.00  0.00    -0.550 OA
ENDBRANCH  14  15
ENDBRANCH  13  14
ENDBRANCH  12  13
ENDBRANCH  11  12
ENDBRANCH  10  11
ENDBRANCH   9  10
ENDBRANCH   8   9
ENDBRANCH   7   8
ENDBRANCH   6   7
ENDBRANCH   5   6
ENDBRANCH   4   5
ENDBRANCH   3   4
ENDBRANCH   2   3
ENDBRANCH   1   2
BRANCH   1  18
ATOM     18  C   UNL     1      24.395   0.371  48.902  1.00  0.00     0.000 C 
BRANCH  18  19
ATOM     19  C   UNL     1      25.077  -0.697  49.770  1.00  0.00     0.000 C 
BRANCH  19  20
ATOM     20  C   UNL     1      24.915  -2.112  49.185  1.00  0.00     0.000 C 
BRANCH  20  21
ATOM     21  C   UNL     1      25.368  -2.197  47.719  1.00  0.00     0.000 C 
BRANCH  21  22
ATOM     22  C   UNL     1      24.280  -2.773  46.802  1.00  0.00     0.000 C 
BRANCH  22  23
ATOM     23  C   UNL     1      24.382  -2.179  45.392  1.00  0.00     0.000 C 
BRANCH  23  24
ATOM     24  C   UNL     1      24.945  -0.751  45.435  1.00  0.00    -0.000 C 
BRANCH  24  25
ATOM     25  C   UNL     1      24.983  -0.077  44.051  1.00  0.00    -0.000 C 
BRANCH  25  26
ATOM     26  C   UNL     1      23.680  -0.181  43.238  1.00  0.00    -0.000 C 
BRANCH  26  27
ATOM     27  C   UNL     1      23.508   0.971  42.235  1.00  0.00    -0.000 C 
BRANCH  27  28
ATOM     28  C   UNL     1      24.300   2.224  42.637  1.00  0.00    -0.000 C 
BRANCH  28  29
ATOM     29  C   UNL     1      23.954   3.452  41.775  1.00  0.00    -0.000 C 
BRANCH  29  30
ATOM     30  C   UNL     1      23.510   4.657  42.631  1.00  0.00    -0.000 C 
BRANCH  30  31
ATOM     31  C   UNL     1      24.586   5.749  42.754  1.00  0.00    -0.003 C 
ATOM     32  C   UNL     1      25.049   5.977  44.193  1.00  0.00     0.004 C 
ENDBRANCH  30  31
ENDBRANCH  29  30
ENDBRANCH  28  29
ENDBRANCH  27  28
ENDBRANCH  26  27
ENDBRANCH  25  26
ENDBRANCH  24  25
ENDBRANCH  23  24
ENDBRANCH  22  23
ENDBRANCH  21  22
ENDBRANCH  20  21
ENDBRANCH  19  20
ENDBRANCH  18  19
ENDBRANCH   1  18
TORSDOF 28
ENDMDL
MODEL 5
REMARK VINA RESULT:    -4.722      1.694      2.874
REMARK INTER + INTRA:         -16.057
REMARK INTER:                 -12.383
REMARK INTRA:                  -3.674
REMARK UNBOUND:                -3.605
REMARK SMILES CCCCCCCCCCCCCCCCCCCCCCCCCCCCCC(=O)[O-]
REMARK SMILES IDX 16 1 17 2 18 3 19 4 20 5 21 6 22 7 23 8 24 9 25 10 26 11
REMARK SMILES IDX 27 12 28 13 29 14 30 15 31 16 32 17 15 18 14 19 13 20 12 21
REMARK SMILES IDX 11 22 10 23 9 24 8 25 7 26 6 27 5 28 4 29 3 30 2 31 1 32
REMARK H PARENT
REMARK Flexibility Score: inf
ROOT
ATOM      1  C   UNL     1      20.202  -0.010  44.078  1.00  0.00     0.000 C 
ENDROOT
BRANCH   1   2
ATOM      2  C   UNL     1      19.101  -1.023  43.717  1.00  0.00     0.000 C 
BRANCH   2   3
ATOM      3  C   UNL     1      19.485  -2.501  43.933  1.00  0.00     0.000 C 
BRANCH   3   4
ATOM      4  C   UNL     1      19.143  -3.073  45.325  1.00  0.00     0.000 C 
BRANCH   4   5
ATOM      5  C   UNL     1      17.903  -2.451  45.993  1.00  0.00     0.000 C 
BRANCH   5   6
ATOM      6  C   UNL     1      18.191  -1.959  47.422  1.00  0.00     0.000 C 
BRANCH   6   7
ATOM      7  C   UNL     1      18.184  -0.424  47.539  1.00  0.00     0.000 C 
BRANCH   7   8
ATOM      8  C   UNL     1      16.976   0.279  46.883  1.00  0.00     0.000 C 
BRANCH   8   9
ATOM      9  C   UNL     1      16.017   0.979  47.863  1.00  0.00     0.000 C 
BRANCH   9  10
ATOM     10  C   UNL     1      14.697   0.215  48.061  1.00  0.00     0.000 C 
BRANCH  10  11
ATOM     11  C   UNL     1      14.553  -0.974  47.099  1.00  0.00     0.000 C 
BRANCH  11  12
ATOM     12  C   UNL     1      13.587  -0.685  45.938  1.00  0.00     0.000 C 
BRANCH  12  13
ATOM     13  C   UNL     1      12.640   0.471  46.284  1.00  0.00     0.006 C 
BRANCH  13  14
ATOM     14  C   UNL     1      12.578   1.490  45.142  1.00  0.00     0.053 C 
BRANCH  14  15
ATOM     15  C   UNL     1      11.243   1.444  44.466  1.00  0.00     0.041 C 
ATOM     16  O   UNL     1      10.855   0.390  43.895  1.00  0.00    -0.550 OA
ATOM     17  O   UNL     1      10.406   2.553  44.506  1.00  0.00    -0.550 OA
ENDBRANCH  14  15
ENDBRANCH  13  14
ENDBRANCH  12  13
ENDBRANCH  11  12
ENDBRANCH  10  11
ENDBRANCH   9  10
ENDBRANCH   8   9
ENDBRANCH   7   8
ENDBRANCH   6   7
ENDBRANCH   5   6
ENDBRANCH   4   5
ENDBRANCH   3   4
ENDBRANCH   2   3
ENDBRANCH   1   2
BRANCH   1  18
ATOM     18  C   UNL     1      21.615  -0.615  44.003  1.00  0.00     0.000 C 
BRANCH  18  19
ATOM     19  C   UNL     1      22.474  -0.241  45.220  1.00  0.00     0.000 C 
BRANCH  19  20
ATOM     20  C   UNL     1      21.890  -0.791  46.534  1.00  0.00     0.000 C 
BRANCH  20  21
ATOM     21  C   UNL     1      21.372   0.321  47.459  1.00  0.00     0.000 C 
BRANCH  21  22
ATOM     22  C   UNL     1      22.499   0.996  48.252  1.00  0.00     0.000 C 
BRANCH  22  23
ATOM     23  C   UNL     1      23.569  -0.025  48.660  1.00  0.00     0.000 C 
BRANCH  23  24
ATOM     24  C   UNL     1      24.851   0.678  49.131  1.00  0.00    -0.000 C 
BRANCH  24  25
ATOM     25  C   UNL     1      25.931   0.756  48.036  1.00  0.00    -0.000 C 
BRANCH  25  26
ATOM     26  C   UNL     1      26.267   2.177  47.550  1.00  0.00    -0.000 C 
BRANCH  26  27
ATOM     27  C   UNL     1      25.056   3.123  47.586  1.00  0.00    -0.000 C 
BRANCH  27  28
ATOM     28  C   UNL     1      25.314   4.438  46.835  1.00  0.00    -0.000 C 
BRANCH  28  29
ATOM     29  C   UNL     1      24.282   4.704  45.724  1.00  0.00    -0.000 C 
BRANCH  29  30
ATOM     30  C   UNL     1      23.890   3.412  44.975  1.00  0.00    -0.000 C 
BRANCH  30  31
ATOM     31  C   UNL     1      23.565   3.642  43.489  1.00  0.00    -0.003 C 
ATOM     32  C   UNL     1      23.506   2.346  42.680  1.00  0.00     0.004 C 
ENDBRANCH  30  31
ENDBRANCH  29  30
ENDBRANCH  28  29
ENDBRANCH  27  28
ENDBRANCH  26  27
ENDBRANCH  25  26
ENDBRANCH  24  25
ENDBRANCH  23  24
ENDBRANCH  22  23
ENDBRANCH  21  22
ENDBRANCH  20  21
ENDBRANCH  19  20
ENDBRANCH  18  19
ENDBRANCH   1  18
TORSDOF 28
ENDMDL
MODEL 6
REMARK VINA RESULT:    -4.685      5.244      9.224
REMARK INTER + INTRA:         -15.960
REMARK INTER:                 -11.173
REMARK INTRA:                  -4.786
REMARK UNBOUND:                -3.605
REMARK SMILES CCCCCCCCCCCCCCCCCCCCCCCCCCCCCC(=O)[O-]
REMARK SMILES IDX 16 1 17 2 18 3 19 4 20 5 21 6 22 7 23 8 24 9 25 10 26 11
REMARK SMILES IDX 27 12 28 13 29 14 30 15 31 16 32 17 15 18 14 19 13 20 12 21
REMARK SMILES IDX 11 22 10 23 9 24 8 25 7 26 6 27 5 28 4 29 3 30 2 31 1 32
REMARK H PARENT
REMARK Flexibility Score: inf
ROOT
ATOM      1  C   UNL     1      24.044   4.406  46.016  1.00  0.00     0.000 C 
ENDROOT
BRANCH   1   2
ATOM      2  C   UNL     1      25.108   5.491  45.773  1.00  0.00     0.000 C 
BRANCH   2   3
ATOM      3  C   UNL     1      25.523   5.672  44.298  1.00  0.00     0.000 C 
BRANCH   3   4
ATOM      4  C   UNL     1      24.592   5.002  43.266  1.00  0.00     0.000 C 
BRANCH   4   5
ATOM      5  C   UNL     1      23.937   5.970  42.262  1.00  0.00     0.000 C 
BRANCH   5   6
ATOM      6  C   UNL     1      24.334   7.434  42.515  1.00  0.00     0.000 C 
BRANCH   6   7
ATOM      7  C   UNL     1      25.231   8.011  41.405  1.00  0.00     0.000 C 
BRANCH   7   8
ATOM      8  C   UNL     1      24.728   7.775  39.965  1.00  0.00     0.000 C 
BRANCH   8   9
ATOM      9  C   UNL     1      25.831   7.582  38.910  1.00  0.00     0.000 C 
BRANCH   9  10
ATOM     10  C   UNL     1      26.650   6.298  39.124  1.00  0.00     0.000 C 
BRANCH  10  11
ATOM     11  C   UNL     1      25.796   5.027  39.002  1.00  0.00     0.000 C 
BRANCH  11  12
ATOM     12  C   UNL     1      26.164   3.962  40.049  1.00  0.00     0.000 C 
BRANCH  12  13
ATOM     13  C   UNL     1      25.390   2.661  39.807  1.00  0.00     0.006 C 
BRANCH  13  14
ATOM     14  C   UNL     1      23.920   2.950  39.483  1.00  0.00     0.053 C 
BRANCH  14  15
ATOM     15  C   UNL     1      23.042   1.854  40.002  1.00  0.00     0.041 C 
ATOM     16  O   UNL     1      22.131   1.371  39.277  1.00  0.00    -0.550 OA
ATOM     17  O   UNL     1      23.258   1.334  41.272  1.00  0.00    -0.550 OA
ENDBRANCH  14  15
ENDBRANCH  13  14
ENDBRANCH  12  13
ENDBRANCH  11  12
ENDBRANCH  10  11
ENDBRANCH   9  10
ENDBRANCH   8   9
ENDBRANCH   7   8
ENDBRANCH   6   7
ENDBRANCH   5   6
ENDBRANCH   4   5
ENDBRANCH   3   4
ENDBRANCH   2   3
ENDBRANCH   1   2
BRANCH   1  18
ATOM     18  C   UNL     1      24.508   3.331  47.016  1.00  0.00     0.000 C 
BRANCH  18  19
ATOM     19  C   UNL     1      26.038   3.271  47.138  1.00  0.00     0.000 C 
BRANCH  19  20
ATOM     20  C   UNL     1      26.590   1.866  46.837  1.00  0.00     0.000 C 
BRANCH  20  21
ATOM     21  C   UNL     1      25.888   1.202  45.641  1.00  0.00     0.000 C 
BRANCH  21  22
ATOM     22  C   UNL     1      26.220  -0.291  45.522  1.00  0.00     0.000 C 
BRANCH  22  23
ATOM     23  C   UNL     1      27.238  -0.712  46.589  1.00  0.00     0.000 C 
BRANCH  23  24
ATOM     24  C   UNL     1      26.680  -1.842  47.467  1.00  0.00    -0.000 C 
BRANCH  24  25
ATOM     25  C   UNL     1      26.553  -1.444  48.949  1.00  0.00    -0.000 C 
BRANCH  25  26
ATOM     26  C   UNL     1      25.112  -1.249  49.452  1.00  0.00    -0.000 C 
BRANCH  26  27
ATOM     27  C   UNL     1      24.683   0.228  49.480  1.00  0.00    -0.000 C 
BRANCH  27  28
ATOM     28  C   UNL     1      23.400   0.484  48.677  1.00  0.00    -0.000 C 
BRANCH  28  29
ATOM     29  C   UNL     1      23.187  -0.543  47.550  1.00  0.00    -0.000 C 
BRANCH  29  30
ATOM     30  C   UNL     1      21.816  -0.373  46.860  1.00  0.00    -0.000 C 
BRANCH  30  31
ATOM     31  C   UNL     1      21.919  -0.147  45.342  1.00  0.00    -0.003 C 
ATOM     32  C   UNL     1      22.161   1.316  44.969  1.00  0.00     0.004 C 
ENDBRANCH  30  31
ENDBRANCH  29  30
ENDBRANCH  28  29
ENDBRANCH  27  28
ENDBRANCH  26  27
ENDBRANCH  25  26
ENDBRANCH  24  25
ENDBRANCH  23  24
ENDBRANCH  22  23
ENDBRANCH  21  22
ENDBRANCH  20  21
ENDBRANCH  19  20
ENDBRANCH  18  19
ENDBRANCH   1  18
TORSDOF 28
ENDMDL
MODEL 7
REMARK VINA RESULT:    -4.669      6.521     11.521
REMARK INTER + INTRA:         -15.916
REMARK INTER:                 -10.727
REMARK INTRA:                  -5.189
REMARK UNBOUND:                -3.605
REMARK SMILES CCCCCCCCCCCCCCCCCCCCCCCCCCCCCC(=O)[O-]
REMARK SMILES IDX 16 1 17 2 18 3 19 4 20 5 21 6 22 7 23 8 24 9 25 10 26 11
REMARK SMILES IDX 27 12 28 13 29 14 30 15 31 16 32 17 15 18 14 19 13 20 12 21
REMARK SMILES IDX 11 22 10 23 9 24 8 25 7 26 6 27 5 28 4 29 3 30 2 31 1 32
REMARK H PARENT
REMARK Flexibility Score: inf
ROOT
ATOM      1  C   UNL     1      25.536   6.609  44.683  1.00  0.00     0.000 C 
ENDROOT
BRANCH   1   2
ATOM      2  C   UNL     1      25.930   5.595  43.594  1.00  0.00     0.000 C 
BRANCH   2   3
ATOM      3  C   UNL     1      24.916   5.460  42.439  1.00  0.00     0.000 C 
BRANCH   3   4
ATOM      4  C   UNL     1      24.056   6.713  42.169  1.00  0.00     0.000 C 
BRANCH   4   5
ATOM      5  C   UNL     1      24.256   7.348  40.780  1.00  0.00     0.000 C 
BRANCH   5   6
ATOM      6  C   UNL     1      25.435   6.724  40.014  1.00  0.00     0.000 C 
BRANCH   6   7
ATOM      7  C   UNL     1      26.619   7.692  39.845  1.00  0.00     0.000 C 
BRANCH   7   8
ATOM      8  C   UNL     1      27.582   7.767  41.049  1.00  0.00     0.000 C 
BRANCH   8   9
ATOM      9  C   UNL     1      27.695   9.153  41.710  1.00  0.00     0.000 C 
BRANCH   9  10
ATOM     10  C   UNL     1      26.648   9.380  42.813  1.00  0.00     0.000 C 
BRANCH  10  11
ATOM     11  C   UNL     1      27.082  10.448  43.829  1.00  0.00     0.000 C 
BRANCH  11  12
ATOM     12  C   UNL     1      27.361   9.862  45.223  1.00  0.00     0.000 C 
BRANCH  12  13
ATOM     13  C   UNL     1      26.195  10.137  46.179  1.00  0.00     0.006 C 
BRANCH  13  14
ATOM     14  C   UNL     1      25.497  11.455  45.828  1.00  0.00     0.053 C 
BRANCH  14  15
ATOM     15  C   UNL     1      25.709  12.468  46.911  1.00  0.00     0.041 C 
ATOM     16  O   UNL     1      26.540  12.249  47.833  1.00  0.00    -0.550 OA
ATOM     17  O   UNL     1      25.022  13.675  46.876  1.00  0.00    -0.550 OA
ENDBRANCH  14  15
ENDBRANCH  13  14
ENDBRANCH  12  13
ENDBRANCH  11  12
ENDBRANCH  10  11
ENDBRANCH   9  10
ENDBRANCH   8   9
ENDBRANCH   7   8
ENDBRANCH   6   7
ENDBRANCH   5   6
ENDBRANCH   4   5
ENDBRANCH   3   4
ENDBRANCH   2   3
ENDBRANCH   1   2
BRANCH   1  18
ATOM     18  C   UNL     1      25.648   6.030  46.104  1.00  0.00     0.000 C 
BRANCH  18  19
ATOM     19  C   UNL     1      24.544   5.004  46.403  1.00  0.00     0.000 C 
BRANCH  19  20
ATOM     20  C   UNL     1      25.103   3.718  47.039  1.00  0.00     0.000 C 
BRANCH  20  21
ATOM     21  C   UNL     1      26.526   3.395  46.558  1.00  0.00     0.000 C 
BRANCH  21  22
ATOM     22  C   UNL     1      26.537   2.440  45.357  1.00  0.00     0.000 C 
BRANCH  22  23
ATOM     23  C   UNL     1      25.292   1.543  45.361  1.00  0.00     0.000 C 
BRANCH  23  24
ATOM     24  C   UNL     1      24.507   1.685  44.048  1.00  0.00    -0.000 C 
BRANCH  24  25
ATOM     25  C   UNL     1      23.122   2.330  44.243  1.00  0.00    -0.000 C 
BRANCH  25  26
ATOM     26  C   UNL     1      22.138   1.516  45.103  1.00  0.00    -0.000 C 
BRANCH  26  27
ATOM     27  C   UNL     1      21.869   2.160  46.473  1.00  0.00    -0.000 C 
BRANCH  27  28
ATOM     28  C   UNL     1      22.343   1.280  47.640  1.00  0.00    -0.000 C 
BRANCH  28  29
ATOM     29  C   UNL     1      22.464  -0.206  47.256  1.00  0.00    -0.000 C 
BRANCH  29  30
ATOM     30  C   UNL     1      23.728  -0.859  47.854  1.00  0.00    -0.000 C 
BRANCH  30  31
ATOM     31  C   UNL     1      24.351  -0.047  49.002  1.00  0.00    -0.003 C 
ATOM     32  C   UNL     1      25.797   0.367  48.728  1.00  0.00     0.004 C 
ENDBRANCH  30  31
ENDBRANCH  29  30
ENDBRANCH  28  29
ENDBRANCH  27  28
ENDBRANCH  26  27
ENDBRANCH  25  26
ENDBRANCH  24  25
ENDBRANCH  23  24
ENDBRANCH  22  23
ENDBRANCH  21  22
ENDBRANCH  20  21
ENDBRANCH  19  20
ENDBRANCH  18  19
ENDBRANCH   1  18
TORSDOF 28
ENDMDL
MODEL 8
REMARK VINA RESULT:    -4.668      3.507      8.034
REMARK INTER + INTRA:         -15.915
REMARK INTER:                 -10.219
REMARK INTRA:                  -5.696
REMARK UNBOUND:                -3.605
REMARK SMILES CCCCCCCCCCCCCCCCCCCCCCCCCCCCCC(=O)[O-]
REMARK SMILES IDX 16 1 17 2 18 3 19 4 20 5 21 6 22 7 23 8 24 9 25 10 26 11
REMARK SMILES IDX 27 12 28 13 29 14 30 15 31 16 32 17 15 18 14 19 13 20 12 21
REMARK SMILES IDX 11 22 10 23 9 24 8 25 7 26 6 27 5 28 4 29 3 30 2 31 1 32
REMARK H PARENT
REMARK Flexibility Score: inf
ROOT
ATOM      1  C   UNL     1      23.607   3.431  43.188  1.00  0.00     0.000 C 
ENDROOT
BRANCH   1   2
ATOM      2  C   UNL     1      23.315   3.367  44.698  1.00  0.00     0.000 C 
BRANCH   2   3
ATOM      3  C   UNL     1      24.107   4.377  45.554  1.00  0.00     0.000 C 
BRANCH   3   4
ATOM      4  C   UNL     1      24.775   3.788  46.814  1.00  0.00     0.000 C 
BRANCH   4   5
ATOM      5  C   UNL     1      25.428   2.407  46.616  1.00  0.00     0.000 C 
BRANCH   5   6
ATOM      6  C   UNL     1      26.489   2.101  47.686  1.00  0.00     0.000 C 
BRANCH   6   7
ATOM      7  C   UNL     1      26.632   0.596  47.974  1.00  0.00     0.000 C 
BRANCH   7   8
ATOM      8  C   UNL     1      25.643   0.030  49.015  1.00  0.00     0.000 C 
BRANCH   8   9
ATOM      9  C   UNL     1      24.890  -1.239  48.579  1.00  0.00     0.000 C 
BRANCH   9  10
ATOM     10  C   UNL     1      23.595  -0.934  47.805  1.00  0.00     0.000 C 
BRANCH  10  11
ATOM     11  C   UNL     1      22.879   0.321  48.326  1.00  0.00     0.000 C 
BRANCH  11  12
ATOM     12  C   UNL     1      21.993   0.985  47.258  1.00  0.00     0.000 C 
BRANCH  12  13
ATOM     13  C   UNL     1      20.508   0.843  47.609  1.00  0.00     0.006 C 
BRANCH  13  14
ATOM     14  C   UNL     1      19.939  -0.472  47.065  1.00  0.00     0.053 C 
BRANCH  14  15
ATOM     15  C   UNL     1      18.551  -0.697  47.579  1.00  0.00     0.041 C 
ATOM     16  O   UNL     1      17.722   0.251  47.612  1.00  0.00    -0.550 OA
ATOM     17  O   UNL     1      18.157  -1.968  47.980  1.00  0.00    -0.550 OA
ENDBRANCH  14  15
ENDBRANCH  13  14
ENDBRANCH  12  13
ENDBRANCH  11  12
ENDBRANCH  10  11
ENDBRANCH   9  10
ENDBRANCH   8   9
ENDBRANCH   7   8
ENDBRANCH   6   7
ENDBRANCH   5   6
ENDBRANCH   4   5
ENDBRANCH   3   4
ENDBRANCH   2   3
ENDBRANCH   1   2
BRANCH   1  18
ATOM     18  C   UNL     1      23.654   4.873  42.651  1.00  0.00     0.000 C 
BRANCH  18  19
ATOM     19  C   UNL     1      24.378   4.968  41.299  1.00  0.00     0.000 C 
BRANCH  19  20
ATOM     20  C   UNL     1      24.835   3.590  40.787  1.00  0.00     0.000 C 
BRANCH  20  21
ATOM     21  C   UNL     1      24.024   3.115  39.572  1.00  0.00     0.000 C 
BRANCH  21  22
ATOM     22  C   UNL     1      23.813   1.595  39.566  1.00  0.00     0.000 C 
BRANCH  22  23
ATOM     23  C   UNL     1      22.339   1.249  39.319  1.00  0.00     0.000 C 
BRANCH  23  24
ATOM     24  C   UNL     1      21.807   0.301  40.405  1.00  0.00    -0.000 C 
BRANCH  24  25
ATOM     25  C   UNL     1      22.729   0.219  41.635  1.00  0.00    -0.000 C 
BRANCH  25  26
ATOM     26  C   UNL     1      22.018  -0.091  42.965  1.00  0.00    -0.000 C 
BRANCH  26  27
ATOM     27  C   UNL     1      22.911  -0.858  43.955  1.00  0.00    -0.000 C 
BRANCH  27  28
ATOM     28  C   UNL     1      24.132  -0.040  44.400  1.00  0.00    -0.000 C 
BRANCH  28  29
ATOM     29  C   UNL     1      25.412  -0.888  44.507  1.00  0.00    -0.000 C 
BRANCH  29  30
ATOM     30  C   UNL     1      26.675  -0.086  44.125  1.00  0.00    -0.000 C 
BRANCH  30  31
ATOM     31  C   UNL     1      26.406   1.020  43.091  1.00  0.00    -0.003 C 
ATOM     32  C   UNL     1      27.122   2.331  43.415  1.00  0.00     0.004 C 
ENDBRANCH  30  31
ENDBRANCH  29  30
ENDBRANCH  28  29
ENDBRANCH  27  28
ENDBRANCH  26  27
ENDBRANCH  25  26
ENDBRANCH  24  25
ENDBRANCH  23  24
ENDBRANCH  22  23
ENDBRANCH  21  22
ENDBRANCH  20  21
ENDBRANCH  19  20
ENDBRANCH  18  19
ENDBRANCH   1  18
TORSDOF 28
ENDMDL
MODEL 9
REMARK VINA RESULT:    -4.649      2.826      5.590
REMARK INTER + INTRA:         -15.864
REMARK INTER:                 -11.424
REMARK INTRA:                  -4.441
REMARK UNBOUND:                -3.605
REMARK SMILES CCCCCCCCCCCCCCCCCCCCCCCCCCCCCC(=O)[O-]
REMARK SMILES IDX 16 1 17 2 18 3 19 4 20 5 21 6 22 7 23 8 24 9 25 10 26 11
REMARK SMILES IDX 27 12 28 13 29 14 30 15 31 16 32 17 15 18 14 19 13 20 12 21
REMARK SMILES IDX 11 22 10 23 9 24 8 25 7 26 6 27 5 28 4 29 3 30 2 31 1 32
REMARK H PARENT
REMARK Flexibility Score: inf
ROOT
ATOM      1  C   UNL     1      24.354   2.542  47.825  1.00  0.00     0.000 C 
ENDROOT
BRANCH   1   2
ATOM      2  C   UNL     1      24.658   1.057  48.089  1.00  0.00     0.000 C 
BRANCH   2   3
ATOM      3  C   UNL     1      23.427   0.197  48.443  1.00  0.00     0.000 C 
BRANCH   3   4
ATOM      4  C   UNL     1      22.079   0.947  48.439  1.00  0.00     0.000 C 
BRANCH   4   5
ATOM      5  C   UNL     1      21.137   0.578  47.278  1.00  0.00     0.000 C 
BRANCH   5   6
ATOM      6  C   UNL     1      21.704  -0.551  46.399  1.00  0.00     0.000 C 
BRANCH   6   7
ATOM      7  C   UNL     1      21.058  -0.605  45.004  1.00  0.00     0.000 C 
BRANCH   7   8
ATOM      8  C   UNL     1      20.167  -1.838  44.741  1.00  0.00     0.000 C 
BRANCH   8   9
ATOM      9  C   UNL     1      18.720  -1.522  44.321  1.00  0.00     0.000 C 
BRANCH   9  10
ATOM     10  C   UNL     1      17.677  -2.016  45.338  1.00  0.00     0.000 C 
BRANCH  10  11
ATOM     11  C   UNL     1      18.158  -1.880  46.791  1.00  0.00     0.000 C 
BRANCH  11  12
ATOM     12  C   UNL     1      17.018  -1.540  47.765  1.00  0.00     0.000 C 
BRANCH  12  13
ATOM     13  C   UNL     1      16.640  -0.058  47.675  1.00  0.00     0.006 C 
BRANCH  13  14
ATOM     14  C   UNL     1      15.147   0.146  47.951  1.00  0.00     0.053 C 
BRANCH  14  15
ATOM     15  C   UNL     1      14.368   0.130  46.673  1.00  0.00     0.041 C 
ATOM     16  O   UNL     1      13.962  -0.960  46.188  1.00  0.00    -0.550 OA
ATOM     17  O   UNL     1      14.049   1.325  46.040  1.00  0.00    -0.550 OA
ENDBRANCH  14  15
ENDBRANCH  13  14
ENDBRANCH  12  13
ENDBRANCH  11  12
ENDBRANCH  10  11
ENDBRANCH   9  10
ENDBRANCH   8   9
ENDBRANCH   7   8
ENDBRANCH   6   7
ENDBRANCH   5   6
ENDBRANCH   4   5
ENDBRANCH   3   4
ENDBRANCH   2   3
ENDBRANCH   1   2
BRANCH   1  18
ATOM     18  C   UNL     1      24.567   2.941  46.353  1.00  0.00     0.000 C 
BRANCH  18  19
ATOM     19  C   UNL     1      23.248   3.285  45.647  1.00  0.00     0.000 C 
BRANCH  19  20
ATOM     20  C   UNL     1      23.005   2.405  44.408  1.00  0.00     0.000 C 
BRANCH  20  21
ATOM     21  C   UNL     1      24.119   1.368  44.196  1.00  0.00     0.000 C 
BRANCH  21  22
ATOM     22  C   UNL     1      24.178   0.859  42.749  1.00  0.00     0.000 C 
BRANCH  22  23
ATOM     23  C   UNL     1      22.768   0.664  42.179  1.00  0.00     0.000 C 
BRANCH  23  24
ATOM     24  C   UNL     1      22.770   0.789  40.648  1.00  0.00    -0.000 C 
BRANCH  24  25
ATOM     25  C   UNL     1      24.030   1.487  40.104  1.00  0.00    -0.000 C 
BRANCH  25  26
ATOM     26  C   UNL     1      23.861   2.983  39.784  1.00  0.00    -0.000 C 
BRANCH  26  27
ATOM     27  C   UNL     1      24.771   3.883  40.637  1.00  0.00    -0.000 C 
BRANCH  27  28
ATOM     28  C   UNL     1      23.997   4.643  41.723  1.00  0.00    -0.000 C 
BRANCH  28  29
ATOM     29  C   UNL     1      24.903   5.145  42.862  1.00  0.00    -0.000 C 
BRANCH  29  30
ATOM     30  C   UNL     1      24.700   6.648  43.147  1.00  0.00    -0.000 C 
BRANCH  30  31
ATOM     31  C   UNL     1      24.362   7.468  41.890  1.00  0.00    -0.003 C 
ATOM     32  C   UNL     1      25.600   8.012  41.177  1.00  0.00     0.004 C 
ENDBRANCH  30  31
ENDBRANCH  29  30
ENDBRANCH  28  29
ENDBRANCH  27  28
ENDBRANCH  26  27
ENDBRANCH  25  26
ENDBRANCH  24  25
ENDBRANCH  23  24
ENDBRANCH  22  23
ENDBRANCH  21  22
ENDBRANCH  20  21
ENDBRANCH  19  20
ENDBRANCH  18  19
ENDBRANCH   1  18
TORSDOF 28
ENDMDL
