MODEL 1
REMARK VINA RESULT:    -3.263      0.000      0.000
REMARK INTER + INTRA:          -3.940
REMARK INTER:                  -3.930
REMARK INTRA:                  -0.010
REMARK UNBOUND:                -0.010
REMARK SMILES CCCCCO
REMARK SMILES IDX 4 1 3 2 2 3 1 4 5 5 6 6
REMARK H PARENT 6 7
REMARK Flexibility Score: inf
ROOT
ATOM      1  C   UNL     1       1.710  29.102  13.009  1.00  0.00     0.028 C 
ENDROOT
BRANCH   1   2
ATOM      2  C   UNL     1       2.346  29.896  11.861  1.00  0.00     0.002 C 
BRANCH   2   3
ATOM      3  C   UNL     1       1.582  31.200  11.606  1.00  0.00    -0.003 C 
ATOM      4  C   UNL     1       1.509  31.514  10.114  1.00  0.00     0.004 C 
ENDBRANCH   2   3
ENDBRANCH   1   2
BRANCH   1   5
ATOM      5  C   UNL     1       2.781  28.505  13.925  1.00  0.00     0.156 C 
BRANCH   5   6
ATOM      6  O   UNL     1       2.454  27.181  14.254  1.00  0.00    -0.396 OA
ATOM      7  H   UNL     1       3.101  26.894  14.951  1.00  0.00     0.210 HD
ENDBRANCH   5   6
ENDBRANCH   1   5
TORSDOF 4
ENDMDL
MODEL 2
REMARK VINA RESULT:    -3.260     19.926     20.655
REMARK INTER + INTRA:          -3.937
REMARK INTER:                  -3.917
REMARK INTRA:                  -0.021
REMARK UNBOUND:                -0.010
REMARK SMILES CCCCCO
REMARK SMILES IDX 4 1 3 2 2 3 1 4 5 5 6 6
REMARK H PARENT 6 7
REMARK Flexibility Score: inf
ROOT
ATOM      1  C   UNL     1     -10.982  14.768  20.187  1.00  0.00     0.028 C 
ENDROOT
BRANCH   1   2
ATOM      2  C   UNL     1      -9.729  14.644  21.062  1.00  0.00     0.002 C 
BRANCH   2   3
ATOM      3  C   UNL     1      -9.517  15.910  21.900  1.00  0.00    -0.003 C 
ATOM      4  C   UNL     1     -10.580  16.035  22.989  1.00  0.00     0.004 C 
ENDBRANCH   2   3
ENDBRANCH   1   2
BRANCH   1   5
ATOM      5  C   UNL     1     -10.898  15.994  19.274  1.00  0.00     0.156 C 
BRANCH   5   6
ATOM      6  O   UNL     1      -9.708  15.964  18.531  1.00  0.00    -0.396 OA
ATOM      7  H   UNL     1      -8.988  15.695  19.160  1.00  0.00     0.210 HD
ENDBRANCH   5   6
ENDBRANCH   1   5
TORSDOF 4
ENDMDL
MODEL 3
REMARK VINA RESULT:    -3.107     10.480     11.304
REMARK INTER + INTRA:          -3.753
REMARK INTER:                  -3.743
REMARK INTRA:                  -0.010
REMARK UNBOUND:                -0.010
REMARK SMILES CCCCCO
REMARK SMILES IDX 4 1 3 2 2 3 1 4 5 5 6 6
REMARK H PARENT 6 7
REMARK Flexibility Score: inf
ROOT
ATOM      1  C   UNL     1      -4.210  19.791  12.906  1.00  0.00     0.028 C 
ENDROOT
BRANCH   1   2
ATOM      2  C   UNL     1      -3.556  20.822  11.978  1.00  0.00     0.002 C 
BRANCH   2   3
ATOM      3  C   UNL     1      -2.485  21.628  12.721  1.00  0.00    -0.003 C 
ATOM      4  C   UNL     1      -1.113  21.446  12.077  1.00  0.00     0.004 C 
ENDBRANCH   2   3
ENDBRANCH   1   2
BRANCH   1   5
ATOM      5  C   UNL     1      -5.561  19.330  12.353  1.00  0.00     0.156 C 
BRANCH   5   6
ATOM      6  O   UNL     1      -6.276  18.636  13.340  1.00  0.00    -0.396 OA
ATOM      7  H   UNL     1      -7.161  18.413  12.945  1.00  0.00     0.210 HD
ENDBRANCH   5   6
ENDBRANCH   1   5
TORSDOF 4
ENDMDL
MODEL 4
REMARK VINA RESULT:    -3.030      1.369      2.133
REMARK INTER + INTRA:          -3.659
REMARK INTER:                  -3.588
REMARK INTRA:                  -0.072
REMARK UNBOUND:                -0.010
REMARK SMILES CCCCCO
REMARK SMILES IDX 4 1 3 2 2 3 1 4 5 5 6 6
REMARK H PARENT 6 7
REMARK Flexibility Score: inf
ROOT
ATOM      1  C   UNL     1       1.733  28.997  12.925  1.00  0.00     0.028 C 
ENDROOT
BRANCH   1   2
ATOM      2  C   UNL     1       2.412  29.995  11.978  1.00  0.00     0.002 C 
BRANCH   2   3
ATOM      3  C   UNL     1       3.874  29.609  11.731  1.00  0.00    -0.003 C 
ATOM      4  C   UNL     1       4.824  30.526  12.498  1.00  0.00     0.004 C 
ENDBRANCH   2   3
ENDBRANCH   1   2
BRANCH   1   5
ATOM      5  C   UNL     1       2.477  27.659  12.942  1.00  0.00     0.156 C 
BRANCH   5   6
ATOM      6  O   UNL     1       2.643  27.215  14.261  1.00  0.00    -0.396 OA
ATOM      7  H   UNL     1       3.522  26.752  14.296  1.00  0.00     0.210 HD
ENDBRANCH   5   6
ENDBRANCH   1   5
TORSDOF 4
ENDMDL
MODEL 5
REMARK VINA RESULT:    -2.926      5.482      6.071
REMARK INTER + INTRA:          -3.535
REMARK INTER:                  -3.506
REMARK INTRA:                  -0.029
REMARK UNBOUND:                -0.010
REMARK SMILES CCCCCO
REMARK SMILES IDX 4 1 3 2 2 3 1 4 5 5 6 6
REMARK H PARENT 6 7
REMARK Flexibility Score: inf
ROOT
ATOM      1  C   UNL     1       3.879  24.849  10.600  1.00  0.00     0.028 C 
ENDROOT
BRANCH   1   2
ATOM      2  C   UNL     1       2.963  24.603   9.395  1.00  0.00     0.002 C 
BRANCH   2   3
ATOM      3  C   UNL     1       1.498  24.493   9.832  1.00  0.00    -0.003 C 
ATOM      4  C   UNL     1       1.317  24.952  11.277  1.00  0.00     0.004 C 
ENDBRANCH   2   3
ENDBRANCH   1   2
BRANCH   1   5
ATOM      5  C   UNL     1       5.279  24.282  10.352  1.00  0.00     0.156 C 
BRANCH   5   6
ATOM      6  O   UNL     1       5.985  24.191  11.561  1.00  0.00    -0.396 OA
ATOM      7  H   UNL     1       5.938  25.088  11.985  1.00  0.00     0.210 HD
ENDBRANCH   5   6
ENDBRANCH   1   5
TORSDOF 4
ENDMDL
MODEL 6
REMARK VINA RESULT:    -2.920      4.882      5.681
REMARK INTER + INTRA:          -3.527
REMARK INTER:                  -3.498
REMARK INTRA:                  -0.029
REMARK UNBOUND:                -0.010
REMARK SMILES CCCCCO
REMARK SMILES IDX 4 1 3 2 2 3 1 4 5 5 6 6
REMARK H PARENT 6 7
REMARK Flexibility Score: inf
ROOT
ATOM      1  C   UNL     1       2.336  25.409  11.509  1.00  0.00     0.028 C 
ENDROOT
BRANCH   1   2
ATOM      2  C   UNL     1       3.207  25.912  10.351  1.00  0.00     0.002 C 
BRANCH   2   3
ATOM      3  C   UNL     1       3.976  24.756   9.700  1.00  0.00    -0.003 C 
ATOM      4  C   UNL     1       5.200  24.373  10.528  1.00  0.00     0.004 C 
ENDBRANCH   2   3
ENDBRANCH   1   2
BRANCH   1   5
ATOM      5  C   UNL     1       1.082  24.702  10.989  1.00  0.00     0.156 C 
BRANCH   5   6
ATOM      6  O   UNL     1      -0.016  24.996  11.811  1.00  0.00    -0.396 OA
ATOM      7  H   UNL     1      -0.167  25.975  11.743  1.00  0.00     0.210 HD
ENDBRANCH   5   6
ENDBRANCH   1   5
TORSDOF 4
ENDMDL
MODEL 7
REMARK VINA RESULT:    -2.903      1.599      2.130
REMARK INTER + INTRA:          -3.507
REMARK INTER:                  -3.437
REMARK INTRA:                  -0.070
REMARK UNBOUND:                -0.010
REMARK SMILES CCCCCO
REMARK SMILES IDX 4 1 3 2 2 3 1 4 5 5 6 6
REMARK H PARENT 6 7
REMARK Flexibility Score: inf
ROOT
ATOM      1  C   UNL     1       3.337  28.392  12.091  1.00  0.00     0.028 C 
ENDROOT
BRANCH   1   2
ATOM      2  C   UNL     1       2.541  28.771  13.345  1.00  0.00     0.002 C 
BRANCH   2   3
ATOM      3  C   UNL     1       1.249  29.508  12.973  1.00  0.00    -0.003 C 
ATOM      4  C   UNL     1       1.515  30.602  11.941  1.00  0.00     0.004 C 
ENDBRANCH   2   3
ENDBRANCH   1   2
BRANCH   1   5
ATOM      5  C   UNL     1       3.056  26.946  11.675  1.00  0.00     0.156 C 
BRANCH   5   6
ATOM      6  O   UNL     1       2.609  26.204  12.778  1.00  0.00    -0.396 OA
ATOM      7  H   UNL     1       3.353  26.199  13.437  1.00  0.00     0.210 HD
ENDBRANCH   5   6
ENDBRANCH   1   5
TORSDOF 4
ENDMDL
MODEL 8
REMARK VINA RESULT:    -2.899      4.700      5.403
REMARK INTER + INTRA:          -3.502
REMARK INTER:                  -3.470
REMARK INTRA:                  -0.032
REMARK UNBOUND:                -0.010
REMARK SMILES CCCCCO
REMARK SMILES IDX 4 1 3 2 2 3 1 4 5 5 6 6
REMARK H PARENT 6 7
REMARK Flexibility Score: inf
ROOT
ATOM      1  C   UNL     1       4.069  24.553  10.212  1.00  0.00     0.028 C 
ENDROOT
BRANCH   1   2
ATOM      2  C   UNL     1       3.833  25.956  10.785  1.00  0.00     0.002 C 
BRANCH   2   3
ATOM      3  C   UNL     1       2.592  25.980  11.685  1.00  0.00    -0.003 C 
ATOM      4  C   UNL     1       2.541  27.257  12.520  1.00  0.00     0.004 C 
ENDBRANCH   2   3
ENDBRANCH   1   2
BRANCH   1   5
ATOM      5  C   UNL     1       5.556  24.190  10.239  1.00  0.00     0.156 C 
BRANCH   5   6
ATOM      6  O   UNL     1       6.026  24.175  11.560  1.00  0.00    -0.396 OA
ATOM      7  H   UNL     1       5.638  24.972  12.008  1.00  0.00     0.210 HD
ENDBRANCH   5   6
ENDBRANCH   1   5
TORSDOF 4
ENDMDL
