MODEL 1
REMARK VINA RESULT:    -4.464      0.000      0.000
REMARK INTER + INTRA:         -10.099
REMARK INTER:                  -8.379
REMARK INTRA:                  -1.719
REMARK UNBOUND:                -1.719
REMARK SMILES CCCCCCCCC=CCCCCCCCC(=O)[O-]
REMARK SMILES IDX 10 1 9 2 11 3 12 4 13 5 14 6 15 7 16 8 17 9 18 10 19 11
REMARK SMILES IDX 20 12 8 13 7 14 6 15 5 16 4 17 3 18 2 19 1 20
REMARK H PARENT
REMARK Flexibility Score: inf
ROOT
ATOM      1  C   UNL     1      -1.142  -4.847  25.934  1.00  0.00    -0.031 C 
ATOM      2  C   UNL     1      -1.508  -5.687  24.955  1.00  0.00    -0.031 C 
ENDROOT
BRANCH   1   3
ATOM      3  C   UNL     1       0.036  -3.923  25.793  1.00  0.00     0.027 C 
BRANCH   3   4
ATOM      4  C   UNL     1       1.296  -4.579  26.370  1.00  0.00     0.004 C 
BRANCH   4   5
ATOM      5  C   UNL     1       0.984  -5.629  27.452  1.00  0.00     0.000 C 
BRANCH   5   6
ATOM      6  C   UNL     1       1.730  -6.970  27.294  1.00  0.00     0.000 C 
BRANCH   6   7
ATOM      7  C   UNL     1       1.197  -7.890  26.182  1.00  0.00     0.000 C 
BRANCH   7   8
ATOM      8  C   UNL     1       2.016  -7.793  24.883  1.00  0.00     0.006 C 
BRANCH   8   9
ATOM      9  C   UNL     1       1.131  -7.888  23.634  1.00  0.00     0.053 C 
BRANCH   9  10
ATOM     10  C   UNL     1       1.392  -6.761  22.681  1.00  0.00     0.041 C 
ATOM     11  O   UNL     1       1.734  -5.629  23.114  1.00  0.00    -0.550 OA
ATOM     12  O   UNL     1       1.228  -6.955  21.314  1.00  0.00    -0.550 OA
ENDBRANCH   9  10
ENDBRANCH   8   9
ENDBRANCH   7   8
ENDBRANCH   6   7
ENDBRANCH   5   6
ENDBRANCH   4   5
ENDBRANCH   3   4
ENDBRANCH   1   3
BRANCH   2  13
ATOM     13  C   UNL     1      -2.696  -6.597  25.104  1.00  0.00     0.027 C 
BRANCH  13  14
ATOM     14  C   UNL     1      -2.539  -7.859  24.244  1.00  0.00     0.004 C 
BRANCH  14  15
ATOM     15  C   UNL     1      -3.731  -8.089  23.298  1.00  0.00     0.000 C 
BRANCH  15  16
ATOM     16  C   UNL     1      -5.072  -7.506  23.789  1.00  0.00     0.000 C 
BRANCH  16  17
ATOM     17  C   UNL     1      -6.089  -7.174  22.679  1.00  0.00    -0.000 C 
BRANCH  17  18
ATOM     18  C   UNL     1      -7.143  -6.119  23.059  1.00  0.00    -0.000 C 
BRANCH  18  19
ATOM     19  C   UNL     1      -6.965  -4.799  22.295  1.00  0.00    -0.003 C 
ATOM     20  C   UNL     1      -7.979  -3.755  22.758  1.00  0.00     0.004 C 
ENDBRANCH  18  19
ENDBRANCH  17  18
ENDBRANCH  16  17
ENDBRANCH  15  16
ENDBRANCH  14  15
ENDBRANCH  13  14
ENDBRANCH   2  13
TORSDOF 15
ENDMDL
MODEL 2
REMARK VINA RESULT:    -4.366      3.969      8.634
REMARK INTER + INTRA:          -9.914
REMARK INTER:                  -8.772
REMARK INTRA:                  -1.141
REMARK UNBOUND:                -1.719
REMARK SMILES CCCCCCCCC=CCCCCCCCC(=O)[O-]
REMARK SMILES IDX 10 1 9 2 11 3 12 4 13 5 14 6 15 7 16 8 17 9 18 10 19 11
REMARK SMILES IDX 20 12 8 13 7 14 6 15 5 16 4 17 3 18 2 19 1 20
REMARK H PARENT
REMARK Flexibility Score: inf
ROOT
ATOM      1  C   UNL     1      -3.550  -7.185  24.001  1.00  0.00    -0.031 C 
ATOM      2  C   UNL     1      -2.352  -7.706  24.303  1.00  0.00    -0.031 C 
ENDROOT
BRANCH   1   3
ATOM      3  C   UNL     1      -4.648  -8.011  23.389  1.00  0.00     0.027 C 
BRANCH   3   4
ATOM      4  C   UNL     1      -6.012  -7.562  23.927  1.00  0.00     0.004 C 
BRANCH   4   5
ATOM      5  C   UNL     1      -6.991  -7.152  22.813  1.00  0.00     0.000 C 
BRANCH   5   6
ATOM      6  C   UNL     1      -7.800  -5.869  23.092  1.00  0.00     0.000 C 
BRANCH   6   7
ATOM      7  C   UNL     1      -7.246  -4.590  22.440  1.00  0.00     0.000 C 
BRANCH   7   8
ATOM      8  C   UNL     1      -8.247  -3.422  22.472  1.00  0.00     0.006 C 
BRANCH   8   9
ATOM      9  C   UNL     1      -8.109  -2.579  23.747  1.00  0.00     0.053 C 
BRANCH   9  10
ATOM     10  C   UNL     1      -8.384  -1.129  23.487  1.00  0.00     0.041 C 
ATOM     11  O   UNL     1      -8.875  -0.763  22.386  1.00  0.00    -0.550 OA
ATOM     12  O   UNL     1      -8.068  -0.178  24.450  1.00  0.00    -0.550 OA
ENDBRANCH   9  10
ENDBRANCH   8   9
ENDBRANCH   7   8
ENDBRANCH   6   7
ENDBRANCH   5   6
ENDBRANCH   4   5
ENDBRANCH   3   4
ENDBRANCH   1   3
BRANCH   2  13
ATOM     13  C   UNL     1      -1.267  -6.871  24.926  1.00  0.00     0.027 C 
BRANCH  13  14
ATOM     14  C   UNL     1      -1.766  -5.452  25.232  1.00  0.00     0.004 C 
BRANCH  14  15
ATOM     15  C   UNL     1      -0.817  -4.672  26.159  1.00  0.00     0.000 C 
BRANCH  15  16
ATOM     16  C   UNL     1       0.313  -3.909  25.440  1.00  0.00     0.000 C 
BRANCH  16  17
ATOM     17  C   UNL     1       1.704  -4.569  25.515  1.00  0.00    -0.000 C 
BRANCH  17  18
ATOM     18  C   UNL     1       2.368  -4.842  24.153  1.00  0.00    -0.000 C 
BRANCH  18  19
ATOM     19  C   UNL     1       1.392  -4.698  22.976  1.00  0.00    -0.003 C 
ATOM     20  C   UNL     1       1.358  -5.969  22.133  1.00  0.00     0.004 C 
ENDBRANCH  18  19
ENDBRANCH  17  18
ENDBRANCH  16  17
ENDBRANCH  15  16
ENDBRANCH  14  15
ENDBRANCH  13  14
ENDBRANCH   2  13
TORSDOF 15
ENDMDL
MODEL 3
REMARK VINA RESULT:    -4.330      7.707     10.200
REMARK INTER + INTRA:          -9.847
REMARK INTER:                  -7.647
REMARK INTRA:                  -2.199
REMARK UNBOUND:                -1.719
REMARK SMILES CCCCCCCCC=CCCCCCCCC(=O)[O-]
REMARK SMILES IDX 10 1 9 2 11 3 12 4 13 5 14 6 15 7 16 8 17 9 18 10 19 11
REMARK SMILES IDX 20 12 8 13 7 14 6 15 5 16 4 17 3 18 2 19 1 20
REMARK H PARENT
REMARK Flexibility Score: inf
ROOT
ATOM      1  C   UNL     1      -7.989   0.406  24.556  1.00  0.00    -0.031 C 
ATOM      2  C   UNL     1      -7.863   1.206  25.625  1.00  0.00    -0.031 C 
ENDROOT
BRANCH   1   3
ATOM      3  C   UNL     1      -8.324   0.944  23.193  1.00  0.00     0.027 C 
BRANCH   3   4
ATOM      4  C   UNL     1      -8.746  -0.199  22.261  1.00  0.00     0.004 C 
BRANCH   4   5
ATOM      5  C   UNL     1      -9.003  -1.519  23.009  1.00  0.00     0.000 C 
BRANCH   5   6
ATOM      6  C   UNL     1     -10.489  -1.885  23.197  1.00  0.00     0.000 C 
BRANCH   6   7
ATOM      7  C   UNL     1     -10.968  -3.113  22.400  1.00  0.00     0.000 C 
BRANCH   7   8
ATOM      8  C   UNL     1      -9.814  -3.867  21.716  1.00  0.00     0.006 C 
BRANCH   8   9
ATOM      9  C   UNL     1      -9.487  -5.187  22.426  1.00  0.00     0.053 C 
BRANCH   9  10
ATOM     10  C   UNL     1      -8.032  -5.285  22.773  1.00  0.00     0.041 C 
ATOM     11  O   UNL     1      -7.617  -6.217  23.512  1.00  0.00    -0.550 OA
ATOM     12  O   UNL     1      -7.140  -4.328  22.305  1.00  0.00    -0.550 OA
ENDBRANCH   9  10
ENDBRANCH   8   9
ENDBRANCH   7   8
ENDBRANCH   6   7
ENDBRANCH   5   6
ENDBRANCH   4   5
ENDBRANCH   3   4
ENDBRANCH   1   3
BRANCH   2  13
ATOM     13  C   UNL     1      -7.515   0.657  26.981  1.00  0.00     0.027 C 
BRANCH  13  14
ATOM     14  C   UNL     1      -8.353   1.324  28.081  1.00  0.00     0.004 C 
BRANCH  14  15
ATOM     15  C   UNL     1      -9.867   1.223  27.821  1.00  0.00     0.000 C 
BRANCH  15  16
ATOM     16  C   UNL     1     -10.469  -0.182  28.024  1.00  0.00     0.000 C 
BRANCH  16  17
ATOM     17  C   UNL     1     -10.604  -1.029  26.743  1.00  0.00    -0.000 C 
BRANCH  17  18
ATOM     18  C   UNL     1     -11.087  -2.473  26.968  1.00  0.00    -0.000 C 
BRANCH  18  19
ATOM     19  C   UNL     1      -9.963  -3.508  26.807  1.00  0.00    -0.003 C 
ATOM     20  C   UNL     1      -8.673  -2.846  26.330  1.00  0.00     0.004 C 
ENDBRANCH  18  19
ENDBRANCH  17  18
ENDBRANCH  16  17
ENDBRANCH  15  16
ENDBRANCH  14  15
ENDBRANCH  13  14
ENDBRANCH   2  13
TORSDOF 15
ENDMDL
MODEL 4
REMARK VINA RESULT:    -4.312      8.141     10.338
REMARK INTER + INTRA:          -9.813
REMARK INTER:                  -6.956
REMARK INTRA:                  -2.857
REMARK UNBOUND:                -1.719
REMARK SMILES CCCCCCCCC=CCCCCCCCC(=O)[O-]
REMARK SMILES IDX 10 1 9 2 11 3 12 4 13 5 14 6 15 7 16 8 17 9 18 10 19 11
REMARK SMILES IDX 20 12 8 13 7 14 6 15 5 16 4 17 3 18 2 19 1 20
REMARK H PARENT
REMARK Flexibility Score: inf
ROOT
ATOM      1  C   UNL     1     -11.224  -2.408  23.177  1.00  0.00    -0.031 C 
ATOM      2  C   UNL     1     -11.902  -3.169  22.306  1.00  0.00    -0.031 C 
ENDROOT
BRANCH   1   3
ATOM      3  C   UNL     1     -11.905  -1.702  24.318  1.00  0.00     0.027 C 
BRANCH   3   4
ATOM      4  C   UNL     1     -11.470  -2.313  25.655  1.00  0.00     0.004 C 
BRANCH   4   5
ATOM      5  C   UNL     1     -10.641  -1.345  26.517  1.00  0.00     0.000 C 
BRANCH   5   6
ATOM      6  C   UNL     1      -9.121  -1.608  26.517  1.00  0.00     0.000 C 
BRANCH   6   7
ATOM      7  C   UNL     1      -8.262  -0.492  25.896  1.00  0.00     0.000 C 
BRANCH   7   8
ATOM      8  C   UNL     1      -8.255  -0.530  24.358  1.00  0.00     0.006 C 
BRANCH   8   9
ATOM      9  C   UNL     1      -8.308   0.876  23.746  1.00  0.00     0.053 C 
BRANCH   9  10
ATOM     10  C   UNL     1      -8.615   0.832  22.279  1.00  0.00     0.041 C 
ATOM     11  O   UNL     1      -8.741  -0.274  21.689  1.00  0.00    -0.550 OA
ATOM     12  O   UNL     1      -8.733   2.014  21.558  1.00  0.00    -0.550 OA
ENDBRANCH   9  10
ENDBRANCH   8   9
ENDBRANCH   7   8
ENDBRANCH   6   7
ENDBRANCH   5   6
ENDBRANCH   4   5
ENDBRANCH   3   4
ENDBRANCH   1   3
BRANCH   2  13
ATOM     13  C   UNL     1     -11.207  -3.880  21.177  1.00  0.00     0.027 C 
BRANCH  13  14
ATOM     14  C   UNL     1     -11.687  -5.334  21.059  1.00  0.00     0.004 C 
BRANCH  14  15
ATOM     15  C   UNL     1     -11.969  -5.982  22.426  1.00  0.00     0.000 C 
BRANCH  15  16
ATOM     16  C   UNL     1     -10.721  -6.495  23.173  1.00  0.00     0.000 C 
BRANCH  16  17
ATOM     17  C   UNL     1     -10.354  -5.715  24.451  1.00  0.00    -0.000 C 
BRANCH  17  18
ATOM     18  C   UNL     1      -8.958  -5.067  24.438  1.00  0.00    -0.000 C 
BRANCH  18  19
ATOM     19  C   UNL     1      -8.293  -5.115  23.055  1.00  0.00    -0.003 C 
ATOM     20  C   UNL     1      -7.711  -3.755  22.678  1.00  0.00     0.004 C 
ENDBRANCH  18  19
ENDBRANCH  17  18
ENDBRANCH  16  17
ENDBRANCH  15  16
ENDBRANCH  14  15
ENDBRANCH  13  14
ENDBRANCH   2  13
TORSDOF 15
ENDMDL
MODEL 5
REMARK VINA RESULT:    -4.271      3.639      7.439
REMARK INTER + INTRA:          -9.735
REMARK INTER:                  -8.234
REMARK INTRA:                  -1.501
REMARK UNBOUND:                -1.719
REMARK SMILES CCCCCCCCC=CCCCCCCCC(=O)[O-]
REMARK SMILES IDX 10 1 9 2 11 3 12 4 13 5 14 6 15 7 16 8 17 9 18 10 19 11
REMARK SMILES IDX 20 12 8 13 7 14 6 15 5 16 4 17 3 18 2 19 1 20
REMARK H PARENT
REMARK Flexibility Score: inf
ROOT
ATOM      1  C   UNL     1       0.587  -7.707  23.125  1.00  0.00    -0.031 C 
ATOM      2  C   UNL     1       1.089  -7.552  21.891  1.00  0.00    -0.031 C 
ENDROOT
BRANCH   1   3
ATOM      3  C   UNL     1      -0.857  -8.055  23.360  1.00  0.00     0.027 C 
BRANCH   3   4
ATOM      4  C   UNL     1      -1.378  -7.339  24.611  1.00  0.00     0.004 C 
BRANCH   4   5
ATOM      5  C   UNL     1      -2.838  -7.696  24.944  1.00  0.00     0.000 C 
BRANCH   5   6
ATOM      6  C   UNL     1      -3.891  -7.100  23.988  1.00  0.00     0.000 C 
BRANCH   6   7
ATOM      7  C   UNL     1      -4.642  -8.125  23.120  1.00  0.00     0.000 C 
BRANCH   7   8
ATOM      8  C   UNL     1      -6.170  -7.950  23.177  1.00  0.00     0.006 C 
BRANCH   8   9
ATOM      9  C   UNL     1      -6.595  -6.502  22.902  1.00  0.00     0.053 C 
BRANCH   9  10
ATOM     10  C   UNL     1      -8.087  -6.355  22.885  1.00  0.00     0.041 C 
ATOM     11  O   UNL     1      -8.612  -5.225  22.699  1.00  0.00    -0.550 OA
ATOM     12  O   UNL     1      -8.897  -7.462  23.105  1.00  0.00    -0.550 OA
ENDBRANCH   9  10
ENDBRANCH   8   9
ENDBRANCH   7   8
ENDBRANCH   6   7
ENDBRANCH   5   6
ENDBRANCH   4   5
ENDBRANCH   3   4
ENDBRANCH   1   3
BRANCH   2  13
ATOM     13  C   UNL     1       2.539  -7.216  21.670  1.00  0.00     0.027 C 
BRANCH  13  14
ATOM     14  C   UNL     1       3.374  -7.514  22.923  1.00  0.00     0.004 C 
BRANCH  14  15
ATOM     15  C   UNL     1       4.163  -6.289  23.419  1.00  0.00     0.000 C 
BRANCH  15  16
ATOM     16  C   UNL     1       3.465  -5.472  24.526  1.00  0.00     0.000 C 
BRANCH  16  17
ATOM     17  C   UNL     1       2.208  -4.700  24.079  1.00  0.00    -0.000 C 
BRANCH  17  18
ATOM     18  C   UNL     1       1.092  -4.609  25.135  1.00  0.00    -0.000 C 
BRANCH  18  19
ATOM     19  C   UNL     1      -0.099  -3.759  24.670  1.00  0.00    -0.003 C 
ATOM     20  C   UNL     1      -1.194  -3.722  25.733  1.00  0.00     0.004 C 
ENDBRANCH  18  19
ENDBRANCH  17  18
ENDBRANCH  16  17
ENDBRANCH  15  16
ENDBRANCH  14  15
ENDBRANCH  13  14
ENDBRANCH   2  13
TORSDOF 15
ENDMDL
MODEL 6
REMARK VINA RESULT:    -4.202      1.416      2.521
REMARK INTER + INTRA:          -9.606
REMARK INTER:                  -7.914
REMARK INTRA:                  -1.691
REMARK UNBOUND:                -1.719
REMARK SMILES CCCCCCCCC=CCCCCCCCC(=O)[O-]
REMARK SMILES IDX 10 1 9 2 11 3 12 4 13 5 14 6 15 7 16 8 17 9 18 10 19 11
REMARK SMILES IDX 20 12 8 13 7 14 6 15 5 16 4 17 3 18 2 19 1 20
REMARK H PARENT
REMARK Flexibility Score: inf
ROOT
ATOM      1  C   UNL     1       0.332  -5.014  27.162  1.00  0.00    -0.031 C 
ATOM      2  C   UNL     1      -0.046  -4.106  26.250  1.00  0.00    -0.031 C 
ENDROOT
BRANCH   1   3
ATOM      3  C   UNL     1       1.772  -5.200  27.554  1.00  0.00     0.027 C 
BRANCH   3   4
ATOM      4  C   UNL     1       2.131  -6.690  27.561  1.00  0.00     0.004 C 
BRANCH   4   5
ATOM      5  C   UNL     1       1.048  -7.573  26.917  1.00  0.00     0.000 C 
BRANCH   5   6
ATOM      6  C   UNL     1       1.397  -8.117  25.517  1.00  0.00     0.000 C 
BRANCH   6   7
ATOM      7  C   UNL     1       2.892  -8.079  25.153  1.00  0.00     0.000 C 
BRANCH   7   8
ATOM      8  C   UNL     1       3.163  -7.358  23.820  1.00  0.00     0.006 C 
BRANCH   8   9
ATOM      9  C   UNL     1       1.938  -6.579  23.325  1.00  0.00     0.053 C 
BRANCH   9  10
ATOM     10  C   UNL     1       2.074  -5.109  23.581  1.00  0.00     0.041 C 
ATOM     11  O   UNL     1       2.970  -4.679  24.355  1.00  0.00    -0.550 OA
ATOM     12  O   UNL     1       1.191  -4.216  22.987  1.00  0.00    -0.550 OA
ENDBRANCH   9  10
ENDBRANCH   8   9
ENDBRANCH   7   8
ENDBRANCH   6   7
ENDBRANCH   5   6
ENDBRANCH   4   5
ENDBRANCH   3   4
ENDBRANCH   1   3
BRANCH   2  13
ATOM     13  C   UNL     1      -1.491  -3.922  25.877  1.00  0.00     0.027 C 
BRANCH  13  14
ATOM     14  C   UNL     1      -1.877  -4.824  24.695  1.00  0.00     0.004 C 
BRANCH  14  15
ATOM     15  C   UNL     1      -1.793  -6.323  25.036  1.00  0.00     0.000 C 
BRANCH  15  16
ATOM     16  C   UNL     1      -3.151  -7.047  25.122  1.00  0.00     0.000 C 
BRANCH  16  17
ATOM     17  C   UNL     1      -3.812  -7.365  23.766  1.00  0.00    -0.000 C 
BRANCH  17  18
ATOM     18  C   UNL     1      -5.226  -7.967  23.858  1.00  0.00    -0.000 C 
BRANCH  18  19
ATOM     19  C   UNL     1      -6.131  -7.540  22.694  1.00  0.00    -0.003 C 
ATOM     20  C   UNL     1      -7.345  -6.763  23.199  1.00  0.00     0.004 C 
ENDBRANCH  18  19
ENDBRANCH  17  18
ENDBRANCH  16  17
ENDBRANCH  15  16
ENDBRANCH  14  15
ENDBRANCH  13  14
ENDBRANCH   2  13
TORSDOF 15
ENDMDL
MODEL 7
REMARK VINA RESULT:    -4.181      7.959     10.166
REMARK INTER + INTRA:          -9.568
REMARK INTER:                  -7.208
REMARK INTRA:                  -2.359
REMARK UNBOUND:                -1.719
REMARK SMILES CCCCCCCCC=CCCCCCCCC(=O)[O-]
REMARK SMILES IDX 10 1 9 2 11 3 12 4 13 5 14 6 15 7 16 8 17 9 18 10 19 11
REMARK SMILES IDX 20 12 8 13 7 14 6 15 5 16 4 17 3 18 2 19 1 20
REMARK H PARENT
REMARK Flexibility Score: inf
ROOT
ATOM      1  C   UNL     1      -7.991   0.402  24.674  1.00  0.00    -0.031 C 
ATOM      2  C   UNL     1      -7.774   1.255  25.686  1.00  0.00    -0.031 C 
ENDROOT
BRANCH   1   3
ATOM      3  C   UNL     1      -8.297   0.880  23.281  1.00  0.00     0.027 C 
BRANCH   3   4
ATOM      4  C   UNL     1      -8.699  -0.303  22.392  1.00  0.00     0.004 C 
BRANCH   4   5
ATOM      5  C   UNL     1      -9.528  -1.362  23.140  1.00  0.00     0.000 C 
BRANCH   5   6
ATOM      6  C   UNL     1      -9.325  -2.812  22.655  1.00  0.00     0.000 C 
BRANCH   6   7
ATOM      7  C   UNL     1      -7.911  -3.382  22.866  1.00  0.00     0.000 C 
BRANCH   7   8
ATOM      8  C   UNL     1      -7.852  -4.910  22.698  1.00  0.00     0.006 C 
BRANCH   8   9
ATOM      9  C   UNL     1      -8.481  -5.647  23.887  1.00  0.00     0.053 C 
BRANCH   9  10
ATOM     10  C   UNL     1      -9.730  -6.375  23.492  1.00  0.00     0.041 C 
ATOM     11  O   UNL     1      -9.762  -7.053  22.431  1.00  0.00    -0.550 OA
ATOM     12  O   UNL     1     -10.870  -6.279  24.282  1.00  0.00    -0.550 OA
ENDBRANCH   9  10
ENDBRANCH   8   9
ENDBRANCH   7   8
ENDBRANCH   6   7
ENDBRANCH   5   6
ENDBRANCH   4   5
ENDBRANCH   3   4
ENDBRANCH   1   3
BRANCH   2  13
ATOM     13  C   UNL     1      -7.456   0.764  27.072  1.00  0.00     0.027 C 
BRANCH  13  14
ATOM     14  C   UNL     1      -8.360   1.433  28.118  1.00  0.00     0.004 C 
BRANCH  14  15
ATOM     15  C   UNL     1      -9.858   1.267  27.804  1.00  0.00     0.000 C 
BRANCH  15  16
ATOM     16  C   UNL     1     -10.412  -0.157  28.011  1.00  0.00     0.000 C 
BRANCH  16  17
ATOM     17  C   UNL     1     -10.631  -0.970  26.720  1.00  0.00    -0.000 C 
BRANCH  17  18
ATOM     18  C   UNL     1     -11.073  -2.428  26.939  1.00  0.00    -0.000 C 
BRANCH  18  19
ATOM     19  C   UNL     1     -10.020  -3.445  26.473  1.00  0.00    -0.003 C 
ATOM     20  C   UNL     1      -8.626  -2.823  26.458  1.00  0.00     0.004 C 
ENDBRANCH  18  19
ENDBRANCH  17  18
ENDBRANCH  16  17
ENDBRANCH  15  16
ENDBRANCH  14  15
ENDBRANCH  13  14
ENDBRANCH   2  13
TORSDOF 15
ENDMDL
MODEL 8
REMARK VINA RESULT:    -4.180      8.239     10.119
REMARK INTER + INTRA:          -9.565
REMARK INTER:                  -6.458
REMARK INTRA:                  -3.107
REMARK UNBOUND:                -1.719
REMARK SMILES CCCCCCCCC=CCCCCCCCC(=O)[O-]
REMARK SMILES IDX 10 1 9 2 11 3 12 4 13 5 14 6 15 7 16 8 17 9 18 10 19 11
REMARK SMILES IDX 20 12 8 13 7 14 6 15 5 16 4 17 3 18 2 19 1 20
REMARK H PARENT
REMARK Flexibility Score: inf
ROOT
ATOM      1  C   UNL     1     -11.994  -2.199  24.505  1.00  0.00    -0.031 C 
ATOM      2  C   UNL     1     -11.486  -3.184  23.749  1.00  0.00    -0.031 C 
ENDROOT
BRANCH   1   3
ATOM      3  C   UNL     1     -11.839  -2.180  26.000  1.00  0.00     0.027 C 
BRANCH   3   4
ATOM      4  C   UNL     1     -11.030  -3.397  26.464  1.00  0.00     0.004 C 
BRANCH   4   5
ATOM      5  C   UNL     1      -9.687  -3.014  27.111  1.00  0.00     0.000 C 
BRANCH   5   6
ATOM      6  C   UNL     1      -8.773  -2.126  26.242  1.00  0.00     0.000 C 
BRANCH   6   7
ATOM      7  C   UNL     1      -8.361  -0.787  26.880  1.00  0.00     0.000 C 
BRANCH   7   8
ATOM      8  C   UNL     1      -8.875   0.432  26.095  1.00  0.00     0.006 C 
BRANCH   8   9
ATOM      9  C   UNL     1      -9.196   0.085  24.635  1.00  0.00     0.053 C 
BRANCH   9  10
ATOM     10  C   UNL     1      -8.322   0.841  23.680  1.00  0.00     0.041 C 
ATOM     11  O   UNL     1      -7.461   1.652  24.112  1.00  0.00    -0.550 OA
ATOM     12  O   UNL     1      -8.482   0.672  22.310  1.00  0.00    -0.550 OA
ENDBRANCH   9  10
ENDBRANCH   8   9
ENDBRANCH   7   8
ENDBRANCH   6   7
ENDBRANCH   5   6
ENDBRANCH   4   5
ENDBRANCH   3   4
ENDBRANCH   1   3
BRANCH   2  13
ATOM     13  C   UNL     1     -11.637  -3.184  22.253  1.00  0.00     0.027 C 
BRANCH  13  14
ATOM     14  C   UNL     1     -10.275  -3.328  21.558  1.00  0.00     0.004 C 
BRANCH  14  15
ATOM     15  C   UNL     1      -9.114  -2.772  22.402  1.00  0.00     0.000 C 
BRANCH  15  16
ATOM     16  C   UNL     1      -7.933  -3.744  22.603  1.00  0.00     0.000 C 
BRANCH  16  17
ATOM     17  C   UNL     1      -8.328  -5.209  22.878  1.00  0.00    -0.000 C 
BRANCH  17  18
ATOM     18  C   UNL     1      -8.724  -5.512  24.333  1.00  0.00    -0.000 C 
BRANCH  18  19
ATOM     19  C   UNL     1      -9.812  -6.590  24.442  1.00  0.00    -0.003 C 
ATOM     20  C   UNL     1     -10.588  -6.720  23.133  1.00  0.00     0.004 C 
ENDBRANCH  18  19
ENDBRANCH  17  18
ENDBRANCH  16  17
ENDBRANCH  15  16
ENDBRANCH  14  15
ENDBRANCH  13  14
ENDBRANCH   2  13
TORSDOF 15
ENDMDL
MODEL 9
REMARK VINA RESULT:    -4.129      8.659     10.427
REMARK INTER + INTRA:          -9.469
REMARK INTER:                  -7.280
REMARK INTRA:                  -2.190
REMARK UNBOUND:                -1.719
REMARK SMILES CCCCCCCCC=CCCCCCCCC(=O)[O-]
REMARK SMILES IDX 10 1 9 2 11 3 12 4 13 5 14 6 15 7 16 8 17 9 18 10 19 11
REMARK SMILES IDX 20 12 8 13 7 14 6 15 5 16 4 17 3 18 2 19 1 20
REMARK H PARENT
REMARK Flexibility Score: inf
ROOT
ATOM      1  C   UNL     1      -8.474   0.927  25.016  1.00  0.00    -0.031 C 
ATOM      2  C   UNL     1      -7.626   0.967  26.054  1.00  0.00    -0.031 C 
ENDROOT
BRANCH   1   3
ATOM      3  C   UNL     1      -7.993   0.960  23.591  1.00  0.00     0.027 C 
BRANCH   3   4
ATOM      4  C   UNL     1      -8.612  -0.196  22.796  1.00  0.00     0.004 C 
BRANCH   4   5
ATOM      5  C   UNL     1      -8.593  -1.530  23.562  1.00  0.00     0.000 C 
BRANCH   5   6
ATOM      6  C   UNL     1      -8.400  -2.784  22.686  1.00  0.00     0.000 C 
BRANCH   6   7
ATOM      7  C   UNL     1      -8.420  -4.123  23.445  1.00  0.00     0.000 C 
BRANCH   7   8
ATOM      8  C   UNL     1      -9.151  -5.236  22.674  1.00  0.00     0.006 C 
BRANCH   8   9
ATOM      9  C   UNL     1     -10.011  -4.678  21.533  1.00  0.00     0.053 C 
BRANCH   9  10
ATOM     10  C   UNL     1     -11.197  -5.551  21.253  1.00  0.00     0.041 C 
ATOM     11  O   UNL     1     -11.816  -6.105  22.200  1.00  0.00    -0.550 OA
ATOM     12  O   UNL     1     -11.600  -5.777  19.942  1.00  0.00    -0.550 OA
ENDBRANCH   9  10
ENDBRANCH   8   9
ENDBRANCH   7   8
ENDBRANCH   6   7
ENDBRANCH   5   6
ENDBRANCH   4   5
ENDBRANCH   3   4
ENDBRANCH   1   3
BRANCH   2  13
ATOM     13  C   UNL     1      -8.119   0.920  27.474  1.00  0.00     0.027 C 
BRANCH  13  14
ATOM     14  C   UNL     1      -9.627   1.199  27.546  1.00  0.00     0.004 C 
BRANCH  14  15
ATOM     15  C   UNL     1     -10.436  -0.019  28.028  1.00  0.00     0.000 C 
BRANCH  15  16
ATOM     16  C   UNL     1     -10.169  -1.325  27.252  1.00  0.00     0.000 C 
BRANCH  16  17
ATOM     17  C   UNL     1     -11.427  -2.048  26.732  1.00  0.00    -0.000 C 
BRANCH  17  18
ATOM     18  C   UNL     1     -11.758  -1.792  25.251  1.00  0.00    -0.000 C 
BRANCH  18  19
ATOM     19  C   UNL     1     -11.834  -3.085  24.426  1.00  0.00    -0.003 C 
ATOM     20  C   UNL     1     -11.751  -4.315  25.325  1.00  0.00     0.004 C 
ENDBRANCH  18  19
ENDBRANCH  17  18
ENDBRANCH  16  17
ENDBRANCH  15  16
ENDBRANCH  14  15
ENDBRANCH  13  14
ENDBRANCH   2  13
TORSDOF 15
ENDMDL
