MODEL 1
REMARK VINA RESULT:    -0.407      0.000      0.000
REMARK INTER + INTRA:           5.130
REMARK INTER:                  -0.597
REMARK INTRA:                   5.727
REMARK UNBOUND:                 5.727
REMARK SMILES C=C1C=C[C@H](C(C)C)CCC(C)=CCC1
REMARK SMILES IDX 3 1 4 2 5 3 9 4 10 5 11 6 12 7 13 8 6 10 7 11 8 12 2 13 1 14
REMARK SMILES IDX 15 15 14 16
REMARK H PARENT
REMARK Flexibility Score: 70.00
ROOT
ATOM      1  C   UNL     1       7.632   5.483  12.184  1.00  0.00    -0.001 C 
ATOM      2  C   UNL     1       8.035   6.632  11.616  1.00  0.00    -0.023 C 
ENDROOT
BRANCH   2   3
ATOM      3  C   UNL     1       7.454   8.006  11.935  1.00  0.00     0.014 C 
BRANCH   3   4
ATOM      4  C   UNL     1       5.908   8.122  11.728  1.00  0.00     0.012 C 
BRANCH   4   5
ATOM      5  C   UNL     1       5.137   8.916  12.806  1.00  0.00     0.031 C 
BRANCH   5   6
ATOM      6  C   UNL     1       3.880   8.216  13.282  1.00  0.00    -0.077 C 
ATOM      7  C   UNL     1       2.965   9.007  14.181  1.00  0.00     0.039 C 
ATOM      8  C   UNL     1       3.624   6.895  13.086  1.00  0.00    -0.028 CG0
ATOM      9  G   UNL     1       4.316   5.943  12.127  1.00  0.00     0.000 G0
ENDBRANCH   5   6
ENDBRANCH   4   5
ENDBRANCH   3   4
BRANCH   3  10
ATOM     10  C   UNL     1       7.899   8.547  13.331  1.00  0.00    -0.010 C 
ATOM     11  C   UNL     1       7.085   7.974  14.501  1.00  0.00     0.008 C 
ATOM     12  C   UNL     1       9.404   8.344  13.571  1.00  0.00     0.008 C 
ENDBRANCH   3  10
ENDBRANCH   2   3
BRANCH   1  13
ATOM     13  C   UNL     1       6.567   5.399  13.198  1.00  0.00    -0.055 C 
ATOM     14  C   UNL     1       6.766   5.931  14.407  1.00  0.00     0.012 C 
BRANCH  13  15
ATOM     15  C   UNL     1       5.201   4.877  12.800  1.00  0.00     0.039 C 
BRANCH  15  16
ATOM     16  C   UNL     1       4.320   5.961  12.135  1.00  0.00     0.032 CG0
ATOM     17  G   UNL     1       3.602   6.917  13.071  1.00  0.00     0.000 G0
ENDBRANCH  15  16
ENDBRANCH  13  15
ENDBRANCH   1  13
TORSDOF 1
ENDMDL
MODEL 2
REMARK VINA RESULT:     2.206      1.903      4.468
REMARK INTER + INTRA:           8.965
REMARK INTER:                   5.686
REMARK INTRA:                   3.279
REMARK UNBOUND:                 5.727
REMARK SMILES C=C1C=C[C@H](C(C)C)CCC(C)=CCC1
REMARK SMILES IDX 3 1 4 2 5 3 9 4 10 5 11 6 12 7 13 8 6 10 7 11 8 12 2 13 1 14
REMARK SMILES IDX 15 15 14 16
REMARK H PARENT
REMARK Flexibility Score: 70.00
ROOT
ATOM      1  C   UNL     1       5.089   7.955  12.003  1.00  0.00    -0.001 C 
ATOM      2  C   UNL     1       5.863   7.080  11.340  1.00  0.00    -0.023 C 
ENDROOT
BRANCH   2   3
ATOM      3  C   UNL     1       6.543   5.870  11.974  1.00  0.00     0.014 C 
BRANCH   3   4
ATOM      4  C   UNL     1       7.726   6.219  12.935  1.00  0.00     0.012 C 
BRANCH   4   5
ATOM      5  C   UNL     1       8.703   7.309  12.441  1.00  0.00     0.031 C 
BRANCH   5   6
ATOM      6  C   UNL     1       9.162   8.245  13.540  1.00  0.00    -0.077 C 
ATOM      7  C   UNL     1      10.641   8.273  13.831  1.00  0.00     0.039 C 
ATOM      8  C   UNL     1       8.320   8.916  14.371  1.00  0.00    -0.028 CG0
ATOM      9  G   UNL     1       6.827   9.141  14.202  1.00  0.00     0.000 G0
ENDBRANCH   5   6
ENDBRANCH   4   5
ENDBRANCH   3   4
BRANCH   3  10
ATOM     10  C   UNL     1       5.530   4.878  12.630  1.00  0.00    -0.010 C 
ATOM     11  C   UNL     1       5.574   4.879  14.166  1.00  0.00     0.008 C 
ATOM     12  C   UNL     1       4.094   5.111  12.132  1.00  0.00     0.008 C 
ENDBRANCH   3  10
ENDBRANCH   2   3
BRANCH   1  13
ATOM     13  C   UNL     1       4.793   7.861  13.444  1.00  0.00    -0.055 C 
ATOM     14  C   UNL     1       3.556   7.552  13.841  1.00  0.00     0.012 C 
BRANCH  13  15
ATOM     15  C   UNL     1       5.930   7.932  14.443  1.00  0.00     0.039 C 
BRANCH  15  16
ATOM     16  C   UNL     1       6.853   9.150  14.208  1.00  0.00     0.032 CG0
ATOM     17  G   UNL     1       8.344   8.910  14.375  1.00  0.00     0.000 G0
ENDBRANCH  15  16
ENDBRANCH  13  15
ENDBRANCH   1  13
TORSDOF 1
ENDMDL
MODEL 3
REMARK VINA RESULT:     2.542      1.155      2.054
REMARK INTER + INTRA:           9.457
REMARK INTER:                   8.672
REMARK INTRA:                   0.785
REMARK UNBOUND:                 5.727
REMARK SMILES C=C1C=C[C@H](C(C)C)CCC(C)=CCC1
REMARK SMILES IDX 3 1 4 2 5 3 9 4 10 5 11 6 12 7 13 8 6 10 7 11 8 12 2 13 1 14
REMARK SMILES IDX 15 15 14 16
REMARK H PARENT
REMARK Flexibility Score: 70.00
ROOT
ATOM      1  C   UNL     1       6.620   5.459  14.190  1.00  0.00    -0.001 C 
ATOM      2  C   UNL     1       7.055   6.655  14.621  1.00  0.00    -0.023 C 
ENDROOT
BRANCH   2   3
ATOM      3  C   UNL     1       6.990   7.944  13.807  1.00  0.00     0.014 C 
BRANCH   3   4
ATOM      4  C   UNL     1       5.740   8.836  14.100  1.00  0.00     0.012 C 
BRANCH   4   5
ATOM      5  C   UNL     1       4.562   8.699  13.110  1.00  0.00     0.031 C 
BRANCH   5   6
ATOM      6  C   UNL     1       4.976   8.155  11.758  1.00  0.00    -0.077 C 
ATOM      7  C   UNL     1       5.828   9.055  10.900  1.00  0.00     0.039 C 
ATOM      8  C   UNL     1       4.495   7.003  11.221  1.00  0.00    -0.028 CG0
ATOM      9  G   UNL     1       3.741   5.889  11.925  1.00  0.00     0.000 G0
ENDBRANCH   5   6
ENDBRANCH   4   5
ENDBRANCH   3   4
BRANCH   3  10
ATOM     10  C   UNL     1       8.319   8.764  13.861  1.00  0.00    -0.010 C 
ATOM     11  C   UNL     1       9.117   8.560  15.158  1.00  0.00     0.008 C 
ATOM     12  C   UNL     1       9.208   8.496  12.634  1.00  0.00     0.008 C 
ENDBRANCH   3  10
ENDBRANCH   2   3
BRANCH   1  13
ATOM     13  C   UNL     1       6.020   5.233  12.863  1.00  0.00    -0.055 C 
ATOM     14  C   UNL     1       6.808   5.186  11.785  1.00  0.00     0.012 C 
BRANCH  13  15
ATOM     15  C   UNL     1       4.551   4.875  12.763  1.00  0.00     0.039 C 
BRANCH  15  16
ATOM     16  C   UNL     1       3.742   5.905  11.940  1.00  0.00     0.032 CG0
ATOM     17  G   UNL     1       4.541   6.996  11.249  1.00  0.00     0.000 G0
ENDBRANCH  15  16
ENDBRANCH  13  15
ENDBRANCH   1  13
TORSDOF 1
ENDMDL
