MODEL 1
REMARK VINA RESULT:    -3.534      0.000      0.000
REMARK INTER + INTRA:          -5.945
REMARK INTER:                  -5.393
REMARK INTRA:                  -0.552
REMARK UNBOUND:                -0.552
REMARK SMILES CC1=CCC[C@@H](C)C(=O)C[C@@H](C(C)C)C(=O)C1
REMARK SMILES IDX 8 1 9 2 6 3 7 4 5 5 4 6 3 7 2 8 1 9 10 11 11 12 15 13 16 14
REMARK SMILES IDX 17 15 12 17 13 18 14 19
REMARK H PARENT
REMARK Flexibility Score: 70.00
ROOT
ATOM      1  C   UNL     1      11.545 -20.104  20.570  1.00  0.00     0.136 C 
ATOM      2  O   UNL     1      12.254 -21.086  20.740  1.00  0.00    -0.299 OA
ENDROOT
BRANCH   1   3
ATOM      3  C   UNL     1      12.110 -18.709  20.780  1.00  0.00     0.053 C 
ATOM      4  C   UNL     1      13.340 -18.436  19.899  1.00  0.00     0.016 C 
BRANCH   3   5
ATOM      5  C   UNL     1      12.414 -18.436  22.269  1.00  0.00     0.015 C 
BRANCH   5   6
ATOM      6  C   UNL     1      11.280 -17.698  23.019  1.00  0.00     0.028 C 
BRANCH   6   7
ATOM      7  C   UNL     1      10.470 -18.664  23.852  1.00  0.00    -0.028 C 
ATOM      8  C   UNL     1       9.142 -18.896  23.720  1.00  0.00    -0.070 CG0
ATOM      9  C   UNL     1       8.492 -19.832  24.708  1.00  0.00     0.039 C 
ATOM     10  G   UNL     1       8.290 -18.294  22.614  1.00  0.00     0.000 G0
ENDBRANCH   6   7
ENDBRANCH   5   6
ENDBRANCH   3   5
ENDBRANCH   1   3
BRANCH   1  11
ATOM     11  C   UNL     1      10.100 -20.308  20.172  1.00  0.00     0.087 C 
BRANCH  11  12
ATOM     12  C   UNL     1       9.248 -19.008  20.216  1.00  0.00     0.066 C 
BRANCH  12  13
ATOM     13  C   UNL     1       8.204 -19.086  21.327  1.00  0.00     0.140 C 
ATOM     14  O   UNL     1       7.238 -19.817  21.162  1.00  0.00    -0.299 OA
BRANCH  13  15
ATOM     15  C   UNL     1       8.274 -18.301  22.623  1.00  0.00     0.106 CG0
ATOM     16  G   UNL     1       9.134 -18.908  23.721  1.00  0.00     0.000 G0
ENDBRANCH  13  15
ENDBRANCH  12  13
BRANCH  12  17
ATOM     17  C   UNL     1       8.556 -18.727  18.844  1.00  0.00    -0.006 C 
ATOM     18  C   UNL     1       9.550 -18.773  17.671  1.00  0.00     0.008 C 
ATOM     19  C   UNL     1       7.849 -17.359  18.842  1.00  0.00     0.008 C 
ENDBRANCH  12  17
ENDBRANCH  11  12
ENDBRANCH   1  11
TORSDOF 1
ENDMDL
MODEL 2
REMARK VINA RESULT:    -3.415      2.244      3.975
REMARK INTER + INTRA:          -5.763
REMARK INTER:                  -5.318
REMARK INTRA:                  -0.445
REMARK UNBOUND:                -0.552
REMARK SMILES CC1=CCC[C@@H](C)C(=O)C[C@@H](C(C)C)C(=O)C1
REMARK SMILES IDX 8 1 9 2 6 3 7 4 5 5 4 6 3 7 2 8 1 9 10 11 11 12 15 13 16 14
REMARK SMILES IDX 17 15 12 17 13 18 14 19
REMARK H PARENT
REMARK Flexibility Score: 70.00
ROOT
ATOM      1  C   UNL     1       9.458 -17.987  20.657  1.00  0.00     0.136 C 
ATOM      2  O   UNL     1       8.661 -17.587  19.821  1.00  0.00    -0.299 OA
ENDROOT
BRANCH   1   3
ATOM      3  C   UNL     1      10.797 -18.562  20.222  1.00  0.00     0.053 C 
ATOM      4  C   UNL     1      11.352 -17.871  18.966  1.00  0.00     0.016 C 
BRANCH   3   5
ATOM      5  C   UNL     1      10.724 -20.093  20.034  1.00  0.00     0.015 C 
BRANCH   5   6
ATOM      6  C   UNL     1      11.477 -20.898  21.120  1.00  0.00     0.028 C 
BRANCH   6   7
ATOM      7  C   UNL     1      10.514 -21.723  21.941  1.00  0.00    -0.028 C 
ATOM      8  C   UNL     1      10.280 -21.573  23.266  1.00  0.00    -0.070 CG0
ATOM      9  C   UNL     1       9.348 -22.555  23.930  1.00  0.00     0.039 C 
ATOM     10  G   UNL     1      10.876 -20.452  24.103  1.00  0.00     0.000 G0
ENDBRANCH   6   7
ENDBRANCH   5   6
ENDBRANCH   3   5
ENDBRANCH   1   3
BRANCH   1  11
ATOM     11  C   UNL     1       9.078 -17.919  22.119  1.00  0.00     0.087 C 
BRANCH  11  12
ATOM     12  C   UNL     1      10.292 -18.007  23.088  1.00  0.00     0.066 C 
BRANCH  12  13
ATOM     13  C   UNL     1      10.093 -19.131  24.100  1.00  0.00     0.140 C 
ATOM     14  O   UNL     1       9.262 -18.974  24.983  1.00  0.00    -0.299 OA
BRANCH  13  15
ATOM     15  C   UNL     1      10.872 -20.432  24.098  1.00  0.00     0.106 CG0
ATOM     16  G   UNL     1      10.295 -21.550  23.243  1.00  0.00     0.000 G0
ENDBRANCH  13  15
ENDBRANCH  12  13
BRANCH  12  17
ATOM     17  C   UNL     1      10.537 -16.652  23.826  1.00  0.00    -0.006 C 
ATOM     18  C   UNL     1       9.273 -15.775  23.867  1.00  0.00     0.008 C 
ATOM     19  C   UNL     1      11.675 -15.851  23.167  1.00  0.00     0.008 C 
ENDBRANCH  12  17
ENDBRANCH  11  12
ENDBRANCH   1  11
TORSDOF 1
ENDMDL
MODEL 3
REMARK VINA RESULT:    -3.390      4.735      6.899
REMARK INTER + INTRA:          -5.725
REMARK INTER:                  -5.182
REMARK INTRA:                  -0.543
REMARK UNBOUND:                -0.552
REMARK SMILES CC1=CCC[C@@H](C)C(=O)C[C@@H](C(C)C)C(=O)C1
REMARK SMILES IDX 8 1 9 2 6 3 7 4 5 5 4 6 3 7 2 8 1 9 10 11 11 12 15 13 16 14
REMARK SMILES IDX 17 15 12 17 13 18 14 19
REMARK H PARENT
REMARK Flexibility Score: 70.00
ROOT
ATOM      1  C   UNL     1       7.007 -21.145  25.069  1.00  0.00     0.136 C 
ATOM      2  O   UNL     1       6.941 -20.553  26.137  1.00  0.00    -0.299 OA
ENDROOT
BRANCH   1   3
ATOM      3  C   UNL     1       6.095 -20.749  23.919  1.00  0.00     0.053 C 
ATOM      4  C   UNL     1       6.248 -19.269  23.533  1.00  0.00     0.016 C 
BRANCH   3   5
ATOM      5  C   UNL     1       4.621 -21.102  24.214  1.00  0.00     0.015 C 
BRANCH   5   6
ATOM      6  C   UNL     1       4.406 -22.556  24.701  1.00  0.00     0.028 C 
BRANCH   6   7
ATOM      7  C   UNL     1       4.233 -23.494  23.530  1.00  0.00    -0.028 C 
ATOM      8  C   UNL     1       5.087 -24.486  23.182  1.00  0.00    -0.070 CG0
ATOM      9  C   UNL     1       4.789 -25.261  21.923  1.00  0.00     0.039 C 
ATOM     10  G   UNL     1       6.301 -24.877  24.010  1.00  0.00     0.000 G0
ENDBRANCH   6   7
ENDBRANCH   5   6
ENDBRANCH   3   5
ENDBRANCH   1   3
BRANCH   1  11
ATOM     11  C   UNL     1       7.990 -22.285  24.926  1.00  0.00     0.087 C 
BRANCH  11  12
ATOM     12  C   UNL     1       8.038 -22.897  23.497  1.00  0.00     0.066 C 
BRANCH  12  13
ATOM     13  C   UNL     1       7.646 -24.371  23.530  1.00  0.00     0.140 C 
ATOM     14  O   UNL     1       8.456 -25.195  23.128  1.00  0.00    -0.299 OA
BRANCH  13  15
ATOM     15  C   UNL     1       6.304 -24.890  24.013  1.00  0.00     0.106 CG0
ATOM     16  G   UNL     1       5.098 -24.486  23.181  1.00  0.00     0.000 G0
ENDBRANCH  13  15
ENDBRANCH  12  13
BRANCH  12  17
ATOM     17  C   UNL     1       9.448 -22.728  22.846  1.00  0.00    -0.006 C 
ATOM     18  C   UNL     1      10.440 -22.017  23.784  1.00  0.00     0.008 C 
ATOM     19  C   UNL     1       9.364 -21.942  21.525  1.00  0.00     0.008 C 
ENDBRANCH  12  17
ENDBRANCH  11  12
ENDBRANCH   1  11
TORSDOF 1
ENDMDL
MODEL 4
REMARK VINA RESULT:    -3.334      4.599      6.775
REMARK INTER + INTRA:          -5.640
REMARK INTER:                  -5.162
REMARK INTRA:                  -0.478
REMARK UNBOUND:                -0.552
REMARK SMILES CC1=CCC[C@@H](C)C(=O)C[C@@H](C(C)C)C(=O)C1
REMARK SMILES IDX 8 1 9 2 6 3 7 4 5 5 4 6 3 7 2 8 1 9 10 11 11 12 15 13 16 14
REMARK SMILES IDX 17 15 12 17 13 18 14 19
REMARK H PARENT
REMARK Flexibility Score: 70.00
ROOT
ATOM      1  C   UNL     1       5.534 -22.209  23.048  1.00  0.00     0.136 C 
ATOM      2  O   UNL     1       5.018 -22.068  21.948  1.00  0.00    -0.299 OA
ENDROOT
BRANCH   1   3
ATOM      3  C   UNL     1       4.721 -22.757  24.208  1.00  0.00     0.053 C 
ATOM      4  C   UNL     1       3.950 -24.033  23.833  1.00  0.00     0.016 C 
BRANCH   3   5
ATOM      5  C   UNL     1       3.778 -21.685  24.799  1.00  0.00     0.015 C 
BRANCH   5   6
ATOM      6  C   UNL     1       4.508 -20.426  25.326  1.00  0.00     0.028 C 
BRANCH   6   7
ATOM      7  C   UNL     1       5.108 -20.684  26.687  1.00  0.00    -0.028 C 
ATOM      8  C   UNL     1       6.432 -20.784  26.959  1.00  0.00    -0.070 CG0
ATOM      9  C   UNL     1       6.836 -21.136  28.368  1.00  0.00     0.039 C 
ATOM     10  G   UNL     1       7.522 -20.525  25.929  1.00  0.00     0.000 G0
ENDBRANCH   6   7
ENDBRANCH   5   6
ENDBRANCH   3   5
ENDBRANCH   1   3
BRANCH   1  11
ATOM     11  C   UNL     1       6.981 -21.808  23.231  1.00  0.00     0.087 C 
BRANCH  11  12
ATOM     12  C   UNL     1       7.735 -22.651  24.298  1.00  0.00     0.066 C 
BRANCH  12  13
ATOM     13  C   UNL     1       8.255 -21.758  25.421  1.00  0.00     0.140 C 
ATOM     14  O   UNL     1       9.313 -22.056  25.955  1.00  0.00    -0.299 OA
BRANCH  13  15
ATOM     15  C   UNL     1       7.536 -20.526  25.936  1.00  0.00     0.106 CG0
ATOM     16  G   UNL     1       6.428 -20.778  26.948  1.00  0.00     0.000 G0
ENDBRANCH  13  15
ENDBRANCH  12  13
BRANCH  12  17
ATOM     17  C   UNL     1       8.911 -23.461  23.664  1.00  0.00    -0.006 C 
ATOM     18  C   UNL     1       9.624 -22.677  22.549  1.00  0.00     0.008 C 
ATOM     19  C   UNL     1       8.422 -24.804  23.091  1.00  0.00     0.008 C 
ENDBRANCH  12  17
ENDBRANCH  11  12
ENDBRANCH   1  11
TORSDOF 1
ENDMDL
MODEL 5
REMARK VINA RESULT:    -3.328      4.305      6.670
REMARK INTER + INTRA:          -5.630
REMARK INTER:                  -5.176
REMARK INTRA:                  -0.455
REMARK UNBOUND:                -0.552
REMARK SMILES CC1=CCC[C@@H](C)C(=O)C[C@@H](C(C)C)C(=O)C1
REMARK SMILES IDX 8 1 9 2 6 3 7 4 5 5 4 6 3 7 2 8 1 9 10 11 11 12 15 13 16 14
REMARK SMILES IDX 17 15 12 17 13 18 14 19
REMARK H PARENT
REMARK Flexibility Score: 70.00
ROOT
ATOM      1  C   UNL     1       7.769 -21.539  22.946  1.00  0.00     0.136 C 
ATOM      2  O   UNL     1       7.147 -21.530  21.892  1.00  0.00    -0.299 OA
ENDROOT
BRANCH   1   3
ATOM      3  C   UNL     1       9.032 -22.374  23.079  1.00  0.00     0.053 C 
ATOM      4  C   UNL     1      10.279 -21.638  22.563  1.00  0.00     0.016 C 
BRANCH   3   5
ATOM      5  C   UNL     1       8.875 -23.755  22.404  1.00  0.00     0.015 C 
BRANCH   5   6
ATOM      6  C   UNL     1       8.285 -24.845  23.330  1.00  0.00     0.028 C 
BRANCH   6   7
ATOM      7  C   UNL     1       6.783 -24.920  23.181  1.00  0.00    -0.028 C 
ATOM      8  C   UNL     1       5.880 -24.587  24.134  1.00  0.00    -0.070 CG0
ATOM      9  C   UNL     1       4.421 -24.817  23.830  1.00  0.00     0.039 C 
ATOM     10  G   UNL     1       6.259 -23.966  25.469  1.00  0.00     0.000 G0
ENDBRANCH   6   7
ENDBRANCH   5   6
ENDBRANCH   3   5
ENDBRANCH   1   3
BRANCH   1  11
ATOM     11  C   UNL     1       7.245 -20.727  24.108  1.00  0.00     0.087 C 
BRANCH  11  12
ATOM     12  C   UNL     1       7.289 -21.478  25.469  1.00  0.00     0.066 C 
BRANCH  12  13
ATOM     13  C   UNL     1       6.120 -22.451  25.585  1.00  0.00     0.140 C 
ATOM     14  O   UNL     1       5.005 -21.994  25.793  1.00  0.00    -0.299 OA
BRANCH  13  15
ATOM     15  C   UNL     1       6.247 -23.959  25.477  1.00  0.00     0.106 CG0
ATOM     16  G   UNL     1       5.876 -24.562  24.131  1.00  0.00     0.000 G0
ENDBRANCH  13  15
ENDBRANCH  12  13
BRANCH  12  17
ATOM     17  C   UNL     1       7.287 -20.485  26.675  1.00  0.00    -0.006 C 
ATOM     18  C   UNL     1       8.244 -19.300  26.455  1.00  0.00     0.008 C 
ATOM     19  C   UNL     1       7.670 -21.194  27.987  1.00  0.00     0.008 C 
ENDBRANCH  12  17
ENDBRANCH  11  12
ENDBRANCH   1  11
TORSDOF 1
ENDMDL
MODEL 6
REMARK VINA RESULT:    -3.312      2.293      3.924
REMARK INTER + INTRA:          -5.607
REMARK INTER:                  -5.087
REMARK INTRA:                  -0.520
REMARK UNBOUND:                -0.552
REMARK SMILES CC1=CCC[C@@H](C)C(=O)C[C@@H](C(C)C)C(=O)C1
REMARK SMILES IDX 8 1 9 2 6 3 7 4 5 5 4 6 3 7 2 8 1 9 10 11 11 12 15 13 16 14
REMARK SMILES IDX 17 15 12 17 13 18 14 19
REMARK H PARENT
REMARK Flexibility Score: 70.00
ROOT
ATOM      1  C   UNL     1       9.078 -19.635  21.865  1.00  0.00     0.136 C 
ATOM      2  O   UNL     1       7.858 -19.706  21.827  1.00  0.00    -0.299 OA
ENDROOT
BRANCH   1   3
ATOM      3  C   UNL     1       9.904 -20.869  22.194  1.00  0.00     0.053 C 
ATOM      4  C   UNL     1       9.541 -22.071  21.307  1.00  0.00     0.016 C 
BRANCH   3   5
ATOM      5  C   UNL     1       9.816 -21.230  23.693  1.00  0.00     0.015 C 
BRANCH   5   6
ATOM      6  C   UNL     1      11.108 -20.932  24.490  1.00  0.00     0.028 C 
BRANCH   6   7
ATOM      7  C   UNL     1      10.934 -19.709  25.358  1.00  0.00    -0.028 C 
ATOM      8  C   UNL     1      11.579 -18.529  25.195  1.00  0.00    -0.070 CG0
ATOM      9  C   UNL     1      11.340 -17.450  26.221  1.00  0.00     0.039 C 
ATOM     10  G   UNL     1      12.495 -18.229  24.018  1.00  0.00     0.000 G0
ENDBRANCH   6   7
ENDBRANCH   5   6
ENDBRANCH   3   5
ENDBRANCH   1   3
BRANCH   1  11
ATOM     11  C   UNL     1       9.740 -18.302  21.603  1.00  0.00     0.087 C 
BRANCH  11  12
ATOM     12  C   UNL     1      11.294 -18.361  21.607  1.00  0.00     0.066 C 
BRANCH  12  13
ATOM     13  C   UNL     1      11.859 -17.586  22.794  1.00  0.00     0.140 C 
ATOM     14  O   UNL     1      11.808 -16.365  22.765  1.00  0.00    -0.299 OA
BRANCH  13  15
ATOM     15  C   UNL     1      12.500 -18.229  24.010  1.00  0.00     0.106 CG0
ATOM     16  G   UNL     1      11.566 -18.530  25.172  1.00  0.00     0.000 G0
ENDBRANCH  13  15
ENDBRANCH  12  13
BRANCH  12  17
ATOM     17  C   UNL     1      11.895 -17.816  20.272  1.00  0.00    -0.006 C 
ATOM     18  C   UNL     1      10.967 -18.070  19.071  1.00  0.00     0.008 C 
ATOM     19  C   UNL     1      13.270 -18.443  19.978  1.00  0.00     0.008 C 
ENDBRANCH  12  17
ENDBRANCH  11  12
ENDBRANCH   1  11
TORSDOF 1
ENDMDL
MODEL 7
REMARK VINA RESULT:    -3.303      4.066      6.741
REMARK INTER + INTRA:          -5.592
REMARK INTER:                  -5.295
REMARK INTRA:                  -0.298
REMARK UNBOUND:                -0.552
REMARK SMILES CC1=CCC[C@@H](C)C(=O)C[C@@H](C(C)C)C(=O)C1
REMARK SMILES IDX 8 1 9 2 6 3 7 4 5 5 4 6 3 7 2 8 1 9 10 11 11 12 15 13 16 14
REMARK SMILES IDX 17 15 12 17 13 18 14 19
REMARK H PARENT
REMARK Flexibility Score: 70.00
ROOT
ATOM      1  C   UNL     1       6.409 -24.191  24.700  1.00  0.00     0.136 C 
ATOM      2  O   UNL     1       5.814 -25.082  25.291  1.00  0.00    -0.299 OA
ENDROOT
BRANCH   1   3
ATOM      3  C   UNL     1       6.708 -24.327  23.216  1.00  0.00     0.053 C 
ATOM      4  C   UNL     1       5.650 -25.163  22.478  1.00  0.00     0.016 C 
BRANCH   3   5
ATOM      5  C   UNL     1       8.130 -24.877  22.971  1.00  0.00     0.015 C 
BRANCH   5   6
ATOM      6  C   UNL     1       9.259 -23.861  23.265  1.00  0.00     0.028 C 
BRANCH   6   7
ATOM      7  C   UNL     1       9.152 -22.661  22.353  1.00  0.00    -0.028 C 
ATOM      8  C   UNL     1       8.837 -21.402  22.742  1.00  0.00    -0.070 CG0
ATOM      9  C   UNL     1       8.689 -20.352  21.669  1.00  0.00     0.039 C 
ATOM     10  G   UNL     1       8.661 -20.991  24.195  1.00  0.00     0.000 G0
ENDBRANCH   6   7
ENDBRANCH   5   6
ENDBRANCH   3   5
ENDBRANCH   1   3
BRANCH   1  11
ATOM     11  C   UNL     1       6.854 -22.973  25.477  1.00  0.00     0.087 C 
BRANCH  11  12
ATOM     12  C   UNL     1       6.180 -21.651  25.012  1.00  0.00     0.066 C 
BRANCH  12  13
ATOM     13  C   UNL     1       7.234 -20.620  24.616  1.00  0.00     0.140 C 
ATOM     14  O   UNL     1       6.916 -19.439  24.615  1.00  0.00    -0.299 OA
BRANCH  13  15
ATOM     15  C   UNL     1       8.653 -20.962  24.203  1.00  0.00     0.106 CG0
ATOM     16  G   UNL     1       8.836 -21.403  22.759  1.00  0.00     0.000 G0
ENDBRANCH  13  15
ENDBRANCH  12  13
BRANCH  12  17
ATOM     17  C   UNL     1       5.240 -21.066  26.114  1.00  0.00    -0.006 C 
ATOM     18  C   UNL     1       5.439 -21.756  27.475  1.00  0.00     0.008 C 
ATOM     19  C   UNL     1       3.759 -21.186  25.708  1.00  0.00     0.008 C 
ENDBRANCH  12  17
ENDBRANCH  11  12
ENDBRANCH   1  11
TORSDOF 1
ENDMDL
MODEL 8
REMARK VINA RESULT:    -3.275      2.237      4.046
REMARK INTER + INTRA:          -5.550
REMARK INTER:                  -5.498
REMARK INTRA:                  -0.052
REMARK UNBOUND:                -0.552
REMARK SMILES CC1=CCC[C@@H](C)C(=O)C[C@@H](C(C)C)C(=O)C1
REMARK SMILES IDX 8 1 9 2 6 3 7 4 5 5 4 6 3 7 2 8 1 9 10 11 11 12 15 13 16 14
REMARK SMILES IDX 17 15 12 17 13 18 14 19
REMARK H PARENT
REMARK Flexibility Score: 70.00
ROOT
ATOM      1  C   UNL     1      10.509 -20.188  20.584  1.00  0.00     0.136 C 
ATOM      2  O   UNL     1      10.376 -20.856  19.568  1.00  0.00    -0.299 OA
ENDROOT
BRANCH   1   3
ATOM      3  C   UNL     1      10.048 -18.740  20.612  1.00  0.00     0.053 C 
ATOM      4  C   UNL     1       9.362 -18.317  19.303  1.00  0.00     0.016 C 
BRANCH   3   5
ATOM      5  C   UNL     1      11.205 -17.782  20.974  1.00  0.00     0.015 C 
BRANCH   5   6
ATOM      6  C   UNL     1      11.122 -17.210  22.410  1.00  0.00     0.028 C 
BRANCH   6   7
ATOM      7  C   UNL     1      12.396 -17.490  23.172  1.00  0.00    -0.028 C 
ATOM      8  C   UNL     1      12.494 -18.253  24.288  1.00  0.00    -0.070 CG0
ATOM      9  C   UNL     1      13.840 -18.341  24.962  1.00  0.00     0.039 C 
ATOM     10  G   UNL     1      11.333 -19.046  24.868  1.00  0.00     0.000 G0
ENDBRANCH   6   7
ENDBRANCH   5   6
ENDBRANCH   3   5
ENDBRANCH   1   3
BRANCH   1  11
ATOM     11  C   UNL     1      11.156 -20.824  21.794  1.00  0.00     0.087 C 
BRANCH  11  12
ATOM     12  C   UNL     1      10.281 -20.763  23.078  1.00  0.00     0.066 C 
BRANCH  12  13
ATOM     13  C   UNL     1      11.138 -20.444  24.299  1.00  0.00     0.140 C 
ATOM     14  O   UNL     1      11.701 -21.367  24.869  1.00  0.00    -0.299 OA
BRANCH  13  15
ATOM     15  C   UNL     1      11.327 -19.051  24.870  1.00  0.00     0.106 CG0
ATOM     16  G   UNL     1      12.492 -18.254  24.305  1.00  0.00     0.000 G0
ENDBRANCH  13  15
ENDBRANCH  12  13
BRANCH  12  17
ATOM     17  C   UNL     1       9.497 -22.096  23.302  1.00  0.00    -0.006 C 
ATOM     18  C   UNL     1       8.813 -22.592  22.016  1.00  0.00     0.008 C 
ATOM     19  C   UNL     1       8.431 -21.941  24.403  1.00  0.00     0.008 C 
ENDBRANCH  12  17
ENDBRANCH  11  12
ENDBRANCH   1  11
TORSDOF 1
ENDMDL
MODEL 9
REMARK VINA RESULT:    -3.203      3.592      5.257
REMARK INTER + INTRA:          -5.439
REMARK INTER:                  -5.320
REMARK INTRA:                  -0.119
REMARK UNBOUND:                -0.552
REMARK SMILES CC1=CCC[C@@H](C)C(=O)C[C@@H](C(C)C)C(=O)C1
REMARK SMILES IDX 8 1 9 2 6 3 7 4 5 5 4 6 3 7 2 8 1 9 10 11 11 12 15 13 16 14
REMARK SMILES IDX 17 15 12 17 13 18 14 19
REMARK H PARENT
REMARK Flexibility Score: 70.00
ROOT
ATOM      1  C   UNL     1       8.793 -23.633  23.322  1.00  0.00     0.136 C 
ATOM      2  O   UNL     1       9.793 -23.590  24.025  1.00  0.00    -0.299 OA
ENDROOT
BRANCH   1   3
ATOM      3  C   UNL     1       7.759 -24.727  23.532  1.00  0.00     0.053 C 
ATOM      4  C   UNL     1       7.710 -25.721  22.360  1.00  0.00     0.016 C 
BRANCH   3   5
ATOM      5  C   UNL     1       6.362 -24.140  23.829  1.00  0.00     0.015 C 
BRANCH   5   6
ATOM      6  C   UNL     1       6.363 -23.021  24.898  1.00  0.00     0.028 C 
BRANCH   6   7
ATOM      7  C   UNL     1       5.252 -22.031  24.640  1.00  0.00    -0.028 C 
ATOM      8  C   UNL     1       5.419 -20.719  24.346  1.00  0.00    -0.070 CG0
ATOM      9  C   UNL     1       4.182 -19.867  24.211  1.00  0.00     0.039 C 
ATOM     10  G   UNL     1       6.778 -20.077  24.114  1.00  0.00     0.000 G0
ENDBRANCH   6   7
ENDBRANCH   5   6
ENDBRANCH   3   5
ENDBRANCH   1   3
BRANCH   1  11
ATOM     11  C   UNL     1       8.621 -22.596  22.236  1.00  0.00     0.087 C 
BRANCH  11  12
ATOM     12  C   UNL     1       8.815 -21.133  22.728  1.00  0.00     0.066 C 
BRANCH  12  13
ATOM     13  C   UNL     1       7.473 -20.412  22.814  1.00  0.00     0.140 C 
ATOM     14  O   UNL     1       6.926 -20.080  21.772  1.00  0.00    -0.299 OA
BRANCH  13  15
ATOM     15  C   UNL     1       6.773 -20.059  24.113  1.00  0.00     0.106 CG0
ATOM     16  G   UNL     1       5.421 -20.718  24.339  1.00  0.00     0.000 G0
ENDBRANCH  13  15
ENDBRANCH  12  13
BRANCH  12  17
ATOM     17  C   UNL     1       9.795 -20.342  21.805  1.00  0.00    -0.006 C 
ATOM     18  C   UNL     1      10.939 -21.225  21.277  1.00  0.00     0.008 C 
ATOM     19  C   UNL     1      10.401 -19.131  22.538  1.00  0.00     0.008 C 
ENDBRANCH  12  17
ENDBRANCH  11  12
ENDBRANCH   1  11
TORSDOF 1
ENDMDL
