MODEL 1
REMARK VINA RESULT:    -5.084      0.000      0.000
REMARK INTER + INTRA:          -7.463
REMARK INTER:                  -6.867
REMARK INTRA:                  -0.596
REMARK UNBOUND:                -0.596
REMARK SMILES CC(=O)CCC=C(C)CCC=C(C)C
REMARK SMILES IDX 7 1 6 2 8 3 9 4 10 5 11 6 13 7 12 8 14 9 5 10 4 11 2 12 3 13
REMARK SMILES IDX 1 14
REMARK H PARENT
REMARK Flexibility Score: inf
ROOT
ATOM      1  C   UNL     1      16.792 119.885  12.583  1.00  0.00    -0.077 C 
ATOM      2  C   UNL     1      17.176 119.277  11.438  1.00  0.00    -0.028 C 
ATOM      3  C   UNL     1      15.477 119.566  13.255  1.00  0.00     0.039 C 
ENDROOT
BRANCH   1   4
ATOM      4  C   UNL     1      17.696 120.935  13.198  1.00  0.00     0.034 C 
BRANCH   4   5
ATOM      5  C   UNL     1      17.092 122.343  13.097  1.00  0.00     0.032 C 
BRANCH   5   6
ATOM      6  C   UNL     1      16.705 122.886  14.452  1.00  0.00    -0.028 C 
ATOM      7  C   UNL     1      15.275 123.956  16.140  1.00  0.00     0.039 C 
ATOM      8  C   UNL     1      15.495 123.405  14.754  1.00  0.00    -0.080 C 
ATOM      9  C   UNL     1      14.363 123.431  13.755  1.00  0.00     0.039 C 
ENDBRANCH   5   6
ENDBRANCH   4   5
ENDBRANCH   1   4
BRANCH   2  10
ATOM     10  C   UNL     1      16.390 118.196  10.738  1.00  0.00     0.035 C 
BRANCH  10  11
ATOM     11  C   UNL     1      16.761 118.135   9.249  1.00  0.00     0.079 C 
BRANCH  11  12
ATOM     12  C   UNL     1      15.576 118.033   8.313  1.00  0.00     0.130 C 
ATOM     13  O   UNL     1      14.693 118.873   8.402  1.00  0.00    -0.300 OA
ATOM     14  C   UNL     1      15.440 116.951   7.278  1.00  0.00     0.087 C 
ENDBRANCH  11  12
ENDBRANCH  10  11
ENDBRANCH   2  10
TORSDOF 6
ENDMDL
MODEL 2
REMARK VINA RESULT:    -4.941      9.311     11.663
REMARK INTER + INTRA:          -7.270
REMARK INTER:                  -6.675
REMARK INTRA:                  -0.595
REMARK UNBOUND:                -0.596
REMARK SMILES CC(=O)CCC=C(C)CCC=C(C)C
REMARK SMILES IDX 7 1 6 2 8 3 9 4 10 5 11 6 13 7 12 8 14 9 5 10 4 11 2 12 3 13
REMARK SMILES IDX 1 14
REMARK H PARENT
REMARK Flexibility Score: inf
ROOT
ATOM      1  C   UNL     1      10.748 117.084  18.038  1.00  0.00    -0.077 C 
ATOM      2  C   UNL     1      10.052 117.425  19.146  1.00  0.00    -0.028 C 
ATOM      3  C   UNL     1      10.725 117.933  16.788  1.00  0.00     0.039 C 
ENDROOT
BRANCH   1   4
ATOM      4  C   UNL     1      11.557 115.802  18.041  1.00  0.00     0.034 C 
BRANCH   4   5
ATOM      5  C   UNL     1      10.867 114.691  18.845  1.00  0.00     0.032 C 
BRANCH   5   6
ATOM      6  C   UNL     1      11.818 113.562  19.170  1.00  0.00    -0.028 C 
ATOM      7  C   UNL     1      13.022 111.448  18.833  1.00  0.00     0.039 C 
ATOM      8  C   UNL     1      12.089 112.527  18.346  1.00  0.00    -0.080 C 
ATOM      9  C   UNL     1      11.505 112.434  16.957  1.00  0.00     0.039 C 
ENDBRANCH   5   6
ENDBRANCH   4   5
ENDBRANCH   1   4
BRANCH   2  10
ATOM     10  C   UNL     1       9.235 118.685  19.289  1.00  0.00     0.035 C 
BRANCH  10  11
ATOM     11  C   UNL     1       7.836 118.363  19.836  1.00  0.00     0.079 C 
BRANCH  11  12
ATOM     12  C   UNL     1       6.737 118.394  18.796  1.00  0.00     0.130 C 
ATOM     13  O   UNL     1       5.849 119.224  18.915  1.00  0.00    -0.300 OA
ATOM     14  C   UNL     1       6.693 117.453  17.623  1.00  0.00     0.087 C 
ENDBRANCH  11  12
ENDBRANCH  10  11
ENDBRANCH   2  10
TORSDOF 6
ENDMDL
MODEL 3
REMARK VINA RESULT:    -4.934      9.222     11.895
REMARK INTER + INTRA:          -7.260
REMARK INTER:                  -6.516
REMARK INTRA:                  -0.744
REMARK UNBOUND:                -0.596
REMARK SMILES CC(=O)CCC=C(C)CCC=C(C)C
REMARK SMILES IDX 7 1 6 2 8 3 9 4 10 5 11 6 13 7 12 8 14 9 5 10 4 11 2 12 3 13
REMARK SMILES IDX 1 14
REMARK H PARENT
REMARK Flexibility Score: inf
ROOT
ATOM      1  C   UNL     1      10.259 117.198  18.713  1.00  0.00    -0.077 C 
ATOM      2  C   UNL     1       9.094 117.227  19.399  1.00  0.00    -0.028 C 
ATOM      3  C   UNL     1      10.381 117.776  17.322  1.00  0.00     0.039 C 
ENDROOT
BRANCH   1   4
ATOM      4  C   UNL     1      11.472 116.548  19.347  1.00  0.00     0.034 C 
BRANCH   4   5
ATOM      5  C   UNL     1      11.240 115.057  19.635  1.00  0.00     0.032 C 
BRANCH   5   6
ATOM      6  C   UNL     1      11.229 114.237  18.367  1.00  0.00    -0.028 C 
ATOM      7  C   UNL     1      11.558 112.261  16.945  1.00  0.00     0.039 C 
ATOM      8  C   UNL     1      11.568 112.932  18.295  1.00  0.00    -0.080 C 
ATOM      9  C   UNL     1      11.932 112.129  19.521  1.00  0.00     0.039 C 
ENDBRANCH   5   6
ENDBRANCH   4   5
ENDBRANCH   1   4
BRANCH   2  10
ATOM     10  C   UNL     1       7.823 117.869  18.900  1.00  0.00     0.035 C 
BRANCH  10  11
ATOM     11  C   UNL     1       7.468 119.098  19.750  1.00  0.00     0.079 C 
BRANCH  11  12
ATOM     12  C   UNL     1       8.574 120.124  19.857  1.00  0.00     0.130 C 
ATOM     13  O   UNL     1       8.920 120.711  18.842  1.00  0.00    -0.300 OA
ATOM     14  C   UNL     1       9.261 120.458  21.153  1.00  0.00     0.087 C 
ENDBRANCH  11  12
ENDBRANCH  10  11
ENDBRANCH   2  10
TORSDOF 6
ENDMDL
MODEL 4
REMARK VINA RESULT:    -4.922      9.889     12.409
REMARK INTER + INTRA:          -7.245
REMARK INTER:                  -6.211
REMARK INTRA:                  -1.033
REMARK UNBOUND:                -0.596
REMARK SMILES CC(=O)CCC=C(C)CCC=C(C)C
REMARK SMILES IDX 7 1 6 2 8 3 9 4 10 5 11 6 13 7 12 8 14 9 5 10 4 11 2 12 3 13
REMARK SMILES IDX 1 14
REMARK H PARENT
REMARK Flexibility Score: inf
ROOT
ATOM      1  C   UNL     1       9.172 118.360  18.413  1.00  0.00    -0.077 C 
ATOM      2  C   UNL     1       8.164 117.593  18.885  1.00  0.00    -0.028 C 
ATOM      3  C   UNL     1       9.410 119.765  18.916  1.00  0.00     0.039 C 
ENDROOT
BRANCH   1   4
ATOM      4  C   UNL     1      10.079 117.803  17.333  1.00  0.00     0.034 C 
BRANCH   4   5
ATOM      5  C   UNL     1      11.375 117.221  17.916  1.00  0.00     0.032 C 
BRANCH   5   6
ATOM      6  C   UNL     1      11.301 115.719  18.056  1.00  0.00    -0.028 C 
ATOM      7  C   UNL     1      11.140 113.557  19.212  1.00  0.00     0.039 C 
ATOM      8  C   UNL     1      11.142 115.065  19.226  1.00  0.00    -0.080 C 
ATOM      9  C   UNL     1      10.950 115.796  20.534  1.00  0.00     0.039 C 
ENDBRANCH   5   6
ENDBRANCH   4   5
ENDBRANCH   1   4
BRANCH   2  10
ATOM     10  C   UNL     1       7.210 118.011  19.977  1.00  0.00     0.035 C 
BRANCH  10  11
ATOM     11  C   UNL     1       7.856 117.824  21.359  1.00  0.00     0.079 C 
BRANCH  11  12
ATOM     12  C   UNL     1       7.531 118.917  22.353  1.00  0.00     0.130 C 
ATOM     13  O   UNL     1       7.546 118.641  23.543  1.00  0.00    -0.300 OA
ATOM     14  C   UNL     1       7.197 120.325  21.943  1.00  0.00     0.087 C 
ENDBRANCH  11  12
ENDBRANCH  10  11
ENDBRANCH   2  10
TORSDOF 6
ENDMDL
MODEL 5
REMARK VINA RESULT:    -4.916      9.389     11.440
REMARK INTER + INTRA:          -7.237
REMARK INTER:                  -6.400
REMARK INTRA:                  -0.837
REMARK UNBOUND:                -0.596
REMARK SMILES CC(=O)CCC=C(C)CCC=C(C)C
REMARK SMILES IDX 7 1 6 2 8 3 9 4 10 5 11 6 13 7 12 8 14 9 5 10 4 11 2 12 3 13
REMARK SMILES IDX 1 14
REMARK H PARENT
REMARK Flexibility Score: inf
ROOT
ATOM      1  C   UNL     1      11.136 114.826  19.222  1.00  0.00    -0.077 C 
ATOM      2  C   UNL     1      11.108 115.702  18.193  1.00  0.00    -0.028 C 
ATOM      3  C   UNL     1      11.152 115.283  20.661  1.00  0.00     0.039 C 
ENDROOT
BRANCH   1   4
ATOM      4  C   UNL     1      11.173 113.340  18.922  1.00  0.00     0.034 C 
BRANCH   4   5
ATOM      5  C   UNL     1      11.587 113.057  17.471  1.00  0.00     0.032 C 
BRANCH   5   6
ATOM      6  C   UNL     1      12.738 112.081  17.397  1.00  0.00    -0.028 C 
ATOM      7  C   UNL     1      15.079 111.335  17.381  1.00  0.00     0.039 C 
ATOM      8  C   UNL     1      14.039 112.416  17.531  1.00  0.00    -0.080 C 
ATOM      9  C   UNL     1      14.474 113.829  17.844  1.00  0.00     0.039 C 
ENDBRANCH   5   6
ENDBRANCH   4   5
ENDBRANCH   1   4
BRANCH   2  10
ATOM     10  C   UNL     1      11.038 117.202  18.349  1.00  0.00     0.035 C 
BRANCH  10  11
ATOM     11  C   UNL     1       9.708 117.741  17.802  1.00  0.00     0.079 C 
BRANCH  11  12
ATOM     12  C   UNL     1       8.585 117.778  18.816  1.00  0.00     0.130 C 
ATOM     13  O   UNL     1       8.876 117.866  20.000  1.00  0.00    -0.300 OA
ATOM     14  C   UNL     1       7.132 117.718  18.432  1.00  0.00     0.087 C 
ENDBRANCH  11  12
ENDBRANCH  10  11
ENDBRANCH   2  10
TORSDOF 6
ENDMDL
MODEL 6
REMARK VINA RESULT:    -4.887     10.144     12.474
REMARK INTER + INTRA:          -7.197
REMARK INTER:                  -6.741
REMARK INTRA:                  -0.456
REMARK UNBOUND:                -0.596
REMARK SMILES CC(=O)CCC=C(C)CCC=C(C)C
REMARK SMILES IDX 7 1 6 2 8 3 9 4 10 5 11 6 13 7 12 8 14 9 5 10 4 11 2 12 3 13
REMARK SMILES IDX 1 14
REMARK H PARENT
REMARK Flexibility Score: inf
ROOT
ATOM      1  C   UNL     1      11.617 113.151  18.797  1.00  0.00    -0.077 C 
ATOM      2  C   UNL     1      11.392 114.402  19.260  1.00  0.00    -0.028 C 
ATOM      3  C   UNL     1      11.638 112.838  17.319  1.00  0.00     0.039 C 
ENDROOT
BRANCH   1   4
ATOM      4  C   UNL     1      11.833 112.026  19.789  1.00  0.00     0.034 C 
BRANCH   4   5
ATOM      5  C   UNL     1      13.325 111.774  20.055  1.00  0.00     0.032 C 
BRANCH   5   6
ATOM      6  C   UNL     1      13.844 110.598  19.262  1.00  0.00    -0.028 C 
ATOM      7  C   UNL     1      14.513 108.274  18.831  1.00  0.00     0.039 C 
ATOM      8  C   UNL     1      13.922 109.333  19.727  1.00  0.00    -0.080 C 
ATOM      9  C   UNL     1      13.418 108.951  21.099  1.00  0.00     0.039 C 
ENDBRANCH   5   6
ENDBRANCH   4   5
ENDBRANCH   1   4
BRANCH   2  10
ATOM     10  C   UNL     1      11.194 115.615  18.385  1.00  0.00     0.035 C 
BRANCH  10  11
ATOM     11  C   UNL     1      10.150 116.560  18.999  1.00  0.00     0.079 C 
BRANCH  11  12
ATOM     12  C   UNL     1       9.769 117.728  18.116  1.00  0.00     0.130 C 
ATOM     13  O   UNL     1       8.980 118.552  18.553  1.00  0.00    -0.300 OA
ATOM     14  C   UNL     1      10.321 117.922  16.730  1.00  0.00     0.087 C 
ENDBRANCH  11  12
ENDBRANCH  10  11
ENDBRANCH   2  10
TORSDOF 6
ENDMDL
MODEL 7
REMARK VINA RESULT:    -4.864      8.800     10.200
REMARK INTER + INTRA:          -7.166
REMARK INTER:                  -6.257
REMARK INTRA:                  -0.909
REMARK UNBOUND:                -0.596
REMARK SMILES CC(=O)CCC=C(C)CCC=C(C)C
REMARK SMILES IDX 7 1 6 2 8 3 9 4 10 5 11 6 13 7 12 8 14 9 5 10 4 11 2 12 3 13
REMARK SMILES IDX 1 14
REMARK H PARENT
REMARK Flexibility Score: inf
ROOT
ATOM      1  C   UNL     1      12.004 116.018  18.071  1.00  0.00    -0.077 C 
ATOM      2  C   UNL     1      11.265 115.240  18.893  1.00  0.00    -0.028 C 
ATOM      3  C   UNL     1      13.461 115.732  17.796  1.00  0.00     0.039 C 
ENDROOT
BRANCH   1   4
ATOM      4  C   UNL     1      11.358 117.227  17.423  1.00  0.00     0.034 C 
BRANCH   4   5
ATOM      5  C   UNL     1      10.610 118.095  18.446  1.00  0.00     0.032 C 
BRANCH   5   6
ATOM      6  C   UNL     1       9.133 118.172  18.142  1.00  0.00    -0.028 C 
ATOM      7  C   UNL     1       6.720 118.001  18.571  1.00  0.00     0.039 C 
ATOM      8  C   UNL     1       8.151 117.936  19.039  1.00  0.00    -0.080 C 
ATOM      9  C   UNL     1       8.447 117.632  20.488  1.00  0.00     0.039 C 
ENDBRANCH   5   6
ENDBRANCH   4   5
ENDBRANCH   1   4
BRANCH   2  10
ATOM     10  C   UNL     1      11.772 113.994  19.576  1.00  0.00     0.035 C 
BRANCH  10  11
ATOM     11  C   UNL     1      11.197 112.737  18.905  1.00  0.00     0.079 C 
BRANCH  11  12
ATOM     12  C   UNL     1      11.874 112.358  17.605  1.00  0.00     0.130 C 
ATOM     13  O   UNL     1      11.212 112.382  16.579  1.00  0.00    -0.300 OA
ATOM     14  C   UNL     1      13.322 111.962  17.521  1.00  0.00     0.087 C 
ENDBRANCH  11  12
ENDBRANCH  10  11
ENDBRANCH   2  10
TORSDOF 6
ENDMDL
MODEL 8
REMARK VINA RESULT:    -4.852     11.145     12.839
REMARK INTER + INTRA:          -7.150
REMARK INTER:                  -6.007
REMARK INTRA:                  -1.142
REMARK UNBOUND:                -0.596
REMARK SMILES CC(=O)CCC=C(C)CCC=C(C)C
REMARK SMILES IDX 7 1 6 2 8 3 9 4 10 5 11 6 13 7 12 8 14 9 5 10 4 11 2 12 3 13
REMARK SMILES IDX 1 14
REMARK H PARENT
REMARK Flexibility Score: inf
ROOT
ATOM      1  C   UNL     1      14.252 111.362  18.271  1.00  0.00    -0.077 C 
ATOM      2  C   UNL     1      14.000 110.085  18.635  1.00  0.00    -0.028 C 
ATOM      3  C   UNL     1      15.223 112.233  19.034  1.00  0.00     0.039 C 
ENDROOT
BRANCH   1   4
ATOM      4  C   UNL     1      13.524 111.946  17.076  1.00  0.00     0.034 C 
BRANCH   4   5
ATOM      5  C   UNL     1      12.013 112.058  17.325  1.00  0.00     0.032 C 
BRANCH   5   6
ATOM      6  C   UNL     1      11.609 113.468  17.689  1.00  0.00    -0.028 C 
ATOM      7  C   UNL     1      10.953 115.330  19.151  1.00  0.00     0.039 C 
ATOM      8  C   UNL     1      11.405 113.906  18.950  1.00  0.00    -0.080 C 
ATOM      9  C   UNL     1      11.635 113.021  20.153  1.00  0.00     0.039 C 
ENDBRANCH   5   6
ENDBRANCH   4   5
ENDBRANCH   1   4
BRANCH   2  10
ATOM     10  C   UNL     1      14.677 109.372  19.781  1.00  0.00     0.035 C 
BRANCH  10  11
ATOM     11  C   UNL     1      13.633 108.778  20.739  1.00  0.00     0.079 C 
BRANCH  11  12
ATOM     12  C   UNL     1      13.036 109.775  21.708  1.00  0.00     0.130 C 
ATOM     13  O   UNL     1      13.743 110.685  22.113  1.00  0.00    -0.300 OA
ATOM     14  C   UNL     1      11.612 109.700  22.187  1.00  0.00     0.087 C 
ENDBRANCH  11  12
ENDBRANCH  10  11
ENDBRANCH   2  10
TORSDOF 6
ENDMDL
MODEL 9
REMARK VINA RESULT:    -4.770      9.848     11.023
REMARK INTER + INTRA:          -7.038
REMARK INTER:                  -6.407
REMARK INTRA:                  -0.631
REMARK UNBOUND:                -0.596
REMARK SMILES CC(=O)CCC=C(C)CCC=C(C)C
REMARK SMILES IDX 7 1 6 2 8 3 9 4 10 5 11 6 13 7 12 8 14 9 5 10 4 11 2 12 3 13
REMARK SMILES IDX 1 14
REMARK H PARENT
REMARK Flexibility Score: inf
ROOT
ATOM      1  C   UNL     1      11.538 114.442  18.344  1.00  0.00    -0.077 C 
ATOM      2  C   UNL     1      11.833 113.584  17.342  1.00  0.00    -0.028 C 
ATOM      3  C   UNL     1      11.291 113.967  19.757  1.00  0.00     0.039 C 
ENDROOT
BRANCH   1   4
ATOM      4  C   UNL     1      11.430 115.923  18.038  1.00  0.00     0.034 C 
BRANCH   4   5
ATOM      5  C   UNL     1      10.688 116.685  19.145  1.00  0.00     0.032 C 
BRANCH   5   6
ATOM      6  C   UNL     1       9.360 117.220  18.664  1.00  0.00    -0.028 C 
ATOM      7  C   UNL     1       7.052 118.046  18.839  1.00  0.00     0.039 C 
ATOM      8  C   UNL     1       8.338 117.578  19.471  1.00  0.00    -0.080 C 
ATOM      9  C   UNL     1       8.457 117.542  20.977  1.00  0.00     0.039 C 
ENDBRANCH   5   6
ENDBRANCH   4   5
ENDBRANCH   1   4
BRANCH   2  10
ATOM     10  C   UNL     1      12.002 112.094  17.514  1.00  0.00     0.035 C 
BRANCH  10  11
ATOM     11  C   UNL     1      13.486 111.732  17.671  1.00  0.00     0.079 C 
BRANCH  11  12
ATOM     12  C   UNL     1      13.769 110.709  18.749  1.00  0.00     0.130 C 
ATOM     13  O   UNL     1      14.508 109.773  18.481  1.00  0.00    -0.300 OA
ATOM     14  C   UNL     1      13.189 110.797  20.134  1.00  0.00     0.087 C 
ENDBRANCH  11  12
ENDBRANCH  10  11
ENDBRANCH   2  10
TORSDOF 6
ENDMDL
