MODEL 1
REMARK VINA RESULT:    -2.842      0.000      0.000
REMARK INTER + INTRA:          -3.367
REMARK INTER:                  -3.340
REMARK INTRA:                  -0.026
REMARK UNBOUND:                -0.026
REMARK SMILES CCCCC(=O)[O-]
REMARK SMILES IDX 4 1 5 2 6 3 7 4 3 5 2 6 1 7
REMARK H PARENT
REMARK Flexibility Score: inf
ROOT
ATOM      1  C   UNL     1      28.712  71.891  11.854  1.00  0.00     0.053 C 
ENDROOT
BRANCH   1   2
ATOM      2  C   UNL     1      27.858  72.014  13.079  1.00  0.00     0.041 C 
ATOM      3  O   UNL     1      28.374  72.347  14.179  1.00  0.00    -0.550 OA
ATOM      4  O   UNL     1      26.501  71.729  13.014  1.00  0.00    -0.550 OA
ENDBRANCH   1   2
BRANCH   1   5
ATOM      5  C   UNL     1      27.865  71.759  10.581  1.00  0.00     0.006 C 
BRANCH   5   6
ATOM      6  C   UNL     1      28.526  70.846   9.537  1.00  0.00    -0.003 C 
ATOM      7  C   UNL     1      28.873  71.623   8.269  1.00  0.00     0.004 C 
ENDBRANCH   5   6
ENDBRANCH   1   5
TORSDOF 3
ENDMDL
MODEL 2
REMARK VINA RESULT:    -2.636      1.251      1.662
REMARK INTER + INTRA:          -3.124
REMARK INTER:                  -3.069
REMARK INTRA:                  -0.055
REMARK UNBOUND:                -0.026
REMARK SMILES CCCCC(=O)[O-]
REMARK SMILES IDX 4 1 5 2 6 3 7 4 3 5 2 6 1 7
REMARK H PARENT
REMARK Flexibility Score: inf
ROOT
ATOM      1  C   UNL     1      26.840  71.825  12.537  1.00  0.00     0.053 C 
ENDROOT
BRANCH   1   2
ATOM      2  C   UNL     1      28.125  71.967  13.294  1.00  0.00     0.041 C 
ATOM      3  O   UNL     1      29.224  71.725  12.727  1.00  0.00    -0.550 OA
ATOM      4  O   UNL     1      28.108  72.332  14.634  1.00  0.00    -0.550 OA
ENDBRANCH   1   2
BRANCH   1   5
ATOM      5  C   UNL     1      26.970  70.834  11.374  1.00  0.00     0.006 C 
BRANCH   5   6
ATOM      6  C   UNL     1      27.195  71.542  10.029  1.00  0.00    -0.003 C 
ATOM      7  C   UNL     1      28.447  71.015   9.333  1.00  0.00     0.004 C 
ENDBRANCH   5   6
ENDBRANCH   1   5
TORSDOF 3
ENDMDL
MODEL 3
REMARK VINA RESULT:    -2.564     10.104     11.253
REMARK INTER + INTRA:          -3.040
REMARK INTER:                  -3.005
REMARK INTRA:                  -0.035
REMARK UNBOUND:                -0.026
REMARK SMILES CCCCC(=O)[O-]
REMARK SMILES IDX 4 1 5 2 6 3 7 4 3 5 2 6 1 7
REMARK H PARENT
REMARK Flexibility Score: inf
ROOT
ATOM      1  C   UNL     1      20.551  67.533  18.987  1.00  0.00     0.053 C 
ENDROOT
BRANCH   1   2
ATOM      2  C   UNL     1      20.402  66.044  19.042  1.00  0.00     0.041 C 
ATOM      3  O   UNL     1      21.362  65.325  19.427  1.00  0.00    -0.550 OA
ATOM      4  O   UNL     1      19.215  65.448  18.636  1.00  0.00    -0.550 OA
ENDBRANCH   1   2
BRANCH   1   5
ATOM      5  C   UNL     1      22.020  67.963  19.092  1.00  0.00     0.006 C 
BRANCH   5   6
ATOM      6  C   UNL     1      22.466  68.808  17.889  1.00  0.00    -0.003 C 
ATOM      7  C   UNL     1      22.583  70.282  18.267  1.00  0.00     0.004 C 
ENDBRANCH   5   6
ENDBRANCH   1   5
TORSDOF 3
ENDMDL
MODEL 4
REMARK VINA RESULT:    -2.531      8.545      9.361
REMARK INTER + INTRA:          -3.001
REMARK INTER:                  -2.967
REMARK INTRA:                  -0.033
REMARK UNBOUND:                -0.026
REMARK SMILES CCCCC(=O)[O-]
REMARK SMILES IDX 4 1 5 2 6 3 7 4 3 5 2 6 1 7
REMARK H PARENT
REMARK Flexibility Score: inf
ROOT
ATOM      1  C   UNL     1      22.360  67.905  17.174  1.00  0.00     0.053 C 
ENDROOT
BRANCH   1   2
ATOM      2  C   UNL     1      23.233  66.700  17.346  1.00  0.00     0.041 C 
ATOM      3  O   UNL     1      24.151  66.460  16.517  1.00  0.00    -0.550 OA
ATOM      4  O   UNL     1      23.011  65.824  18.400  1.00  0.00    -0.550 OA
ENDBRANCH   1   2
BRANCH   1   5
ATOM      5  C   UNL     1      22.380  68.805  18.416  1.00  0.00     0.006 C 
BRANCH   5   6
ATOM      6  C   UNL     1      22.736  70.259  18.074  1.00  0.00    -0.003 C 
ATOM      7  C   UNL     1      22.046  70.707  16.788  1.00  0.00     0.004 C 
ENDBRANCH   5   6
ENDBRANCH   1   5
TORSDOF 3
ENDMDL
MODEL 5
REMARK VINA RESULT:    -2.492      2.955      4.046
REMARK INTER + INTRA:          -2.955
REMARK INTER:                  -2.920
REMARK INTRA:                  -0.035
REMARK UNBOUND:                -0.026
REMARK SMILES CCCCC(=O)[O-]
REMARK SMILES IDX 4 1 5 2 6 3 7 4 3 5 2 6 1 7
REMARK H PARENT
REMARK Flexibility Score: inf
ROOT
ATOM      1  C   UNL     1      28.402  71.599  10.542  1.00  0.00     0.053 C 
ENDROOT
BRANCH   1   2
ATOM      2  C   UNL     1      28.331  71.207   9.098  1.00  0.00     0.041 C 
ATOM      3  O   UNL     1      29.242  71.557   8.301  1.00  0.00    -0.550 OA
ATOM      4  O   UNL     1      27.243  70.486   8.625  1.00  0.00    -0.550 OA
ENDBRANCH   1   2
BRANCH   1   5
ATOM      5  C   UNL     1      27.169  71.125  11.323  1.00  0.00     0.006 C 
BRANCH   5   6
ATOM      6  C   UNL     1      27.176  71.622  12.776  1.00  0.00    -0.003 C 
ATOM      7  C   UNL     1      28.542  72.184  13.159  1.00  0.00     0.004 C 
ENDBRANCH   5   6
ENDBRANCH   1   5
TORSDOF 3
ENDMDL
MODEL 6
REMARK VINA RESULT:    -2.467      9.847     10.892
REMARK INTER + INTRA:          -2.926
REMARK INTER:                  -2.812
REMARK INTRA:                  -0.113
REMARK UNBOUND:                -0.026
REMARK SMILES CCCCC(=O)[O-]
REMARK SMILES IDX 4 1 5 2 6 3 7 4 3 5 2 6 1 7
REMARK H PARENT
REMARK Flexibility Score: inf
ROOT
ATOM      1  C   UNL     1      21.400  67.252  19.112  1.00  0.00     0.053 C 
ENDROOT
BRANCH   1   2
ATOM      2  C   UNL     1      20.833  65.866  19.075  1.00  0.00     0.041 C 
ATOM      3  O   UNL     1      21.555  64.878  19.376  1.00  0.00    -0.550 OA
ATOM      4  O   UNL     1      19.518  65.662  18.678  1.00  0.00    -0.550 OA
ENDBRANCH   1   2
BRANCH   1   5
ATOM      5  C   UNL     1      22.803  67.310  18.494  1.00  0.00     0.006 C 
BRANCH   5   6
ATOM      6  C   UNL     1      22.773  67.152  16.967  1.00  0.00    -0.003 C 
ATOM      7  C   UNL     1      23.838  66.166  16.495  1.00  0.00     0.004 C 
ENDBRANCH   5   6
ENDBRANCH   1   5
TORSDOF 3
ENDMDL
MODEL 7
REMARK VINA RESULT:    -2.464      9.194     10.574
REMARK INTER + INTRA:          -2.922
REMARK INTER:                  -2.877
REMARK INTRA:                  -0.046
REMARK UNBOUND:                -0.026
REMARK SMILES CCCCC(=O)[O-]
REMARK SMILES IDX 4 1 5 2 6 3 7 4 3 5 2 6 1 7
REMARK H PARENT
REMARK Flexibility Score: inf
ROOT
ATOM      1  C   UNL     1      22.401  68.292  18.623  1.00  0.00     0.053 C 
ENDROOT
BRANCH   1   2
ATOM      2  C   UNL     1      22.184  69.686  18.118  1.00  0.00     0.041 C 
ATOM      3  O   UNL     1      23.092  70.551  18.238  1.00  0.00    -0.550 OA
ATOM      4  O   UNL     1      20.968  70.040  17.548  1.00  0.00    -0.550 OA
ENDBRANCH   1   2
BRANCH   1   5
ATOM      5  C   UNL     1      21.138  67.722  19.282  1.00  0.00     0.006 C 
BRANCH   5   6
ATOM      6  C   UNL     1      20.646  66.445  18.586  1.00  0.00    -0.003 C 
ATOM      7  C   UNL     1      21.270  65.201  19.213  1.00  0.00     0.004 C 
ENDBRANCH   5   6
ENDBRANCH   1   5
TORSDOF 3
ENDMDL
MODEL 8
REMARK VINA RESULT:    -2.461      8.587      9.258
REMARK INTER + INTRA:          -2.918
REMARK INTER:                  -2.844
REMARK INTRA:                  -0.074
REMARK UNBOUND:                -0.026
REMARK SMILES CCCCC(=O)[O-]
REMARK SMILES IDX 4 1 5 2 6 3 7 4 3 5 2 6 1 7
REMARK H PARENT
REMARK Flexibility Score: inf
ROOT
ATOM      1  C   UNL     1      21.632  68.561  18.569  1.00  0.00     0.053 C 
ENDROOT
BRANCH   1   2
ATOM      2  C   UNL     1      21.887  69.927  18.011  1.00  0.00     0.041 C 
ATOM      3  O   UNL     1      20.967  70.551  17.418  1.00  0.00    -0.550 OA
ATOM      4  O   UNL     1      23.149  70.498  18.116  1.00  0.00    -0.550 OA
ENDBRANCH   1   2
BRANCH   1   5
ATOM      5  C   UNL     1      22.773  67.589  18.243  1.00  0.00     0.006 C 
BRANCH   5   6
ATOM      6  C   UNL     1      22.780  67.177  16.763  1.00  0.00    -0.003 C 
ATOM      7  C   UNL     1      23.913  66.197  16.470  1.00  0.00     0.004 C 
ENDBRANCH   5   6
ENDBRANCH   1   5
TORSDOF 3
ENDMDL
MODEL 9
REMARK VINA RESULT:    -2.354     10.180     11.623
REMARK INTER + INTRA:          -2.793
REMARK INTER:                  -2.755
REMARK INTRA:                  -0.037
REMARK UNBOUND:                -0.026
REMARK SMILES CCCCC(=O)[O-]
REMARK SMILES IDX 4 1 5 2 6 3 7 4 3 5 2 6 1 7
REMARK H PARENT
REMARK Flexibility Score: inf
ROOT
ATOM      1  C   UNL     1      20.853  67.557  19.113  1.00  0.00     0.053 C 
ENDROOT
BRANCH   1   2
ATOM      2  C   UNL     1      22.211  67.963  18.628  1.00  0.00     0.041 C 
ATOM      3  O   UNL     1      23.112  67.097  18.470  1.00  0.00    -0.550 OA
ATOM      4  O   UNL     1      22.491  69.301  18.382  1.00  0.00    -0.550 OA
ENDBRANCH   1   2
BRANCH   1   5
ATOM      5  C   UNL     1      20.658  66.036  19.054  1.00  0.00     0.006 C 
BRANCH   5   6
ATOM      6  C   UNL     1      19.241  65.650  18.604  1.00  0.00    -0.003 C 
ATOM      7  C   UNL     1      18.205  66.631  19.144  1.00  0.00     0.004 C 
ENDBRANCH   5   6
ENDBRANCH   1   5
TORSDOF 3
ENDMDL
