MODEL 1
REMARK VINA RESULT:    -3.711      0.000      0.000
REMARK INTER + INTRA:         -11.388
REMARK INTER:                  -8.049
REMARK INTRA:                  -3.339
REMARK UNBOUND:                -3.339
REMARK SMILES CCCCCCCCCCCCCCCCCCCCCC(=O)[O-]
REMARK SMILES IDX 12 1 11 2 10 3 9 4 8 5 7 6 6 7 5 8 4 9 3 10 2 11 1 12 13 13
REMARK SMILES IDX 14 14 15 15 16 16 17 17 18 18 19 19 20 20 21 21 22 22 23 23
REMARK SMILES IDX 24 24
REMARK H PARENT
REMARK Flexibility Score: inf
ROOT
ATOM      1  C   UNL     1     122.936 128.965 126.739  1.00  0.00     0.000 C 
ENDROOT
BRANCH   1   2
ATOM      2  C   UNL     1     123.958 130.100 126.552  1.00  0.00     0.000 C 
BRANCH   2   3
ATOM      3  C   UNL     1     125.439 129.665 126.567  1.00  0.00     0.000 C 
BRANCH   3   4
ATOM      4  C   UNL     1     125.973 129.112 125.232  1.00  0.00    -0.000 C 
BRANCH   4   5
ATOM      5  C   UNL     1     126.382 127.626 125.263  1.00  0.00    -0.000 C 
BRANCH   5   6
ATOM      6  C   UNL     1     125.213 126.654 124.993  1.00  0.00    -0.000 C 
BRANCH   6   7
ATOM      7  C   UNL     1     124.844 125.815 126.229  1.00  0.00    -0.000 C 
BRANCH   7   8
ATOM      8  C   UNL     1     126.041 125.593 127.168  1.00  0.00    -0.000 C 
BRANCH   8   9
ATOM      9  C   UNL     1     125.633 125.573 128.650  1.00  0.00    -0.000 C 
BRANCH   9  10
ATOM     10  C   UNL     1     124.380 126.417 128.936  1.00  0.00    -0.000 C 
BRANCH  10  11
ATOM     11  C   UNL     1     124.674 127.720 129.709  1.00  0.00    -0.003 C 
ATOM     12  C   UNL     1     124.006 127.747 131.083  1.00  0.00     0.004 C 
ENDBRANCH  10  11
ENDBRANCH   9  10
ENDBRANCH   8   9
ENDBRANCH   7   8
ENDBRANCH   6   7
ENDBRANCH   5   6
ENDBRANCH   4   5
ENDBRANCH   3   4
ENDBRANCH   2   3
ENDBRANCH   1   2
BRANCH   1  13
ATOM     13  C   UNL     1     122.072 128.723 125.488  1.00  0.00     0.000 C 
BRANCH  13  14
ATOM     14  C   UNL     1     122.351 129.746 124.375  1.00  0.00     0.000 C 
BRANCH  14  15
ATOM     15  C   UNL     1     122.909 129.097 123.098  1.00  0.00     0.000 C 
BRANCH  15  16
ATOM     16  C   UNL     1     123.508 130.155 122.163  1.00  0.00     0.000 C 
BRANCH  16  17
ATOM     17  C   UNL     1     124.032 131.360 122.958  1.00  0.00     0.000 C 
BRANCH  17  18
ATOM     18  C   UNL     1     125.388 131.872 122.441  1.00  0.00     0.000 C 
BRANCH  18  19
ATOM     19  C   UNL     1     125.541 131.871 120.906  1.00  0.00     0.000 C 
BRANCH  19  20
ATOM     20  C   UNL     1     126.691 130.999 120.363  1.00  0.00     0.006 C 
BRANCH  20  21
ATOM     21  C   UNL     1     126.322 130.148 119.137  1.00  0.00     0.053 C 
BRANCH  21  22
ATOM     22  C   UNL     1     126.580 130.873 117.852  1.00  0.00     0.041 C 
ATOM     23  O   UNL     1     125.933 130.573 116.814  1.00  0.00    -0.550 OA
ATOM     24  O   UNL     1     127.507 131.907 117.809  1.00  0.00    -0.550 OA
ENDBRANCH  21  22
ENDBRANCH  20  21
ENDBRANCH  19  20
ENDBRANCH  18  19
ENDBRANCH  17  18
ENDBRANCH  16  17
ENDBRANCH  15  16
ENDBRANCH  14  15
ENDBRANCH  13  14
ENDBRANCH   1  13
TORSDOF 20
ENDMDL
MODEL 2
REMARK VINA RESULT:    -3.678      9.767     11.944
REMARK INTER + INTRA:         -11.317
REMARK INTER:                  -8.093
REMARK INTRA:                  -3.224
REMARK UNBOUND:                -3.339
REMARK SMILES CCCCCCCCCCCCCCCCCCCCCC(=O)[O-]
REMARK SMILES IDX 12 1 11 2 10 3 9 4 8 5 7 6 6 7 5 8 4 9 3 10 2 11 1 12 13 13
REMARK SMILES IDX 14 14 15 15 16 16 17 17 18 18 19 19 20 20 21 21 22 22 23 23
REMARK SMILES IDX 24 24
REMARK H PARENT
REMARK Flexibility Score: inf
ROOT
ATOM      1  C   UNL     1     128.364 120.054 119.785  1.00  0.00     0.000 C 
ENDROOT
BRANCH   1   2
ATOM      2  C   UNL     1     127.538 119.625 118.559  1.00  0.00     0.000 C 
BRANCH   2   3
ATOM      3  C   UNL     1     126.904 120.778 117.753  1.00  0.00     0.000 C 
BRANCH   3   4
ATOM      4  C   UNL     1     125.376 120.693 117.579  1.00  0.00    -0.000 C 
BRANCH   4   5
ATOM      5  C   UNL     1     124.717 121.958 116.995  1.00  0.00    -0.000 C 
BRANCH   5   6
ATOM      6  C   UNL     1     123.246 122.147 117.425  1.00  0.00    -0.000 C 
BRANCH   6   7
ATOM      7  C   UNL     1     123.109 122.954 118.728  1.00  0.00    -0.000 C 
BRANCH   7   8
ATOM      8  C   UNL     1     122.648 122.087 119.910  1.00  0.00    -0.000 C 
BRANCH   8   9
ATOM      9  C   UNL     1     123.497 122.310 121.172  1.00  0.00    -0.000 C 
BRANCH   9  10
ATOM     10  C   UNL     1     124.966 121.896 120.984  1.00  0.00    -0.000 C 
BRANCH  10  11
ATOM     11  C   UNL     1     125.355 120.621 121.762  1.00  0.00    -0.003 C 
ATOM     12  C   UNL     1     124.849 119.347 121.085  1.00  0.00     0.004 C 
ENDBRANCH  10  11
ENDBRANCH   9  10
ENDBRANCH   8   9
ENDBRANCH   7   8
ENDBRANCH   6   7
ENDBRANCH   5   6
ENDBRANCH   4   5
ENDBRANCH   3   4
ENDBRANCH   2   3
ENDBRANCH   1   2
BRANCH   1  13
ATOM     13  C   UNL     1     128.937 121.476 119.655  1.00  0.00     0.000 C 
BRANCH  13  14
ATOM     14  C   UNL     1     128.964 122.225 120.998  1.00  0.00     0.000 C 
BRANCH  14  15
ATOM     15  C   UNL     1     130.210 123.110 121.161  1.00  0.00     0.000 C 
BRANCH  15  16
ATOM     16  C   UNL     1     131.313 122.686 120.184  1.00  0.00     0.000 C 
BRANCH  16  17
ATOM     17  C   UNL     1     132.439 121.939 120.913  1.00  0.00     0.000 C 
BRANCH  17  18
ATOM     18  C   UNL     1     132.433 120.426 120.630  1.00  0.00     0.000 C 
BRANCH  18  19
ATOM     19  C   UNL     1     132.805 120.033 119.185  1.00  0.00     0.000 C 
BRANCH  19  20
ATOM     20  C   UNL     1     131.699 119.299 118.401  1.00  0.00     0.006 C 
BRANCH  20  21
ATOM     21  C   UNL     1     131.813 117.766 118.423  1.00  0.00     0.053 C 
BRANCH  21  22
ATOM     22  C   UNL     1     130.991 117.156 119.516  1.00  0.00     0.041 C 
ATOM     23  O   UNL     1     129.782 116.868 119.314  1.00  0.00    -0.550 OA
ATOM     24  O   UNL     1     131.569 116.870 120.746  1.00  0.00    -0.550 OA
ENDBRANCH  21  22
ENDBRANCH  20  21
ENDBRANCH  19  20
ENDBRANCH  18  19
ENDBRANCH  17  18
ENDBRANCH  16  17
ENDBRANCH  15  16
ENDBRANCH  14  15
ENDBRANCH  13  14
ENDBRANCH   1  13
TORSDOF 20
ENDMDL
MODEL 3
REMARK VINA RESULT:    -3.666      9.557     11.699
REMARK INTER + INTRA:         -11.290
REMARK INTER:                  -7.616
REMARK INTRA:                  -3.674
REMARK UNBOUND:                -3.339
REMARK SMILES CCCCCCCCCCCCCCCCCCCCCC(=O)[O-]
REMARK SMILES IDX 12 1 11 2 10 3 9 4 8 5 7 6 6 7 5 8 4 9 3 10 2 11 1 12 13 13
REMARK SMILES IDX 14 14 15 15 16 16 17 17 18 18 19 19 20 20 21 21 22 22 23 23
REMARK SMILES IDX 24 24
REMARK H PARENT
REMARK Flexibility Score: inf
ROOT
ATOM      1  C   UNL     1     128.723 117.302 119.136  1.00  0.00     0.000 C 
ENDROOT
BRANCH   1   2
ATOM      2  C   UNL     1     129.130 118.035 120.427  1.00  0.00     0.000 C 
BRANCH   2   3
ATOM      3  C   UNL     1     130.538 117.698 120.963  1.00  0.00     0.000 C 
BRANCH   3   4
ATOM      4  C   UNL     1     131.501 118.895 121.073  1.00  0.00    -0.000 C 
BRANCH   4   5
ATOM      5  C   UNL     1     132.301 119.205 119.793  1.00  0.00    -0.000 C 
BRANCH   5   6
ATOM      6  C   UNL     1     131.712 120.360 118.955  1.00  0.00    -0.000 C 
BRANCH   6   7
ATOM      7  C   UNL     1     131.072 121.456 119.825  1.00  0.00    -0.000 C 
BRANCH   7   8
ATOM      8  C   UNL     1     129.564 121.608 119.565  1.00  0.00    -0.000 C 
BRANCH   8   9
ATOM      9  C   UNL     1     128.762 121.832 120.858  1.00  0.00    -0.000 C 
BRANCH   9  10
ATOM     10  C   UNL     1     127.315 121.323 120.757  1.00  0.00    -0.000 C 
BRANCH  10  11
ATOM     11  C   UNL     1     126.855 120.518 121.990  1.00  0.00    -0.003 C 
ATOM     12  C   UNL     1     125.818 119.451 121.639  1.00  0.00     0.004 C 
ENDBRANCH  10  11
ENDBRANCH   9  10
ENDBRANCH   8   9
ENDBRANCH   7   8
ENDBRANCH   6   7
ENDBRANCH   5   6
ENDBRANCH   4   5
ENDBRANCH   3   4
ENDBRANCH   2   3
ENDBRANCH   1   2
BRANCH   1  13
ATOM     13  C   UNL     1     128.826 118.190 117.884  1.00  0.00     0.000 C 
BRANCH  13  14
ATOM     14  C   UNL     1     127.676 119.208 117.789  1.00  0.00     0.000 C 
BRANCH  14  15
ATOM     15  C   UNL     1     126.291 118.543 117.809  1.00  0.00     0.000 C 
BRANCH  15  16
ATOM     16  C   UNL     1     125.184 119.590 117.978  1.00  0.00     0.000 C 
BRANCH  16  17
ATOM     17  C   UNL     1     125.666 120.979 117.537  1.00  0.00     0.000 C 
BRANCH  17  18
ATOM     18  C   UNL     1     124.527 121.863 116.998  1.00  0.00     0.000 C 
BRANCH  18  19
ATOM     19  C   UNL     1     123.261 121.902 117.878  1.00  0.00     0.000 C 
BRANCH  19  20
ATOM     20  C   UNL     1     123.327 122.870 119.076  1.00  0.00     0.006 C 
BRANCH  20  21
ATOM     21  C   UNL     1     123.670 122.201 120.418  1.00  0.00     0.053 C 
BRANCH  21  22
ATOM     22  C   UNL     1     122.443 121.869 121.210  1.00  0.00     0.041 C 
ATOM     23  O   UNL     1     121.300 122.056 120.715  1.00  0.00    -0.550 OA
ATOM     24  O   UNL     1     122.560 121.317 122.479  1.00  0.00    -0.550 OA
ENDBRANCH  21  22
ENDBRANCH  20  21
ENDBRANCH  19  20
ENDBRANCH  18  19
ENDBRANCH  17  18
ENDBRANCH  16  17
ENDBRANCH  15  16
ENDBRANCH  14  15
ENDBRANCH  13  14
ENDBRANCH   1  13
TORSDOF 20
ENDMDL
MODEL 4
REMARK VINA RESULT:    -3.665      9.609     11.909
REMARK INTER + INTRA:         -11.290
REMARK INTER:                  -8.112
REMARK INTRA:                  -3.178
REMARK UNBOUND:                -3.339
REMARK SMILES CCCCCCCCCCCCCCCCCCCCCC(=O)[O-]
REMARK SMILES IDX 12 1 11 2 10 3 9 4 8 5 7 6 6 7 5 8 4 9 3 10 2 11 1 12 13 13
REMARK SMILES IDX 14 14 15 15 16 16 17 17 18 18 19 19 20 20 21 21 22 22 23 23
REMARK SMILES IDX 24 24
REMARK H PARENT
REMARK Flexibility Score: inf
ROOT
ATOM      1  C   UNL     1     126.572 120.845 118.336  1.00  0.00     0.000 C 
ENDROOT
BRANCH   1   2
ATOM      2  C   UNL     1     128.035 120.374 118.287  1.00  0.00     0.000 C 
BRANCH   2   3
ATOM      3  C   UNL     1     128.766 120.343 119.646  1.00  0.00     0.000 C 
BRANCH   3   4
ATOM      4  C   UNL     1     128.447 121.520 120.587  1.00  0.00    -0.000 C 
BRANCH   4   5
ATOM      5  C   UNL     1     129.603 122.519 120.793  1.00  0.00    -0.000 C 
BRANCH   5   6
ATOM      6  C   UNL     1     130.839 122.229 119.916  1.00  0.00    -0.000 C 
BRANCH   6   7
ATOM      7  C   UNL     1     132.113 121.995 120.747  1.00  0.00    -0.000 C 
BRANCH   7   8
ATOM      8  C   UNL     1     132.546 120.519 120.757  1.00  0.00    -0.000 C 
BRANCH   8   9
ATOM      9  C   UNL     1     132.844 119.982 119.348  1.00  0.00    -0.000 C 
BRANCH   9  10
ATOM     10  C   UNL     1     132.065 118.696 119.022  1.00  0.00    -0.000 C 
BRANCH  10  11
ATOM     11  C   UNL     1     131.430 118.698 117.617  1.00  0.00    -0.003 C 
ATOM     12  C   UNL     1     131.524 120.062 116.934  1.00  0.00     0.004 C 
ENDBRANCH  10  11
ENDBRANCH   9  10
ENDBRANCH   8   9
ENDBRANCH   7   8
ENDBRANCH   6   7
ENDBRANCH   5   6
ENDBRANCH   4   5
ENDBRANCH   3   4
ENDBRANCH   2   3
ENDBRANCH   1   2
BRANCH   1  13
ATOM     13  C   UNL     1     125.575 119.756 117.904  1.00  0.00     0.000 C 
BRANCH  13  14
ATOM     14  C   UNL     1     124.369 120.331 117.142  1.00  0.00     0.000 C 
BRANCH  14  15
ATOM     15  C   UNL     1     124.460 121.853 116.948  1.00  0.00     0.000 C 
BRANCH  15  16
ATOM     16  C   UNL     1     123.232 122.555 117.540  1.00  0.00     0.000 C 
BRANCH  16  17
ATOM     17  C   UNL     1     123.411 122.802 119.045  1.00  0.00     0.000 C 
BRANCH  17  18
ATOM     18  C   UNL     1     122.344 122.091 119.897  1.00  0.00     0.000 C 
BRANCH  18  19
ATOM     19  C   UNL     1     122.687 120.639 120.290  1.00  0.00     0.000 C 
BRANCH  19  20
ATOM     20  C   UNL     1     123.426 120.481 121.633  1.00  0.00     0.006 C 
BRANCH  20  21
ATOM     21  C   UNL     1     124.951 120.659 121.547  1.00  0.00     0.053 C 
BRANCH  21  22
ATOM     22  C   UNL     1     125.686 119.488 122.125  1.00  0.00     0.041 C 
ATOM     23  O   UNL     1     126.230 118.644 121.365  1.00  0.00    -0.550 OA
ATOM     24  O   UNL     1     125.805 119.351 123.502  1.00  0.00    -0.550 OA
ENDBRANCH  21  22
ENDBRANCH  20  21
ENDBRANCH  19  20
ENDBRANCH  18  19
ENDBRANCH  17  18
ENDBRANCH  16  17
ENDBRANCH  15  16
ENDBRANCH  14  15
ENDBRANCH  13  14
ENDBRANCH   1  13
TORSDOF 20
ENDMDL
MODEL 5
REMARK VINA RESULT:    -3.661      3.232      4.704
REMARK INTER + INTRA:         -11.280
REMARK INTER:                  -7.622
REMARK INTRA:                  -3.658
REMARK UNBOUND:                -3.339
REMARK SMILES CCCCCCCCCCCCCCCCCCCCCC(=O)[O-]
REMARK SMILES IDX 12 1 11 2 10 3 9 4 8 5 7 6 6 7 5 8 4 9 3 10 2 11 1 12 13 13
REMARK SMILES IDX 14 14 15 15 16 16 17 17 18 18 19 19 20 20 21 21 22 22 23 23
REMARK SMILES IDX 24 24
REMARK H PARENT
REMARK Flexibility Score: inf
ROOT
ATOM      1  C   UNL     1     123.376 127.450 126.553  1.00  0.00     0.000 C 
ENDROOT
BRANCH   1   2
ATOM      2  C   UNL     1     124.023 126.911 125.265  1.00  0.00     0.000 C 
BRANCH   2   3
ATOM      3  C   UNL     1     125.447 126.338 125.430  1.00  0.00     0.000 C 
BRANCH   3   4
ATOM      4  C   UNL     1     125.655 125.446 126.669  1.00  0.00    -0.000 C 
BRANCH   4   5
ATOM      5  C   UNL     1     126.826 125.863 127.580  1.00  0.00    -0.000 C 
BRANCH   5   6
ATOM      6  C   UNL     1     126.380 126.461 128.932  1.00  0.00    -0.000 C 
BRANCH   6   7
ATOM      7  C   UNL     1     125.315 125.602 129.636  1.00  0.00    -0.000 C 
BRANCH   7   8
ATOM      8  C   UNL     1     125.524 125.537 131.157  1.00  0.00    -0.000 C 
BRANCH   8   9
ATOM      9  C   UNL     1     125.355 126.906 131.836  1.00  0.00    -0.000 C 
BRANCH   9  10
ATOM     10  C   UNL     1     123.954 127.505 131.630  1.00  0.00    -0.000 C 
BRANCH  10  11
ATOM     11  C   UNL     1     123.969 129.006 131.273  1.00  0.00    -0.003 C 
ATOM     12  C   UNL     1     124.096 129.247 129.769  1.00  0.00     0.004 C 
ENDBRANCH  10  11
ENDBRANCH   9  10
ENDBRANCH   8   9
ENDBRANCH   7   8
ENDBRANCH   6   7
ENDBRANCH   5   6
ENDBRANCH   4   5
ENDBRANCH   3   4
ENDBRANCH   2   3
ENDBRANCH   1   2
BRANCH   1  13
ATOM     13  C   UNL     1     122.757 128.847 126.374  1.00  0.00     0.000 C 
BRANCH  13  14
ATOM     14  C   UNL     1     122.033 129.001 125.027  1.00  0.00     0.000 C 
BRANCH  14  15
ATOM     15  C   UNL     1     122.436 130.282 124.278  1.00  0.00     0.000 C 
BRANCH  15  16
ATOM     16  C   UNL     1     123.493 129.980 123.210  1.00  0.00     0.000 C 
BRANCH  16  17
ATOM     17  C   UNL     1     124.774 130.791 123.457  1.00  0.00     0.000 C 
BRANCH  17  18
ATOM     18  C   UNL     1     125.785 130.052 124.352  1.00  0.00     0.000 C 
BRANCH  18  19
ATOM     19  C   UNL     1     125.837 130.540 125.814  1.00  0.00     0.000 C 
BRANCH  19  20
ATOM     20  C   UNL     1     126.610 129.622 126.783  1.00  0.00     0.006 C 
BRANCH  20  21
ATOM     21  C   UNL     1     127.912 129.041 126.208  1.00  0.00     0.053 C 
BRANCH  21  22
ATOM     22  C   UNL     1     129.064 129.987 126.359  1.00  0.00     0.041 C 
ATOM     23  O   UNL     1     129.632 130.460 125.339  1.00  0.00    -0.550 OA
ATOM     24  O   UNL     1     129.485 130.377 127.623  1.00  0.00    -0.550 OA
ENDBRANCH  21  22
ENDBRANCH  20  21
ENDBRANCH  19  20
ENDBRANCH  18  19
ENDBRANCH  17  18
ENDBRANCH  16  17
ENDBRANCH  15  16
ENDBRANCH  14  15
ENDBRANCH  13  14
ENDBRANCH   1  13
TORSDOF 20
ENDMDL
MODEL 6
REMARK VINA RESULT:    -3.659      1.284      2.311
REMARK INTER + INTRA:         -11.277
REMARK INTER:                  -7.608
REMARK INTRA:                  -3.668
REMARK UNBOUND:                -3.339
REMARK SMILES CCCCCCCCCCCCCCCCCCCCCC(=O)[O-]
REMARK SMILES IDX 12 1 11 2 10 3 9 4 8 5 7 6 6 7 5 8 4 9 3 10 2 11 1 12 13 13
REMARK SMILES IDX 14 14 15 15 16 16 17 17 18 18 19 19 20 20 21 21 22 22 23 23
REMARK SMILES IDX 24 24
REMARK H PARENT
REMARK Flexibility Score: inf
ROOT
ATOM      1  C   UNL     1     123.404 127.414 126.264  1.00  0.00     0.000 C 
ENDROOT
BRANCH   1   2
ATOM      2  C   UNL     1     124.336 126.773 125.222  1.00  0.00     0.000 C 
BRANCH   2   3
ATOM      3  C   UNL     1     125.817 127.198 125.309  1.00  0.00     0.000 C 
BRANCH   3   4
ATOM      4  C   UNL     1     126.106 128.653 124.894  1.00  0.00    -0.000 C 
BRANCH   4   5
ATOM      5  C   UNL     1     126.806 129.508 125.968  1.00  0.00    -0.000 C 
BRANCH   5   6
ATOM      6  C   UNL     1     125.833 130.346 126.826  1.00  0.00    -0.000 C 
BRANCH   6   7
ATOM      7  C   UNL     1     125.704 129.815 128.264  1.00  0.00    -0.000 C 
BRANCH   7   8
ATOM      8  C   UNL     1     126.859 128.876 128.650  1.00  0.00    -0.000 C 
BRANCH   8   9
ATOM      9  C   UNL     1     126.418 127.766 129.619  1.00  0.00    -0.000 C 
BRANCH   9  10
ATOM     10  C   UNL     1     125.856 126.531 128.895  1.00  0.00    -0.000 C 
BRANCH  10  11
ATOM     11  C   UNL     1     124.611 125.928 129.577  1.00  0.00    -0.003 C 
ATOM     12  C   UNL     1     123.494 126.954 129.768  1.00  0.00     0.004 C 
ENDBRANCH  10  11
ENDBRANCH   9  10
ENDBRANCH   8   9
ENDBRANCH   7   8
ENDBRANCH   6   7
ENDBRANCH   5   6
ENDBRANCH   4   5
ENDBRANCH   3   4
ENDBRANCH   2   3
ENDBRANCH   1   2
BRANCH   1  13
ATOM     13  C   UNL     1     122.287 128.262 125.630  1.00  0.00     0.000 C 
BRANCH  13  14
ATOM     14  C   UNL     1     122.446 129.762 125.930  1.00  0.00     0.000 C 
BRANCH  14  15
ATOM     15  C   UNL     1     122.718 130.595 124.667  1.00  0.00     0.000 C 
BRANCH  15  16
ATOM     16  C   UNL     1     122.702 129.710 123.415  1.00  0.00     0.000 C 
BRANCH  16  17
ATOM     17  C   UNL     1     123.812 130.120 122.436  1.00  0.00     0.000 C 
BRANCH  17  18
ATOM     18  C   UNL     1     124.443 131.480 122.785  1.00  0.00     0.000 C 
BRANCH  18  19
ATOM     19  C   UNL     1     125.696 131.845 121.963  1.00  0.00     0.000 C 
BRANCH  19  20
ATOM     20  C   UNL     1     126.031 130.876 120.812  1.00  0.00     0.006 C 
BRANCH  20  21
ATOM     21  C   UNL     1     125.677 131.402 119.411  1.00  0.00     0.053 C 
BRANCH  21  22
ATOM     22  C   UNL     1     125.228 130.305 118.496  1.00  0.00     0.041 C 
ATOM     23  O   UNL     1     124.410 129.437 118.901  1.00  0.00    -0.550 OA
ATOM     24  O   UNL     1     125.680 130.263 117.184  1.00  0.00    -0.550 OA
ENDBRANCH  21  22
ENDBRANCH  20  21
ENDBRANCH  19  20
ENDBRANCH  18  19
ENDBRANCH  17  18
ENDBRANCH  16  17
ENDBRANCH  15  16
ENDBRANCH  14  15
ENDBRANCH  13  14
ENDBRANCH   1  13
TORSDOF 20
ENDMDL
MODEL 7
REMARK VINA RESULT:    -3.658      9.662     11.741
REMARK INTER + INTRA:         -11.275
REMARK INTER:                  -8.081
REMARK INTRA:                  -3.194
REMARK UNBOUND:                -3.339
REMARK SMILES CCCCCCCCCCCCCCCCCCCCCC(=O)[O-]
REMARK SMILES IDX 12 1 11 2 10 3 9 4 8 5 7 6 6 7 5 8 4 9 3 10 2 11 1 12 13 13
REMARK SMILES IDX 14 14 15 15 16 16 17 17 18 18 19 19 20 20 21 21 22 22 23 23
REMARK SMILES IDX 24 24
REMARK H PARENT
REMARK Flexibility Score: inf
ROOT
ATOM      1  C   UNL     1     129.458 121.065 118.694  1.00  0.00     0.000 C 
ENDROOT
BRANCH   1   2
ATOM      2  C   UNL     1     129.184 121.469 120.154  1.00  0.00     0.000 C 
BRANCH   2   3
ATOM      3  C   UNL     1     130.155 122.514 120.743  1.00  0.00     0.000 C 
BRANCH   3   4
ATOM      4  C   UNL     1     131.610 122.408 120.249  1.00  0.00    -0.000 C 
BRANCH   4   5
ATOM      5  C   UNL     1     132.416 121.238 120.848  1.00  0.00    -0.000 C 
BRANCH   5   6
ATOM      6  C   UNL     1     132.927 120.232 119.796  1.00  0.00    -0.000 C 
BRANCH   6   7
ATOM      7  C   UNL     1     132.474 118.790 120.086  1.00  0.00    -0.000 C 
BRANCH   7   8
ATOM      8  C   UNL     1     131.411 118.720 121.195  1.00  0.00    -0.000 C 
BRANCH   8   9
ATOM      9  C   UNL     1     130.523 117.470 121.082  1.00  0.00    -0.000 C 
BRANCH   9  10
ATOM     10  C   UNL     1     129.212 117.735 120.322  1.00  0.00    -0.000 C 
BRANCH  10  11
ATOM     11  C   UNL     1     129.033 116.853 119.070  1.00  0.00    -0.003 C 
ATOM     12  C   UNL     1     129.769 117.411 117.852  1.00  0.00     0.004 C 
ENDBRANCH  10  11
ENDBRANCH   9  10
ENDBRANCH   8   9
ENDBRANCH   7   8
ENDBRANCH   6   7
ENDBRANCH   5   6
ENDBRANCH   4   5
ENDBRANCH   3   4
ENDBRANCH   2   3
ENDBRANCH   1   2
BRANCH   1  13
ATOM     13  C   UNL     1     128.170 120.858 117.877  1.00  0.00     0.000 C 
BRANCH  13  14
ATOM     14  C   UNL     1     127.003 120.349 118.740  1.00  0.00     0.000 C 
BRANCH  14  15
ATOM     15  C   UNL     1     125.687 120.240 117.953  1.00  0.00     0.000 C 
BRANCH  15  16
ATOM     16  C   UNL     1     125.296 121.595 117.350  1.00  0.00     0.000 C 
BRANCH  16  17
ATOM     17  C   UNL     1     123.770 121.752 117.289  1.00  0.00     0.000 C 
BRANCH  17  18
ATOM     18  C   UNL     1     123.216 122.639 118.418  1.00  0.00     0.000 C 
BRANCH  18  19
ATOM     19  C   UNL     1     122.666 121.872 119.638  1.00  0.00     0.000 C 
BRANCH  19  20
ATOM     20  C   UNL     1     123.277 122.277 120.995  1.00  0.00     0.006 C 
BRANCH  20  21
ATOM     21  C   UNL     1     124.791 122.032 121.112  1.00  0.00     0.053 C 
BRANCH  21  22
ATOM     22  C   UNL     1     125.118 121.040 122.184  1.00  0.00     0.041 C 
ATOM     23  O   UNL     1     124.259 120.741 123.055  1.00  0.00    -0.550 OA
ATOM     24  O   UNL     1     126.358 120.415 122.201  1.00  0.00    -0.550 OA
ENDBRANCH  21  22
ENDBRANCH  20  21
ENDBRANCH  19  20
ENDBRANCH  18  19
ENDBRANCH  17  18
ENDBRANCH  16  17
ENDBRANCH  15  16
ENDBRANCH  14  15
ENDBRANCH  13  14
ENDBRANCH   1  13
TORSDOF 20
ENDMDL
MODEL 8
REMARK VINA RESULT:    -3.609     10.250     12.632
REMARK INTER + INTRA:         -11.167
REMARK INTER:                  -7.679
REMARK INTRA:                  -3.487
REMARK UNBOUND:                -3.339
REMARK SMILES CCCCCCCCCCCCCCCCCCCCCC(=O)[O-]
REMARK SMILES IDX 12 1 11 2 10 3 9 4 8 5 7 6 6 7 5 8 4 9 3 10 2 11 1 12 13 13
REMARK SMILES IDX 14 14 15 15 16 16 17 17 18 18 19 19 20 20 21 21 22 22 23 23
REMARK SMILES IDX 24 24
REMARK H PARENT
REMARK Flexibility Score: inf
ROOT
ATOM      1  C   UNL     1     129.344 117.333 120.698  1.00  0.00     0.000 C 
ENDROOT
BRANCH   1   2
ATOM      2  C   UNL     1     128.485 118.073 119.657  1.00  0.00     0.000 C 
BRANCH   2   3
ATOM      3  C   UNL     1     128.319 117.350 118.303  1.00  0.00     0.000 C 
BRANCH   3   4
ATOM      4  C   UNL     1     127.557 118.145 117.226  1.00  0.00    -0.000 C 
BRANCH   4   5
ATOM      5  C   UNL     1     126.369 118.975 117.750  1.00  0.00    -0.000 C 
BRANCH   5   6
ATOM      6  C   UNL     1     126.666 120.487 117.853  1.00  0.00    -0.000 C 
BRANCH   6   7
ATOM      7  C   UNL     1     126.260 121.078 119.215  1.00  0.00    -0.000 C 
BRANCH   7   8
ATOM      8  C   UNL     1     125.119 120.292 119.881  1.00  0.00    -0.000 C 
BRANCH   8   9
ATOM      9  C   UNL     1     124.091 121.208 120.565  1.00  0.00    -0.000 C 
BRANCH   9  10
ATOM     10  C   UNL     1     122.897 121.548 119.658  1.00  0.00    -0.000 C 
BRANCH  10  11
ATOM     11  C   UNL     1     123.086 122.848 118.848  1.00  0.00    -0.003 C 
ATOM     12  C   UNL     1     123.480 122.579 117.396  1.00  0.00     0.004 C 
ENDBRANCH  10  11
ENDBRANCH   9  10
ENDBRANCH   8   9
ENDBRANCH   7   8
ENDBRANCH   6   7
ENDBRANCH   5   6
ENDBRANCH   4   5
ENDBRANCH   3   4
ENDBRANCH   2   3
ENDBRANCH   1   2
BRANCH   1  13
ATOM     13  C   UNL     1     130.591 118.129 121.122  1.00  0.00     0.000 C 
BRANCH  13  14
ATOM     14  C   UNL     1     131.900 117.421 120.733  1.00  0.00     0.000 C 
BRANCH  14  15
ATOM     15  C   UNL     1     132.696 118.190 119.667  1.00  0.00     0.000 C 
BRANCH  15  16
ATOM     16  C   UNL     1     132.521 117.550 118.285  1.00  0.00     0.000 C 
BRANCH  16  17
ATOM     17  C   UNL     1     131.614 118.407 117.390  1.00  0.00     0.000 C 
BRANCH  17  18
ATOM     18  C   UNL     1     131.666 119.903 117.748  1.00  0.00     0.000 C 
BRANCH  18  19
ATOM     19  C   UNL     1     130.290 120.579 117.918  1.00  0.00     0.000 C 
BRANCH  19  20
ATOM     20  C   UNL     1     130.088 121.326 119.252  1.00  0.00     0.006 C 
BRANCH  20  21
ATOM     21  C   UNL     1     131.382 121.575 120.045  1.00  0.00     0.053 C 
BRANCH  21  22
ATOM     22  C   UNL     1     131.427 122.955 120.627  1.00  0.00     0.041 C 
ATOM     23  O   UNL     1     130.390 123.465 121.129  1.00  0.00    -0.550 OA
ATOM     24  O   UNL     1     132.622 123.662 120.652  1.00  0.00    -0.550 OA
ENDBRANCH  21  22
ENDBRANCH  20  21
ENDBRANCH  19  20
ENDBRANCH  18  19
ENDBRANCH  17  18
ENDBRANCH  16  17
ENDBRANCH  15  16
ENDBRANCH  14  15
ENDBRANCH  13  14
ENDBRANCH   1  13
TORSDOF 20
ENDMDL
MODEL 9
REMARK VINA RESULT:    -3.562      9.565     11.613
REMARK INTER + INTRA:         -11.066
REMARK INTER:                  -7.357
REMARK INTRA:                  -3.709
REMARK UNBOUND:                -3.339
REMARK SMILES CCCCCCCCCCCCCCCCCCCCCC(=O)[O-]
REMARK SMILES IDX 12 1 11 2 10 3 9 4 8 5 7 6 6 7 5 8 4 9 3 10 2 11 1 12 13 13
REMARK SMILES IDX 14 14 15 15 16 16 17 17 18 18 19 19 20 20 21 21 22 22 23 23
REMARK SMILES IDX 24 24
REMARK H PARENT
REMARK Flexibility Score: inf
ROOT
ATOM      1  C   UNL     1     126.598 121.028 120.572  1.00  0.00     0.000 C 
ENDROOT
BRANCH   1   2
ATOM      2  C   UNL     1     128.003 120.931 121.191  1.00  0.00     0.000 C 
BRANCH   2   3
ATOM      3  C   UNL     1     128.997 122.026 120.751  1.00  0.00     0.000 C 
BRANCH   3   4
ATOM      4  C   UNL     1     130.178 121.532 119.894  1.00  0.00    -0.000 C 
BRANCH   4   5
ATOM      5  C   UNL     1     129.803 121.091 118.465  1.00  0.00    -0.000 C 
BRANCH   5   6
ATOM      6  C   UNL     1     130.929 120.326 117.736  1.00  0.00    -0.000 C 
BRANCH   6   7
ATOM      7  C   UNL     1     130.630 118.823 117.600  1.00  0.00    -0.000 C 
BRANCH   7   8
ATOM      8  C   UNL     1     129.245 118.446 118.150  1.00  0.00    -0.000 C 
BRANCH   8   9
ATOM      9  C   UNL     1     129.294 117.230 119.090  1.00  0.00    -0.000 C 
BRANCH   9  10
ATOM     10  C   UNL     1     129.182 117.617 120.574  1.00  0.00    -0.000 C 
BRANCH  10  11
ATOM     11  C   UNL     1     130.499 118.149 121.175  1.00  0.00    -0.003 C 
ATOM     12  C   UNL     1     131.699 117.270 120.823  1.00  0.00     0.004 C 
ENDBRANCH  10  11
ENDBRANCH   9  10
ENDBRANCH   8   9
ENDBRANCH   7   8
ENDBRANCH   6   7
ENDBRANCH   5   6
ENDBRANCH   4   5
ENDBRANCH   3   4
ENDBRANCH   2   3
ENDBRANCH   1   2
BRANCH   1  13
ATOM     13  C   UNL     1     126.088 119.684 120.023  1.00  0.00     0.000 C 
BRANCH  13  14
ATOM     14  C   UNL     1     125.641 119.780 118.555  1.00  0.00     0.000 C 
BRANCH  14  15
ATOM     15  C   UNL     1     126.396 120.868 117.774  1.00  0.00     0.000 C 
BRANCH  15  16
ATOM     16  C   UNL     1     125.419 121.767 117.006  1.00  0.00     0.000 C 
BRANCH  16  17
ATOM     17  C   UNL     1     123.963 121.398 117.324  1.00  0.00     0.000 C 
BRANCH  17  18
ATOM     18  C   UNL     1     123.046 122.629 117.433  1.00  0.00     0.000 C 
BRANCH  18  19
ATOM     19  C   UNL     1     122.682 123.044 118.874  1.00  0.00     0.000 C 
BRANCH  19  20
ATOM     20  C   UNL     1     122.637 121.890 119.896  1.00  0.00     0.006 C 
BRANCH  20  21
ATOM     21  C   UNL     1     123.236 122.232 121.270  1.00  0.00     0.053 C 
BRANCH  21  22
ATOM     22  C   UNL     1     123.163 121.075 122.218  1.00  0.00     0.041 C 
ATOM     23  O   UNL     1     123.193 121.272 123.462  1.00  0.00    -0.550 OA
ATOM     24  O   UNL     1     123.021 119.782 121.731  1.00  0.00    -0.550 OA
ENDBRANCH  21  22
ENDBRANCH  20  21
ENDBRANCH  19  20
ENDBRANCH  18  19
ENDBRANCH  17  18
ENDBRANCH  16  17
ENDBRANCH  15  16
ENDBRANCH  14  15
ENDBRANCH  13  14
ENDBRANCH   1  13
TORSDOF 20
ENDMDL
