MODEL 1
REMARK VINA RESULT:    -4.475      0.000      0.000
REMARK INTER + INTRA:          -7.551
REMARK INTER:                  -6.829
REMARK INTRA:                  -0.722
REMARK UNBOUND:                -0.722
REMARK SMILES O=C([O-])CCCCCCCCC(=O)[O-]
REMARK SMILES IDX 7 1 6 2 5 3 4 4 2 5 1 6 3 7 8 8 9 9 10 10 11 11 12 12 13 13
REMARK SMILES IDX 14 14
REMARK H PARENT
REMARK Flexibility Score: inf
ROOT
ATOM      1  C   UNL     1     -26.864 -11.524  16.600  1.00  0.00     0.000 C 
ENDROOT
BRANCH   1   2
ATOM      2  C   UNL     1     -27.800 -10.546  17.331  1.00  0.00     0.000 C 
BRANCH   2   3
ATOM      3  C   UNL     1     -29.167 -11.170  17.656  1.00  0.00     0.006 C 
BRANCH   3   4
ATOM      4  C   UNL     1     -29.527 -12.330  16.718  1.00  0.00     0.053 C 
BRANCH   4   5
ATOM      5  C   UNL     1     -30.254 -13.401  17.469  1.00  0.00     0.041 C 
ATOM      6  O   UNL     1     -31.332 -13.136  18.064  1.00  0.00    -0.550 OA
ATOM      7  O   UNL     1     -29.771 -14.702  17.468  1.00  0.00    -0.550 OA
ENDBRANCH   4   5
ENDBRANCH   3   4
ENDBRANCH   2   3
ENDBRANCH   1   2
BRANCH   1   8
ATOM      8  C   UNL     1     -25.517 -11.716  17.321  1.00  0.00     0.000 C 
BRANCH   8   9
ATOM      9  C   UNL     1     -25.330 -13.083  18.008  1.00  0.00     0.000 C 
BRANCH   9  10
ATOM     10  C   UNL     1     -26.324 -14.145  17.508  1.00  0.00     0.006 C 
BRANCH  10  11
ATOM     11  C   UNL     1     -26.033 -15.533  18.094  1.00  0.00     0.053 C 
BRANCH  11  12
ATOM     12  C   UNL     1     -26.241 -16.618  17.083  1.00  0.00     0.041 C 
ATOM     13  O   UNL     1     -27.393 -17.085  16.880  1.00  0.00    -0.550 OA
ATOM     14  O   UNL     1     -25.158 -17.130  16.381  1.00  0.00    -0.550 OA
ENDBRANCH  11  12
ENDBRANCH  10  11
ENDBRANCH   9  10
ENDBRANCH   8   9
ENDBRANCH   1   8
TORSDOF 9
ENDMDL
MODEL 2
REMARK VINA RESULT:    -4.352      1.618      2.454
REMARK INTER + INTRA:          -7.363
REMARK INTER:                  -6.575
REMARK INTRA:                  -0.788
REMARK UNBOUND:                -0.722
REMARK SMILES O=C([O-])CCCCCCCCC(=O)[O-]
REMARK SMILES IDX 7 1 6 2 5 3 4 4 2 5 1 6 3 7 8 8 9 9 10 10 11 11 12 12 13 13
REMARK SMILES IDX 14 14
REMARK H PARENT
REMARK Flexibility Score: inf
ROOT
ATOM      1  C   UNL     1     -25.510 -12.407  17.050  1.00  0.00     0.000 C 
ENDROOT
BRANCH   1   2
ATOM      2  C   UNL     1     -26.696 -11.463  16.785  1.00  0.00     0.000 C 
BRANCH   2   3
ATOM      3  C   UNL     1     -27.777 -11.556  17.875  1.00  0.00     0.006 C 
BRANCH   3   4
ATOM      4  C   UNL     1     -29.177 -11.209  17.353  1.00  0.00     0.053 C 
BRANCH   4   5
ATOM      5  C   UNL     1     -29.937 -12.456  17.031  1.00  0.00     0.041 C 
ATOM      6  O   UNL     1     -29.722 -13.067  15.950  1.00  0.00    -0.550 OA
ATOM      7  O   UNL     1     -30.844 -12.975  17.945  1.00  0.00    -0.550 OA
ENDBRANCH   4   5
ENDBRANCH   3   4
ENDBRANCH   2   3
ENDBRANCH   1   2
BRANCH   1   8
ATOM      8  C   UNL     1     -25.832 -13.495  18.091  1.00  0.00     0.000 C 
BRANCH   8   9
ATOM      9  C   UNL     1     -26.170 -14.880  17.508  1.00  0.00     0.000 C 
BRANCH   9  10
ATOM     10  C   UNL     1     -27.612 -15.323  17.814  1.00  0.00     0.006 C 
BRANCH  10  11
ATOM     11  C   UNL     1     -27.980 -16.631  17.102  1.00  0.00     0.053 C 
BRANCH  11  12
ATOM     12  C   UNL     1     -29.232 -16.490  16.292  1.00  0.00     0.041 C 
ATOM     13  O   UNL     1     -29.202 -16.654  15.044  1.00  0.00    -0.550 OA
ATOM     14  O   UNL     1     -30.428 -16.157  16.914  1.00  0.00    -0.550 OA
ENDBRANCH  11  12
ENDBRANCH  10  11
ENDBRANCH   9  10
ENDBRANCH   8   9
ENDBRANCH   1   8
TORSDOF 9
ENDMDL
MODEL 3
REMARK VINA RESULT:    -4.321      1.112      4.341
REMARK INTER + INTRA:          -7.316
REMARK INTER:                  -6.434
REMARK INTRA:                  -0.882
REMARK UNBOUND:                -0.722
REMARK SMILES O=C([O-])CCCCCCCCC(=O)[O-]
REMARK SMILES IDX 7 1 6 2 5 3 4 4 2 5 1 6 3 7 8 8 9 9 10 10 11 11 12 12 13 13
REMARK SMILES IDX 14 14
REMARK H PARENT
REMARK Flexibility Score: inf
ROOT
ATOM      1  C   UNL     1     -25.605 -12.501  17.069  1.00  0.00     0.000 C 
ENDROOT
BRANCH   1   2
ATOM      2  C   UNL     1     -25.982 -13.555  18.124  1.00  0.00     0.000 C 
BRANCH   2   3
ATOM      3  C   UNL     1     -26.140 -14.961  17.521  1.00  0.00     0.006 C 
BRANCH   3   4
ATOM      4  C   UNL     1     -27.592 -15.456  17.542  1.00  0.00     0.053 C 
BRANCH   4   5
ATOM      5  C   UNL     1     -27.726 -16.710  16.737  1.00  0.00     0.041 C 
ATOM      6  O   UNL     1     -28.862 -17.100  16.356  1.00  0.00    -0.550 OA
ATOM      7  O   UNL     1     -26.594 -17.420  16.362  1.00  0.00    -0.550 OA
ENDBRANCH   4   5
ENDBRANCH   3   4
ENDBRANCH   2   3
ENDBRANCH   1   2
BRANCH   1   8
ATOM      8  C   UNL     1     -26.797 -11.619  16.652  1.00  0.00     0.000 C 
BRANCH   8   9
ATOM      9  C   UNL     1     -27.745 -11.215  17.797  1.00  0.00     0.000 C 
BRANCH   9  10
ATOM     10  C   UNL     1     -29.224 -11.496  17.477  1.00  0.00     0.006 C 
BRANCH  10  11
ATOM     11  C   UNL     1     -29.388 -12.489  16.319  1.00  0.00     0.053 C 
BRANCH  11  12
ATOM     12  C   UNL     1     -30.538 -13.421  16.544  1.00  0.00     0.041 C 
ATOM     13  O   UNL     1     -31.257 -13.306  17.571  1.00  0.00    -0.550 OA
ATOM     14  O   UNL     1     -30.803 -14.431  15.628  1.00  0.00    -0.550 OA
ENDBRANCH  11  12
ENDBRANCH  10  11
ENDBRANCH   9  10
ENDBRANCH   8   9
ENDBRANCH   1   8
TORSDOF 9
ENDMDL
MODEL 4
REMARK VINA RESULT:    -4.191      2.661      4.844
REMARK INTER + INTRA:          -7.117
REMARK INTER:                  -6.538
REMARK INTRA:                  -0.579
REMARK UNBOUND:                -0.722
REMARK SMILES O=C([O-])CCCCCCCCC(=O)[O-]
REMARK SMILES IDX 7 1 6 2 5 3 4 4 2 5 1 6 3 7 8 8 9 9 10 10 11 11 12 12 13 13
REMARK SMILES IDX 14 14
REMARK H PARENT
REMARK Flexibility Score: inf
ROOT
ATOM      1  C   UNL     1     -29.616 -12.171  16.670  1.00  0.00     0.000 C 
ENDROOT
BRANCH   1   2
ATOM      2  C   UNL     1     -29.173 -10.918  17.445  1.00  0.00     0.000 C 
BRANCH   2   3
ATOM      3  C   UNL     1     -27.644 -10.817  17.575  1.00  0.00     0.006 C 
BRANCH   3   4
ATOM      4  C   UNL     1     -26.903 -11.690  16.554  1.00  0.00     0.053 C 
BRANCH   4   5
ATOM      5  C   UNL     1     -25.917 -12.578  17.246  1.00  0.00     0.041 C 
ATOM      6  O   UNL     1     -24.777 -12.139  17.553  1.00  0.00    -0.550 OA
ATOM      7  O   UNL     1     -26.275 -13.871  17.600  1.00  0.00    -0.550 OA
ENDBRANCH   4   5
ENDBRANCH   3   4
ENDBRANCH   2   3
ENDBRANCH   1   2
BRANCH   1   8
ATOM      8  C   UNL     1     -30.072 -13.316  17.595  1.00  0.00     0.000 C 
BRANCH   8   9
ATOM      9  C   UNL     1     -31.583 -13.614  17.573  1.00  0.00     0.000 C 
BRANCH   9  10
ATOM     10  C   UNL     1     -31.908 -15.021  17.042  1.00  0.00     0.006 C 
BRANCH  10  11
ATOM     11  C   UNL     1     -32.234 -15.014  15.542  1.00  0.00     0.053 C 
BRANCH  11  12
ATOM     12  C   UNL     1     -31.207 -15.760  14.747  1.00  0.00     0.041 C 
ATOM     13  O   UNL     1     -30.137 -15.192  14.401  1.00  0.00    -0.550 OA
ATOM     14  O   UNL     1     -31.441 -17.075  14.370  1.00  0.00    -0.550 OA
ENDBRANCH  11  12
ENDBRANCH  10  11
ENDBRANCH   9  10
ENDBRANCH   8   9
ENDBRANCH   1   8
TORSDOF 9
ENDMDL
MODEL 5
REMARK VINA RESULT:    -4.142      2.269      4.338
REMARK INTER + INTRA:          -7.044
REMARK INTER:                  -6.212
REMARK INTRA:                  -0.831
REMARK UNBOUND:                -0.722
REMARK SMILES O=C([O-])CCCCCCCCC(=O)[O-]
REMARK SMILES IDX 7 1 6 2 5 3 4 4 2 5 1 6 3 7 8 8 9 9 10 10 11 11 12 12 13 13
REMARK SMILES IDX 14 14
REMARK H PARENT
REMARK Flexibility Score: inf
ROOT
ATOM      1  C   UNL     1     -25.980 -15.237  17.396  1.00  0.00     0.000 C 
ENDROOT
BRANCH   1   2
ATOM      2  C   UNL     1     -27.250 -16.106  17.418  1.00  0.00     0.000 C 
BRANCH   2   3
ATOM      3  C   UNL     1     -28.521 -15.283  17.686  1.00  0.00     0.006 C 
BRANCH   3   4
ATOM      4  C   UNL     1     -29.461 -15.232  16.475  1.00  0.00     0.053 C 
BRANCH   4   5
ATOM      5  C   UNL     1     -30.822 -15.727  16.851  1.00  0.00     0.041 C 
ATOM      6  O   UNL     1     -31.604 -14.991  17.510  1.00  0.00    -0.550 OA
ATOM      7  O   UNL     1     -31.248 -16.978  16.428  1.00  0.00    -0.550 OA
ENDBRANCH   4   5
ENDBRANCH   3   4
ENDBRANCH   2   3
ENDBRANCH   1   2
BRANCH   1   8
ATOM      8  C   UNL     1     -26.172 -13.878  18.094  1.00  0.00     0.000 C 
BRANCH   8   9
ATOM      9  C   UNL     1     -25.478 -12.685  17.409  1.00  0.00     0.000 C 
BRANCH   9  10
ATOM     10  C   UNL     1     -26.408 -11.472  17.234  1.00  0.00     0.006 C 
BRANCH  10  11
ATOM     11  C   UNL     1     -27.752 -11.858  16.604  1.00  0.00     0.053 C 
BRANCH  11  12
ATOM     12  C   UNL     1     -28.905 -11.228  17.323  1.00  0.00     0.041 C 
ATOM     13  O   UNL     1     -28.873 -10.005  17.624  1.00  0.00    -0.550 OA
ATOM     14  O   UNL     1     -30.006 -11.996  17.680  1.00  0.00    -0.550 OA
ENDBRANCH  11  12
ENDBRANCH  10  11
ENDBRANCH   9  10
ENDBRANCH   8   9
ENDBRANCH   1   8
TORSDOF 9
ENDMDL
MODEL 6
REMARK VINA RESULT:    -4.112      1.794      2.461
REMARK INTER + INTRA:          -6.996
REMARK INTER:                  -6.281
REMARK INTRA:                  -0.716
REMARK UNBOUND:                -0.722
REMARK SMILES O=C([O-])CCCCCCCCC(=O)[O-]
REMARK SMILES IDX 7 1 6 2 5 3 4 4 2 5 1 6 3 7 8 8 9 9 10 10 11 11 12 12 13 13
REMARK SMILES IDX 14 14
REMARK H PARENT
REMARK Flexibility Score: inf
ROOT
ATOM      1  C   UNL     1     -28.962 -11.251  17.116  1.00  0.00     0.000 C 
ENDROOT
BRANCH   1   2
ATOM      2  C   UNL     1     -29.957 -12.400  17.357  1.00  0.00     0.000 C 
BRANCH   2   3
ATOM      3  C   UNL     1     -29.961 -13.425  16.210  1.00  0.00     0.006 C 
BRANCH   3   4
ATOM      4  C   UNL     1     -31.301 -14.162  16.078  1.00  0.00     0.053 C 
BRANCH   4   5
ATOM      5  C   UNL     1     -31.135 -15.399  15.253  1.00  0.00     0.041 C 
ATOM      6  O   UNL     1     -30.393 -15.386  14.235  1.00  0.00    -0.550 OA
ATOM      7  O   UNL     1     -31.757 -16.579  15.637  1.00  0.00    -0.550 OA
ENDBRANCH   4   5
ENDBRANCH   3   4
ENDBRANCH   2   3
ENDBRANCH   1   2
BRANCH   1   8
ATOM      8  C   UNL     1     -27.600 -11.486  17.796  1.00  0.00     0.000 C 
BRANCH   8   9
ATOM      9  C   UNL     1     -26.500 -12.054  16.879  1.00  0.00     0.000 C 
BRANCH   9  10
ATOM     10  C   UNL     1     -25.806 -13.292  17.473  1.00  0.00     0.006 C 
BRANCH  10  11
ATOM     11  C   UNL     1     -26.803 -14.259  18.125  1.00  0.00     0.053 C 
BRANCH  11  12
ATOM     12  C   UNL     1     -26.877 -15.561  17.389  1.00  0.00     0.041 C 
ATOM     13  O   UNL     1     -27.994 -16.062  17.094  1.00  0.00    -0.550 OA
ATOM     14  O   UNL     1     -25.710 -16.234  17.048  1.00  0.00    -0.550 OA
ENDBRANCH  11  12
ENDBRANCH  10  11
ENDBRANCH   9  10
ENDBRANCH   8   9
ENDBRANCH   1   8
TORSDOF 9
ENDMDL
MODEL 7
REMARK VINA RESULT:    -4.050      2.887      5.333
REMARK INTER + INTRA:          -6.902
REMARK INTER:                  -6.302
REMARK INTRA:                  -0.600
REMARK UNBOUND:                -0.722
REMARK SMILES O=C([O-])CCCCCCCCC(=O)[O-]
REMARK SMILES IDX 7 1 6 2 5 3 4 4 2 5 1 6 3 7 8 8 9 9 10 10 11 11 12 12 13 13
REMARK SMILES IDX 14 14
REMARK H PARENT
REMARK Flexibility Score: inf
ROOT
ATOM      1  C   UNL     1     -29.819 -12.587  16.466  1.00  0.00     0.000 C 
ENDROOT
BRANCH   1   2
ATOM      2  C   UNL     1     -29.266 -11.302  17.106  1.00  0.00     0.000 C 
BRANCH   2   3
ATOM      3  C   UNL     1     -27.961 -11.545  17.882  1.00  0.00     0.006 C 
BRANCH   3   4
ATOM      4  C   UNL     1     -26.710 -11.252  17.043  1.00  0.00     0.053 C 
BRANCH   4   5
ATOM      5  C   UNL     1     -25.689 -12.330  17.236  1.00  0.00     0.041 C 
ATOM      6  O   UNL     1     -24.471 -12.034  17.355  1.00  0.00    -0.550 OA
ATOM      7  O   UNL     1     -26.089 -13.655  17.339  1.00  0.00    -0.550 OA
ENDBRANCH   4   5
ENDBRANCH   3   4
ENDBRANCH   2   3
ENDBRANCH   1   2
BRANCH   1   8
ATOM      8  C   UNL     1     -29.522 -13.847  17.300  1.00  0.00     0.000 C 
BRANCH   8   9
ATOM      9  C   UNL     1     -29.811 -15.184  16.592  1.00  0.00     0.000 C 
BRANCH   9  10
ATOM     10  C   UNL     1     -30.569 -15.008  15.265  1.00  0.00     0.006 C 
BRANCH  10  11
ATOM     11  C   UNL     1     -31.815 -15.900  15.186  1.00  0.00     0.053 C 
BRANCH  11  12
ATOM     12  C   UNL     1     -33.075 -15.113  15.380  1.00  0.00     0.041 C 
ATOM     13  O   UNL     1     -34.194 -15.689  15.346  1.00  0.00    -0.550 OA
ATOM     14  O   UNL     1     -33.013 -13.740  15.578  1.00  0.00    -0.550 OA
ENDBRANCH  11  12
ENDBRANCH  10  11
ENDBRANCH   9  10
ENDBRANCH   8   9
ENDBRANCH   1   8
TORSDOF 9
ENDMDL
MODEL 8
REMARK VINA RESULT:    -4.032      2.919      4.616
REMARK INTER + INTRA:          -6.875
REMARK INTER:                  -6.224
REMARK INTRA:                  -0.650
REMARK UNBOUND:                -0.722
REMARK SMILES O=C([O-])CCCCCCCCC(=O)[O-]
REMARK SMILES IDX 7 1 6 2 5 3 4 4 2 5 1 6 3 7 8 8 9 9 10 10 11 11 12 12 13 13
REMARK SMILES IDX 14 14
REMARK H PARENT
REMARK Flexibility Score: inf
ROOT
ATOM      1  C   UNL     1     -30.314 -14.409  17.221  1.00  0.00     0.000 C 
ENDROOT
BRANCH   1   2
ATOM      2  C   UNL     1     -30.050 -14.619  15.720  1.00  0.00     0.000 C 
BRANCH   2   3
ATOM      3  C   UNL     1     -31.237 -15.283  15.002  1.00  0.00     0.006 C 
BRANCH   3   4
ATOM      4  C   UNL     1     -32.415 -15.569  15.942  1.00  0.00     0.053 C 
BRANCH   4   5
ATOM      5  C   UNL     1     -33.619 -14.788  15.521  1.00  0.00     0.041 C 
ATOM      6  O   UNL     1     -33.519 -13.558  15.267  1.00  0.00    -0.550 OA
ATOM      7  O   UNL     1     -34.840 -15.427  15.355  1.00  0.00    -0.550 OA
ENDBRANCH   4   5
ENDBRANCH   3   4
ENDBRANCH   2   3
ENDBRANCH   1   2
BRANCH   1   8
ATOM      8  C   UNL     1     -30.521 -12.928  17.592  1.00  0.00     0.000 C 
BRANCH   8   9
ATOM      9  C   UNL     1     -29.646 -11.929  16.811  1.00  0.00     0.000 C 
BRANCH   9  10
ATOM     10  C   UNL     1     -28.502 -11.346  17.659  1.00  0.00     0.006 C 
BRANCH  10  11
ATOM     11  C   UNL     1     -27.175 -11.302  16.890  1.00  0.00     0.053 C 
BRANCH  11  12
ATOM     12  C   UNL     1     -26.254 -12.407  17.307  1.00  0.00     0.041 C 
ATOM     13  O   UNL     1     -25.012 -12.303  17.121  1.00  0.00    -0.550 OA
ATOM     14  O   UNL     1     -26.769 -13.561  17.882  1.00  0.00    -0.550 OA
ENDBRANCH  11  12
ENDBRANCH  10  11
ENDBRANCH   9  10
ENDBRANCH   8   9
ENDBRANCH   1   8
TORSDOF 9
ENDMDL
MODEL 9
REMARK VINA RESULT:    -3.987      3.892      6.209
REMARK INTER + INTRA:          -6.807
REMARK INTER:                  -6.397
REMARK INTRA:                  -0.409
REMARK UNBOUND:                -0.722
REMARK SMILES O=C([O-])CCCCCCCCC(=O)[O-]
REMARK SMILES IDX 7 1 6 2 5 3 4 4 2 5 1 6 3 7 8 8 9 9 10 10 11 11 12 12 13 13
REMARK SMILES IDX 14 14
REMARK H PARENT
REMARK Flexibility Score: inf
ROOT
ATOM      1  C   UNL     1     -30.152 -15.164  14.854  1.00  0.00     0.000 C 
ENDROOT
BRANCH   1   2
ATOM      2  C   UNL     1     -31.097 -16.371  14.719  1.00  0.00     0.000 C 
BRANCH   2   3
ATOM      3  C   UNL     1     -30.627 -17.369  13.648  1.00  0.00     0.006 C 
BRANCH   3   4
ATOM      4  C   UNL     1     -29.163 -17.790  13.831  1.00  0.00     0.053 C 
BRANCH   4   5
ATOM      5  C   UNL     1     -28.455 -17.800  12.513  1.00  0.00     0.041 C 
ATOM      6  O   UNL     1     -27.905 -18.854  12.097  1.00  0.00    -0.550 OA
ATOM      7  O   UNL     1     -28.449 -16.662  11.718  1.00  0.00    -0.550 OA
ENDBRANCH   4   5
ENDBRANCH   3   4
ENDBRANCH   2   3
ENDBRANCH   1   2
BRANCH   1   8
ATOM      8  C   UNL     1     -29.986 -14.694  16.311  1.00  0.00     0.000 C 
BRANCH   8   9
ATOM      9  C   UNL     1     -30.678 -13.360  16.651  1.00  0.00     0.000 C 
BRANCH   9  10
ATOM     10  C   UNL     1     -29.718 -12.158  16.604  1.00  0.00     0.006 C 
BRANCH  10  11
ATOM     11  C   UNL     1     -28.296 -12.534  17.040  1.00  0.00     0.053 C 
BRANCH  11  12
ATOM     12  C   UNL     1     -27.362 -11.366  16.957  1.00  0.00     0.041 C 
ATOM     13  O   UNL     1     -27.745 -10.221  17.314  1.00  0.00    -0.550 OA
ATOM     14  O   UNL     1     -26.075 -11.539  16.466  1.00  0.00    -0.550 OA
ENDBRANCH  11  12
ENDBRANCH  10  11
ENDBRANCH   9  10
ENDBRANCH   8   9
ENDBRANCH   1   8
TORSDOF 9
ENDMDL
