MODEL 1
REMARK VINA RESULT:    -4.948      0.000      0.000
REMARK INTER + INTRA:          -5.724
REMARK INTER:                  -5.671
REMARK INTRA:                  -0.053
REMARK UNBOUND:                -0.053
REMARK SMILES O=C([O-])c1cc(O)c(O)c(O)c1
REMARK SMILES IDX 4 1 5 2 12 3 6 4 10 5 8 6 2 7 1 8 3 9 7 10 11 12 9 14
REMARK H PARENT 7 11 11 13 9 15
REMARK Flexibility Score: inf
ROOT
ATOM      1  C   UNL     1       1.320   7.127  10.181  1.00  0.00     0.005 A 
ATOM      2  C   UNL     1       1.645   6.554   8.939  1.00  0.00     0.060 A 
ATOM      3  C   UNL     1      -0.031   7.336  10.502  1.00  0.00     0.060 A 
ATOM      4  C   UNL     1       0.639   6.195   8.033  1.00  0.00     0.162 A 
ATOM      5  C   UNL     1      -1.043   6.980   9.602  1.00  0.00     0.162 A 
ATOM      6  C   UNL     1      -0.711   6.407   8.363  1.00  0.00     0.200 A 
ENDROOT
BRANCH   1   7
ATOM      7  C   UNL     1       2.382   7.508  11.139  1.00  0.00     0.072 C 
ATOM      8  O   UNL     1       3.593   7.493  10.792  1.00  0.00    -0.545 OA
ATOM      9  O   UNL     1       2.058   7.887  12.436  1.00  0.00    -0.545 OA
ENDBRANCH   1   7
BRANCH   4  10
ATOM     10  O   UNL     1       0.975   5.628   6.804  1.00  0.00    -0.504 OA
ATOM     11  H   UNL     1       1.936   5.416   6.562  1.00  0.00     0.293 HD
ENDBRANCH   4  10
BRANCH   5  12
ATOM     12  O   UNL     1      -2.373   7.203   9.959  1.00  0.00    -0.504 OA
ATOM     13  H   UNL     1      -3.077   7.463   9.279  1.00  0.00     0.293 HD
ENDBRANCH   5  12
BRANCH   6  14
ATOM     14  O   UNL     1      -1.726   6.056   7.472  1.00  0.00    -0.502 OA
ATOM     15  H   UNL     1      -2.685   5.931   7.770  1.00  0.00     0.293 HD
ENDBRANCH   6  14
TORSDOF 4
ENDMDL
MODEL 2
REMARK VINA RESULT:    -4.937      0.506      2.558
REMARK INTER + INTRA:          -5.711
REMARK INTER:                  -5.664
REMARK INTRA:                  -0.047
REMARK UNBOUND:                -0.053
REMARK SMILES O=C([O-])c1cc(O)c(O)c(O)c1
REMARK SMILES IDX 4 1 5 2 12 3 6 4 10 5 8 6 2 7 1 8 3 9 7 10 11 12 9 14
REMARK H PARENT 7 11 11 13 9 15
REMARK Flexibility Score: inf
ROOT
ATOM      1  C   UNL     1       1.330   7.117  10.094  1.00  0.00     0.005 A 
ATOM      2  C   UNL     1      -0.013   7.331  10.449  1.00  0.00     0.060 A 
ATOM      3  C   UNL     1       1.621   6.536   8.848  1.00  0.00     0.060 A 
ATOM      4  C   UNL     1      -1.049   6.972   9.577  1.00  0.00     0.162 A 
ATOM      5  C   UNL     1       0.592   6.174   7.971  1.00  0.00     0.162 A 
ATOM      6  C   UNL     1      -0.748   6.391   8.333  1.00  0.00     0.200 A 
ENDROOT
BRANCH   1   7
ATOM      7  C   UNL     1       2.425   7.496  11.014  1.00  0.00     0.072 C 
ATOM      8  O   UNL     1       2.504   8.668  11.469  1.00  0.00    -0.545 OA
ATOM      9  O   UNL     1       3.384   6.563  11.390  1.00  0.00    -0.545 OA
ENDBRANCH   1   7
BRANCH   4  10
ATOM     10  O   UNL     1      -2.376   7.189   9.942  1.00  0.00    -0.504 OA
ATOM     11  H   UNL     1      -2.626   7.839  10.679  1.00  0.00     0.293 HD
ENDBRANCH   4  10
BRANCH   5  12
ATOM     12  O   UNL     1       0.923   5.600   6.744  1.00  0.00    -0.504 OA
ATOM     13  H   UNL     1       1.027   6.153   5.902  1.00  0.00     0.293 HD
ENDBRANCH   5  12
BRANCH   6  14
ATOM     14  O   UNL     1      -1.767   6.026   7.452  1.00  0.00    -0.502 OA
ATOM     15  H   UNL     1      -2.743   6.213   7.649  1.00  0.00     0.293 HD
ENDBRANCH   6  14
TORSDOF 4
ENDMDL
MODEL 3
REMARK VINA RESULT:    -4.495      1.111      1.701
REMARK INTER + INTRA:          -5.205
REMARK INTER:                  -5.152
REMARK INTRA:                  -0.052
REMARK UNBOUND:                -0.053
REMARK SMILES O=C([O-])c1cc(O)c(O)c(O)c1
REMARK SMILES IDX 4 1 5 2 12 3 6 4 10 5 8 6 2 7 1 8 3 9 7 10 11 12 9 14
REMARK H PARENT 7 11 11 13 9 15
REMARK Flexibility Score: inf
ROOT
ATOM      1  C   UNL     1       1.929   6.967  10.396  1.00  0.00     0.005 A 
ATOM      2  C   UNL     1       2.713   6.165   9.549  1.00  0.00     0.060 A 
ATOM      3  C   UNL     1       0.612   7.275  10.017  1.00  0.00     0.060 A 
ATOM      4  C   UNL     1       2.192   5.678   8.344  1.00  0.00     0.162 A 
ATOM      5  C   UNL     1       0.084   6.792   8.814  1.00  0.00     0.162 A 
ATOM      6  C   UNL     1       0.873   5.990   7.972  1.00  0.00     0.200 A 
ENDROOT
BRANCH   1   7
ATOM      7  C   UNL     1       2.478   7.483  11.670  1.00  0.00     0.072 C 
ATOM      8  O   UNL     1       1.716   7.971  12.546  1.00  0.00    -0.545 OA
ATOM      9  O   UNL     1       3.845   7.438  11.917  1.00  0.00    -0.545 OA
ENDBRANCH   1   7
BRANCH   4  10
ATOM     10  O   UNL     1       2.980   4.884   7.512  1.00  0.00    -0.504 OA
ATOM     11  H   UNL     1       2.570   4.261   6.826  1.00  0.00     0.293 HD
ENDBRANCH   4  10
BRANCH   5  12
ATOM     12  O   UNL     1      -1.229   7.120   8.474  1.00  0.00    -0.504 OA
ATOM     13  H   UNL     1      -1.962   6.423   8.426  1.00  0.00     0.293 HD
ENDBRANCH   5  12
BRANCH   6  14
ATOM     14  O   UNL     1       0.338   5.514   6.774  1.00  0.00    -0.502 OA
ATOM     15  H   UNL     1      -0.179   6.110   6.139  1.00  0.00     0.293 HD
ENDBRANCH   6  14
TORSDOF 4
ENDMDL
MODEL 4
REMARK VINA RESULT:    -4.149      1.912      2.268
REMARK INTER + INTRA:          -4.808
REMARK INTER:                  -4.756
REMARK INTRA:                  -0.052
REMARK UNBOUND:                -0.053
REMARK SMILES O=C([O-])c1cc(O)c(O)c(O)c1
REMARK SMILES IDX 4 1 5 2 12 3 6 4 10 5 8 6 2 7 1 8 3 9 7 10 11 12 9 14
REMARK H PARENT 7 11 11 13 9 15
REMARK Flexibility Score: inf
ROOT
ATOM      1  C   UNL     1       2.450   6.347   9.773  1.00  0.00     0.005 A 
ATOM      2  C   UNL     1       1.987   5.646   8.647  1.00  0.00     0.060 A 
ATOM      3  C   UNL     1       1.963   7.642  10.017  1.00  0.00     0.060 A 
ATOM      4  C   UNL     1       1.054   6.227   7.777  1.00  0.00     0.162 A 
ATOM      5  C   UNL     1       1.032   8.230   9.154  1.00  0.00     0.162 A 
ATOM      6  C   UNL     1       0.573   7.523   8.030  1.00  0.00     0.200 A 
ENDROOT
BRANCH   1   7
ATOM      7  C   UNL     1       3.435   5.735  10.692  1.00  0.00     0.072 C 
ATOM      8  O   UNL     1       4.088   6.448  11.499  1.00  0.00    -0.545 OA
ATOM      9  O   UNL     1       3.656   4.363  10.677  1.00  0.00    -0.545 OA
ENDBRANCH   1   7
BRANCH   4  10
ATOM     10  O   UNL     1       0.603   5.521   6.663  1.00  0.00    -0.504 OA
ATOM     11  H   UNL     1      -0.306   5.699   6.253  1.00  0.00     0.293 HD
ENDBRANCH   4  10
BRANCH   5  12
ATOM     12  O   UNL     1       0.573   9.518   9.432  1.00  0.00    -0.504 OA
ATOM     13  H   UNL     1      -0.413   9.730   9.524  1.00  0.00     0.293 HD
ENDBRANCH   5  12
BRANCH   6  14
ATOM     14  O   UNL     1      -0.356   8.117   7.174  1.00  0.00    -0.502 OA
ATOM     15  H   UNL     1      -0.569   7.735   6.261  1.00  0.00     0.293 HD
ENDBRANCH   6  14
TORSDOF 4
ENDMDL
MODEL 5
REMARK VINA RESULT:    -4.131      1.904      2.923
REMARK INTER + INTRA:          -4.787
REMARK INTER:                  -4.734
REMARK INTRA:                  -0.053
REMARK UNBOUND:                -0.053
REMARK SMILES O=C([O-])c1cc(O)c(O)c(O)c1
REMARK SMILES IDX 4 1 5 2 12 3 6 4 10 5 8 6 2 7 1 8 3 9 7 10 11 12 9 14
REMARK H PARENT 7 11 11 13 9 15
REMARK Flexibility Score: inf
ROOT
ATOM      1  C   UNL     1       2.427   6.278   9.763  1.00  0.00     0.005 A 
ATOM      2  C   UNL     1       1.950   7.572  10.034  1.00  0.00     0.060 A 
ATOM      3  C   UNL     1       1.951   5.600   8.629  1.00  0.00     0.060 A 
ATOM      4  C   UNL     1       1.014   8.180   9.187  1.00  0.00     0.162 A 
ATOM      5  C   UNL     1       1.016   6.200   7.778  1.00  0.00     0.162 A 
ATOM      6  C   UNL     1       0.544   7.494   8.054  1.00  0.00     0.200 A 
ENDROOT
BRANCH   1   7
ATOM      7  C   UNL     1       3.415   5.635  10.657  1.00  0.00     0.072 C 
ATOM      8  O   UNL     1       3.772   4.442  10.466  1.00  0.00    -0.545 OA
ATOM      9  O   UNL     1       3.963   6.338  11.724  1.00  0.00    -0.545 OA
ENDBRANCH   1   7
BRANCH   4  10
ATOM     10  O   UNL     1       0.548   9.464   9.468  1.00  0.00    -0.504 OA
ATOM     11  H   UNL     1       0.218   9.720  10.392  1.00  0.00     0.293 HD
ENDBRANCH   4  10
BRANCH   5  12
ATOM     12  O   UNL     1       0.569   5.493   6.661  1.00  0.00    -0.504 OA
ATOM     13  H   UNL     1       1.104   5.450   5.802  1.00  0.00     0.293 HD
ENDBRANCH   5  12
BRANCH   6  14
ATOM     14  O   UNL     1      -0.389   8.084   7.200  1.00  0.00    -0.502 OA
ATOM     15  H   UNL     1      -0.208   8.216   6.212  1.00  0.00     0.293 HD
ENDBRANCH   6  14
TORSDOF 4
ENDMDL
MODEL 6
REMARK VINA RESULT:    -4.030     15.209     15.886
REMARK INTER + INTRA:          -4.671
REMARK INTER:                  -4.618
REMARK INTRA:                  -0.053
REMARK UNBOUND:                -0.053
REMARK SMILES O=C([O-])c1cc(O)c(O)c(O)c1
REMARK SMILES IDX 4 1 5 2 12 3 6 4 10 5 8 6 2 7 1 8 3 9 7 10 11 12 9 14
REMARK H PARENT 7 11 11 13 9 15
REMARK Flexibility Score: inf
ROOT
ATOM      1  C   UNL     1      -4.855  -7.994  10.038  1.00  0.00     0.005 A 
ATOM      2  C   UNL     1      -4.787  -7.621  11.391  1.00  0.00     0.060 A 
ATOM      3  C   UNL     1      -5.905  -7.499   9.246  1.00  0.00     0.060 A 
ATOM      4  C   UNL     1      -5.749  -6.766  11.946  1.00  0.00     0.162 A 
ATOM      5  C   UNL     1      -6.870  -6.646   9.792  1.00  0.00     0.162 A 
ATOM      6  C   UNL     1      -6.796  -6.275  11.146  1.00  0.00     0.200 A 
ENDROOT
BRANCH   1   7
ATOM      7  C   UNL     1      -3.840  -8.897   9.452  1.00  0.00     0.072 C 
ATOM      8  O   UNL     1      -3.877  -9.195   8.228  1.00  0.00    -0.545 OA
ATOM      9  O   UNL     1      -2.829  -9.430  10.243  1.00  0.00    -0.545 OA
ENDBRANCH   1   7
BRANCH   4  10
ATOM     10  O   UNL     1      -5.671  -6.404  13.290  1.00  0.00    -0.504 OA
ATOM     11  H   UNL     1      -6.455  -6.526  13.920  1.00  0.00     0.293 HD
ENDBRANCH   4  10
BRANCH   5  12
ATOM     12  O   UNL     1      -7.896  -6.175   8.972  1.00  0.00    -0.504 OA
ATOM     13  H   UNL     1      -8.413  -6.786   8.352  1.00  0.00     0.293 HD
ENDBRANCH   5  12
BRANCH   6  14
ATOM     14  O   UNL     1      -7.763  -5.424  11.682  1.00  0.00    -0.502 OA
ATOM     15  H   UNL     1      -7.520  -4.605  12.225  1.00  0.00     0.293 HD
ENDBRANCH   6  14
TORSDOF 4
ENDMDL
MODEL 7
REMARK VINA RESULT:    -4.029     15.219     15.849
REMARK INTER + INTRA:          -4.670
REMARK INTER:                  -4.617
REMARK INTRA:                  -0.053
REMARK UNBOUND:                -0.053
REMARK SMILES O=C([O-])c1cc(O)c(O)c(O)c1
REMARK SMILES IDX 4 1 5 2 12 3 6 4 10 5 8 6 2 7 1 8 3 9 7 10 11 12 9 14
REMARK H PARENT 7 11 11 13 9 15
REMARK Flexibility Score: inf
ROOT
ATOM      1  C   UNL     1      -4.876  -8.001  10.016  1.00  0.00     0.005 A 
ATOM      2  C   UNL     1      -5.913  -7.491   9.217  1.00  0.00     0.060 A 
ATOM      3  C   UNL     1      -4.818  -7.638  11.372  1.00  0.00     0.060 A 
ATOM      4  C   UNL     1      -6.878  -6.633   9.761  1.00  0.00     0.162 A 
ATOM      5  C   UNL     1      -5.777  -6.781  11.923  1.00  0.00     0.162 A 
ATOM      6  C   UNL     1      -6.812  -6.275  11.118  1.00  0.00     0.200 A 
ENDROOT
BRANCH   1   7
ATOM      7  C   UNL     1      -3.856  -8.907   9.443  1.00  0.00     0.072 C 
ATOM      8  O   UNL     1      -3.889  -9.220   8.223  1.00  0.00    -0.545 OA
ATOM      9  O   UNL     1      -2.846  -9.428  10.243  1.00  0.00    -0.545 OA
ENDBRANCH   1   7
BRANCH   4  10
ATOM     10  O   UNL     1      -7.901  -6.133   8.957  1.00  0.00    -0.504 OA
ATOM     11  H   UNL     1      -8.449  -6.739   8.356  1.00  0.00     0.293 HD
ENDBRANCH   4  10
BRANCH   5  12
ATOM     12  O   UNL     1      -5.685  -6.444  13.274  1.00  0.00    -0.504 OA
ATOM     13  H   UNL     1      -5.771  -7.136  14.008  1.00  0.00     0.293 HD
ENDBRANCH   5  12
BRANCH   6  14
ATOM     14  O   UNL     1      -7.764  -5.420  11.677  1.00  0.00    -0.502 OA
ATOM     15  H   UNL     1      -8.120  -4.612  11.181  1.00  0.00     0.293 HD
ENDBRANCH   6  14
TORSDOF 4
ENDMDL
MODEL 8
REMARK VINA RESULT:    -3.988     15.270     16.374
REMARK INTER + INTRA:          -4.624
REMARK INTER:                  -4.571
REMARK INTRA:                  -0.053
REMARK UNBOUND:                -0.053
REMARK SMILES O=C([O-])c1cc(O)c(O)c(O)c1
REMARK SMILES IDX 4 1 5 2 12 3 6 4 10 5 8 6 2 7 1 8 3 9 7 10 11 12 9 14
REMARK H PARENT 7 11 11 13 9 15
REMARK Flexibility Score: inf
ROOT
ATOM      1  C   UNL     1      -6.078  -7.878   9.365  1.00  0.00     0.005 A 
ATOM      2  C   UNL     1      -5.138  -8.492  10.210  1.00  0.00     0.060 A 
ATOM      3  C   UNL     1      -6.874  -6.838   9.873  1.00  0.00     0.060 A 
ATOM      4  C   UNL     1      -4.994  -8.076  11.541  1.00  0.00     0.162 A 
ATOM      5  C   UNL     1      -6.736  -6.416  11.200  1.00  0.00     0.162 A 
ATOM      6  C   UNL     1      -5.794  -7.034  12.040  1.00  0.00     0.200 A 
ENDROOT
BRANCH   1   7
ATOM      7  C   UNL     1      -6.232  -8.318   7.961  1.00  0.00     0.072 C 
ATOM      8  O   UNL     1      -7.126  -7.819   7.227  1.00  0.00    -0.545 OA
ATOM      9  O   UNL     1      -5.391  -9.289   7.430  1.00  0.00    -0.545 OA
ENDBRANCH   1   7
BRANCH   4  10
ATOM     10  O   UNL     1      -4.059  -8.694  12.369  1.00  0.00    -0.504 OA
ATOM     11  H   UNL     1      -3.491  -9.468  12.045  1.00  0.00     0.293 HD
ENDBRANCH   4  10
BRANCH   5  12
ATOM     12  O   UNL     1      -7.545  -5.379  11.666  1.00  0.00    -0.504 OA
ATOM     13  H   UNL     1      -7.164  -4.570  12.141  1.00  0.00     0.293 HD
ENDBRANCH   5  12
BRANCH   6  14
ATOM     14  O   UNL     1      -5.665  -6.606  13.362  1.00  0.00    -0.502 OA
ATOM     15  H   UNL     1      -5.369  -5.667  13.599  1.00  0.00     0.293 HD
ENDBRANCH   6  14
TORSDOF 4
ENDMDL
MODEL 9
REMARK VINA RESULT:    -3.931     15.082     15.956
REMARK INTER + INTRA:          -4.558
REMARK INTER:                  -4.507
REMARK INTRA:                  -0.052
REMARK UNBOUND:                -0.053
REMARK SMILES O=C([O-])c1cc(O)c(O)c(O)c1
REMARK SMILES IDX 4 1 5 2 12 3 6 4 10 5 8 6 2 7 1 8 3 9 7 10 11 12 9 14
REMARK H PARENT 7 11 11 13 9 15
REMARK Flexibility Score: inf
ROOT
ATOM      1  C   UNL     1      -6.498  -7.485  12.615  1.00  0.00     0.005 A 
ATOM      2  C   UNL     1      -5.633  -7.123  11.568  1.00  0.00     0.060 A 
ATOM      3  C   UNL     1      -7.845  -7.091  12.553  1.00  0.00     0.060 A 
ATOM      4  C   UNL     1      -6.103  -6.381  10.477  1.00  0.00     0.162 A 
ATOM      5  C   UNL     1      -8.323  -6.349  11.467  1.00  0.00     0.162 A 
ATOM      6  C   UNL     1      -7.452  -5.991  10.423  1.00  0.00     0.200 A 
ENDROOT
BRANCH   1   7
ATOM      7  C   UNL     1      -6.002  -8.269  13.768  1.00  0.00     0.072 C 
ATOM      8  O   UNL     1      -6.798  -8.944  14.474  1.00  0.00    -0.545 OA
ATOM      9  O   UNL     1      -4.650  -8.271  14.090  1.00  0.00    -0.545 OA
ENDBRANCH   1   7
BRANCH   4  10
ATOM     10  O   UNL     1      -5.234  -6.027   9.446  1.00  0.00    -0.504 OA
ATOM     11  H   UNL     1      -4.608  -6.703   9.023  1.00  0.00     0.293 HD
ENDBRANCH   4  10
BRANCH   5  12
ATOM     12  O   UNL     1      -9.667  -5.978  11.442  1.00  0.00    -0.504 OA
ATOM     13  H   UNL     1     -10.046  -5.372  10.725  1.00  0.00     0.293 HD
ENDBRANCH   5  12
BRANCH   6  14
ATOM     14  O   UNL     1      -7.938  -5.250   9.344  1.00  0.00    -0.502 OA
ATOM     15  H   UNL     1      -8.695  -5.583   8.759  1.00  0.00     0.293 HD
ENDBRANCH   6  14
TORSDOF 4
ENDMDL
