MODEL 1
REMARK VINA RESULT:    -3.220      0.000      0.000
REMARK INTER + INTRA:         -10.662
REMARK INTER:                  -6.985
REMARK INTRA:                  -3.678
REMARK UNBOUND:                -3.678
REMARK SMILES CCCCCCCCCCCCCCCCCCCCCC(=O)[O-]
REMARK SMILES IDX 12 1 11 2 10 3 9 4 8 5 7 6 6 7 5 8 4 9 3 10 2 11 1 12 13 13
REMARK SMILES IDX 14 14 15 15 16 16 17 17 18 18 19 19 20 20 21 21 22 22 23 23
REMARK SMILES IDX 24 24
REMARK H PARENT
REMARK Flexibility Score: inf
ROOT
ATOM      1  C   UNL     1      61.032  35.709  60.641  1.00  0.00     0.000 C 
ENDROOT
BRANCH   1   2
ATOM      2  C   UNL     1      62.096  36.789  60.373  1.00  0.00     0.000 C 
BRANCH   2   3
ATOM      3  C   UNL     1      63.074  37.044  61.538  1.00  0.00     0.000 C 
BRANCH   3   4
ATOM      4  C   UNL     1      64.563  37.108  61.143  1.00  0.00    -0.000 C 
BRANCH   4   5
ATOM      5  C   UNL     1      65.377  35.842  61.478  1.00  0.00    -0.000 C 
BRANCH   5   6
ATOM      6  C   UNL     1      64.588  34.521  61.387  1.00  0.00    -0.000 C 
BRANCH   6   7
ATOM      7  C   UNL     1      64.824  33.706  60.099  1.00  0.00    -0.000 C 
BRANCH   7   8
ATOM      8  C   UNL     1      64.946  34.541  58.813  1.00  0.00    -0.000 C 
BRANCH   8   9
ATOM      9  C   UNL     1      64.116  33.976  57.650  1.00  0.00    -0.000 C 
BRANCH   9  10
ATOM     10  C   UNL     1      63.875  32.470  57.831  1.00  0.00    -0.000 C 
BRANCH  10  11
ATOM     11  C   UNL     1      64.646  31.623  56.808  1.00  0.00    -0.003 C 
ATOM     12  C   UNL     1      65.978  31.106  57.354  1.00  0.00     0.004 C 
ENDBRANCH  10  11
ENDBRANCH   9  10
ENDBRANCH   8   9
ENDBRANCH   7   8
ENDBRANCH   6   7
ENDBRANCH   5   6
ENDBRANCH   4   5
ENDBRANCH   3   4
ENDBRANCH   2   3
ENDBRANCH   1   2
BRANCH   1  13
ATOM     13  C   UNL     1      61.099  34.543  59.644  1.00  0.00     0.000 C 
BRANCH  13  14
ATOM     14  C   UNL     1      61.250  33.206  60.380  1.00  0.00     0.000 C 
BRANCH  14  15
ATOM     15  C   UNL     1      60.579  32.065  59.601  1.00  0.00     0.000 C 
BRANCH  15  16
ATOM     16  C   UNL     1      60.291  30.831  60.476  1.00  0.00     0.000 C 
BRANCH  16  17
ATOM     17  C   UNL     1      61.053  30.791  61.814  1.00  0.00     0.000 C 
BRANCH  17  18
ATOM     18  C   UNL     1      62.225  29.793  61.808  1.00  0.00     0.000 C 
BRANCH  18  19
ATOM     19  C   UNL     1      63.524  30.430  61.265  1.00  0.00     0.000 C 
BRANCH  19  20
ATOM     20  C   UNL     1      64.215  29.589  60.180  1.00  0.00     0.006 C 
BRANCH  20  21
ATOM     21  C   UNL     1      63.544  28.228  59.962  1.00  0.00     0.053 C 
BRANCH  21  22
ATOM     22  C   UNL     1      62.840  28.197  58.643  1.00  0.00     0.041 C 
ATOM     23  O   UNL     1      62.429  29.266  58.118  1.00  0.00    -0.550 OA
ATOM     24  O   UNL     1      62.615  26.985  58.003  1.00  0.00    -0.550 OA
ENDBRANCH  21  22
ENDBRANCH  20  21
ENDBRANCH  19  20
ENDBRANCH  18  19
ENDBRANCH  17  18
ENDBRANCH  16  17
ENDBRANCH  15  16
ENDBRANCH  14  15
ENDBRANCH  13  14
ENDBRANCH   1  13
TORSDOF 20
ENDMDL
MODEL 2
REMARK VINA RESULT:    -3.129      2.451      5.306
REMARK INTER + INTRA:         -10.466
REMARK INTER:                  -6.848
REMARK INTRA:                  -3.617
REMARK UNBOUND:                -3.678
REMARK SMILES CCCCCCCCCCCCCCCCCCCCCC(=O)[O-]
REMARK SMILES IDX 12 1 11 2 10 3 9 4 8 5 7 6 6 7 5 8 4 9 3 10 2 11 1 12 13 13
REMARK SMILES IDX 14 14 15 15 16 16 17 17 18 18 19 19 20 20 21 21 22 22 23 23
REMARK SMILES IDX 24 24
REMARK H PARENT
REMARK Flexibility Score: inf
ROOT
ATOM      1  C   UNL     1      62.789  29.996  61.626  1.00  0.00     0.000 C 
ENDROOT
BRANCH   1   2
ATOM      2  C   UNL     1      61.476  30.749  61.905  1.00  0.00     0.000 C 
BRANCH   2   3
ATOM      3  C   UNL     1      60.355  30.508  60.875  1.00  0.00     0.000 C 
BRANCH   3   4
ATOM      4  C   UNL     1      60.767  29.687  59.636  1.00  0.00    -0.000 C 
BRANCH   4   5
ATOM      5  C   UNL     1      60.937  30.509  58.342  1.00  0.00    -0.000 C 
BRANCH   5   6
ATOM      6  C   UNL     1      60.827  32.035  58.523  1.00  0.00    -0.000 C 
BRANCH   6   7
ATOM      7  C   UNL     1      62.049  32.840  58.039  1.00  0.00    -0.000 C 
BRANCH   7   8
ATOM      8  C   UNL     1      62.957  33.382  59.158  1.00  0.00    -0.000 C 
BRANCH   8   9
ATOM      9  C   UNL     1      62.173  34.086  60.277  1.00  0.00    -0.000 C 
BRANCH   9  10
ATOM     10  C   UNL     1      63.037  35.153  60.964  1.00  0.00    -0.000 C 
BRANCH  10  11
ATOM     11  C   UNL     1      64.449  34.644  61.295  1.00  0.00    -0.003 C 
ATOM     12  C   UNL     1      65.539  35.658  60.944  1.00  0.00     0.004 C 
ENDBRANCH  10  11
ENDBRANCH   9  10
ENDBRANCH   8   9
ENDBRANCH   7   8
ENDBRANCH   6   7
ENDBRANCH   5   6
ENDBRANCH   4   5
ENDBRANCH   3   4
ENDBRANCH   2   3
ENDBRANCH   1   2
BRANCH   1  13
ATOM     13  C   UNL     1      63.950  30.932  61.259  1.00  0.00     0.000 C 
BRANCH  13  14
ATOM     14  C   UNL     1      65.008  30.189  60.433  1.00  0.00     0.000 C 
BRANCH  14  15
ATOM     15  C   UNL     1      64.550  30.011  58.978  1.00  0.00     0.000 C 
BRANCH  15  16
ATOM     16  C   UNL     1      64.676  28.557  58.485  1.00  0.00     0.000 C 
BRANCH  16  17
ATOM     17  C   UNL     1      63.692  27.565  59.132  1.00  0.00     0.000 C 
BRANCH  17  18
ATOM     18  C   UNL     1      64.393  26.489  59.981  1.00  0.00     0.000 C 
BRANCH  18  19
ATOM     19  C   UNL     1      63.426  25.825  60.986  1.00  0.00     0.000 C 
BRANCH  19  20
ATOM     20  C   UNL     1      62.065  26.532  61.090  1.00  0.00     0.006 C 
BRANCH  20  21
ATOM     21  C   UNL     1      60.890  25.626  60.701  1.00  0.00     0.053 C 
BRANCH  21  22
ATOM     22  C   UNL     1      59.786  25.743  61.703  1.00  0.00     0.041 C 
ATOM     23  O   UNL     1      58.921  26.652  61.592  1.00  0.00    -0.550 OA
ATOM     24  O   UNL     1      59.725  24.862  62.775  1.00  0.00    -0.550 OA
ENDBRANCH  21  22
ENDBRANCH  20  21
ENDBRANCH  19  20
ENDBRANCH  18  19
ENDBRANCH  17  18
ENDBRANCH  16  17
ENDBRANCH  15  16
ENDBRANCH  14  15
ENDBRANCH  13  14
ENDBRANCH   1  13
TORSDOF 20
ENDMDL
MODEL 3
REMARK VINA RESULT:    -3.093      3.228      4.923
REMARK INTER + INTRA:         -10.387
REMARK INTER:                  -7.073
REMARK INTRA:                  -3.314
REMARK UNBOUND:                -3.678
REMARK SMILES CCCCCCCCCCCCCCCCCCCCCC(=O)[O-]
REMARK SMILES IDX 12 1 11 2 10 3 9 4 8 5 7 6 6 7 5 8 4 9 3 10 2 11 1 12 13 13
REMARK SMILES IDX 14 14 15 15 16 16 17 17 18 18 19 19 20 20 21 21 22 22 23 23
REMARK SMILES IDX 24 24
REMARK H PARENT
REMARK Flexibility Score: inf
ROOT
ATOM      1  C   UNL     1      64.807  31.174  60.491  1.00  0.00     0.000 C 
ENDROOT
BRANCH   1   2
ATOM      2  C   UNL     1      64.934  32.102  59.270  1.00  0.00     0.000 C 
BRANCH   2   3
ATOM      3  C   UNL     1      64.800  33.607  59.578  1.00  0.00     0.000 C 
BRANCH   3   4
ATOM      4  C   UNL     1      64.516  33.952  61.053  1.00  0.00    -0.000 C 
BRANCH   4   5
ATOM      5  C   UNL     1      63.938  35.362  61.289  1.00  0.00    -0.000 C 
BRANCH   5   6
ATOM      6  C   UNL     1      62.922  35.831  60.230  1.00  0.00    -0.000 C 
BRANCH   6   7
ATOM      7  C   UNL     1      61.444  35.562  60.578  1.00  0.00    -0.000 C 
BRANCH   7   8
ATOM      8  C   UNL     1      60.882  34.230  60.049  1.00  0.00    -0.000 C 
BRANCH   8   9
ATOM      9  C   UNL     1      61.513  33.802  58.715  1.00  0.00    -0.000 C 
BRANCH   9  10
ATOM     10  C   UNL     1      60.919  32.472  58.230  1.00  0.00    -0.000 C 
BRANCH  10  11
ATOM     11  C   UNL     1      61.939  31.616  57.462  1.00  0.00    -0.003 C 
ATOM     12  C   UNL     1      61.317  30.352  56.866  1.00  0.00     0.004 C 
ENDBRANCH  10  11
ENDBRANCH   9  10
ENDBRANCH   8   9
ENDBRANCH   7   8
ENDBRANCH   6   7
ENDBRANCH   5   6
ENDBRANCH   4   5
ENDBRANCH   3   4
ENDBRANCH   2   3
ENDBRANCH   1   2
BRANCH   1  13
ATOM     13  C   UNL     1      64.016  29.892  60.190  1.00  0.00     0.000 C 
BRANCH  13  14
ATOM     14  C   UNL     1      62.885  29.698  61.207  1.00  0.00     0.000 C 
BRANCH  14  15
ATOM     15  C   UNL     1      62.102  31.002  61.420  1.00  0.00     0.000 C 
BRANCH  15  16
ATOM     16  C   UNL     1      60.577  30.786  61.451  1.00  0.00     0.000 C 
BRANCH  16  17
ATOM     17  C   UNL     1      60.100  29.441  60.870  1.00  0.00     0.000 C 
BRANCH  17  18
ATOM     18  C   UNL     1      59.117  29.607  59.698  1.00  0.00     0.000 C 
BRANCH  18  19
ATOM     19  C   UNL     1      58.053  28.487  59.673  1.00  0.00     0.000 C 
BRANCH  19  20
ATOM     20  C   UNL     1      57.841  27.808  61.036  1.00  0.00     0.006 C 
BRANCH  20  21
ATOM     21  C   UNL     1      56.624  28.356  61.792  1.00  0.00     0.053 C 
BRANCH  21  22
ATOM     22  C   UNL     1      55.364  28.049  61.046  1.00  0.00     0.041 C 
ATOM     23  O   UNL     1      54.504  28.950  60.857  1.00  0.00    -0.550 OA
ATOM     24  O   UNL     1      55.128  26.763  60.580  1.00  0.00    -0.550 OA
ENDBRANCH  21  22
ENDBRANCH  20  21
ENDBRANCH  19  20
ENDBRANCH  18  19
ENDBRANCH  17  18
ENDBRANCH  16  17
ENDBRANCH  15  16
ENDBRANCH  14  15
ENDBRANCH  13  14
ENDBRANCH   1  13
TORSDOF 20
ENDMDL
MODEL 4
REMARK VINA RESULT:    -3.088      9.326     12.517
REMARK INTER + INTRA:         -10.377
REMARK INTER:                  -6.176
REMARK INTRA:                  -4.201
REMARK UNBOUND:                -3.678
REMARK SMILES CCCCCCCCCCCCCCCCCCCCCC(=O)[O-]
REMARK SMILES IDX 12 1 11 2 10 3 9 4 8 5 7 6 6 7 5 8 4 9 3 10 2 11 1 12 13 13
REMARK SMILES IDX 14 14 15 15 16 16 17 17 18 18 19 19 20 20 21 21 22 22 23 23
REMARK SMILES IDX 24 24
REMARK H PARENT
REMARK Flexibility Score: inf
ROOT
ATOM      1  C   UNL     1      56.770  27.190  51.835  1.00  0.00     0.000 C 
ENDROOT
BRANCH   1   2
ATOM      2  C   UNL     1      56.076  25.867  51.463  1.00  0.00     0.000 C 
BRANCH   2   3
ATOM      3  C   UNL     1      55.627  25.758  49.992  1.00  0.00     0.000 C 
BRANCH   3   4
ATOM      4  C   UNL     1      54.102  25.682  49.775  1.00  0.00    -0.000 C 
BRANCH   4   5
ATOM      5  C   UNL     1      53.284  26.739  50.544  1.00  0.00    -0.000 C 
BRANCH   5   6
ATOM      6  C   UNL     1      53.296  28.148  49.920  1.00  0.00    -0.000 C 
BRANCH   6   7
ATOM      7  C   UNL     1      53.489  29.305  50.921  1.00  0.00    -0.000 C 
BRANCH   7   8
ATOM      8  C   UNL     1      53.472  28.893  52.403  1.00  0.00    -0.000 C 
BRANCH   8   9
ATOM      9  C   UNL     1      54.520  29.639  53.244  1.00  0.00    -0.000 C 
BRANCH   9  10
ATOM     10  C   UNL     1      54.834  31.013  52.636  1.00  0.00    -0.000 C 
BRANCH  10  11
ATOM     11  C   UNL     1      55.736  31.867  53.540  1.00  0.00    -0.003 C 
ATOM     12  C   UNL     1      56.992  31.122  53.993  1.00  0.00     0.004 C 
ENDBRANCH  10  11
ENDBRANCH   9  10
ENDBRANCH   8   9
ENDBRANCH   7   8
ENDBRANCH   6   7
ENDBRANCH   5   6
ENDBRANCH   4   5
ENDBRANCH   3   4
ENDBRANCH   2   3
ENDBRANCH   1   2
BRANCH   1  13
ATOM     13  C   UNL     1      56.919  28.144  50.642  1.00  0.00     0.000 C 
BRANCH  13  14
ATOM     14  C   UNL     1      57.824  29.329  51.001  1.00  0.00     0.000 C 
BRANCH  14  15
ATOM     15  C   UNL     1      59.000  29.446  50.020  1.00  0.00     0.000 C 
BRANCH  15  16
ATOM     16  C   UNL     1      59.184  28.186  49.154  1.00  0.00     0.000 C 
BRANCH  16  17
ATOM     17  C   UNL     1      60.323  27.250  49.602  1.00  0.00     0.000 C 
BRANCH  17  18
ATOM     18  C   UNL     1      59.821  25.867  50.055  1.00  0.00     0.000 C 
BRANCH  18  19
ATOM     19  C   UNL     1      60.156  25.588  51.537  1.00  0.00     0.000 C 
BRANCH  19  20
ATOM     20  C   UNL     1      60.811  26.779  52.255  1.00  0.00     0.006 C 
BRANCH  20  21
ATOM     21  C   UNL     1      59.953  27.332  53.399  1.00  0.00     0.053 C 
BRANCH  21  22
ATOM     22  C   UNL     1      60.377  28.724  53.746  1.00  0.00     0.041 C 
ATOM     23  O   UNL     1      60.071  29.221  54.862  1.00  0.00    -0.550 OA
ATOM     24  O   UNL     1      61.091  29.482  52.828  1.00  0.00    -0.550 OA
ENDBRANCH  21  22
ENDBRANCH  20  21
ENDBRANCH  19  20
ENDBRANCH  18  19
ENDBRANCH  17  18
ENDBRANCH  16  17
ENDBRANCH  15  16
ENDBRANCH  14  15
ENDBRANCH  13  14
ENDBRANCH   1  13
TORSDOF 20
ENDMDL
MODEL 5
REMARK VINA RESULT:    -3.031      2.842      6.598
REMARK INTER + INTRA:         -10.252
REMARK INTER:                  -6.084
REMARK INTRA:                  -4.168
REMARK UNBOUND:                -3.678
REMARK SMILES CCCCCCCCCCCCCCCCCCCCCC(=O)[O-]
REMARK SMILES IDX 12 1 11 2 10 3 9 4 8 5 7 6 6 7 5 8 4 9 3 10 2 11 1 12 13 13
REMARK SMILES IDX 14 14 15 15 16 16 17 17 18 18 19 19 20 20 21 21 22 22 23 23
REMARK SMILES IDX 24 24
REMARK H PARENT
REMARK Flexibility Score: inf
ROOT
ATOM      1  C   UNL     1      64.199  29.553  59.763  1.00  0.00     0.000 C 
ENDROOT
BRANCH   1   2
ATOM      2  C   UNL     1      63.183  28.485  60.207  1.00  0.00     0.000 C 
BRANCH   2   3
ATOM      3  C   UNL     1      61.783  28.614  59.573  1.00  0.00     0.000 C 
BRANCH   3   4
ATOM      4  C   UNL     1      60.604  28.530  60.563  1.00  0.00    -0.000 C 
BRANCH   4   5
ATOM      5  C   UNL     1      59.869  29.863  60.810  1.00  0.00    -0.000 C 
BRANCH   5   6
ATOM      6  C   UNL     1      60.694  30.929  61.555  1.00  0.00    -0.000 C 
BRANCH   6   7
ATOM      7  C   UNL     1      61.085  32.160  60.712  1.00  0.00    -0.000 C 
BRANCH   7   8
ATOM      8  C   UNL     1      60.471  32.205  59.301  1.00  0.00    -0.000 C 
BRANCH   8   9
ATOM      9  C   UNL     1      61.522  32.091  58.187  1.00  0.00    -0.000 C 
BRANCH   9  10
ATOM     10  C   UNL     1      61.313  33.180  57.124  1.00  0.00    -0.000 C 
BRANCH  10  11
ATOM     11  C   UNL     1      62.578  34.018  56.882  1.00  0.00    -0.003 C 
ATOM     12  C   UNL     1      63.843  33.165  56.789  1.00  0.00     0.004 C 
ENDBRANCH  10  11
ENDBRANCH   9  10
ENDBRANCH   8   9
ENDBRANCH   7   8
ENDBRANCH   6   7
ENDBRANCH   5   6
ENDBRANCH   4   5
ENDBRANCH   3   4
ENDBRANCH   2   3
ENDBRANCH   1   2
BRANCH   1  13
ATOM     13  C   UNL     1      64.396  30.661  60.807  1.00  0.00     0.000 C 
BRANCH  13  14
ATOM     14  C   UNL     1      64.771  31.986  60.131  1.00  0.00     0.000 C 
BRANCH  14  15
ATOM     15  C   UNL     1      64.436  33.183  61.032  1.00  0.00     0.000 C 
BRANCH  15  16
ATOM     16  C   UNL     1      64.026  34.436  60.235  1.00  0.00     0.000 C 
BRANCH  16  17
ATOM     17  C   UNL     1      63.037  35.370  60.958  1.00  0.00     0.000 C 
BRANCH  17  18
ATOM     18  C   UNL     1      62.055  36.065  59.998  1.00  0.00     0.000 C 
BRANCH  18  19
ATOM     19  C   UNL     1      60.589  35.912  60.460  1.00  0.00     0.000 C 
BRANCH  19  20
ATOM     20  C   UNL     1      59.596  35.714  59.303  1.00  0.00     0.006 C 
BRANCH  20  21
ATOM     21  C   UNL     1      59.995  36.479  58.036  1.00  0.00     0.053 C 
BRANCH  21  22
ATOM     22  C   UNL     1      58.995  36.248  56.948  1.00  0.00     0.041 C 
ATOM     23  O   UNL     1      58.859  37.090  56.022  1.00  0.00    -0.550 OA
ATOM     24  O   UNL     1      58.196  35.113  56.969  1.00  0.00    -0.550 OA
ENDBRANCH  21  22
ENDBRANCH  20  21
ENDBRANCH  19  20
ENDBRANCH  18  19
ENDBRANCH  17  18
ENDBRANCH  16  17
ENDBRANCH  15  16
ENDBRANCH  14  15
ENDBRANCH  13  14
ENDBRANCH   1  13
TORSDOF 20
ENDMDL
MODEL 6
REMARK VINA RESULT:    -3.012      9.644     12.811
REMARK INTER + INTRA:         -10.211
REMARK INTER:                  -6.938
REMARK INTRA:                  -3.273
REMARK UNBOUND:                -3.678
REMARK SMILES CCCCCCCCCCCCCCCCCCCCCC(=O)[O-]
REMARK SMILES IDX 12 1 11 2 10 3 9 4 8 5 7 6 6 7 5 8 4 9 3 10 2 11 1 12 13 13
REMARK SMILES IDX 14 14 15 15 16 16 17 17 18 18 19 19 20 20 21 21 22 22 23 23
REMARK SMILES IDX 24 24
REMARK H PARENT
REMARK Flexibility Score: inf
ROOT
ATOM      1  C   UNL     1      57.133  25.198  51.642  1.00  0.00     0.000 C 
ENDROOT
BRANCH   1   2
ATOM      2  C   UNL     1      55.656  25.528  51.361  1.00  0.00     0.000 C 
BRANCH   2   3
ATOM      3  C   UNL     1      55.265  25.550  49.870  1.00  0.00     0.000 C 
BRANCH   3   4
ATOM      4  C   UNL     1      53.758  25.723  49.588  1.00  0.00    -0.000 C 
BRANCH   4   5
ATOM      5  C   UNL     1      53.031  26.699  50.534  1.00  0.00    -0.000 C 
BRANCH   5   6
ATOM      6  C   UNL     1      52.990  28.161  50.050  1.00  0.00    -0.000 C 
BRANCH   6   7
ATOM      7  C   UNL     1      54.202  29.021  50.464  1.00  0.00    -0.000 C 
BRANCH   7   8
ATOM      8  C   UNL     1      53.877  30.198  51.399  1.00  0.00    -0.000 C 
BRANCH   8   9
ATOM      9  C   UNL     1      54.724  30.196  52.681  1.00  0.00    -0.000 C 
BRANCH   9  10
ATOM     10  C   UNL     1      55.181  31.618  53.038  1.00  0.00    -0.000 C 
BRANCH  10  11
ATOM     11  C   UNL     1      56.365  31.628  54.017  1.00  0.00    -0.003 C 
ATOM     12  C   UNL     1      57.672  32.070  53.357  1.00  0.00     0.004 C 
ENDBRANCH  10  11
ENDBRANCH   9  10
ENDBRANCH   8   9
ENDBRANCH   7   8
ENDBRANCH   6   7
ENDBRANCH   5   6
ENDBRANCH   4   5
ENDBRANCH   3   4
ENDBRANCH   2   3
ENDBRANCH   1   2
BRANCH   1  13
ATOM     13  C   UNL     1      57.796  26.192  52.606  1.00  0.00     0.000 C 
BRANCH  13  14
ATOM     14  C   UNL     1      57.141  27.575  52.498  1.00  0.00     0.000 C 
BRANCH  14  15
ATOM     15  C   UNL     1      58.163  28.640  52.075  1.00  0.00     0.000 C 
BRANCH  15  16
ATOM     16  C   UNL     1      57.811  29.307  50.732  1.00  0.00     0.000 C 
BRANCH  16  17
ATOM     17  C   UNL     1      58.913  29.226  49.658  1.00  0.00     0.000 C 
BRANCH  17  18
ATOM     18  C   UNL     1      59.346  27.782  49.347  1.00  0.00     0.000 C 
BRANCH  18  19
ATOM     19  C   UNL     1      60.824  27.530  49.717  1.00  0.00     0.000 C 
BRANCH  19  20
ATOM     20  C   UNL     1      61.012  26.485  50.829  1.00  0.00     0.006 C 
BRANCH  20  21
ATOM     21  C   UNL     1      60.581  25.076  50.403  1.00  0.00     0.053 C 
BRANCH  21  22
ATOM     22  C   UNL     1      60.806  24.102  51.515  1.00  0.00     0.041 C 
ATOM     23  O   UNL     1      61.784  24.245  52.296  1.00  0.00    -0.550 OA
ATOM     24  O   UNL     1      59.951  23.020  51.675  1.00  0.00    -0.550 OA
ENDBRANCH  21  22
ENDBRANCH  20  21
ENDBRANCH  19  20
ENDBRANCH  18  19
ENDBRANCH  17  18
ENDBRANCH  16  17
ENDBRANCH  15  16
ENDBRANCH  14  15
ENDBRANCH  13  14
ENDBRANCH   1  13
TORSDOF 20
ENDMDL
MODEL 7
REMARK VINA RESULT:    -3.007      2.582      6.166
REMARK INTER + INTRA:         -10.201
REMARK INTER:                  -6.407
REMARK INTRA:                  -3.795
REMARK UNBOUND:                -3.678
REMARK SMILES CCCCCCCCCCCCCCCCCCCCCC(=O)[O-]
REMARK SMILES IDX 12 1 11 2 10 3 9 4 8 5 7 6 6 7 5 8 4 9 3 10 2 11 1 12 13 13
REMARK SMILES IDX 14 14 15 15 16 16 17 17 18 18 19 19 20 20 21 21 22 22 23 23
REMARK SMILES IDX 24 24
REMARK H PARENT
REMARK Flexibility Score: inf
ROOT
ATOM      1  C   UNL     1      63.247  32.428  57.407  1.00  0.00     0.000 C 
ENDROOT
BRANCH   1   2
ATOM      2  C   UNL     1      62.182  31.320  57.316  1.00  0.00     0.000 C 
BRANCH   2   3
ATOM      3  C   UNL     1      60.839  31.648  57.999  1.00  0.00     0.000 C 
BRANCH   3   4
ATOM      4  C   UNL     1      60.075  30.433  58.563  1.00  0.00    -0.000 C 
BRANCH   4   5
ATOM      5  C   UNL     1      59.974  30.387  60.101  1.00  0.00    -0.000 C 
BRANCH   5   6
ATOM      6  C   UNL     1      60.741  31.504  60.834  1.00  0.00    -0.000 C 
BRANCH   6   7
ATOM      7  C   UNL     1      61.958  31.031  61.654  1.00  0.00    -0.000 C 
BRANCH   7   8
ATOM      8  C   UNL     1      62.413  29.588  61.372  1.00  0.00    -0.000 C 
BRANCH   8   9
ATOM      9  C   UNL     1      63.481  29.501  60.270  1.00  0.00    -0.000 C 
BRANCH   9  10
ATOM     10  C   UNL     1      64.755  30.253  60.681  1.00  0.00    -0.000 C 
BRANCH  10  11
ATOM     11  C   UNL     1      65.988  29.805  59.881  1.00  0.00    -0.003 C 
ATOM     12  C   UNL     1      65.780  29.909  58.370  1.00  0.00     0.004 C 
ENDBRANCH  10  11
ENDBRANCH   9  10
ENDBRANCH   8   9
ENDBRANCH   7   8
ENDBRANCH   6   7
ENDBRANCH   5   6
ENDBRANCH   4   5
ENDBRANCH   3   4
ENDBRANCH   2   3
ENDBRANCH   1   2
BRANCH   1  13
ATOM     13  C   UNL     1      63.326  33.069  58.800  1.00  0.00     0.000 C 
BRANCH  13  14
ATOM     14  C   UNL     1      64.770  33.459  59.139  1.00  0.00     0.000 C 
BRANCH  14  15
ATOM     15  C   UNL     1      64.811  34.556  60.212  1.00  0.00     0.000 C 
BRANCH  15  16
ATOM     16  C   UNL     1      63.448  34.776  60.896  1.00  0.00     0.000 C 
BRANCH  16  17
ATOM     17  C   UNL     1      63.037  36.251  61.065  1.00  0.00     0.000 C 
BRANCH  17  18
ATOM     18  C   UNL     1      61.526  36.479  60.883  1.00  0.00     0.000 C 
BRANCH  18  19
ATOM     19  C   UNL     1      60.792  35.183  60.472  1.00  0.00     0.000 C 
BRANCH  19  20
ATOM     20  C   UNL     1      60.346  35.169  59.000  1.00  0.00     0.006 C 
BRANCH  20  21
ATOM     21  C   UNL     1      59.060  35.968  58.758  1.00  0.00     0.053 C 
BRANCH  21  22
ATOM     22  C   UNL     1      57.973  35.069  58.259  1.00  0.00     0.041 C 
ATOM     23  O   UNL     1      58.136  33.820  58.249  1.00  0.00    -0.550 OA
ATOM     24  O   UNL     1      56.787  35.612  57.782  1.00  0.00    -0.550 OA
ENDBRANCH  21  22
ENDBRANCH  20  21
ENDBRANCH  19  20
ENDBRANCH  18  19
ENDBRANCH  17  18
ENDBRANCH  16  17
ENDBRANCH  15  16
ENDBRANCH  14  15
ENDBRANCH  13  14
ENDBRANCH   1  13
TORSDOF 20
ENDMDL
MODEL 8
REMARK VINA RESULT:    -2.990      9.019     11.911
REMARK INTER + INTRA:         -10.164
REMARK INTER:                  -5.810
REMARK INTRA:                  -4.355
REMARK UNBOUND:                -3.678
REMARK SMILES CCCCCCCCCCCCCCCCCCCCCC(=O)[O-]
REMARK SMILES IDX 12 1 11 2 10 3 9 4 8 5 7 6 6 7 5 8 4 9 3 10 2 11 1 12 13 13
REMARK SMILES IDX 14 14 15 15 16 16 17 17 18 18 19 19 20 20 21 21 22 22 23 23
REMARK SMILES IDX 24 24
REMARK H PARENT
REMARK Flexibility Score: inf
ROOT
ATOM      1  C   UNL     1      58.108  25.212  51.794  1.00  0.00     0.000 C 
ENDROOT
BRANCH   1   2
ATOM      2  C   UNL     1      58.912  25.250  50.482  1.00  0.00     0.000 C 
BRANCH   2   3
ATOM      3  C   UNL     1      60.334  25.834  50.606  1.00  0.00     0.000 C 
BRANCH   3   4
ATOM      4  C   UNL     1      60.541  27.208  49.938  1.00  0.00    -0.000 C 
BRANCH   4   5
ATOM      5  C   UNL     1      59.305  27.763  49.201  1.00  0.00    -0.000 C 
BRANCH   5   6
ATOM      6  C   UNL     1      58.919  29.206  49.578  1.00  0.00    -0.000 C 
BRANCH   6   7
ATOM      7  C   UNL     1      57.632  29.339  50.418  1.00  0.00    -0.000 C 
BRANCH   7   8
ATOM      8  C   UNL     1      57.734  28.798  51.855  1.00  0.00    -0.000 C 
BRANCH   8   9
ATOM      9  C   UNL     1      58.784  29.535  52.700  1.00  0.00    -0.000 C 
BRANCH   9  10
ATOM     10  C   UNL     1      59.752  28.542  53.360  1.00  0.00    -0.000 C 
BRANCH  10  11
ATOM     11  C   UNL     1      61.224  28.941  53.173  1.00  0.00    -0.003 C 
ATOM     12  C   UNL     1      61.402  30.096  52.186  1.00  0.00     0.004 C 
ENDBRANCH  10  11
ENDBRANCH   9  10
ENDBRANCH   8   9
ENDBRANCH   7   8
ENDBRANCH   6   7
ENDBRANCH   5   6
ENDBRANCH   4   5
ENDBRANCH   3   4
ENDBRANCH   2   3
ENDBRANCH   1   2
BRANCH   1  13
ATOM     13  C   UNL     1      56.592  25.306  51.569  1.00  0.00     0.000 C 
BRANCH  13  14
ATOM     14  C   UNL     1      56.281  25.843  50.166  1.00  0.00     0.000 C 
BRANCH  14  15
ATOM     15  C   UNL     1      54.774  26.071  49.981  1.00  0.00     0.000 C 
BRANCH  15  16
ATOM     16  C   UNL     1      54.360  27.539  50.193  1.00  0.00     0.000 C 
BRANCH  16  17
ATOM     17  C   UNL     1      53.445  27.787  51.408  1.00  0.00     0.000 C 
BRANCH  17  18
ATOM     18  C   UNL     1      54.202  28.342  52.627  1.00  0.00     0.000 C 
BRANCH  18  19
ATOM     19  C   UNL     1      54.313  27.300  53.762  1.00  0.00     0.000 C 
BRANCH  19  20
ATOM     20  C   UNL     1      55.553  27.488  54.652  1.00  0.00     0.006 C 
BRANCH  20  21
ATOM     21  C   UNL     1      55.779  28.948  55.059  1.00  0.00     0.053 C 
BRANCH  21  22
ATOM     22  C   UNL     1      55.447  29.146  56.504  1.00  0.00     0.041 C 
ATOM     23  O   UNL     1      54.837  28.249  57.143  1.00  0.00    -0.550 OA
ATOM     24  O   UNL     1      55.789  30.333  57.139  1.00  0.00    -0.550 OA
ENDBRANCH  21  22
ENDBRANCH  20  21
ENDBRANCH  19  20
ENDBRANCH  18  19
ENDBRANCH  17  18
ENDBRANCH  16  17
ENDBRANCH  15  16
ENDBRANCH  14  15
ENDBRANCH  13  14
ENDBRANCH   1  13
TORSDOF 20
ENDMDL
MODEL 9
REMARK VINA RESULT:    -2.943      9.984     12.567
REMARK INTER + INTRA:         -10.061
REMARK INTER:                  -6.070
REMARK INTRA:                  -3.991
REMARK UNBOUND:                -3.678
REMARK SMILES CCCCCCCCCCCCCCCCCCCCCC(=O)[O-]
REMARK SMILES IDX 12 1 11 2 10 3 9 4 8 5 7 6 6 7 5 8 4 9 3 10 2 11 1 12 13 13
REMARK SMILES IDX 14 14 15 15 16 16 17 17 18 18 19 19 20 20 21 21 22 22 23 23
REMARK SMILES IDX 24 24
REMARK H PARENT
REMARK Flexibility Score: inf
ROOT
ATOM      1  C   UNL     1      57.941  28.982  51.301  1.00  0.00     0.000 C 
ENDROOT
BRANCH   1   2
ATOM      2  C   UNL     1      56.581  29.598  51.676  1.00  0.00     0.000 C 
BRANCH   2   3
ATOM      3  C   UNL     1      55.414  29.219  50.743  1.00  0.00     0.000 C 
BRANCH   3   4
ATOM      4  C   UNL     1      54.590  27.993  51.186  1.00  0.00    -0.000 C 
BRANCH   4   5
ATOM      5  C   UNL     1      54.312  26.962  50.074  1.00  0.00    -0.000 C 
BRANCH   5   6
ATOM      6  C   UNL     1      55.084  25.637  50.211  1.00  0.00    -0.000 C 
BRANCH   6   7
ATOM      7  C   UNL     1      56.617  25.758  50.088  1.00  0.00    -0.000 C 
BRANCH   7   8
ATOM      8  C   UNL     1      57.409  25.269  51.313  1.00  0.00    -0.000 C 
BRANCH   8   9
ATOM      9  C   UNL     1      56.543  25.142  52.576  1.00  0.00    -0.000 C 
BRANCH   9  10
ATOM     10  C   UNL     1      57.056  26.069  53.687  1.00  0.00    -0.000 C 
BRANCH  10  11
ATOM     11  C   UNL     1      58.574  26.297  53.611  1.00  0.00    -0.003 C 
ATOM     12  C   UNL     1      59.288  25.960  54.921  1.00  0.00     0.004 C 
ENDBRANCH  10  11
ENDBRANCH   9  10
ENDBRANCH   8   9
ENDBRANCH   7   8
ENDBRANCH   6   7
ENDBRANCH   5   6
ENDBRANCH   4   5
ENDBRANCH   3   4
ENDBRANCH   2   3
ENDBRANCH   1   2
BRANCH   1  13
ATOM     13  C   UNL     1      58.342  29.257  49.845  1.00  0.00     0.000 C 
BRANCH  13  14
ATOM     14  C   UNL     1      59.317  28.187  49.337  1.00  0.00     0.000 C 
BRANCH  14  15
ATOM     15  C   UNL     1      60.171  27.626  50.483  1.00  0.00     0.000 C 
BRANCH  15  16
ATOM     16  C   UNL     1      60.949  26.358  50.085  1.00  0.00     0.000 C 
BRANCH  16  17
ATOM     17  C   UNL     1      61.186  25.355  51.230  1.00  0.00     0.000 C 
BRANCH  17  18
ATOM     18  C   UNL     1      61.448  23.923  50.730  1.00  0.00     0.000 C 
BRANCH  18  19
ATOM     19  C   UNL     1      60.323  22.951  51.148  1.00  0.00     0.000 C 
BRANCH  19  20
ATOM     20  C   UNL     1      60.445  22.453  52.597  1.00  0.00     0.006 C 
BRANCH  20  21
ATOM     21  C   UNL     1      59.136  22.584  53.386  1.00  0.00     0.053 C 
BRANCH  21  22
ATOM     22  C   UNL     1      58.348  21.315  53.305  1.00  0.00     0.041 C 
ATOM     23  O   UNL     1      58.917  20.233  53.002  1.00  0.00    -0.550 OA
ATOM     24  O   UNL     1      56.980  21.331  53.540  1.00  0.00    -0.550 OA
ENDBRANCH  21  22
ENDBRANCH  20  21
ENDBRANCH  19  20
ENDBRANCH  18  19
ENDBRANCH  17  18
ENDBRANCH  16  17
ENDBRANCH  15  16
ENDBRANCH  14  15
ENDBRANCH  13  14
ENDBRANCH   1  13
TORSDOF 20
ENDMDL
