MODEL 1
REMARK VINA RESULT:    -4.878      0.000      0.000
REMARK INTER + INTRA:          -5.922
REMARK INTER:                  -5.876
REMARK INTRA:                  -0.046
REMARK UNBOUND:                -0.046
REMARK SMILES O=c1c(O)c(-c2ccc(O)c(O)c2)oc2cc(O)cc(O)c12
REMARK SMILES IDX 5 1 3 2 2 3 1 4 22 5 20 6 19 7 17 8 16 9 15 10 14 11 6 12
REMARK SMILES IDX 7 13 8 14 9 15 13 16 11 17 10 18 12 20 4 22 21 24 18 26
REMARK H PARENT 10 19 12 21 4 23 21 25 18 27
REMARK Flexibility Score: inf
ROOT
ATOM      1  C   UNL     1       6.118  29.749  24.177  1.00  0.00     0.180 A 
ATOM      2  C   UNL     1       5.184  28.699  24.203  1.00  0.00     0.208 A 
ATOM      3  C   UNL     1       5.601  27.426  24.621  1.00  0.00     0.238 A 
ATOM      4  O   UNL     1       4.744  26.509  24.711  1.00  0.00    -0.285 OA
ATOM      5  C   UNL     1       6.959  27.203  24.954  1.00  0.00     0.111 A 
ATOM      6  C   UNL     1       7.503  25.943  25.348  1.00  0.00     0.134 A 
ATOM      7  C   UNL     1       8.840  25.865  25.757  1.00  0.00     0.093 A 
ATOM      8  C   UNL     1       9.670  26.988  25.727  1.00  0.00     0.123 A 
ATOM      9  C   UNL     1       9.163  28.210  25.293  1.00  0.00     0.094 A 
ATOM     10  C   UNL     1       7.823  28.328  24.914  1.00  0.00     0.146 A 
ATOM     11  O   UNL     1       7.377  29.517  24.528  1.00  0.00    -0.452 OA
ENDROOT
BRANCH   1  12
ATOM     12  C   UNL     1       5.750  31.122  23.763  1.00  0.00     0.025 A 
ATOM     13  C   UNL     1       5.187  31.331  22.495  1.00  0.00     0.016 A 
ATOM     14  C   UNL     1       4.851  32.621  22.075  1.00  0.00     0.051 A 
ATOM     15  C   UNL     1       5.086  33.720  22.906  1.00  0.00     0.157 A 
ATOM     16  C   UNL     1       6.005  32.230  24.591  1.00  0.00     0.062 A 
ATOM     17  C   UNL     1       5.670  33.526  24.169  1.00  0.00     0.158 A 
BRANCH  15  18
ATOM     18  O   UNL     1       4.738  34.995  22.460  1.00  0.00    -0.504 OA
ATOM     19  H   UNL     1       4.639  35.778  23.095  1.00  0.00     0.293 HD
ENDBRANCH  15  18
BRANCH  17  20
ATOM     20  O   UNL     1       5.921  34.618  24.998  1.00  0.00    -0.504 OA
ATOM     21  H   UNL     1       5.194  35.023  25.575  1.00  0.00     0.293 HD
ENDBRANCH  17  20
ENDBRANCH   1  12
BRANCH   2  22
ATOM     22  O   UNL     1       3.865  28.921  23.796  1.00  0.00    -0.502 OA
ATOM     23  H   UNL     1       3.140  29.220  24.438  1.00  0.00     0.293 HD
ENDBRANCH   2  22
BRANCH   6  24
ATOM     24  O   UNL     1       6.788  24.741  25.330  1.00  0.00    -0.507 OA
ATOM     25  H   UNL     1       6.140  24.444  26.042  1.00  0.00     0.293 HD
ENDBRANCH   6  24
BRANCH   8  26
ATOM     26  O   UNL     1      11.004  26.898  26.120  1.00  0.00    -0.508 OA
ATOM     27  H   UNL     1      11.288  27.084  27.076  1.00  0.00     0.293 HD
ENDBRANCH   8  26
TORSDOF 6
ENDMDL
MODEL 2
REMARK VINA RESULT:    -4.731      2.383      7.145
REMARK INTER + INTRA:          -5.745
REMARK INTER:                  -5.453
REMARK INTRA:                  -0.292
REMARK UNBOUND:                -0.046
REMARK SMILES O=c1c(O)c(-c2ccc(O)c(O)c2)oc2cc(O)cc(O)c12
REMARK SMILES IDX 5 1 3 2 2 3 1 4 22 5 20 6 19 7 17 8 16 9 15 10 14 11 6 12
REMARK SMILES IDX 7 13 8 14 9 15 13 16 11 17 10 18 12 20 4 22 21 24 18 26
REMARK H PARENT 10 19 12 21 4 23 21 25 18 27
REMARK Flexibility Score: inf
ROOT
ATOM      1  C   UNL     1       5.211  27.671  24.341  1.00  0.00     0.180 A 
ATOM      2  C   UNL     1       6.352  28.097  25.043  1.00  0.00     0.208 A 
ATOM      3  C   UNL     1       6.748  29.440  24.950  1.00  0.00     0.238 A 
ATOM      4  O   UNL     1       7.727  29.830  25.639  1.00  0.00    -0.285 OA
ATOM      5  C   UNL     1       6.034  30.329  24.111  1.00  0.00     0.111 A 
ATOM      6  C   UNL     1       6.373  31.701  23.905  1.00  0.00     0.134 A 
ATOM      7  C   UNL     1       5.530  32.513  23.136  1.00  0.00     0.093 A 
ATOM      8  C   UNL     1       4.396  31.988  22.513  1.00  0.00     0.123 A 
ATOM      9  C   UNL     1       4.087  30.639  22.663  1.00  0.00     0.094 A 
ATOM     10  C   UNL     1       4.886  29.812  23.456  1.00  0.00     0.146 A 
ATOM     11  O   UNL     1       4.542  28.537  23.589  1.00  0.00    -0.452 OA
ENDROOT
BRANCH   1  12
ATOM     12  C   UNL     1       4.722  26.276  24.402  1.00  0.00     0.025 A 
ATOM     13  C   UNL     1       5.335  25.295  23.606  1.00  0.00     0.016 A 
ATOM     14  C   UNL     1       4.877  23.976  23.631  1.00  0.00     0.051 A 
ATOM     15  C   UNL     1       3.793  23.618  24.439  1.00  0.00     0.157 A 
ATOM     16  C   UNL     1       3.619  25.920  25.199  1.00  0.00     0.062 A 
ATOM     17  C   UNL     1       3.157  24.595  25.223  1.00  0.00     0.158 A 
BRANCH  15  18
ATOM     18  O   UNL     1       3.359  22.293  24.446  1.00  0.00    -0.504 OA
ATOM     19  H   UNL     1       2.807  21.911  25.204  1.00  0.00     0.293 HD
ENDBRANCH  15  18
BRANCH  17  20
ATOM     20  O   UNL     1       2.066  24.249  26.020  1.00  0.00    -0.504 OA
ATOM     21  H   UNL     1       1.692  23.307  26.027  1.00  0.00     0.293 HD
ENDBRANCH  17  20
ENDBRANCH   1  12
BRANCH   2  22
ATOM     22  O   UNL     1       7.089  27.185  25.805  1.00  0.00    -0.502 OA
ATOM     23  H   UNL     1       7.554  26.384  25.395  1.00  0.00     0.293 HD
ENDBRANCH   2  22
BRANCH   6  24
ATOM     24  O   UNL     1       7.529  32.306  24.407  1.00  0.00    -0.507 OA
ATOM     25  H   UNL     1       8.389  31.824  24.618  1.00  0.00     0.293 HD
ENDBRANCH   6  24
BRANCH   8  26
ATOM     26  O   UNL     1       3.572  32.799  21.735  1.00  0.00    -0.508 OA
ATOM     27  H   UNL     1       3.482  33.793  21.917  1.00  0.00     0.293 HD
ENDBRANCH   8  26
TORSDOF 6
ENDMDL
MODEL 3
REMARK VINA RESULT:    -4.599      1.940      3.698
REMARK INTER + INTRA:          -5.586
REMARK INTER:                  -5.332
REMARK INTRA:                  -0.254
REMARK UNBOUND:                -0.046
REMARK SMILES O=c1c(O)c(-c2ccc(O)c(O)c2)oc2cc(O)cc(O)c12
REMARK SMILES IDX 5 1 3 2 2 3 1 4 22 5 20 6 19 7 17 8 16 9 15 10 14 11 6 12
REMARK SMILES IDX 7 13 8 14 9 15 13 16 11 17 10 18 12 20 4 22 21 24 18 26
REMARK H PARENT 10 19 12 21 4 23 21 25 18 27
REMARK Flexibility Score: inf
ROOT
ATOM      1  C   UNL     1       5.728  28.546  24.027  1.00  0.00     0.180 A 
ATOM      2  C   UNL     1       7.036  28.046  23.910  1.00  0.00     0.208 A 
ATOM      3  C   UNL     1       7.278  26.694  24.196  1.00  0.00     0.238 A 
ATOM      4  O   UNL     1       8.437  26.236  24.018  1.00  0.00    -0.285 OA
ATOM      5  C   UNL     1       6.220  25.869  24.651  1.00  0.00     0.111 A 
ATOM      6  C   UNL     1       6.359  24.495  25.014  1.00  0.00     0.134 A 
ATOM      7  C   UNL     1       5.221  23.750  25.348  1.00  0.00     0.093 A 
ATOM      8  C   UNL     1       3.958  24.346  25.394  1.00  0.00     0.123 A 
ATOM      9  C   UNL     1       3.821  25.699  25.096  1.00  0.00     0.094 A 
ATOM     10  C   UNL     1       4.931  26.459  24.721  1.00  0.00     0.146 A 
ATOM     11  O   UNL     1       4.750  27.741  24.423  1.00  0.00    -0.452 OA
ENDROOT
BRANCH   1  12
ATOM     12  C   UNL     1       5.393  29.956  23.728  1.00  0.00     0.025 A 
ATOM     13  C   UNL     1       5.742  30.958  24.648  1.00  0.00     0.016 A 
ATOM     14  C   UNL     1       5.417  32.293  24.396  1.00  0.00     0.051 A 
ATOM     15  C   UNL     1       4.726  32.646  23.233  1.00  0.00     0.157 A 
ATOM     16  C   UNL     1       4.680  30.310  22.568  1.00  0.00     0.062 A 
ATOM     17  C   UNL     1       4.351  31.650  22.316  1.00  0.00     0.158 A 
BRANCH  15  18
ATOM     18  O   UNL     1       4.417  33.987  23.007  1.00  0.00    -0.504 OA
ATOM     19  H   UNL     1       4.181  34.620  23.763  1.00  0.00     0.293 HD
ENDBRANCH  15  18
BRANCH  17  20
ATOM     20  O   UNL     1       3.650  31.993  21.160  1.00  0.00    -0.504 OA
ATOM     21  H   UNL     1       2.900  32.674  21.177  1.00  0.00     0.293 HD
ENDBRANCH  17  20
ENDBRANCH   1  12
BRANCH   2  22
ATOM     22  O   UNL     1       8.082  28.895  23.533  1.00  0.00    -0.502 OA
ATOM     23  H   UNL     1       8.615  29.433  24.206  1.00  0.00     0.293 HD
ENDBRANCH   2  22
BRANCH   6  24
ATOM     24  O   UNL     1       7.584  23.824  25.087  1.00  0.00    -0.507 OA
ATOM     25  H   UNL     1       8.097  23.649  25.936  1.00  0.00     0.293 HD
ENDBRANCH   6  24
BRANCH   8  26
ATOM     26  O   UNL     1       2.833  23.602  25.745  1.00  0.00    -0.508 OA
ATOM     27  H   UNL     1       1.922  23.802  25.349  1.00  0.00     0.293 HD
ENDBRANCH   8  26
TORSDOF 6
ENDMDL
MODEL 4
REMARK VINA RESULT:    -4.465      2.362      6.759
REMARK INTER + INTRA:          -5.424
REMARK INTER:                  -5.267
REMARK INTRA:                  -0.157
REMARK UNBOUND:                -0.046
REMARK SMILES O=c1c(O)c(-c2ccc(O)c(O)c2)oc2cc(O)cc(O)c12
REMARK SMILES IDX 5 1 3 2 2 3 1 4 22 5 20 6 19 7 17 8 16 9 15 10 14 11 6 12
REMARK SMILES IDX 7 13 8 14 9 15 13 16 11 17 10 18 12 20 4 22 21 24 18 26
REMARK H PARENT 10 19 12 21 4 23 21 25 18 27
REMARK Flexibility Score: inf
ROOT
ATOM      1  C   UNL     1       5.369  27.755  23.852  1.00  0.00     0.180 A 
ATOM      2  C   UNL     1       4.385  28.262  22.986  1.00  0.00     0.208 A 
ATOM      3  C   UNL     1       4.376  29.634  22.693  1.00  0.00     0.238 A 
ATOM      4  O   UNL     1       3.538  30.069  21.861  1.00  0.00    -0.285 OA
ATOM      5  C   UNL     1       5.316  30.493  23.312  1.00  0.00     0.111 A 
ATOM      6  C   UNL     1       5.372  31.908  23.123  1.00  0.00     0.134 A 
ATOM      7  C   UNL     1       6.414  32.642  23.705  1.00  0.00     0.093 A 
ATOM      8  C   UNL     1       7.364  32.022  24.520  1.00  0.00     0.123 A 
ATOM      9  C   UNL     1       7.286  30.652  24.754  1.00  0.00     0.094 A 
ATOM     10  C   UNL     1       6.282  29.887  24.157  1.00  0.00     0.146 A 
ATOM     11  O   UNL     1       6.259  28.580  24.391  1.00  0.00    -0.452 OA
ENDROOT
BRANCH   1  12
ATOM     12  C   UNL     1       5.452  26.318  24.196  1.00  0.00     0.025 A 
ATOM     13  C   UNL     1       6.558  25.568  23.765  1.00  0.00     0.016 A 
ATOM     14  C   UNL     1       6.646  24.205  24.061  1.00  0.00     0.051 A 
ATOM     15  C   UNL     1       5.629  23.568  24.777  1.00  0.00     0.157 A 
ATOM     16  C   UNL     1       4.419  25.672  24.900  1.00  0.00     0.062 A 
ATOM     17  C   UNL     1       4.507  24.303  25.195  1.00  0.00     0.158 A 
BRANCH  15  18
ATOM     18  O   UNL     1       5.746  22.208  25.059  1.00  0.00    -0.504 OA
ATOM     19  H   UNL     1       6.232  21.869  25.881  1.00  0.00     0.293 HD
ENDBRANCH  15  18
BRANCH  17  20
ATOM     20  O   UNL     1       3.481  23.672  25.898  1.00  0.00    -0.504 OA
ATOM     21  H   UNL     1       2.654  23.321  25.429  1.00  0.00     0.293 HD
ENDBRANCH  17  20
ENDBRANCH   1  12
BRANCH   2  22
ATOM     22  O   UNL     1       3.417  27.409  22.446  1.00  0.00    -0.502 OA
ATOM     23  H   UNL     1       3.111  26.566  22.916  1.00  0.00     0.293 HD
ENDBRANCH   2  22
BRANCH   6  24
ATOM     24  O   UNL     1       4.424  32.639  22.402  1.00  0.00    -0.507 OA
ATOM     25  H   UNL     1       3.879  32.281  21.634  1.00  0.00     0.293 HD
ENDBRANCH   6  24
BRANCH   8  26
ATOM     26  O   UNL     1       8.387  32.763  25.108  1.00  0.00    -0.508 OA
ATOM     27  H   UNL     1       9.351  32.449  25.082  1.00  0.00     0.293 HD
ENDBRANCH   8  26
TORSDOF 6
ENDMDL
MODEL 5
REMARK VINA RESULT:    -4.427      2.064      3.155
REMARK INTER + INTRA:          -5.379
REMARK INTER:                  -5.070
REMARK INTRA:                  -0.308
REMARK UNBOUND:                -0.046
REMARK SMILES O=c1c(O)c(-c2ccc(O)c(O)c2)oc2cc(O)cc(O)c12
REMARK SMILES IDX 5 1 3 2 2 3 1 4 22 5 20 6 19 7 17 8 16 9 15 10 14 11 6 12
REMARK SMILES IDX 7 13 8 14 9 15 13 16 11 17 10 18 12 20 4 22 21 24 18 26
REMARK H PARENT 10 19 12 21 4 23 21 25 18 27
REMARK Flexibility Score: inf
ROOT
ATOM      1  C   UNL     1       6.093  27.037  24.556  1.00  0.00     0.180 A 
ATOM      2  C   UNL     1       5.051  26.093  24.561  1.00  0.00     0.208 A 
ATOM      3  C   UNL     1       5.341  24.760  24.888  1.00  0.00     0.238 A 
ATOM      4  O   UNL     1       4.391  23.937  24.963  1.00  0.00    -0.285 OA
ATOM      5  C   UNL     1       6.677  24.372  25.151  1.00  0.00     0.111 A 
ATOM      6  C   UNL     1       7.093  23.039  25.449  1.00  0.00     0.134 A 
ATOM      7  C   UNL     1       8.427  22.793  25.797  1.00  0.00     0.093 A 
ATOM      8  C   UNL     1       9.373  23.821  25.794  1.00  0.00     0.123 A 
ATOM      9  C   UNL     1       8.988  25.114  25.452  1.00  0.00     0.094 A 
ATOM     10  C   UNL     1       7.657  25.398  25.138  1.00  0.00     0.146 A 
ATOM     11  O   UNL     1       7.331  26.650  24.839  1.00  0.00    -0.452 OA
ENDROOT
BRANCH   1  12
ATOM     12  C   UNL     1       5.864  28.463  24.236  1.00  0.00     0.025 A 
ATOM     13  C   UNL     1       5.651  29.378  25.279  1.00  0.00     0.016 A 
ATOM     14  C   UNL     1       5.412  30.726  25.000  1.00  0.00     0.051 A 
ATOM     15  C   UNL     1       5.366  31.178  23.678  1.00  0.00     0.157 A 
ATOM     16  C   UNL     1       5.797  28.915  22.905  1.00  0.00     0.062 A 
ATOM     17  C   UNL     1       5.555  30.268  22.624  1.00  0.00     0.158 A 
BRANCH  15  18
ATOM     18  O   UNL     1       5.128  32.529  23.430  1.00  0.00    -0.504 OA
ATOM     19  H   UNL     1       5.513  33.004  22.622  1.00  0.00     0.293 HD
ENDBRANCH  15  18
BRANCH  17  20
ATOM     20  O   UNL     1       5.496  30.709  21.302  1.00  0.00    -0.504 OA
ATOM     21  H   UNL     1       5.945  30.196  20.552  1.00  0.00     0.293 HD
ENDBRANCH  17  20
ENDBRANCH   1  12
BRANCH   2  22
ATOM     22  O   UNL     1       3.750  26.481  24.224  1.00  0.00    -0.502 OA
ATOM     23  H   UNL     1       3.463  27.451  24.191  1.00  0.00     0.293 HD
ENDBRANCH   2  22
BRANCH   6  24
ATOM     24  O   UNL     1       6.250  21.925  25.394  1.00  0.00    -0.507 OA
ATOM     25  H   UNL     1       6.379  21.076  25.920  1.00  0.00     0.293 HD
ENDBRANCH   6  24
BRANCH   8  26
ATOM     26  O   UNL     1      10.703  23.564  26.125  1.00  0.00    -0.508 OA
ATOM     27  H   UNL     1      10.962  23.214  27.041  1.00  0.00     0.293 HD
ENDBRANCH   8  26
TORSDOF 6
ENDMDL
MODEL 6
REMARK VINA RESULT:    -4.379      3.152      4.790
REMARK INTER + INTRA:          -5.321
REMARK INTER:                  -4.999
REMARK INTRA:                  -0.323
REMARK UNBOUND:                -0.046
REMARK SMILES O=c1c(O)c(-c2ccc(O)c(O)c2)oc2cc(O)cc(O)c12
REMARK SMILES IDX 5 1 3 2 2 3 1 4 22 5 20 6 19 7 17 8 16 9 15 10 14 11 6 12
REMARK SMILES IDX 7 13 8 14 9 15 13 16 11 17 10 18 12 20 4 22 21 24 18 26
REMARK H PARENT 10 19 12 21 4 23 21 25 18 27
REMARK Flexibility Score: inf
ROOT
ATOM      1  C   UNL     1       3.801  30.985  22.006  1.00  0.00     0.180 A 
ATOM      2  C   UNL     1       3.764  29.639  22.407  1.00  0.00     0.208 A 
ATOM      3  C   UNL     1       4.733  29.168  23.306  1.00  0.00     0.238 A 
ATOM      4  O   UNL     1       4.650  27.982  23.718  1.00  0.00    -0.285 OA
ATOM      5  C   UNL     1       5.763  30.033  23.750  1.00  0.00     0.111 A 
ATOM      6  C   UNL     1       6.823  29.652  24.627  1.00  0.00     0.134 A 
ATOM      7  C   UNL     1       7.725  30.622  25.083  1.00  0.00     0.093 A 
ATOM      8  C   UNL     1       7.642  31.945  24.644  1.00  0.00     0.123 A 
ATOM      9  C   UNL     1       6.645  32.315  23.747  1.00  0.00     0.094 A 
ATOM     10  C   UNL     1       5.707  31.379  23.304  1.00  0.00     0.146 A 
ATOM     11  O   UNL     1       4.759  31.781  22.465  1.00  0.00    -0.452 OA
ENDROOT
BRANCH   1  12
ATOM     12  C   UNL     1       2.805  31.558  21.073  1.00  0.00     0.025 A 
ATOM     13  C   UNL     1       1.607  32.084  21.582  1.00  0.00     0.016 A 
ATOM     14  C   UNL     1       0.644  32.611  20.718  1.00  0.00     0.051 A 
ATOM     15  C   UNL     1       0.854  32.607  19.336  1.00  0.00     0.157 A 
ATOM     16  C   UNL     1       3.007  31.536  19.681  1.00  0.00     0.062 A 
ATOM     17  C   UNL     1       2.039  32.063  18.813  1.00  0.00     0.158 A 
BRANCH  15  18
ATOM     18  O   UNL     1      -0.125  33.142  18.499  1.00  0.00    -0.504 OA
ATOM     19  H   UNL     1      -0.488  34.080  18.626  1.00  0.00     0.293 HD
ENDBRANCH  15  18
BRANCH  17  20
ATOM     20  O   UNL     1       2.249  32.043  17.435  1.00  0.00    -0.504 OA
ATOM     21  H   UNL     1       2.451  32.891  16.917  1.00  0.00     0.293 HD
ENDBRANCH  17  20
ENDBRANCH   1  12
BRANCH   2  22
ATOM     22  O   UNL     1       2.785  28.780  21.897  1.00  0.00    -0.502 OA
ATOM     23  H   UNL     1       2.550  28.747  20.913  1.00  0.00     0.293 HD
ENDBRANCH   2  22
BRANCH   6  24
ATOM     24  O   UNL     1       7.051  28.341  25.056  1.00  0.00    -0.507 OA
ATOM     25  H   UNL     1       7.417  28.084  25.959  1.00  0.00     0.293 HD
ENDBRANCH   6  24
BRANCH   8  26
ATOM     26  O   UNL     1       8.554  32.900  25.090  1.00  0.00    -0.508 OA
ATOM     27  H   UNL     1       9.199  33.354  24.453  1.00  0.00     0.293 HD
ENDBRANCH   8  26
TORSDOF 6
ENDMDL
MODEL 7
REMARK VINA RESULT:    -4.355      2.860      4.660
REMARK INTER + INTRA:          -5.291
REMARK INTER:                  -5.007
REMARK INTRA:                  -0.284
REMARK UNBOUND:                -0.046
REMARK SMILES O=c1c(O)c(-c2ccc(O)c(O)c2)oc2cc(O)cc(O)c12
REMARK SMILES IDX 5 1 3 2 2 3 1 4 22 5 20 6 19 7 17 8 16 9 15 10 14 11 6 12
REMARK SMILES IDX 7 13 8 14 9 15 13 16 11 17 10 18 12 20 4 22 21 24 18 26
REMARK H PARENT 10 19 12 21 4 23 21 25 18 27
REMARK Flexibility Score: inf
ROOT
ATOM      1  C   UNL     1       3.893  30.649  22.377  1.00  0.00     0.180 A 
ATOM      2  C   UNL     1       4.807  31.474  23.055  1.00  0.00     0.208 A 
ATOM      3  C   UNL     1       5.758  30.886  23.902  1.00  0.00     0.238 A 
ATOM      4  O   UNL     1       6.619  31.624  24.448  1.00  0.00    -0.285 OA
ATOM      5  C   UNL     1       5.751  29.485  24.106  1.00  0.00     0.111 A 
ATOM      6  C   UNL     1       6.640  28.786  24.977  1.00  0.00     0.134 A 
ATOM      7  C   UNL     1       6.610  27.386  25.017  1.00  0.00     0.093 A 
ATOM      8  C   UNL     1       5.679  26.664  24.266  1.00  0.00     0.123 A 
ATOM      9  C   UNL     1       4.771  27.340  23.456  1.00  0.00     0.094 A 
ATOM     10  C   UNL     1       4.802  28.733  23.365  1.00  0.00     0.146 A 
ATOM     11  O   UNL     1       3.932  29.335  22.562  1.00  0.00    -0.452 OA
ENDROOT
BRANCH   1  12
ATOM     12  C   UNL     1       2.871  31.194  21.456  1.00  0.00     0.025 A 
ATOM     13  C   UNL     1       1.525  31.220  21.857  1.00  0.00     0.016 A 
ATOM     14  C   UNL     1       0.541  31.710  20.996  1.00  0.00     0.051 A 
ATOM     15  C   UNL     1       0.880  32.167  19.719  1.00  0.00     0.157 A 
ATOM     16  C   UNL     1       3.209  31.635  20.164  1.00  0.00     0.062 A 
ATOM     17  C   UNL     1       2.220  32.125  19.298  1.00  0.00     0.158 A 
BRANCH  15  18
ATOM     18  O   UNL     1      -0.124  32.654  18.883  1.00  0.00    -0.504 OA
ATOM     19  H   UNL     1      -0.379  32.188  18.020  1.00  0.00     0.293 HD
ENDBRANCH  15  18
BRANCH  17  20
ATOM     20  O   UNL     1       2.564  32.566  18.021  1.00  0.00    -0.504 OA
ATOM     21  H   UNL     1       2.516  33.546  17.767  1.00  0.00     0.293 HD
ENDBRANCH  17  20
ENDBRANCH   1  12
BRANCH   2  22
ATOM     22  O   UNL     1       4.748  32.863  22.900  1.00  0.00    -0.502 OA
ATOM     23  H   UNL     1       4.961  33.322  22.023  1.00  0.00     0.293 HD
ENDBRANCH   2  22
BRANCH   6  24
ATOM     24  O   UNL     1       7.549  29.412  25.836  1.00  0.00    -0.507 OA
ATOM     25  H   UNL     1       8.236  30.093  25.554  1.00  0.00     0.293 HD
ENDBRANCH   6  24
BRANCH   8  26
ATOM     26  O   UNL     1       5.644  25.272  24.325  1.00  0.00    -0.508 OA
ATOM     27  H   UNL     1       4.862  24.746  23.950  1.00  0.00     0.293 HD
ENDBRANCH   8  26
TORSDOF 6
ENDMDL
MODEL 8
REMARK VINA RESULT:    -4.354      2.298      6.814
REMARK INTER + INTRA:          -5.291
REMARK INTER:                  -4.960
REMARK INTRA:                  -0.331
REMARK UNBOUND:                -0.046
REMARK SMILES O=c1c(O)c(-c2ccc(O)c(O)c2)oc2cc(O)cc(O)c12
REMARK SMILES IDX 5 1 3 2 2 3 1 4 22 5 20 6 19 7 17 8 16 9 15 10 14 11 6 12
REMARK SMILES IDX 7 13 8 14 9 15 13 16 11 17 10 18 12 20 4 22 21 24 18 26
REMARK H PARENT 10 19 12 21 4 23 21 25 18 27
REMARK Flexibility Score: inf
ROOT
ATOM      1  C   UNL     1       9.194  27.429  24.821  1.00  0.00     0.180 A 
ATOM      2  C   UNL     1       8.295  26.351  24.896  1.00  0.00     0.208 A 
ATOM      3  C   UNL     1       6.918  26.615  24.945  1.00  0.00     0.238 A 
ATOM      4  O   UNL     1       6.117  25.643  24.937  1.00  0.00    -0.285 OA
ATOM      5  C   UNL     1       6.456  27.953  24.977  1.00  0.00     0.111 A 
ATOM      6  C   UNL     1       5.084  28.337  25.071  1.00  0.00     0.134 A 
ATOM      7  C   UNL     1       4.739  29.692  24.987  1.00  0.00     0.093 A 
ATOM      8  C   UNL     1       5.720  30.680  24.875  1.00  0.00     0.123 A 
ATOM      9  C   UNL     1       7.064  30.318  24.837  1.00  0.00     0.094 A 
ATOM     10  C   UNL     1       7.438  28.973  24.880  1.00  0.00     0.146 A 
ATOM     11  O   UNL     1       8.730  28.673  24.819  1.00  0.00    -0.452 OA
ENDROOT
BRANCH   1  12
ATOM     12  C   UNL     1      10.659  27.231  24.751  1.00  0.00     0.025 A 
ATOM     13  C   UNL     1      11.410  27.214  25.937  1.00  0.00     0.016 A 
ATOM     14  C   UNL     1      12.797  27.050  25.894  1.00  0.00     0.051 A 
ATOM     15  C   UNL     1      13.456  26.915  24.668  1.00  0.00     0.157 A 
ATOM     16  C   UNL     1      11.325  27.116  23.518  1.00  0.00     0.062 A 
ATOM     17  C   UNL     1      12.718  26.954  23.473  1.00  0.00     0.158 A 
BRANCH  15  18
ATOM     18  O   UNL     1      14.840  26.750  24.656  1.00  0.00    -0.504 OA
ATOM     19  H   UNL     1      15.475  27.510  24.871  1.00  0.00     0.293 HD
ENDBRANCH  15  18
BRANCH  17  20
ATOM     20  O   UNL     1      13.370  26.834  22.246  1.00  0.00    -0.504 OA
ATOM     21  H   UNL     1      13.687  25.937  21.899  1.00  0.00     0.293 HD
ENDBRANCH  17  20
ENDBRANCH   1  12
BRANCH   2  22
ATOM     22  O   UNL     1       8.774  25.038  24.941  1.00  0.00    -0.502 OA
ATOM     23  H   UNL     1       8.160  24.238  25.025  1.00  0.00     0.293 HD
ENDBRANCH   2  22
BRANCH   6  24
ATOM     24  O   UNL     1       4.032  27.439  25.273  1.00  0.00    -0.507 OA
ATOM     25  H   UNL     1       3.166  27.437  24.757  1.00  0.00     0.293 HD
ENDBRANCH   6  24
BRANCH   8  26
ATOM     26  O   UNL     1       5.369  32.027  24.809  1.00  0.00    -0.508 OA
ATOM     27  H   UNL     1       5.963  32.749  25.200  1.00  0.00     0.293 HD
ENDBRANCH   8  26
TORSDOF 6
ENDMDL
