MODEL 1
REMARK VINA RESULT:    -4.557      0.000      0.000
REMARK INTER + INTRA:          -5.356
REMARK INTER:                  -5.223
REMARK INTRA:                  -0.134
REMARK UNBOUND:                -0.134
REMARK SMILES COc1ccc(C(C)=O)cc1O
REMARK SMILES IDX 6 1 10 2 11 3 3 4 4 5 5 6 7 7 8 8 9 9 12 10 2 12 1 13
REMARK H PARENT 12 11
REMARK Flexibility Score: inf
ROOT
ATOM      1  C   UNL     1      17.482  18.823  17.446  1.00  0.00     0.021 A 
ATOM      2  C   UNL     1      16.858  19.980  16.944  1.00  0.00     0.062 A 
ATOM      3  C   UNL     1      16.351  20.015  15.639  1.00  0.00     0.158 A 
ATOM      4  C   UNL     1      16.460  18.887  14.809  1.00  0.00     0.160 A 
ATOM      5  C   UNL     1      17.082  17.728  15.306  1.00  0.00     0.051 A 
ATOM      6  C   UNL     1      17.587  17.698  16.609  1.00  0.00     0.016 A 
ENDROOT
BRANCH   1   7
ATOM      7  C   UNL     1      18.026  18.773  18.830  1.00  0.00     0.159 C 
ATOM      8  C   UNL     1      17.974  17.523  19.656  1.00  0.00     0.093 C 
ATOM      9  O   UNL     1      18.548  19.803  19.336  1.00  0.00    -0.295 OA
ENDBRANCH   1   7
BRANCH   3  10
ATOM     10  O   UNL     1      15.740  21.186  15.188  1.00  0.00    -0.504 OA
ATOM     11  H   UNL     1      15.473  21.316  14.220  1.00  0.00     0.293 HD
ENDBRANCH   3  10
BRANCH   4  12
ATOM     12  O   UNL     1      15.941  18.952  13.505  1.00  0.00    -0.493 OA
ATOM     13  C   UNL     1      16.729  19.125  12.331  1.00  0.00     0.278 C 
ENDBRANCH   4  12
TORSDOF 3
ENDMDL
MODEL 2
REMARK VINA RESULT:    -4.535      2.168      4.772
REMARK INTER + INTRA:          -5.332
REMARK INTER:                  -5.217
REMARK INTRA:                  -0.115
REMARK UNBOUND:                -0.134
REMARK SMILES COc1ccc(C(C)=O)cc1O
REMARK SMILES IDX 6 1 10 2 11 3 3 4 4 5 5 6 7 7 8 8 9 9 12 10 2 12 1 13
REMARK H PARENT 12 11
REMARK Flexibility Score: inf
ROOT
ATOM      1  C   UNL     1      17.355  17.951  16.435  1.00  0.00     0.021 A 
ATOM      2  C   UNL     1      17.655  17.625  17.771  1.00  0.00     0.062 A 
ATOM      3  C   UNL     1      17.878  18.627  18.723  1.00  0.00     0.158 A 
ATOM      4  C   UNL     1      17.806  19.980  18.354  1.00  0.00     0.160 A 
ATOM      5  C   UNL     1      17.507  20.311  17.020  1.00  0.00     0.051 A 
ATOM      6  C   UNL     1      17.285  19.308  16.074  1.00  0.00     0.016 A 
ENDROOT
BRANCH   1   7
ATOM      7  C   UNL     1      17.116  16.895  15.414  1.00  0.00     0.159 C 
ATOM      8  C   UNL     1      18.004  16.737  14.216  1.00  0.00     0.093 C 
ATOM      9  O   UNL     1      16.144  16.104  15.546  1.00  0.00    -0.295 OA
ENDBRANCH   1   7
BRANCH   3  10
ATOM     10  O   UNL     1      18.171  18.252  20.035  1.00  0.00    -0.504 OA
ATOM     11  H   UNL     1      19.074  18.431  20.458  1.00  0.00     0.293 HD
ENDBRANCH   3  10
BRANCH   4  12
ATOM     12  O   UNL     1      18.035  20.963  19.331  1.00  0.00    -0.493 OA
ATOM     13  C   UNL     1      17.122  22.008  19.653  1.00  0.00     0.278 C 
ENDBRANCH   4  12
TORSDOF 3
ENDMDL
MODEL 3
REMARK VINA RESULT:    -4.501      1.048      2.014
REMARK INTER + INTRA:          -5.292
REMARK INTER:                  -5.179
REMARK INTRA:                  -0.113
REMARK UNBOUND:                -0.134
REMARK SMILES COc1ccc(C(C)=O)cc1O
REMARK SMILES IDX 6 1 10 2 11 3 3 4 4 5 5 6 7 7 8 8 9 9 12 10 2 12 1 13
REMARK H PARENT 12 11
REMARK Flexibility Score: inf
ROOT
ATOM      1  C   UNL     1      17.653  19.042  17.243  1.00  0.00     0.021 A 
ATOM      2  C   UNL     1      17.514  17.957  16.357  1.00  0.00     0.062 A 
ATOM      3  C   UNL     1      17.125  18.160  15.028  1.00  0.00     0.158 A 
ATOM      4  C   UNL     1      16.865  19.458  14.558  1.00  0.00     0.160 A 
ATOM      5  C   UNL     1      17.003  20.545  15.440  1.00  0.00     0.051 A 
ATOM      6  C   UNL     1      17.391  20.338  16.765  1.00  0.00     0.016 A 
ENDROOT
BRANCH   1   7
ATOM      7  C   UNL     1      18.066  18.840  18.658  1.00  0.00     0.159 C 
ATOM      8  C   UNL     1      17.930  17.512  19.342  1.00  0.00     0.093 C 
ATOM      9  O   UNL     1      18.546  19.804  19.314  1.00  0.00    -0.295 OA
ENDBRANCH   1   7
BRANCH   3  10
ATOM     10  O   UNL     1      17.002  17.052  14.189  1.00  0.00    -0.504 OA
ATOM     11  H   UNL     1      16.660  17.130  13.238  1.00  0.00     0.293 HD
ENDBRANCH   3  10
BRANCH   4  12
ATOM     12  O   UNL     1      16.477  19.630  13.219  1.00  0.00    -0.493 OA
ATOM     13  C   UNL     1      15.125  19.707  12.775  1.00  0.00     0.278 C 
ENDBRANCH   4  12
TORSDOF 3
ENDMDL
MODEL 4
REMARK VINA RESULT:    -4.394      7.214      8.683
REMARK INTER + INTRA:          -5.170
REMARK INTER:                  -5.074
REMARK INTRA:                  -0.096
REMARK UNBOUND:                -0.134
REMARK SMILES COc1ccc(C(C)=O)cc1O
REMARK SMILES IDX 6 1 10 2 11 3 3 4 4 5 5 6 7 7 8 8 9 9 12 10 2 12 1 13
REMARK H PARENT 12 11
REMARK Flexibility Score: inf
ROOT
ATOM      1  C   UNL     1      20.834  20.418   9.090  1.00  0.00     0.021 A 
ATOM      2  C   UNL     1      21.072  19.861  10.360  1.00  0.00     0.062 A 
ATOM      3  C   UNL     1      20.893  18.492  10.589  1.00  0.00     0.158 A 
ATOM      4  C   UNL     1      20.469  17.650   9.546  1.00  0.00     0.160 A 
ATOM      5  C   UNL     1      20.230  18.203   8.276  1.00  0.00     0.051 A 
ATOM      6  C   UNL     1      20.410  19.570   8.052  1.00  0.00     0.016 A 
ENDROOT
BRANCH   1   7
ATOM      7  C   UNL     1      21.020  21.872   8.833  1.00  0.00     0.159 C 
ATOM      8  C   UNL     1      21.120  22.867   9.951  1.00  0.00     0.093 C 
ATOM      9  O   UNL     1      21.098  22.294   7.648  1.00  0.00    -0.295 OA
ENDBRANCH   1   7
BRANCH   3  10
ATOM     10  O   UNL     1      21.142  17.986  11.866  1.00  0.00    -0.504 OA
ATOM     11  H   UNL     1      20.433  17.501  12.402  1.00  0.00     0.293 HD
ENDBRANCH   3  10
BRANCH   4  12
ATOM     12  O   UNL     1      20.299  16.281   9.807  1.00  0.00    -0.493 OA
ATOM     13  C   UNL     1      19.412  15.427   9.089  1.00  0.00     0.278 C 
ENDBRANCH   4  12
TORSDOF 3
ENDMDL
MODEL 5
REMARK VINA RESULT:    -4.383      1.247      4.654
REMARK INTER + INTRA:          -5.157
REMARK INTER:                  -5.033
REMARK INTRA:                  -0.124
REMARK UNBOUND:                -0.134
REMARK SMILES COc1ccc(C(C)=O)cc1O
REMARK SMILES IDX 6 1 10 2 11 3 3 4 4 5 5 6 7 7 8 8 9 9 12 10 2 12 1 13
REMARK H PARENT 12 11
REMARK Flexibility Score: inf
ROOT
ATOM      1  C   UNL     1      16.532  19.493  15.443  1.00  0.00     0.021 A 
ATOM      2  C   UNL     1      16.851  20.357  16.507  1.00  0.00     0.062 A 
ATOM      3  C   UNL     1      17.455  19.870  17.672  1.00  0.00     0.158 A 
ATOM      4  C   UNL     1      17.752  18.502  17.795  1.00  0.00     0.160 A 
ATOM      5  C   UNL     1      17.435  17.635  16.734  1.00  0.00     0.051 A 
ATOM      6  C   UNL     1      16.832  18.126  15.573  1.00  0.00     0.016 A 
ENDROOT
BRANCH   1   7
ATOM      7  C   UNL     1      15.890  19.998  14.199  1.00  0.00     0.159 C 
ATOM      8  C   UNL     1      14.512  19.571  13.790  1.00  0.00     0.093 C 
ATOM      9  O   UNL     1      16.509  20.809  13.458  1.00  0.00    -0.295 OA
ENDBRANCH   1   7
BRANCH   3  10
ATOM     10  O   UNL     1      17.752  20.766  18.699  1.00  0.00    -0.504 OA
ATOM     11  H   UNL     1      18.653  20.776  19.163  1.00  0.00     0.293 HD
ENDBRANCH   3  10
BRANCH   4  12
ATOM     12  O   UNL     1      18.358  18.043  18.975  1.00  0.00    -0.493 OA
ATOM     13  C   UNL     1      17.670  17.374  20.028  1.00  0.00     0.278 C 
ENDBRANCH   4  12
TORSDOF 3
ENDMDL
MODEL 6
REMARK VINA RESULT:    -4.372      6.310      8.326
REMARK INTER + INTRA:          -5.145
REMARK INTER:                  -5.049
REMARK INTRA:                  -0.096
REMARK UNBOUND:                -0.134
REMARK SMILES COc1ccc(C(C)=O)cc1O
REMARK SMILES IDX 6 1 10 2 11 3 3 4 4 5 5 6 7 7 8 8 9 9 12 10 2 12 1 13
REMARK H PARENT 12 11
REMARK Flexibility Score: inf
ROOT
ATOM      1  C   UNL     1      19.783  15.854  11.170  1.00  0.00     0.021 A 
ATOM      2  C   UNL     1      20.927  15.122  10.800  1.00  0.00     0.062 A 
ATOM      3  C   UNL     1      20.891  13.725  10.722  1.00  0.00     0.158 A 
ATOM      4  C   UNL     1      19.704  13.031  11.014  1.00  0.00     0.160 A 
ATOM      5  C   UNL     1      18.560  13.759  11.384  1.00  0.00     0.051 A 
ATOM      6  C   UNL     1      18.600  15.153  11.461  1.00  0.00     0.016 A 
ENDROOT
BRANCH   1   7
ATOM      7  C   UNL     1      19.808  17.340  11.257  1.00  0.00     0.159 C 
ATOM      8  C   UNL     1      21.019  18.136  10.871  1.00  0.00     0.093 C 
ATOM      9  O   UNL     1      18.789  17.961  11.663  1.00  0.00    -0.295 OA
ENDBRANCH   1   7
BRANCH   3  10
ATOM     10  O   UNL     1      22.051  13.044  10.350  1.00  0.00    -0.504 OA
ATOM     11  H   UNL     1      22.112  12.033  10.367  1.00  0.00     0.293 HD
ENDBRANCH   3  10
BRANCH   4  12
ATOM     12  O   UNL     1      19.699  11.629  10.927  1.00  0.00    -0.493 OA
ATOM     13  C   UNL     1      18.593  10.803  11.278  1.00  0.00     0.278 C 
ENDBRANCH   4  12
TORSDOF 3
ENDMDL
MODEL 7
REMARK VINA RESULT:    -4.353      9.070     10.914
REMARK INTER + INTRA:          -5.123
REMARK INTER:                  -4.989
REMARK INTRA:                  -0.134
REMARK UNBOUND:                -0.134
REMARK SMILES COc1ccc(C(C)=O)cc1O
REMARK SMILES IDX 6 1 10 2 11 3 3 4 4 5 5 6 7 7 8 8 9 9 12 10 2 12 1 13
REMARK H PARENT 12 11
REMARK Flexibility Score: inf
ROOT
ATOM      1  C   UNL     1      18.652   9.257  11.169  1.00  0.00     0.021 A 
ATOM      2  C   UNL     1      17.711   8.919  12.159  1.00  0.00     0.062 A 
ATOM      3  C   UNL     1      17.054   9.911  12.896  1.00  0.00     0.158 A 
ATOM      4  C   UNL     1      17.328  11.268  12.654  1.00  0.00     0.160 A 
ATOM      5  C   UNL     1      18.267  11.611  11.666  1.00  0.00     0.051 A 
ATOM      6  C   UNL     1      18.921  10.617  10.934  1.00  0.00     0.016 A 
ENDROOT
BRANCH   1   7
ATOM      7  C   UNL     1      19.357   8.212  10.379  1.00  0.00     0.159 C 
ATOM      8  C   UNL     1      20.661   8.485   9.691  1.00  0.00     0.093 C 
ATOM      9  O   UNL     1      18.858   7.059  10.278  1.00  0.00    -0.295 OA
ENDBRANCH   1   7
BRANCH   3  10
ATOM     10  O   UNL     1      16.128   9.525  13.866  1.00  0.00    -0.504 OA
ATOM     11  H   UNL     1      16.258   8.698  14.437  1.00  0.00     0.293 HD
ENDBRANCH   3  10
BRANCH   4  12
ATOM     12  O   UNL     1      16.652  12.241  13.409  1.00  0.00    -0.493 OA
ATOM     13  C   UNL     1      17.278  13.111  14.348  1.00  0.00     0.278 C 
ENDBRANCH   4  12
TORSDOF 3
ENDMDL
MODEL 8
REMARK VINA RESULT:    -4.323     10.606     12.705
REMARK INTER + INTRA:          -5.089
REMARK INTER:                  -4.965
REMARK INTRA:                  -0.124
REMARK UNBOUND:                -0.134
REMARK SMILES COc1ccc(C(C)=O)cc1O
REMARK SMILES IDX 6 1 10 2 11 3 3 4 4 5 5 6 7 7 8 8 9 9 12 10 2 12 1 13
REMARK H PARENT 12 11
REMARK Flexibility Score: inf
ROOT
ATOM      1  C   UNL     1      15.733   8.164   9.548  1.00  0.00     0.021 A 
ATOM      2  C   UNL     1      17.127   8.316   9.660  1.00  0.00     0.062 A 
ATOM      3  C   UNL     1      17.687   9.063  10.703  1.00  0.00     0.158 A 
ATOM      4  C   UNL     1      16.858   9.676  11.658  1.00  0.00     0.160 A 
ATOM      5  C   UNL     1      15.464   9.526  11.551  1.00  0.00     0.051 A 
ATOM      6  C   UNL     1      14.910   8.780  10.508  1.00  0.00     0.016 A 
ENDROOT
BRANCH   1   7
ATOM      7  C   UNL     1      15.124   7.373   8.445  1.00  0.00     0.159 C 
ATOM      8  C   UNL     1      13.676   6.982   8.455  1.00  0.00     0.093 C 
ATOM      9  O   UNL     1      15.833   7.014   7.466  1.00  0.00    -0.295 OA
ENDBRANCH   1   7
BRANCH   3  10
ATOM     10  O   UNL     1      19.076   9.185  10.771  1.00  0.00    -0.504 OA
ATOM     11  H   UNL     1      19.528   9.917  11.305  1.00  0.00     0.293 HD
ENDBRANCH   3  10
BRANCH   4  12
ATOM     12  O   UNL     1      17.450  10.419  12.693  1.00  0.00    -0.493 OA
ATOM     13  C   UNL     1      16.954  11.664  13.177  1.00  0.00     0.278 C 
ENDBRANCH   4  12
TORSDOF 3
ENDMDL
MODEL 9
REMARK VINA RESULT:    -4.284      8.094      9.760
REMARK INTER + INTRA:          -5.043
REMARK INTER:                  -4.938
REMARK INTRA:                  -0.105
REMARK UNBOUND:                -0.134
REMARK SMILES COc1ccc(C(C)=O)cc1O
REMARK SMILES IDX 6 1 10 2 11 3 3 4 4 5 5 6 7 7 8 8 9 9 12 10 2 12 1 13
REMARK H PARENT 12 11
REMARK Flexibility Score: inf
ROOT
ATOM      1  C   UNL     1      17.071  10.802  11.858  1.00  0.00     0.021 A 
ATOM      2  C   UNL     1      18.341  10.336  11.471  1.00  0.00     0.062 A 
ATOM      3  C   UNL     1      19.356  11.231  11.112  1.00  0.00     0.158 A 
ATOM      4  C   UNL     1      19.118  12.615  11.134  1.00  0.00     0.160 A 
ATOM      5  C   UNL     1      17.851  13.086  11.521  1.00  0.00     0.051 A 
ATOM      6  C   UNL     1      16.840  12.189  11.877  1.00  0.00     0.016 A 
ENDROOT
BRANCH   1   7
ATOM      7  C   UNL     1      15.982   9.862  12.241  1.00  0.00     0.159 C 
ATOM      8  C   UNL     1      14.920   9.443  11.269  1.00  0.00     0.093 C 
ATOM      9  O   UNL     1      15.940   9.397  13.412  1.00  0.00    -0.295 OA
ENDBRANCH   1   7
BRANCH   3  10
ATOM     10  O   UNL     1      20.599  10.719  10.736  1.00  0.00    -0.504 OA
ATOM     11  H   UNL     1      21.369  11.318  10.463  1.00  0.00     0.293 HD
ENDBRANCH   3  10
BRANCH   4  12
ATOM     12  O   UNL     1      20.157  13.488  10.770  1.00  0.00    -0.493 OA
ATOM     13  C   UNL     1      20.557  14.626  11.527  1.00  0.00     0.278 C 
ENDBRANCH   4  12
TORSDOF 3
ENDMDL
