MODEL 1
REMARK VINA RESULT:    -6.838      0.000      0.000
REMARK INTER + INTRA:          -8.436
REMARK INTER:                  -8.237
REMARK INTRA:                  -0.199
REMARK UNBOUND:                -0.199
REMARK SMILES Oc1cc(O)c2cc(O)c(-c3ccc(O)c(O)c3)[o+]c2c1.[Cl-]
REMARK SMILES IDX 10 1 19 2 20 3 21 4 2 5 3 6 4 7 6 8 7 9 8 10 11 11 12 12
REMARK SMILES IDX 13 13 14 14 18 15 16 16 15 17 17 19 9 21 1 23 5 25
REMARK H PARENT 15 18 17 20 9 22 1 24 5 26
REMARK Flexibility Score: inf
ROOT
ATOM      1  C   UNL     1      15.265 -23.940 -28.396  1.00  0.00     0.402 A 
ATOM      2  O   UNL     1      15.123 -25.172 -28.880  1.00  0.00    -0.202 OA
ATOM      3  C   UNL     1      16.087 -26.087 -28.839  1.00  0.00     0.368 A 
ATOM      4  C   UNL     1      15.843 -27.356 -29.372  1.00  0.00     0.162 A 
ATOM      5  C   UNL     1      16.837 -28.338 -29.340  1.00  0.00     0.128 A 
ATOM      6  C   UNL     1      18.080 -28.051 -28.771  1.00  0.00     0.093 A 
ATOM      7  C   UNL     1      18.349 -26.787 -28.230  1.00  0.00     0.136 A 
ATOM      8  C   UNL     1      17.345 -25.786 -28.263  1.00  0.00     0.125 A 
ATOM      9  C   UNL     1      17.530 -24.489 -27.757  1.00  0.00     0.078 A 
ATOM     10  C   UNL     1      16.494 -23.553 -27.829  1.00  0.00     0.223 A 
ENDROOT
BRANCH   1  11
ATOM     11  C   UNL     1      14.114 -23.014 -28.491  1.00  0.00     0.087 A 
ATOM     12  C   UNL     1      13.582 -22.703 -29.753  1.00  0.00     0.022 A 
ATOM     13  C   UNL     1      12.483 -21.847 -29.866  1.00  0.00     0.051 A 
ATOM     14  C   UNL     1      11.891 -21.302 -28.723  1.00  0.00     0.157 A 
ATOM     15  C   UNL     1      13.504 -22.482 -27.342  1.00  0.00     0.068 A 
ATOM     16  C   UNL     1      12.400 -21.623 -27.454  1.00  0.00     0.158 A 
BRANCH  14  17
ATOM     17  O   UNL     1      10.798 -20.449 -28.868  1.00  0.00    -0.504 OA
ATOM     18  H   UNL     1      10.275 -20.387 -29.733  1.00  0.00     0.293 HD
ENDBRANCH  14  17
BRANCH  16  19
ATOM     19  O   UNL     1      11.805 -21.094 -26.309  1.00  0.00    -0.504 OA
ATOM     20  H   UNL     1      10.885 -21.392 -26.002  1.00  0.00     0.293 HD
ENDBRANCH  16  19
ENDBRANCH   1  11
BRANCH  10  21
ATOM     21  O   UNL     1      16.693 -22.250 -27.372  1.00  0.00    -0.500 OA
ATOM     22  H   UNL     1      16.121 -21.479 -27.695  1.00  0.00     0.294 HD
ENDBRANCH  10  21
BRANCH   5  23
ATOM     23  O   UNL     1      16.600 -29.605 -29.870  1.00  0.00    -0.507 OA
ATOM     24  H   UNL     1      15.660 -29.930 -30.066  1.00  0.00     0.293 HD
ENDBRANCH   5  23
BRANCH   7  25
ATOM     25  O   UNL     1      19.616 -26.581 -27.676  1.00  0.00    -0.507 OA
ATOM     26  H   UNL     1      20.171 -27.303 -27.239  1.00  0.00     0.293 HD
ENDBRANCH   7  25
TORSDOF 6
ENDMDL
MODEL 2
REMARK VINA RESULT:    -6.718      2.269      4.388
REMARK INTER + INTRA:          -8.292
REMARK INTER:                  -8.178
REMARK INTRA:                  -0.114
REMARK UNBOUND:                -0.199
REMARK SMILES Oc1cc(O)c2cc(O)c(-c3ccc(O)c(O)c3)[o+]c2c1.[Cl-]
REMARK SMILES IDX 10 1 19 2 20 3 21 4 2 5 3 6 4 7 6 8 7 9 8 10 11 11 12 12
REMARK SMILES IDX 13 13 14 14 18 15 16 16 15 17 17 19 9 21 1 23 5 25
REMARK H PARENT 15 18 17 20 9 22 1 24 5 26
REMARK Flexibility Score: inf
ROOT
ATOM      1  C   UNL     1      12.855 -21.405 -27.904  1.00  0.00     0.402 A 
ATOM      2  O   UNL     1      14.057 -21.596 -27.367  1.00  0.00    -0.202 OA
ATOM      3  C   UNL     1      14.821 -22.649 -27.644  1.00  0.00     0.368 A 
ATOM      4  C   UNL     1      16.072 -22.760 -27.032  1.00  0.00     0.162 A 
ATOM      5  C   UNL     1      16.897 -23.855 -27.307  1.00  0.00     0.128 A 
ATOM      6  C   UNL     1      16.470 -24.840 -28.199  1.00  0.00     0.093 A 
ATOM      7  C   UNL     1      15.220 -24.751 -28.826  1.00  0.00     0.136 A 
ATOM      8  C   UNL     1      14.378 -23.644 -28.548  1.00  0.00     0.125 A 
ATOM      9  C   UNL     1      13.106 -23.479 -29.119  1.00  0.00     0.078 A 
ATOM     10  C   UNL     1      12.330 -22.363 -28.793  1.00  0.00     0.223 A 
ENDROOT
BRANCH   1  11
ATOM     11  C   UNL     1      12.103 -20.188 -27.524  1.00  0.00     0.087 A 
ATOM     12  C   UNL     1      11.663 -19.308 -28.527  1.00  0.00     0.022 A 
ATOM     13  C   UNL     1      10.935 -18.163 -28.193  1.00  0.00     0.051 A 
ATOM     14  C   UNL     1      10.621 -17.888 -26.859  1.00  0.00     0.157 A 
ATOM     15  C   UNL     1      11.768 -19.920 -26.185  1.00  0.00     0.068 A 
ATOM     16  C   UNL     1      11.035 -18.772 -25.850  1.00  0.00     0.158 A 
BRANCH  14  17
ATOM     17  O   UNL     1       9.895 -16.736 -26.558  1.00  0.00    -0.504 OA
ATOM     18  H   UNL     1       9.124 -16.421 -27.134  1.00  0.00     0.293 HD
ENDBRANCH  14  17
BRANCH  16  19
ATOM     19  O   UNL     1      10.713 -18.511 -24.518  1.00  0.00    -0.504 OA
ATOM     20  H   UNL     1      10.912 -19.179 -23.782  1.00  0.00     0.293 HD
ENDBRANCH  16  19
ENDBRANCH   1  11
BRANCH  10  21
ATOM     21  O   UNL     1      11.047 -22.223 -29.322  1.00  0.00    -0.500 OA
ATOM     22  H   UNL     1      10.224 -22.219 -28.729  1.00  0.00     0.294 HD
ENDBRANCH  10  21
BRANCH   5  23
ATOM     23  O   UNL     1      18.146 -23.972 -26.700  1.00  0.00    -0.507 OA
ATOM     24  H   UNL     1      19.000 -23.999 -27.245  1.00  0.00     0.293 HD
ENDBRANCH   5  23
BRANCH   7  25
ATOM     25  O   UNL     1      14.869 -25.777 -29.708  1.00  0.00    -0.507 OA
ATOM     26  H   UNL     1      15.379 -26.643 -29.807  1.00  0.00     0.293 HD
ENDBRANCH   7  25
TORSDOF 6
ENDMDL
MODEL 3
REMARK VINA RESULT:    -6.616      2.153      4.118
REMARK INTER + INTRA:          -8.169
REMARK INTER:                  -7.885
REMARK INTRA:                  -0.283
REMARK UNBOUND:                -0.199
REMARK SMILES Oc1cc(O)c2cc(O)c(-c3ccc(O)c(O)c3)[o+]c2c1.[Cl-]
REMARK SMILES IDX 10 1 19 2 20 3 21 4 2 5 3 6 4 7 6 8 7 9 8 10 11 11 12 12
REMARK SMILES IDX 13 13 14 14 18 15 16 16 15 17 17 19 9 21 1 23 5 25
REMARK H PARENT 15 18 17 20 9 22 1 24 5 26
REMARK Flexibility Score: inf
ROOT
ATOM      1  C   UNL     1      15.405 -23.412 -28.120  1.00  0.00     0.402 A 
ATOM      2  O   UNL     1      16.003 -22.518 -27.336  1.00  0.00    -0.202 OA
ATOM      3  C   UNL     1      17.295 -22.568 -27.027  1.00  0.00     0.368 A 
ATOM      4  C   UNL     1      17.834 -21.581 -26.198  1.00  0.00     0.162 A 
ATOM      5  C   UNL     1      19.190 -21.608 -25.859  1.00  0.00     0.128 A 
ATOM      6  C   UNL     1      20.011 -22.624 -26.353  1.00  0.00     0.093 A 
ATOM      7  C   UNL     1      19.494 -23.625 -27.186  1.00  0.00     0.136 A 
ATOM      8  C   UNL     1      18.118 -23.604 -27.530  1.00  0.00     0.125 A 
ATOM      9  C   UNL     1      17.512 -24.572 -28.347  1.00  0.00     0.078 A 
ATOM     10  C   UNL     1      16.147 -24.488 -28.640  1.00  0.00     0.223 A 
ENDROOT
BRANCH   1  11
ATOM     11  C   UNL     1      13.961 -23.243 -28.400  1.00  0.00     0.087 A 
ATOM     12  C   UNL     1      13.550 -22.811 -29.671  1.00  0.00     0.022 A 
ATOM     13  C   UNL     1      12.192 -22.663 -29.964  1.00  0.00     0.051 A 
ATOM     14  C   UNL     1      11.225 -22.960 -29.000  1.00  0.00     0.157 A 
ATOM     15  C   UNL     1      12.985 -23.561 -27.438  1.00  0.00     0.068 A 
ATOM     16  C   UNL     1      11.621 -23.415 -27.732  1.00  0.00     0.158 A 
BRANCH  14  17
ATOM     17  O   UNL     1       9.877 -22.801 -29.321  1.00  0.00    -0.504 OA
ATOM     18  H   UNL     1       9.440 -23.318 -30.075  1.00  0.00     0.293 HD
ENDBRANCH  14  17
BRANCH  16  19
ATOM     19  O   UNL     1      10.660 -23.727 -26.770  1.00  0.00    -0.504 OA
ATOM     20  H   UNL     1       9.792 -24.189 -27.017  1.00  0.00     0.293 HD
ENDBRANCH  16  19
ENDBRANCH   1  11
BRANCH  10  21
ATOM     21  O   UNL     1      15.534 -25.476 -29.411  1.00  0.00    -0.500 OA
ATOM     22  H   UNL     1      15.781 -26.455 -29.316  1.00  0.00     0.294 HD
ENDBRANCH  10  21
BRANCH   5  23
ATOM     23  O   UNL     1      19.734 -20.626 -25.033  1.00  0.00    -0.507 OA
ATOM     24  H   UNL     1      19.640 -20.670 -24.024  1.00  0.00     0.293 HD
ENDBRANCH   5  23
BRANCH   7  25
ATOM     25  O   UNL     1      20.382 -24.605 -27.640  1.00  0.00    -0.507 OA
ATOM     26  H   UNL     1      21.351 -24.669 -27.362  1.00  0.00     0.293 HD
ENDBRANCH   7  25
TORSDOF 6
ENDMDL
MODEL 4
REMARK VINA RESULT:    -6.516      5.067      6.373
REMARK INTER + INTRA:          -8.048
REMARK INTER:                  -7.700
REMARK INTRA:                  -0.348
REMARK UNBOUND:                -0.199
REMARK SMILES Oc1cc(O)c2cc(O)c(-c3ccc(O)c(O)c3)[o+]c2c1.[Cl-]
REMARK SMILES IDX 10 1 19 2 20 3 21 4 2 5 3 6 4 7 6 8 7 9 8 10 11 11 12 12
REMARK SMILES IDX 13 13 14 14 18 15 16 16 15 17 17 19 9 21 1 23 5 25
REMARK H PARENT 15 18 17 20 9 22 1 24 5 26
REMARK Flexibility Score: inf
ROOT
ATOM      1  C   UNL     1      19.318 -25.217 -29.326  1.00  0.00     0.402 A 
ATOM      2  O   UNL     1      18.663 -25.618 -30.412  1.00  0.00    -0.202 OA
ATOM      3  C   UNL     1      17.875 -26.688 -30.435  1.00  0.00     0.368 A 
ATOM      4  C   UNL     1      17.226 -27.028 -31.625  1.00  0.00     0.162 A 
ATOM      5  C   UNL     1      16.389 -28.147 -31.677  1.00  0.00     0.128 A 
ATOM      6  C   UNL     1      16.199 -28.927 -30.534  1.00  0.00     0.093 A 
ATOM      7  C   UNL     1      16.838 -28.607 -29.330  1.00  0.00     0.136 A 
ATOM      8  C   UNL     1      17.691 -27.474 -29.273  1.00  0.00     0.125 A 
ATOM      9  C   UNL     1      18.382 -27.085 -28.114  1.00  0.00     0.078 A 
ATOM     10  C   UNL     1      19.209 -25.959 -28.135  1.00  0.00     0.223 A 
ENDROOT
BRANCH   1  11
ATOM     11  C   UNL     1      20.159 -24.002 -29.422  1.00  0.00     0.087 A 
ATOM     12  C   UNL     1      19.617 -22.757 -29.063  1.00  0.00     0.022 A 
ATOM     13  C   UNL     1      20.397 -21.600 -29.128  1.00  0.00     0.051 A 
ATOM     14  C   UNL     1      21.732 -21.670 -29.535  1.00  0.00     0.157 A 
ATOM     15  C   UNL     1      21.508 -24.073 -29.811  1.00  0.00     0.068 A 
ATOM     16  C   UNL     1      22.294 -22.911 -29.874  1.00  0.00     0.158 A 
BRANCH  14  17
ATOM     17  O   UNL     1      22.485 -20.498 -29.591  1.00  0.00    -0.504 OA
ATOM     18  H   UNL     1      23.473 -20.503 -29.816  1.00  0.00     0.293 HD
ENDBRANCH  14  17
BRANCH  16  19
ATOM     19  O   UNL     1      23.629 -22.990 -30.268  1.00  0.00    -0.504 OA
ATOM     20  H   UNL     1      23.911 -23.510 -31.091  1.00  0.00     0.293 HD
ENDBRANCH  16  19
ENDBRANCH   1  11
BRANCH  10  21
ATOM     21  O   UNL     1      19.934 -25.601 -26.998  1.00  0.00    -0.500 OA
ATOM     22  H   UNL     1      20.187 -24.638 -26.808  1.00  0.00     0.294 HD
ENDBRANCH  10  21
BRANCH   5  23
ATOM     23  O   UNL     1      15.739 -28.492 -32.860  1.00  0.00    -0.507 OA
ATOM     24  H   UNL     1      16.148 -28.297 -33.767  1.00  0.00     0.293 HD
ENDBRANCH   5  23
BRANCH   7  25
ATOM     25  O   UNL     1      16.593 -29.436 -28.232  1.00  0.00    -0.507 OA
ATOM     26  H   UNL     1      16.348 -30.413 -28.299  1.00  0.00     0.293 HD
ENDBRANCH   7  25
TORSDOF 6
ENDMDL
MODEL 5
REMARK VINA RESULT:    -6.343      8.207     10.588
REMARK INTER + INTRA:          -7.840
REMARK INTER:                  -7.731
REMARK INTRA:                  -0.109
REMARK UNBOUND:                -0.199
REMARK SMILES Oc1cc(O)c2cc(O)c(-c3ccc(O)c(O)c3)[o+]c2c1.[Cl-]
REMARK SMILES IDX 10 1 19 2 20 3 21 4 2 5 3 6 4 7 6 8 7 9 8 10 11 11 12 12
REMARK SMILES IDX 13 13 14 14 18 15 16 16 15 17 17 19 9 21 1 23 5 25
REMARK H PARENT 15 18 17 20 9 22 1 24 5 26
REMARK Flexibility Score: inf
ROOT
ATOM      1  C   UNL     1      10.263 -16.908 -30.871  1.00  0.00     0.402 A 
ATOM      2  O   UNL     1      10.933 -17.463 -29.864  1.00  0.00    -0.202 OA
ATOM      3  C   UNL     1      10.408 -17.657 -28.658  1.00  0.00     0.368 A 
ATOM      4  C   UNL     1      11.190 -18.251 -27.664  1.00  0.00     0.162 A 
ATOM      5  C   UNL     1      10.663 -18.470 -26.387  1.00  0.00     0.128 A 
ATOM      6  C   UNL     1       9.348 -18.095 -26.105  1.00  0.00     0.093 A 
ATOM      7  C   UNL     1       8.543 -17.497 -27.084  1.00  0.00     0.136 A 
ATOM      8  C   UNL     1       9.074 -17.271 -28.379  1.00  0.00     0.125 A 
ATOM      9  C   UNL     1       8.347 -16.667 -29.418  1.00  0.00     0.078 A 
ATOM     10  C   UNL     1       8.939 -16.472 -30.669  1.00  0.00     0.223 A 
ENDROOT
BRANCH   1  11
ATOM     11  C   UNL     1      10.953 -16.754 -32.171  1.00  0.00     0.087 A 
ATOM     12  C   UNL     1      12.221 -16.151 -32.212  1.00  0.00     0.022 A 
ATOM     13  C   UNL     1      12.900 -16.014 -33.425  1.00  0.00     0.051 A 
ATOM     14  C   UNL     1      12.332 -16.490 -34.611  1.00  0.00     0.157 A 
ATOM     15  C   UNL     1      10.394 -17.251 -33.361  1.00  0.00     0.068 A 
ATOM     16  C   UNL     1      11.076 -17.116 -34.580  1.00  0.00     0.158 A 
BRANCH  14  17
ATOM     17  O   UNL     1      13.033 -16.336 -35.807  1.00  0.00    -0.504 OA
ATOM     18  H   UNL     1      12.562 -16.194 -36.692  1.00  0.00     0.293 HD
ENDBRANCH  14  17
BRANCH  16  19
ATOM     19  O   UNL     1      10.511 -17.605 -35.757  1.00  0.00    -0.504 OA
ATOM     20  H   UNL     1      10.064 -18.515 -35.794  1.00  0.00     0.293 HD
ENDBRANCH  16  19
ENDBRANCH   1  11
BRANCH  10  21
ATOM     21  O   UNL     1       8.234 -15.828 -31.686  1.00  0.00    -0.500 OA
ATOM     22  H   UNL     1       8.124 -16.244 -32.604  1.00  0.00     0.294 HD
ENDBRANCH  10  21
BRANCH   5  23
ATOM     23  O   UNL     1      11.437 -19.062 -25.392  1.00  0.00    -0.507 OA
ATOM     24  H   UNL     1      12.427 -19.236 -25.523  1.00  0.00     0.293 HD
ENDBRANCH   5  23
BRANCH   7  25
ATOM     25  O   UNL     1       7.238 -17.155 -26.722  1.00  0.00    -0.507 OA
ATOM     26  H   UNL     1       6.536 -16.821 -27.366  1.00  0.00     0.293 HD
ENDBRANCH   7  25
TORSDOF 6
ENDMDL
MODEL 6
REMARK VINA RESULT:    -6.324      4.904      5.957
REMARK INTER + INTRA:          -7.818
REMARK INTER:                  -7.464
REMARK INTRA:                  -0.353
REMARK UNBOUND:                -0.199
REMARK SMILES Oc1cc(O)c2cc(O)c(-c3ccc(O)c(O)c3)[o+]c2c1.[Cl-]
REMARK SMILES IDX 10 1 19 2 20 3 21 4 2 5 3 6 4 7 6 8 7 9 8 10 11 11 12 12
REMARK SMILES IDX 13 13 14 14 18 15 16 16 15 17 17 19 9 21 1 23 5 25
REMARK H PARENT 15 18 17 20 9 22 1 24 5 26
REMARK Flexibility Score: inf
ROOT
ATOM      1  C   UNL     1      19.264 -25.221 -29.351  1.00  0.00     0.402 A 
ATOM      2  O   UNL     1      18.604 -25.654 -30.422  1.00  0.00    -0.202 OA
ATOM      3  C   UNL     1      17.841 -26.743 -30.418  1.00  0.00     0.368 A 
ATOM      4  C   UNL     1      17.184 -27.117 -31.594  1.00  0.00     0.162 A 
ATOM      5  C   UNL     1      16.374 -28.256 -31.618  1.00  0.00     0.128 A 
ATOM      6  C   UNL     1      16.219 -29.023 -30.461  1.00  0.00     0.093 A 
ATOM      7  C   UNL     1      16.867 -28.669 -29.270  1.00  0.00     0.136 A 
ATOM      8  C   UNL     1      17.692 -27.516 -29.242  1.00  0.00     0.125 A 
ATOM      9  C   UNL     1      18.390 -27.094 -28.099  1.00  0.00     0.078 A 
ATOM     10  C   UNL     1      19.189 -25.948 -28.148  1.00  0.00     0.223 A 
ENDROOT
BRANCH   1  11
ATOM     11  C   UNL     1      20.073 -23.988 -29.478  1.00  0.00     0.087 A 
ATOM     12  C   UNL     1      21.394 -24.075 -29.945  1.00  0.00     0.022 A 
ATOM     13  C   UNL     1      22.170 -22.922 -30.092  1.00  0.00     0.051 A 
ATOM     14  C   UNL     1      21.635 -21.667 -29.790  1.00  0.00     0.157 A 
ATOM     15  C   UNL     1      19.530 -22.722 -29.195  1.00  0.00     0.068 A 
ATOM     16  C   UNL     1      20.308 -21.564 -29.344  1.00  0.00     0.158 A 
BRANCH  14  17
ATOM     17  O   UNL     1      22.435 -20.535 -29.944  1.00  0.00    -0.504 OA
ATOM     18  H   UNL     1      22.515 -20.050 -30.830  1.00  0.00     0.293 HD
ENDBRANCH  14  17
BRANCH  16  19
ATOM     19  O   UNL     1      19.763 -20.313 -29.056  1.00  0.00    -0.504 OA
ATOM     20  H   UNL     1      18.863 -20.218 -28.598  1.00  0.00     0.293 HD
ENDBRANCH  16  19
ENDBRANCH   1  11
BRANCH  10  21
ATOM     21  O   UNL     1      19.921 -25.556 -27.027  1.00  0.00    -0.500 OA
ATOM     22  H   UNL     1      20.876 -25.225 -27.103  1.00  0.00     0.294 HD
ENDBRANCH  10  21
BRANCH   5  23
ATOM     23  O   UNL     1      15.716 -28.634 -32.786  1.00  0.00    -0.507 OA
ATOM     24  H   UNL     1      16.222 -28.811 -33.646  1.00  0.00     0.293 HD
ENDBRANCH   5  23
BRANCH   7  25
ATOM     25  O   UNL     1      16.657 -29.488 -28.157  1.00  0.00    -0.507 OA
ATOM     26  H   UNL     1      15.881 -29.393 -27.518  1.00  0.00     0.293 HD
ENDBRANCH   7  25
TORSDOF 6
ENDMDL
MODEL 7
REMARK VINA RESULT:    -6.237      3.978      5.509
REMARK INTER + INTRA:          -7.712
REMARK INTER:                  -7.363
REMARK INTRA:                  -0.349
REMARK UNBOUND:                -0.199
REMARK SMILES Oc1cc(O)c2cc(O)c(-c3ccc(O)c(O)c3)[o+]c2c1.[Cl-]
REMARK SMILES IDX 10 1 19 2 20 3 21 4 2 5 3 6 4 7 6 8 7 9 8 10 11 11 12 12
REMARK SMILES IDX 13 13 14 14 18 15 16 16 15 17 17 19 9 21 1 23 5 25
REMARK H PARENT 15 18 17 20 9 22 1 24 5 26
REMARK Flexibility Score: inf
ROOT
ATOM      1  C   UNL     1      18.323 -24.027 -27.905  1.00  0.00     0.402 A 
ATOM      2  O   UNL     1      18.083 -25.204 -27.333  1.00  0.00    -0.202 OA
ATOM      3  C   UNL     1      17.523 -26.226 -27.973  1.00  0.00     0.368 A 
ATOM      4  C   UNL     1      17.314 -27.425 -27.286  1.00  0.00     0.162 A 
ATOM      5  C   UNL     1      16.728 -28.517 -27.936  1.00  0.00     0.128 A 
ATOM      6  C   UNL     1      16.353 -28.408 -29.277  1.00  0.00     0.093 A 
ATOM      7  C   UNL     1      16.552 -27.217 -29.986  1.00  0.00     0.136 A 
ATOM      8  C   UNL     1      17.143 -26.106 -29.331  1.00  0.00     0.125 A 
ATOM      9  C   UNL     1      17.368 -24.870 -29.959  1.00  0.00     0.078 A 
ATOM     10  C   UNL     1      17.951 -23.818 -29.246  1.00  0.00     0.223 A 
ENDROOT
BRANCH   1  11
ATOM     11  C   UNL     1      18.963 -22.969 -27.090  1.00  0.00     0.087 A 
ATOM     12  C   UNL     1      18.158 -22.086 -26.353  1.00  0.00     0.022 A 
ATOM     13  C   UNL     1      18.740 -21.093 -25.561  1.00  0.00     0.051 A 
ATOM     14  C   UNL     1      20.131 -20.977 -25.481  1.00  0.00     0.157 A 
ATOM     15  C   UNL     1      20.361 -22.865 -26.992  1.00  0.00     0.068 A 
ATOM     16  C   UNL     1      20.947 -21.868 -26.195  1.00  0.00     0.158 A 
BRANCH  14  17
ATOM     17  O   UNL     1      20.682 -19.974 -24.684  1.00  0.00    -0.504 OA
ATOM     18  H   UNL     1      20.706 -20.042 -23.674  1.00  0.00     0.293 HD
ENDBRANCH  14  17
BRANCH  16  19
ATOM     19  O   UNL     1      22.335 -21.767 -26.109  1.00  0.00    -0.504 OA
ATOM     20  H   UNL     1      22.789 -21.366 -25.295  1.00  0.00     0.293 HD
ENDBRANCH  16  19
ENDBRANCH   1  11
BRANCH  10  21
ATOM     21  O   UNL     1      18.131 -22.575 -29.855  1.00  0.00    -0.500 OA
ATOM     22  H   UNL     1      18.743 -22.456 -30.654  1.00  0.00     0.294 HD
ENDBRANCH  10  21
BRANCH   5  23
ATOM     23  O   UNL     1      16.517 -29.715 -27.258  1.00  0.00    -0.507 OA
ATOM     24  H   UNL     1      17.103 -29.995 -26.479  1.00  0.00     0.293 HD
ENDBRANCH   5  23
BRANCH   7  25
ATOM     25  O   UNL     1      16.152 -27.192 -31.325  1.00  0.00    -0.507 OA
ATOM     26  H   UNL     1      16.563 -27.757 -32.054  1.00  0.00     0.293 HD
ENDBRANCH   7  25
TORSDOF 6
ENDMDL
MODEL 8
REMARK VINA RESULT:    -6.179      4.181      6.762
REMARK INTER + INTRA:          -7.642
REMARK INTER:                  -7.450
REMARK INTRA:                  -0.192
REMARK UNBOUND:                -0.199
REMARK SMILES Oc1cc(O)c2cc(O)c(-c3ccc(O)c(O)c3)[o+]c2c1.[Cl-]
REMARK SMILES IDX 10 1 19 2 20 3 21 4 2 5 3 6 4 7 6 8 7 9 8 10 11 11 12 12
REMARK SMILES IDX 13 13 14 14 18 15 16 16 15 17 17 19 9 21 1 23 5 25
REMARK H PARENT 15 18 17 20 9 22 1 24 5 26
REMARK Flexibility Score: inf
ROOT
ATOM      1  C   UNL     1      18.761 -25.089 -28.025  1.00  0.00     0.402 A 
ATOM      2  O   UNL     1      19.926 -24.750 -28.572  1.00  0.00    -0.202 OA
ATOM      3  C   UNL     1      20.681 -23.752 -28.123  1.00  0.00     0.368 A 
ATOM      4  C   UNL     1      21.892 -23.474 -28.763  1.00  0.00     0.162 A 
ATOM      5  C   UNL     1      22.706 -22.432 -28.309  1.00  0.00     0.128 A 
ATOM      6  C   UNL     1      22.308 -21.666 -27.211  1.00  0.00     0.093 A 
ATOM      7  C   UNL     1      21.099 -21.925 -26.553  1.00  0.00     0.136 A 
ATOM      8  C   UNL     1      20.268 -22.979 -27.011  1.00  0.00     0.125 A 
ATOM      9  C   UNL     1      19.035 -23.302 -26.421  1.00  0.00     0.078 A 
ATOM     10  C   UNL     1      18.267 -24.353 -26.932  1.00  0.00     0.223 A 
ENDROOT
BRANCH   1  11
ATOM     11  C   UNL     1      18.017 -26.227 -28.610  1.00  0.00     0.087 A 
ATOM     12  C   UNL     1      17.639 -26.183 -29.962  1.00  0.00     0.022 A 
ATOM     13  C   UNL     1      16.954 -27.254 -30.540  1.00  0.00     0.051 A 
ATOM     14  C   UNL     1      16.650 -28.390 -29.784  1.00  0.00     0.157 A 
ATOM     15  C   UNL     1      17.729 -27.379 -27.857  1.00  0.00     0.068 A 
ATOM     16  C   UNL     1      17.043 -28.457 -28.438  1.00  0.00     0.158 A 
BRANCH  14  17
ATOM     17  O   UNL     1      15.963 -29.443 -30.389  1.00  0.00    -0.504 OA
ATOM     18  H   UNL     1      16.416 -30.320 -30.616  1.00  0.00     0.293 HD
ENDBRANCH  14  17
BRANCH  16  19
ATOM     19  O   UNL     1      16.756 -29.593 -27.682  1.00  0.00    -0.504 OA
ATOM     20  H   UNL     1      15.918 -29.655 -27.113  1.00  0.00     0.293 HD
ENDBRANCH  16  19
ENDBRANCH   1  11
BRANCH  10  21
ATOM     21  O   UNL     1      17.020 -24.642 -26.378  1.00  0.00    -0.500 OA
ATOM     22  H   UNL     1      16.715 -25.596 -26.220  1.00  0.00     0.294 HD
ENDBRANCH  10  21
BRANCH   5  23
ATOM     23  O   UNL     1      23.915 -22.150 -28.942  1.00  0.00    -0.507 OA
ATOM     24  H   UNL     1      24.650 -21.633 -28.474  1.00  0.00     0.293 HD
ENDBRANCH   5  23
BRANCH   7  25
ATOM     25  O   UNL     1      20.776 -21.115 -25.461  1.00  0.00    -0.507 OA
ATOM     26  H   UNL     1      21.026 -20.140 -25.380  1.00  0.00     0.293 HD
ENDBRANCH   7  25
TORSDOF 6
ENDMDL
MODEL 9
REMARK VINA RESULT:    -5.937      3.506      6.850
REMARK INTER + INTRA:          -7.351
REMARK INTER:                  -7.013
REMARK INTRA:                  -0.339
REMARK UNBOUND:                -0.199
REMARK SMILES Oc1cc(O)c2cc(O)c(-c3ccc(O)c(O)c3)[o+]c2c1.[Cl-]
REMARK SMILES IDX 10 1 19 2 20 3 21 4 2 5 3 6 4 7 6 8 7 9 8 10 11 11 12 12
REMARK SMILES IDX 13 13 14 14 18 15 16 16 15 17 17 19 9 21 1 23 5 25
REMARK H PARENT 15 18 17 20 9 22 1 24 5 26
REMARK Flexibility Score: inf
ROOT
ATOM      1  C   UNL     1      18.350 -24.058 -27.401  1.00  0.00     0.402 A 
ATOM      2  O   UNL     1      19.628 -23.769 -27.633  1.00  0.00    -0.202 OA
ATOM      3  C   UNL     1      20.221 -22.668 -27.179  1.00  0.00     0.368 A 
ATOM      4  C   UNL     1      21.570 -22.453 -27.473  1.00  0.00     0.162 A 
ATOM      5  C   UNL     1      22.219 -21.305 -27.007  1.00  0.00     0.128 A 
ATOM      6  C   UNL     1      21.516 -20.372 -26.242  1.00  0.00     0.093 A 
ATOM      7  C   UNL     1      20.163 -20.565 -25.934  1.00  0.00     0.136 A 
ATOM      8  C   UNL     1      19.500 -21.726 -26.407  1.00  0.00     0.125 A 
ATOM      9  C   UNL     1      18.144 -21.996 -26.159  1.00  0.00     0.078 A 
ATOM     10  C   UNL     1      17.557 -23.160 -26.663  1.00  0.00     0.223 A 
ENDROOT
BRANCH   1  11
ATOM     11  C   UNL     1      17.807 -25.321 -27.952  1.00  0.00     0.087 A 
ATOM     12  C   UNL     1      17.919 -26.504 -27.204  1.00  0.00     0.022 A 
ATOM     13  C   UNL     1      17.396 -27.703 -27.695  1.00  0.00     0.051 A 
ATOM     14  C   UNL     1      16.740 -27.736 -28.928  1.00  0.00     0.157 A 
ATOM     15  C   UNL     1      17.127 -25.351 -29.182  1.00  0.00     0.068 A 
ATOM     16  C   UNL     1      16.600 -26.555 -29.675  1.00  0.00     0.158 A 
BRANCH  14  17
ATOM     17  O   UNL     1      16.230 -28.948 -29.393  1.00  0.00    -0.504 OA
ATOM     18  H   UNL     1      16.459 -29.831 -28.952  1.00  0.00     0.293 HD
ENDBRANCH  14  17
BRANCH  16  19
ATOM     19  O   UNL     1      15.934 -26.578 -30.900  1.00  0.00    -0.504 OA
ATOM     20  H   UNL     1      15.615 -25.726 -31.348  1.00  0.00     0.293 HD
ENDBRANCH  16  19
ENDBRANCH   1  11
BRANCH  10  21
ATOM     21  O   UNL     1      16.199 -23.404 -26.459  1.00  0.00    -0.500 OA
ATOM     22  H   UNL     1      15.839 -24.344 -26.335  1.00  0.00     0.294 HD
ENDBRANCH  10  21
BRANCH   5  23
ATOM     23  O   UNL     1      23.564 -21.084 -27.296  1.00  0.00    -0.507 OA
ATOM     24  H   UNL     1      23.879 -20.896 -28.241  1.00  0.00     0.293 HD
ENDBRANCH   5  23
BRANCH   7  25
ATOM     25  O   UNL     1      19.534 -19.585 -25.161  1.00  0.00    -0.507 OA
ATOM     26  H   UNL     1      18.745 -19.036 -25.469  1.00  0.00     0.293 HD
ENDBRANCH   7  25
TORSDOF 6
ENDMDL
