MODEL 1
REMARK VINA RESULT:    -3.269      0.000      0.000
REMARK INTER + INTRA:          -3.682
REMARK INTER:                  -3.651
REMARK INTRA:                  -0.031
REMARK UNBOUND:                -0.031
REMARK SMILES CCCC(=O)[O-]
REMARK SMILES IDX 3 1 4 2 5 3 6 4 2 5 1 6
REMARK H PARENT
REMARK Flexibility Score: inf
ROOT
ATOM      1  C   UNL     1       3.385   7.646  53.653  1.00  0.00     0.052 C 
ENDROOT
BRANCH   1   2
ATOM      2  C   UNL     1       3.728   7.526  55.104  1.00  0.00     0.041 C 
ATOM      3  O   UNL     1       3.903   6.392  55.622  1.00  0.00    -0.550 OA
ATOM      4  O   UNL     1       3.808   8.664  55.897  1.00  0.00    -0.550 OA
ENDBRANCH   1   2
BRANCH   1   5
ATOM      5  C   UNL     1       3.949   8.946  53.076  1.00  0.00     0.003 C 
ATOM      6  C   UNL     1       2.835   9.945  52.777  1.00  0.00     0.004 C 
ENDBRANCH   1   5
TORSDOF 2
ENDMDL
MODEL 2
REMARK VINA RESULT:    -2.996      2.055      2.315
REMARK INTER + INTRA:          -3.377
REMARK INTER:                  -3.346
REMARK INTRA:                  -0.032
REMARK UNBOUND:                -0.031
REMARK SMILES CCCC(=O)[O-]
REMARK SMILES IDX 3 1 4 2 5 3 6 4 2 5 1 6
REMARK H PARENT
REMARK Flexibility Score: inf
ROOT
ATOM      1  C   UNL     1       2.672   9.155  54.312  1.00  0.00     0.052 C 
ENDROOT
BRANCH   1   2
ATOM      2  C   UNL     1       3.438   7.882  54.139  1.00  0.00     0.041 C 
ATOM      3  O   UNL     1       3.855   7.543  53.000  1.00  0.00    -0.550 OA
ATOM      4  O   UNL     1       3.651   7.043  55.226  1.00  0.00    -0.550 OA
ENDBRANCH   1   2
BRANCH   1   5
ATOM      5  C   UNL     1       3.627  10.323  54.567  1.00  0.00     0.003 C 
ATOM      6  C   UNL     1       4.023  10.399  56.038  1.00  0.00     0.004 C 
ENDBRANCH   1   5
TORSDOF 2
ENDMDL
MODEL 3
REMARK VINA RESULT:    -2.907      1.935      3.238
REMARK INTER + INTRA:          -3.277
REMARK INTER:                  -3.267
REMARK INTRA:                  -0.010
REMARK UNBOUND:                -0.031
REMARK SMILES CCCC(=O)[O-]
REMARK SMILES IDX 3 1 4 2 5 3 6 4 2 5 1 6
REMARK H PARENT
REMARK Flexibility Score: inf
ROOT
ATOM      1  C   UNL     1       3.313   7.956  53.723  1.00  0.00     0.052 C 
ENDROOT
BRANCH   1   2
ATOM      2  C   UNL     1       3.278   9.442  53.559  1.00  0.00     0.041 C 
ATOM      3  O   UNL     1       2.934   9.950  52.460  1.00  0.00    -0.550 OA
ATOM      4  O   UNL     1       3.673  10.267  54.605  1.00  0.00    -0.550 OA
ENDBRANCH   1   2
BRANCH   1   5
ATOM      5  C   UNL     1       3.689   7.584  55.159  1.00  0.00     0.003 C 
ATOM      6  C   UNL     1       3.798   6.072  55.327  1.00  0.00     0.004 C 
ENDBRANCH   1   5
TORSDOF 2
ENDMDL
MODEL 4
REMARK VINA RESULT:    -2.870      1.473      2.283
REMARK INTER + INTRA:          -3.236
REMARK INTER:                  -3.189
REMARK INTRA:                  -0.047
REMARK UNBOUND:                -0.031
REMARK SMILES CCCC(=O)[O-]
REMARK SMILES IDX 3 1 4 2 5 3 6 4 2 5 1 6
REMARK H PARENT
REMARK Flexibility Score: inf
ROOT
ATOM      1  C   UNL     1       2.698   9.760  54.392  1.00  0.00     0.052 C 
ENDROOT
BRANCH   1   2
ATOM      2  C   UNL     1       3.661   9.569  55.521  1.00  0.00     0.041 C 
ATOM      3  O   UNL     1       4.135  10.567  56.125  1.00  0.00    -0.550 OA
ATOM      4  O   UNL     1       4.075   8.291  55.874  1.00  0.00    -0.550 OA
ENDBRANCH   1   2
BRANCH   1   5
ATOM      5  C   UNL     1       2.856   8.642  53.359  1.00  0.00     0.003 C 
ATOM      6  C   UNL     1       3.856   9.032  52.274  1.00  0.00     0.004 C 
ENDBRANCH   1   5
TORSDOF 2
ENDMDL
MODEL 5
REMARK VINA RESULT:    -2.756      2.555      3.176
REMARK INTER + INTRA:          -3.109
REMARK INTER:                  -3.092
REMARK INTRA:                  -0.017
REMARK UNBOUND:                -0.031
REMARK SMILES CCCC(=O)[O-]
REMARK SMILES IDX 3 1 4 2 5 3 6 4 2 5 1 6
REMARK H PARENT
REMARK Flexibility Score: inf
ROOT
ATOM      1  C   UNL     1       2.769   9.443  54.309  1.00  0.00     0.052 C 
ENDROOT
BRANCH   1   2
ATOM      2  C   UNL     1       3.395   8.814  53.105  1.00  0.00     0.041 C 
ATOM      3  O   UNL     1       3.438   9.441  52.013  1.00  0.00    -0.550 OA
ATOM      4  O   UNL     1       3.888   7.517  53.173  1.00  0.00    -0.550 OA
ENDBRANCH   1   2
BRANCH   1   5
ATOM      5  C   UNL     1       3.636   9.204  55.548  1.00  0.00     0.003 C 
ATOM      6  C   UNL     1       4.199  10.515  56.088  1.00  0.00     0.004 C 
ENDBRANCH   1   5
TORSDOF 2
ENDMDL
MODEL 6
REMARK VINA RESULT:    -2.697     12.652     13.393
REMARK INTER + INTRA:          -3.043
REMARK INTER:                  -3.034
REMARK INTRA:                  -0.009
REMARK UNBOUND:                -0.031
REMARK SMILES CCCC(=O)[O-]
REMARK SMILES IDX 3 1 4 2 5 3 6 4 2 5 1 6
REMARK H PARENT
REMARK Flexibility Score: inf
ROOT
ATOM      1  C   UNL     1       5.631  21.674  55.376  1.00  0.00     0.052 C 
ENDROOT
BRANCH   1   2
ATOM      2  C   UNL     1       4.462  21.215  54.563  1.00  0.00     0.041 C 
ATOM      3  O   UNL     1       4.147  19.996  54.538  1.00  0.00    -0.550 OA
ATOM      4  O   UNL     1       3.750  22.125  53.792  1.00  0.00    -0.550 OA
ENDBRANCH   1   2
BRANCH   1   5
ATOM      5  C   UNL     1       6.722  20.601  55.396  1.00  0.00     0.003 C 
ATOM      6  C   UNL     1       8.000  21.129  56.041  1.00  0.00     0.004 C 
ENDBRANCH   1   5
TORSDOF 2
ENDMDL
MODEL 7
REMARK VINA RESULT:    -2.456     14.242     15.020
REMARK INTER + INTRA:          -2.774
REMARK INTER:                  -2.758
REMARK INTRA:                  -0.017
REMARK UNBOUND:                -0.031
REMARK SMILES CCCC(=O)[O-]
REMARK SMILES IDX 3 1 4 2 5 3 6 4 2 5 1 6
REMARK H PARENT
REMARK Flexibility Score: inf
ROOT
ATOM      1  C   UNL     1      11.681  19.730  55.586  1.00  0.00     0.052 C 
ENDROOT
BRANCH   1   2
ATOM      2  C   UNL     1      10.692  20.795  55.938  1.00  0.00     0.041 C 
ATOM      3  O   UNL     1       9.467  20.518  56.025  1.00  0.00    -0.550 OA
ATOM      4  O   UNL     1      11.115  22.105  56.125  1.00  0.00    -0.550 OA
ENDBRANCH   1   2
BRANCH   1   5
ATOM      5  C   UNL     1      13.089  20.322  55.481  1.00  0.00     0.003 C 
ATOM      6  C   UNL     1      14.139  19.338  55.991  1.00  0.00     0.004 C 
ENDBRANCH   1   5
TORSDOF 2
ENDMDL
MODEL 8
REMARK VINA RESULT:    -2.266     14.848     15.599
REMARK INTER + INTRA:          -2.562
REMARK INTER:                  -2.523
REMARK INTRA:                  -0.038
REMARK UNBOUND:                -0.031
REMARK SMILES CCCC(=O)[O-]
REMARK SMILES IDX 3 1 4 2 5 3 6 4 2 5 1 6
REMARK H PARENT
REMARK Flexibility Score: inf
ROOT
ATOM      1  C   UNL     1      11.948  21.858  55.879  1.00  0.00     0.052 C 
ENDROOT
BRANCH   1   2
ATOM      2  C   UNL     1      11.175  20.591  55.701  1.00  0.00     0.041 C 
ATOM      3  O   UNL     1      11.761  19.537  55.336  1.00  0.00    -0.550 OA
ATOM      4  O   UNL     1       9.799  20.581  55.890  1.00  0.00    -0.550 OA
ENDBRANCH   1   2
BRANCH   1   5
ATOM      5  C   UNL     1      13.035  21.977  54.809  1.00  0.00     0.003 C 
ATOM      6  C   UNL     1      14.428  21.939  55.432  1.00  0.00     0.004 C 
ENDBRANCH   1   5
TORSDOF 2
ENDMDL
