MODEL 1
REMARK VINA RESULT:    -3.683      0.000      0.000
REMARK INTER + INTRA:         -11.618
REMARK INTER:                  -8.420
REMARK INTRA:                  -3.199
REMARK UNBOUND:                -3.199
REMARK SMILES CCCCCCCCCCCCCCCCCCCCCCCC(=O)[O-]
REMARK SMILES IDX 13 1 14 2 15 3 16 4 17 5 18 6 19 7 20 8 21 9 22 10 23 11
REMARK SMILES IDX 24 12 25 13 26 14 12 15 11 16 10 17 9 18 8 19 7 20 6 21 5 22
REMARK SMILES IDX 4 23 3 24 2 25 1 26
REMARK H PARENT
REMARK Flexibility Score: inf
ROOT
ATOM      1  C   UNL     1     -16.764  47.248  -4.692  1.00  0.00     0.000 C 
ENDROOT
BRANCH   1   2
ATOM      2  C   UNL     1     -15.776  46.418  -5.526  1.00  0.00     0.000 C 
BRANCH   2   3
ATOM      3  C   UNL     1     -14.555  47.233  -5.985  1.00  0.00     0.000 C 
BRANCH   3   4
ATOM      4  C   UNL     1     -14.137  46.945  -7.443  1.00  0.00     0.000 C 
BRANCH   4   5
ATOM      5  C   UNL     1     -15.351  46.762  -8.371  1.00  0.00     0.000 C 
BRANCH   5   6
ATOM      6  C   UNL     1     -15.013  45.927  -9.625  1.00  0.00     0.000 C 
BRANCH   6   7
ATOM      7  C   UNL     1     -15.314  46.647 -10.953  1.00  0.00     0.000 C 
BRANCH   7   8
ATOM      8  C   UNL     1     -14.932  48.137 -10.982  1.00  0.00     0.000 C 
BRANCH   8   9
ATOM      9  C   UNL     1     -16.153  49.066 -10.911  1.00  0.00     0.000 C 
BRANCH   9  10
ATOM     10  C   UNL     1     -15.731  50.497 -10.545  1.00  0.00     0.006 C 
BRANCH  10  11
ATOM     11  C   UNL     1     -14.574  50.522  -9.536  1.00  0.00     0.053 C 
BRANCH  11  12
ATOM     12  C   UNL     1     -14.306  51.908  -9.034  1.00  0.00     0.041 C 
ATOM     13  O   UNL     1     -14.249  52.134  -7.796  1.00  0.00    -0.550 OA
ATOM     14  O   UNL     1     -14.150  52.956  -9.932  1.00  0.00    -0.550 OA
ENDBRANCH  11  12
ENDBRANCH  10  11
ENDBRANCH   9  10
ENDBRANCH   8   9
ENDBRANCH   7   8
ENDBRANCH   6   7
ENDBRANCH   5   6
ENDBRANCH   4   5
ENDBRANCH   3   4
ENDBRANCH   2   3
ENDBRANCH   1   2
BRANCH   1  15
ATOM     15  C   UNL     1     -18.126  47.429  -5.388  1.00  0.00     0.000 C 
BRANCH  15  16
ATOM     16  C   UNL     1     -18.426  46.401  -6.496  1.00  0.00     0.000 C 
BRANCH  16  17
ATOM     17  C   UNL     1     -19.228  45.163  -6.045  1.00  0.00     0.000 C 
BRANCH  17  18
ATOM     18  C   UNL     1     -18.401  43.877  -5.868  1.00  0.00    -0.000 C 
BRANCH  18  19
ATOM     19  C   UNL     1     -17.147  43.848  -6.759  1.00  0.00    -0.000 C 
BRANCH  19  20
ATOM     20  C   UNL     1     -17.093  42.604  -7.661  1.00  0.00    -0.000 C 
BRANCH  20  21
ATOM     21  C   UNL     1     -17.698  42.852  -9.054  1.00  0.00    -0.000 C 
BRANCH  21  22
ATOM     22  C   UNL     1     -18.978  42.037  -9.293  1.00  0.00    -0.000 C 
BRANCH  22  23
ATOM     23  C   UNL     1     -20.249  42.903  -9.237  1.00  0.00    -0.000 C 
BRANCH  23  24
ATOM     24  C   UNL     1     -20.292  43.973 -10.343  1.00  0.00    -0.000 C 
BRANCH  24  25
ATOM     25  C   UNL     1     -19.872  45.383  -9.890  1.00  0.00    -0.003 C 
ATOM     26  C   UNL     1     -18.768  45.986 -10.757  1.00  0.00     0.004 C 
ENDBRANCH  24  25
ENDBRANCH  23  24
ENDBRANCH  22  23
ENDBRANCH  21  22
ENDBRANCH  20  21
ENDBRANCH  19  20
ENDBRANCH  18  19
ENDBRANCH  17  18
ENDBRANCH  16  17
ENDBRANCH  15  16
ENDBRANCH   1  15
TORSDOF 22
ENDMDL
MODEL 2
REMARK VINA RESULT:    -3.519      2.323      4.978
REMARK INTER + INTRA:         -11.244
REMARK INTER:                  -7.366
REMARK INTRA:                  -3.878
REMARK UNBOUND:                -3.199
REMARK SMILES CCCCCCCCCCCCCCCCCCCCCCCC(=O)[O-]
REMARK SMILES IDX 13 1 14 2 15 3 16 4 17 5 18 6 19 7 20 8 21 9 22 10 23 11
REMARK SMILES IDX 24 12 25 13 26 14 12 15 11 16 10 17 9 18 8 19 7 20 6 21 5 22
REMARK SMILES IDX 4 23 3 24 2 25 1 26
REMARK H PARENT
REMARK Flexibility Score: inf
ROOT
ATOM      1  C   UNL     1     -17.539  45.913  -9.593  1.00  0.00     0.000 C 
ENDROOT
BRANCH   1   2
ATOM      2  C   UNL     1     -17.436  47.428  -9.827  1.00  0.00     0.000 C 
BRANCH   2   3
ATOM      3  C   UNL     1     -16.495  47.788 -10.989  1.00  0.00     0.000 C 
BRANCH   3   4
ATOM      4  C   UNL     1     -15.391  48.794 -10.599  1.00  0.00     0.000 C 
BRANCH   4   5
ATOM      5  C   UNL     1     -14.002  48.135 -10.527  1.00  0.00     0.000 C 
BRANCH   5   6
ATOM      6  C   UNL     1     -13.883  47.137  -9.354  1.00  0.00     0.000 C 
BRANCH   6   7
ATOM      7  C   UNL     1     -14.560  47.618  -8.057  1.00  0.00     0.000 C 
BRANCH   7   8
ATOM      8  C   UNL     1     -14.342  46.707  -6.838  1.00  0.00     0.000 C 
BRANCH   8   9
ATOM      9  C   UNL     1     -15.367  45.567  -6.755  1.00  0.00     0.000 C 
BRANCH   9  10
ATOM     10  C   UNL     1     -16.247  45.711  -5.504  1.00  0.00     0.006 C 
BRANCH  10  11
ATOM     11  C   UNL     1     -16.449  47.178  -5.101  1.00  0.00     0.053 C 
BRANCH  11  12
ATOM     12  C   UNL     1     -17.858  47.630  -5.341  1.00  0.00     0.041 C 
ATOM     13  O   UNL     1     -18.255  47.870  -6.513  1.00  0.00    -0.550 OA
ATOM     14  O   UNL     1     -18.721  47.818  -4.270  1.00  0.00    -0.550 OA
ENDBRANCH  11  12
ENDBRANCH  10  11
ENDBRANCH   9  10
ENDBRANCH   8   9
ENDBRANCH   7   8
ENDBRANCH   6   7
ENDBRANCH   5   6
ENDBRANCH   4   5
ENDBRANCH   3   4
ENDBRANCH   2   3
ENDBRANCH   1   2
BRANCH   1  15
ATOM     15  C   UNL     1     -16.641  45.102 -10.544  1.00  0.00     0.000 C 
BRANCH  15  16
ATOM     16  C   UNL     1     -16.487  43.613 -10.174  1.00  0.00     0.000 C 
BRANCH  16  17
ATOM     17  C   UNL     1     -17.048  43.217  -8.793  1.00  0.00     0.000 C 
BRANCH  17  18
ATOM     18  C   UNL     1     -18.282  42.297  -8.828  1.00  0.00    -0.000 C 
BRANCH  18  19
ATOM     19  C   UNL     1     -19.149  42.512 -10.080  1.00  0.00    -0.000 C 
BRANCH  19  20
ATOM     20  C   UNL     1     -20.541  43.072  -9.744  1.00  0.00    -0.000 C 
BRANCH  20  21
ATOM     21  C   UNL     1     -20.663  44.579 -10.032  1.00  0.00    -0.000 C 
BRANCH  21  22
ATOM     22  C   UNL     1     -20.988  45.394  -8.771  1.00  0.00    -0.000 C 
BRANCH  22  23
ATOM     23  C   UNL     1     -20.888  44.557  -7.484  1.00  0.00    -0.000 C 
BRANCH  23  24
ATOM     24  C   UNL     1     -19.665  44.927  -6.624  1.00  0.00    -0.000 C 
BRANCH  24  25
ATOM     25  C   UNL     1     -19.443  44.022  -5.399  1.00  0.00    -0.003 C 
ATOM     26  C   UNL     1     -20.739  43.676  -4.667  1.00  0.00     0.004 C 
ENDBRANCH  24  25
ENDBRANCH  23  24
ENDBRANCH  22  23
ENDBRANCH  21  22
ENDBRANCH  20  21
ENDBRANCH  19  20
ENDBRANCH  18  19
ENDBRANCH  17  18
ENDBRANCH  16  17
ENDBRANCH  15  16
ENDBRANCH   1  15
TORSDOF 22
ENDMDL
MODEL 3
REMARK VINA RESULT:    -3.515      1.583      3.806
REMARK INTER + INTRA:         -11.236
REMARK INTER:                  -7.145
REMARK INTRA:                  -4.090
REMARK UNBOUND:                -3.199
REMARK SMILES CCCCCCCCCCCCCCCCCCCCCCCC(=O)[O-]
REMARK SMILES IDX 13 1 14 2 15 3 16 4 17 5 18 6 19 7 20 8 21 9 22 10 23 11
REMARK SMILES IDX 24 12 25 13 26 14 12 15 11 16 10 17 9 18 8 19 7 20 6 21 5 22
REMARK SMILES IDX 4 23 3 24 2 25 1 26
REMARK H PARENT
REMARK Flexibility Score: inf
ROOT
ATOM      1  C   UNL     1     -19.484  43.857  -5.504  1.00  0.00     0.000 C 
ENDROOT
BRANCH   1   2
ATOM      2  C   UNL     1     -20.243  44.984  -6.221  1.00  0.00     0.000 C 
BRANCH   2   3
ATOM      3  C   UNL     1     -19.643  46.373  -5.946  1.00  0.00     0.000 C 
BRANCH   3   4
ATOM      4  C   UNL     1     -19.126  47.083  -7.215  1.00  0.00     0.000 C 
BRANCH   4   5
ATOM      5  C   UNL     1     -17.612  47.355  -7.153  1.00  0.00     0.000 C 
BRANCH   5   6
ATOM      6  C   UNL     1     -17.034  47.148  -5.736  1.00  0.00     0.000 C 
BRANCH   6   7
ATOM      7  C   UNL     1     -15.550  46.735  -5.722  1.00  0.00     0.000 C 
BRANCH   7   8
ATOM      8  C   UNL     1     -14.942  46.463  -7.108  1.00  0.00     0.000 C 
BRANCH   8   9
ATOM      9  C   UNL     1     -13.875  47.495  -7.503  1.00  0.00     0.000 C 
BRANCH   9  10
ATOM     10  C   UNL     1     -14.044  47.924  -8.968  1.00  0.00     0.006 C 
BRANCH  10  11
ATOM     11  C   UNL     1     -14.405  49.409  -9.102  1.00  0.00     0.053 C 
BRANCH  11  12
ATOM     12  C   UNL     1     -15.585  49.615 -10.003  1.00  0.00     0.041 C 
ATOM     13  O   UNL     1     -16.458  48.714 -10.120  1.00  0.00    -0.550 OA
ATOM     14  O   UNL     1     -15.703  50.786 -10.739  1.00  0.00    -0.550 OA
ENDBRANCH  11  12
ENDBRANCH  10  11
ENDBRANCH   9  10
ENDBRANCH   8   9
ENDBRANCH   7   8
ENDBRANCH   6   7
ENDBRANCH   5   6
ENDBRANCH   4   5
ENDBRANCH   3   4
ENDBRANCH   2   3
ENDBRANCH   1   2
BRANCH   1  15
ATOM     15  C   UNL     1     -17.975  43.868  -5.808  1.00  0.00     0.000 C 
BRANCH  15  16
ATOM     16  C   UNL     1     -17.572  43.139  -7.105  1.00  0.00     0.000 C 
BRANCH  16  17
ATOM     17  C   UNL     1     -16.356  43.736  -7.844  1.00  0.00     0.000 C 
BRANCH  17  18
ATOM     18  C   UNL     1     -15.909  42.963  -9.098  1.00  0.00    -0.000 C 
BRANCH  18  19
ATOM     19  C   UNL     1     -15.691  43.877 -10.315  1.00  0.00    -0.000 C 
BRANCH  19  20
ATOM     20  C   UNL     1     -16.405  45.231 -10.172  1.00  0.00    -0.000 C 
BRANCH  20  21
ATOM     21  C   UNL     1     -17.638  45.354 -11.084  1.00  0.00    -0.000 C 
BRANCH  21  22
ATOM     22  C   UNL     1     -18.932  45.600 -10.293  1.00  0.00    -0.000 C 
BRANCH  22  23
ATOM     23  C   UNL     1     -20.194  45.248 -11.101  1.00  0.00    -0.000 C 
BRANCH  23  24
ATOM     24  C   UNL     1     -21.010  44.106 -10.467  1.00  0.00    -0.000 C 
BRANCH  24  25
ATOM     25  C   UNL     1     -20.253  43.286  -9.408  1.00  0.00    -0.003 C 
ATOM     26  C   UNL     1     -19.651  41.997  -9.966  1.00  0.00     0.004 C 
ENDBRANCH  24  25
ENDBRANCH  23  24
ENDBRANCH  22  23
ENDBRANCH  21  22
ENDBRANCH  20  21
ENDBRANCH  19  20
ENDBRANCH  18  19
ENDBRANCH  17  18
ENDBRANCH  16  17
ENDBRANCH  15  16
ENDBRANCH   1  15
TORSDOF 22
ENDMDL
MODEL 4
REMARK VINA RESULT:    -3.417      1.363      3.739
REMARK INTER + INTRA:         -11.011
REMARK INTER:                  -8.006
REMARK INTRA:                  -3.005
REMARK UNBOUND:                -3.199
REMARK SMILES CCCCCCCCCCCCCCCCCCCCCCCC(=O)[O-]
REMARK SMILES IDX 13 1 14 2 15 3 16 4 17 5 18 6 19 7 20 8 21 9 22 10 23 11
REMARK SMILES IDX 24 12 25 13 26 14 12 15 11 16 10 17 9 18 8 19 7 20 6 21 5 22
REMARK SMILES IDX 4 23 3 24 2 25 1 26
REMARK H PARENT
REMARK Flexibility Score: inf
ROOT
ATOM      1  C   UNL     1     -20.008  45.011  -5.736  1.00  0.00     0.000 C 
ENDROOT
BRANCH   1   2
ATOM      2  C   UNL     1     -18.745  45.838  -6.023  1.00  0.00     0.000 C 
BRANCH   2   3
ATOM      3  C   UNL     1     -19.043  47.336  -6.196  1.00  0.00     0.000 C 
BRANCH   3   4
ATOM      4  C   UNL     1     -18.226  47.999  -7.327  1.00  0.00     0.000 C 
BRANCH   4   5
ATOM      5  C   UNL     1     -17.516  46.962  -8.216  1.00  0.00     0.000 C 
BRANCH   5   6
ATOM      6  C   UNL     1     -17.449  47.401  -9.695  1.00  0.00     0.000 C 
BRANCH   6   7
ATOM      7  C   UNL     1     -16.184  48.207 -10.049  1.00  0.00     0.000 C 
BRANCH   7   8
ATOM      8  C   UNL     1     -14.877  47.648  -9.463  1.00  0.00     0.000 C 
BRANCH   8   9
ATOM      9  C   UNL     1     -14.047  48.715  -8.734  1.00  0.00     0.000 C 
BRANCH   9  10
ATOM     10  C   UNL     1     -14.072  50.046  -9.501  1.00  0.00     0.006 C 
BRANCH  10  11
ATOM     11  C   UNL     1     -14.041  51.259  -8.561  1.00  0.00     0.053 C 
BRANCH  11  12
ATOM     12  C   UNL     1     -14.200  52.547  -9.311  1.00  0.00     0.041 C 
ATOM     13  O   UNL     1     -14.320  52.539 -10.565  1.00  0.00    -0.550 OA
ATOM     14  O   UNL     1     -14.184  53.756  -8.629  1.00  0.00    -0.550 OA
ENDBRANCH  11  12
ENDBRANCH  10  11
ENDBRANCH   9  10
ENDBRANCH   8   9
ENDBRANCH   7   8
ENDBRANCH   6   7
ENDBRANCH   5   6
ENDBRANCH   4   5
ENDBRANCH   3   4
ENDBRANCH   2   3
ENDBRANCH   1   2
BRANCH   1  15
ATOM     15  C   UNL     1     -20.541  44.284  -6.984  1.00  0.00     0.000 C 
BRANCH  15  16
ATOM     16  C   UNL     1     -21.023  45.212  -8.117  1.00  0.00     0.000 C 
BRANCH  16  17
ATOM     17  C   UNL     1     -20.294  45.039  -9.465  1.00  0.00     0.000 C 
BRANCH  17  18
ATOM     18  C   UNL     1     -20.466  43.661 -10.129  1.00  0.00    -0.000 C 
BRANCH  18  19
ATOM     19  C   UNL     1     -19.134  42.911 -10.299  1.00  0.00    -0.000 C 
BRANCH  19  20
ATOM     20  C   UNL     1     -18.012  43.497  -9.427  1.00  0.00    -0.000 C 
BRANCH  20  21
ATOM     21  C   UNL     1     -17.391  42.458  -8.477  1.00  0.00    -0.000 C 
BRANCH  21  22
ATOM     22  C   UNL     1     -16.987  43.064  -7.124  1.00  0.00    -0.000 C 
BRANCH  22  23
ATOM     23  C   UNL     1     -15.991  44.227  -7.272  1.00  0.00    -0.000 C 
BRANCH  23  24
ATOM     24  C   UNL     1     -15.841  45.053  -5.981  1.00  0.00    -0.000 C 
BRANCH  24  25
ATOM     25  C   UNL     1     -14.779  46.164  -6.048  1.00  0.00    -0.003 C 
ATOM     26  C   UNL     1     -14.778  47.067  -4.816  1.00  0.00     0.004 C 
ENDBRANCH  24  25
ENDBRANCH  23  24
ENDBRANCH  22  23
ENDBRANCH  21  22
ENDBRANCH  20  21
ENDBRANCH  19  20
ENDBRANCH  18  19
ENDBRANCH  17  18
ENDBRANCH  16  17
ENDBRANCH  15  16
ENDBRANCH   1  15
TORSDOF 22
ENDMDL
MODEL 5
REMARK VINA RESULT:    -3.237      1.198      3.242
REMARK INTER + INTRA:         -10.599
REMARK INTER:                  -6.824
REMARK INTRA:                  -3.775
REMARK UNBOUND:                -3.199
REMARK SMILES CCCCCCCCCCCCCCCCCCCCCCCC(=O)[O-]
REMARK SMILES IDX 13 1 14 2 15 3 16 4 17 5 18 6 19 7 20 8 21 9 22 10 23 11
REMARK SMILES IDX 24 12 25 13 26 14 12 15 11 16 10 17 9 18 8 19 7 20 6 21 5 22
REMARK SMILES IDX 4 23 3 24 2 25 1 26
REMARK H PARENT
REMARK Flexibility Score: inf
ROOT
ATOM      1  C   UNL     1     -19.133  44.009  -5.878  1.00  0.00     0.000 C 
ENDROOT
BRANCH   1   2
ATOM      2  C   UNL     1     -19.472  45.502  -5.758  1.00  0.00     0.000 C 
BRANCH   2   3
ATOM      3  C   UNL     1     -18.234  46.405  -5.894  1.00  0.00     0.000 C 
BRANCH   3   4
ATOM      4  C   UNL     1     -18.494  47.686  -6.717  1.00  0.00     0.000 C 
BRANCH   4   5
ATOM      5  C   UNL     1     -17.518  47.825  -7.899  1.00  0.00     0.000 C 
BRANCH   5   6
ATOM      6  C   UNL     1     -16.132  47.218  -7.593  1.00  0.00     0.000 C 
BRANCH   6   7
ATOM      7  C   UNL     1     -14.996  47.784  -8.466  1.00  0.00     0.000 C 
BRANCH   7   8
ATOM      8  C   UNL     1     -15.443  48.809  -9.522  1.00  0.00     0.000 C 
BRANCH   8   9
ATOM      9  C   UNL     1     -14.398  49.017 -10.629  1.00  0.00     0.000 C 
BRANCH   9  10
ATOM     10  C   UNL     1     -14.082  50.509 -10.810  1.00  0.00     0.006 C 
BRANCH  10  11
ATOM     11  C   UNL     1     -15.046  51.408 -10.023  1.00  0.00     0.053 C 
BRANCH  11  12
ATOM     12  C   UNL     1     -14.317  52.301  -9.066  1.00  0.00     0.041 C 
ATOM     13  O   UNL     1     -14.065  53.495  -9.380  1.00  0.00    -0.550 OA
ATOM     14  O   UNL     1     -13.887  51.807  -7.842  1.00  0.00    -0.550 OA
ENDBRANCH  11  12
ENDBRANCH  10  11
ENDBRANCH   9  10
ENDBRANCH   8   9
ENDBRANCH   7   8
ENDBRANCH   6   7
ENDBRANCH   5   6
ENDBRANCH   4   5
ENDBRANCH   3   4
ENDBRANCH   2   3
ENDBRANCH   1   2
BRANCH   1  15
ATOM     15  C   UNL     1     -17.639  43.757  -6.152  1.00  0.00     0.000 C 
BRANCH  15  16
ATOM     16  C   UNL     1     -17.326  43.178  -7.546  1.00  0.00     0.000 C 
BRANCH  16  17
ATOM     17  C   UNL     1     -15.911  43.481  -8.081  1.00  0.00     0.000 C 
BRANCH  17  18
ATOM     18  C   UNL     1     -15.790  43.532  -9.615  1.00  0.00    -0.000 C 
BRANCH  18  19
ATOM     19  C   UNL     1     -15.217  44.866 -10.123  1.00  0.00    -0.000 C 
BRANCH  19  20
ATOM     20  C   UNL     1     -16.149  45.566 -11.125  1.00  0.00    -0.000 C 
BRANCH  20  21
ATOM     21  C   UNL     1     -17.608  45.086 -11.016  1.00  0.00    -0.000 C 
BRANCH  21  22
ATOM     22  C   UNL     1     -18.446  45.962 -10.073  1.00  0.00    -0.000 C 
BRANCH  22  23
ATOM     23  C   UNL     1     -19.711  45.244  -9.569  1.00  0.00    -0.000 C 
BRANCH  23  24
ATOM     24  C   UNL     1     -19.939  43.884 -10.253  1.00  0.00    -0.000 C 
BRANCH  24  25
ATOM     25  C   UNL     1     -20.380  42.754  -9.307  1.00  0.00    -0.003 C 
ATOM     26  C   UNL     1     -19.868  41.379  -9.735  1.00  0.00     0.004 C 
ENDBRANCH  24  25
ENDBRANCH  23  24
ENDBRANCH  22  23
ENDBRANCH  21  22
ENDBRANCH  20  21
ENDBRANCH  19  20
ENDBRANCH  18  19
ENDBRANCH  17  18
ENDBRANCH  16  17
ENDBRANCH  15  16
ENDBRANCH   1  15
TORSDOF 22
ENDMDL
MODEL 6
REMARK VINA RESULT:    -3.185      3.613      7.114
REMARK INTER + INTRA:         -10.479
REMARK INTER:                  -6.494
REMARK INTRA:                  -3.985
REMARK UNBOUND:                -3.199
REMARK SMILES CCCCCCCCCCCCCCCCCCCCCCCC(=O)[O-]
REMARK SMILES IDX 13 1 14 2 15 3 16 4 17 5 18 6 19 7 20 8 21 9 22 10 23 11
REMARK SMILES IDX 24 12 25 13 26 14 12 15 11 16 10 17 9 18 8 19 7 20 6 21 5 22
REMARK SMILES IDX 4 23 3 24 2 25 1 26
REMARK H PARENT
REMARK Flexibility Score: inf
ROOT
ATOM      1  C   UNL     1     -19.606  45.745  -9.294  1.00  0.00     0.000 C 
ENDROOT
BRANCH   1   2
ATOM      2  C   UNL     1     -20.696  44.887  -8.633  1.00  0.00     0.000 C 
BRANCH   2   3
ATOM      3  C   UNL     1     -20.617  43.407  -9.041  1.00  0.00     0.000 C 
BRANCH   3   4
ATOM      4  C   UNL     1     -19.721  43.156 -10.273  1.00  0.00     0.000 C 
BRANCH   4   5
ATOM      5  C   UNL     1     -18.375  42.511  -9.892  1.00  0.00     0.000 C 
BRANCH   5   6
ATOM      6  C   UNL     1     -17.172  43.416 -10.233  1.00  0.00     0.000 C 
BRANCH   6   7
ATOM      7  C   UNL     1     -16.333  43.827  -9.008  1.00  0.00     0.000 C 
BRANCH   7   8
ATOM      8  C   UNL     1     -16.693  43.095  -7.704  1.00  0.00     0.000 C 
BRANCH   8   9
ATOM      9  C   UNL     1     -17.060  44.055  -6.564  1.00  0.00     0.000 C 
BRANCH   9  10
ATOM     10  C   UNL     1     -18.182  43.468  -5.693  1.00  0.00     0.006 C 
BRANCH  10  11
ATOM     11  C   UNL     1     -19.344  44.452  -5.501  1.00  0.00     0.053 C 
BRANCH  11  12
ATOM     12  C   UNL     1     -20.535  43.790  -4.878  1.00  0.00     0.041 C 
ATOM     13  O   UNL     1     -20.380  42.954  -3.948  1.00  0.00    -0.550 OA
ATOM     14  O   UNL     1     -21.812  44.071  -5.344  1.00  0.00    -0.550 OA
ENDBRANCH  11  12
ENDBRANCH  10  11
ENDBRANCH   9  10
ENDBRANCH   8   9
ENDBRANCH   7   8
ENDBRANCH   6   7
ENDBRANCH   5   6
ENDBRANCH   4   5
ENDBRANCH   3   4
ENDBRANCH   2   3
ENDBRANCH   1   2
BRANCH   1  15
ATOM     15  C   UNL     1     -18.761  46.526  -8.271  1.00  0.00     0.000 C 
BRANCH  15  16
ATOM     16  C   UNL     1     -17.628  47.374  -8.881  1.00  0.00     0.000 C 
BRANCH  16  17
ATOM     17  C   UNL     1     -17.368  47.141 -10.384  1.00  0.00     0.000 C 
BRANCH  17  18
ATOM     18  C   UNL     1     -16.041  47.713 -10.914  1.00  0.00    -0.000 C 
BRANCH  18  19
ATOM     19  C   UNL     1     -15.051  48.061  -9.789  1.00  0.00    -0.000 C 
BRANCH  19  20
ATOM     20  C   UNL     1     -14.264  46.837  -9.296  1.00  0.00    -0.000 C 
BRANCH  20  21
ATOM     21  C   UNL     1     -13.875  46.937  -7.810  1.00  0.00    -0.000 C 
BRANCH  21  22
ATOM     22  C   UNL     1     -15.082  47.223  -6.904  1.00  0.00    -0.000 C 
BRANCH  22  23
ATOM     23  C   UNL     1     -14.889  46.687  -5.476  1.00  0.00    -0.000 C 
BRANCH  23  24
ATOM     24  C   UNL     1     -16.050  47.058  -4.535  1.00  0.00    -0.000 C 
BRANCH  24  25
ATOM     25  C   UNL     1     -17.408  47.247  -5.233  1.00  0.00    -0.003 C 
ATOM     26  C   UNL     1     -18.403  48.054  -4.399  1.00  0.00     0.004 C 
ENDBRANCH  24  25
ENDBRANCH  23  24
ENDBRANCH  22  23
ENDBRANCH  21  22
ENDBRANCH  20  21
ENDBRANCH  19  20
ENDBRANCH  18  19
ENDBRANCH  17  18
ENDBRANCH  16  17
ENDBRANCH  15  16
ENDBRANCH   1  15
TORSDOF 22
ENDMDL
MODEL 7
REMARK VINA RESULT:    -3.175      1.306      2.418
REMARK INTER + INTRA:         -10.457
REMARK INTER:                  -7.676
REMARK INTRA:                  -2.781
REMARK UNBOUND:                -3.199
REMARK SMILES CCCCCCCCCCCCCCCCCCCCCCCC(=O)[O-]
REMARK SMILES IDX 13 1 14 2 15 3 16 4 17 5 18 6 19 7 20 8 21 9 22 10 23 11
REMARK SMILES IDX 24 12 25 13 26 14 12 15 11 16 10 17 9 18 8 19 7 20 6 21 5 22
REMARK SMILES IDX 4 23 3 24 2 25 1 26
REMARK H PARENT
REMARK Flexibility Score: inf
ROOT
ATOM      1  C   UNL     1     -17.795  44.583  -5.867  1.00  0.00     0.000 C 
ENDROOT
BRANCH   1   2
ATOM      2  C   UNL     1     -16.302  44.793  -6.160  1.00  0.00     0.000 C 
BRANCH   2   3
ATOM      3  C   UNL     1     -15.806  46.189  -5.747  1.00  0.00     0.000 C 
BRANCH   3   4
ATOM      4  C   UNL     1     -14.312  46.427  -6.056  1.00  0.00     0.000 C 
BRANCH   4   5
ATOM      5  C   UNL     1     -14.107  47.488  -7.153  1.00  0.00     0.000 C 
BRANCH   5   6
ATOM      6  C   UNL     1     -14.542  46.984  -8.547  1.00  0.00     0.000 C 
BRANCH   6   7
ATOM      7  C   UNL     1     -15.836  47.636  -9.069  1.00  0.00     0.000 C 
BRANCH   7   8
ATOM      8  C   UNL     1     -15.694  48.367 -10.415  1.00  0.00     0.000 C 
BRANCH   8   9
ATOM      9  C   UNL     1     -15.938  49.880 -10.299  1.00  0.00     0.000 C 
BRANCH   9  10
ATOM     10  C   UNL     1     -14.608  50.644 -10.218  1.00  0.00     0.006 C 
BRANCH  10  11
ATOM     11  C   UNL     1     -14.443  51.383  -8.883  1.00  0.00     0.053 C 
BRANCH  11  12
ATOM     12  C   UNL     1     -14.076  52.822  -9.087  1.00  0.00     0.041 C 
ATOM     13  O   UNL     1     -13.878  53.572  -8.094  1.00  0.00    -0.550 OA
ATOM     14  O   UNL     1     -13.985  53.342 -10.371  1.00  0.00    -0.550 OA
ENDBRANCH  11  12
ENDBRANCH  10  11
ENDBRANCH   9  10
ENDBRANCH   8   9
ENDBRANCH   7   8
ENDBRANCH   6   7
ENDBRANCH   5   6
ENDBRANCH   4   5
ENDBRANCH   3   4
ENDBRANCH   2   3
ENDBRANCH   1   2
BRANCH   1  15
ATOM     15  C   UNL     1     -18.528  45.896  -5.538  1.00  0.00     0.000 C 
BRANCH  15  16
ATOM     16  C   UNL     1     -18.618  46.896  -6.708  1.00  0.00     0.000 C 
BRANCH  16  17
ATOM     17  C   UNL     1     -19.330  46.370  -7.971  1.00  0.00     0.000 C 
BRANCH  17  18
ATOM     18  C   UNL     1     -20.716  45.748  -7.728  1.00  0.00    -0.000 C 
BRANCH  18  19
ATOM     19  C   UNL     1     -20.747  44.235  -8.005  1.00  0.00    -0.000 C 
BRANCH  19  20
ATOM     20  C   UNL     1     -20.522  43.902  -9.489  1.00  0.00    -0.000 C 
BRANCH  20  21
ATOM     21  C   UNL     1     -20.096  42.441  -9.713  1.00  0.00    -0.000 C 
BRANCH  21  22
ATOM     22  C   UNL     1     -18.607  42.311 -10.071  1.00  0.00    -0.000 C 
BRANCH  22  23
ATOM     23  C   UNL     1     -17.707  43.182  -9.178  1.00  0.00    -0.000 C 
BRANCH  23  24
ATOM     24  C   UNL     1     -17.043  44.340  -9.947  1.00  0.00    -0.000 C 
BRANCH  24  25
ATOM     25  C   UNL     1     -16.152  43.904 -11.123  1.00  0.00    -0.003 C 
ATOM     26  C   UNL     1     -14.664  43.891 -10.775  1.00  0.00     0.004 C 
ENDBRANCH  24  25
ENDBRANCH  23  24
ENDBRANCH  22  23
ENDBRANCH  21  22
ENDBRANCH  20  21
ENDBRANCH  19  20
ENDBRANCH  18  19
ENDBRANCH  17  18
ENDBRANCH  16  17
ENDBRANCH  15  16
ENDBRANCH   1  15
TORSDOF 22
ENDMDL
MODEL 8
REMARK VINA RESULT:    -3.101      2.805      6.829
REMARK INTER + INTRA:         -10.288
REMARK INTER:                  -7.338
REMARK INTRA:                  -2.951
REMARK UNBOUND:                -3.199
REMARK SMILES CCCCCCCCCCCCCCCCCCCCCCCC(=O)[O-]
REMARK SMILES IDX 13 1 14 2 15 3 16 4 17 5 18 6 19 7 20 8 21 9 22 10 23 11
REMARK SMILES IDX 24 12 25 13 26 14 12 15 11 16 10 17 9 18 8 19 7 20 6 21 5 22
REMARK SMILES IDX 4 23 3 24 2 25 1 26
REMARK H PARENT
REMARK Flexibility Score: inf
ROOT
ATOM      1  C   UNL     1     -18.677  47.505  -5.758  1.00  0.00     0.000 C 
ENDROOT
BRANCH   1   2
ATOM      2  C   UNL     1     -18.340  47.591  -7.254  1.00  0.00     0.000 C 
BRANCH   2   3
ATOM      3  C   UNL     1     -18.634  46.282  -8.006  1.00  0.00     0.000 C 
BRANCH   3   4
ATOM      4  C   UNL     1     -19.711  45.410  -7.325  1.00  0.00     0.000 C 
BRANCH   4   5
ATOM      5  C   UNL     1     -21.045  45.428  -8.092  1.00  0.00     0.000 C 
BRANCH   5   6
ATOM      6  C   UNL     1     -20.847  45.590  -9.615  1.00  0.00     0.000 C 
BRANCH   6   7
ATOM      7  C   UNL     1     -20.497  44.277 -10.341  1.00  0.00     0.000 C 
BRANCH   7   8
ATOM      8  C   UNL     1     -19.174  44.304 -11.124  1.00  0.00     0.000 C 
BRANCH   8   9
ATOM      9  C   UNL     1     -18.085  43.431 -10.482  1.00  0.00     0.000 C 
BRANCH   9  10
ATOM     10  C   UNL     1     -18.658  42.608  -9.318  1.00  0.00     0.006 C 
BRANCH  10  11
ATOM     11  C   UNL     1     -17.557  41.975  -8.456  1.00  0.00     0.053 C 
BRANCH  11  12
ATOM     12  C   UNL     1     -16.901  42.985  -7.564  1.00  0.00     0.041 C 
ATOM     13  O   UNL     1     -17.357  43.202  -6.410  1.00  0.00    -0.550 OA
ATOM     14  O   UNL     1     -15.807  43.709  -8.019  1.00  0.00    -0.550 OA
ENDBRANCH  11  12
ENDBRANCH  10  11
ENDBRANCH   9  10
ENDBRANCH   8   9
ENDBRANCH   7   8
ENDBRANCH   6   7
ENDBRANCH   5   6
ENDBRANCH   4   5
ENDBRANCH   3   4
ENDBRANCH   2   3
ENDBRANCH   1   2
BRANCH   1  15
ATOM     15  C   UNL     1     -17.437  47.242  -4.883  1.00  0.00     0.000 C 
BRANCH  15  16
ATOM     16  C   UNL     1     -16.319  46.434  -5.572  1.00  0.00     0.000 C 
BRANCH  16  17
ATOM     17  C   UNL     1     -14.882  46.889  -5.245  1.00  0.00     0.000 C 
BRANCH  17  18
ATOM     18  C   UNL     1     -13.876  46.756  -6.402  1.00  0.00    -0.000 C 
BRANCH  18  19
ATOM     19  C   UNL     1     -14.547  46.812  -7.785  1.00  0.00    -0.000 C 
BRANCH  19  20
ATOM     20  C   UNL     1     -14.529  48.224  -8.393  1.00  0.00    -0.000 C 
BRANCH  20  21
ATOM     21  C   UNL     1     -15.512  48.379  -9.567  1.00  0.00    -0.000 C 
BRANCH  21  22
ATOM     22  C   UNL     1     -16.114  49.790  -9.647  1.00  0.00    -0.000 C 
BRANCH  22  23
ATOM     23  C   UNL     1     -15.628  50.571 -10.880  1.00  0.00    -0.000 C 
BRANCH  23  24
ATOM     24  C   UNL     1     -14.520  51.587 -10.545  1.00  0.00    -0.000 C 
BRANCH  24  25
ATOM     25  C   UNL     1     -14.337  51.868  -9.044  1.00  0.00    -0.003 C 
ATOM     26  C   UNL     1     -14.099  53.346  -8.736  1.00  0.00     0.004 C 
ENDBRANCH  24  25
ENDBRANCH  23  24
ENDBRANCH  22  23
ENDBRANCH  21  22
ENDBRANCH  20  21
ENDBRANCH  19  20
ENDBRANCH  18  19
ENDBRANCH  17  18
ENDBRANCH  16  17
ENDBRANCH  15  16
ENDBRANCH   1  15
TORSDOF 22
ENDMDL
MODEL 9
REMARK VINA RESULT:    -3.095      2.171      6.290
REMARK INTER + INTRA:         -10.273
REMARK INTER:                  -7.548
REMARK INTRA:                  -2.726
REMARK UNBOUND:                -3.199
REMARK SMILES CCCCCCCCCCCCCCCCCCCCCCCC(=O)[O-]
REMARK SMILES IDX 13 1 14 2 15 3 16 4 17 5 18 6 19 7 20 8 21 9 22 10 23 11
REMARK SMILES IDX 24 12 25 13 26 14 12 15 11 16 10 17 9 18 8 19 7 20 6 21 5 22
REMARK SMILES IDX 4 23 3 24 2 25 1 26
REMARK H PARENT
REMARK Flexibility Score: inf
ROOT
ATOM      1  C   UNL     1     -17.221  44.012  -5.917  1.00  0.00     0.000 C 
ENDROOT
BRANCH   1   2
ATOM      2  C   UNL     1     -17.224  43.143  -7.185  1.00  0.00     0.000 C 
BRANCH   2   3
ATOM      3  C   UNL     1     -16.283  43.681  -8.276  1.00  0.00     0.000 C 
BRANCH   3   4
ATOM      4  C   UNL     1     -16.904  43.658  -9.689  1.00  0.00     0.000 C 
BRANCH   4   5
ATOM      5  C   UNL     1     -18.114  42.710  -9.778  1.00  0.00     0.000 C 
BRANCH   5   6
ATOM      6  C   UNL     1     -19.174  43.201 -10.788  1.00  0.00     0.000 C 
BRANCH   6   7
ATOM      7  C   UNL     1     -20.488  43.669 -10.134  1.00  0.00     0.000 C 
BRANCH   7   8
ATOM      8  C   UNL     1     -20.666  43.246  -8.666  1.00  0.00     0.000 C 
BRANCH   8   9
ATOM      9  C   UNL     1     -20.865  44.440  -7.722  1.00  0.00     0.000 C 
BRANCH   9  10
ATOM     10  C   UNL     1     -20.524  45.760  -8.429  1.00  0.00     0.006 C 
BRANCH  10  11
ATOM     11  C   UNL     1     -19.077  46.202  -8.171  1.00  0.00     0.053 C 
BRANCH  11  12
ATOM     12  C   UNL     1     -18.986  47.161  -7.024  1.00  0.00     0.041 C 
ATOM     13  O   UNL     1     -19.481  46.861  -5.905  1.00  0.00    -0.550 OA
ATOM     14  O   UNL     1     -18.383  48.400  -7.198  1.00  0.00    -0.550 OA
ENDBRANCH  11  12
ENDBRANCH  10  11
ENDBRANCH   9  10
ENDBRANCH   8   9
ENDBRANCH   7   8
ENDBRANCH   6   7
ENDBRANCH   5   6
ENDBRANCH   4   5
ENDBRANCH   3   4
ENDBRANCH   2   3
ENDBRANCH   1   2
BRANCH   1  15
ATOM     15  C   UNL     1     -16.484  45.350  -6.114  1.00  0.00     0.000 C 
BRANCH  15  16
ATOM     16  C   UNL     1     -15.213  45.519  -5.259  1.00  0.00     0.000 C 
BRANCH  16  17
ATOM     17  C   UNL     1     -14.368  46.770  -5.578  1.00  0.00     0.000 C 
BRANCH  17  18
ATOM     18  C   UNL     1     -13.875  46.871  -7.033  1.00  0.00    -0.000 C 
BRANCH  18  19
ATOM     19  C   UNL     1     -14.984  47.302  -8.008  1.00  0.00    -0.000 C 
BRANCH  19  20
ATOM     20  C   UNL     1     -14.761  46.760  -9.430  1.00  0.00    -0.000 C 
BRANCH  20  21
ATOM     21  C   UNL     1     -15.433  47.628 -10.509  1.00  0.00    -0.000 C 
BRANCH  21  22
ATOM     22  C   UNL     1     -16.143  48.856  -9.919  1.00  0.00    -0.000 C 
BRANCH  22  23
ATOM     23  C   UNL     1     -15.482  50.180 -10.341  1.00  0.00    -0.000 C 
BRANCH  23  24
ATOM     24  C   UNL     1     -14.567  50.765  -9.249  1.00  0.00    -0.000 C 
BRANCH  24  25
ATOM     25  C   UNL     1     -14.263  52.266  -9.401  1.00  0.00    -0.003 C 
ATOM     26  C   UNL     1     -14.284  52.737 -10.855  1.00  0.00     0.004 C 
ENDBRANCH  24  25
ENDBRANCH  23  24
ENDBRANCH  22  23
ENDBRANCH  21  22
ENDBRANCH  20  21
ENDBRANCH  19  20
ENDBRANCH  18  19
ENDBRANCH  17  18
ENDBRANCH  16  17
ENDBRANCH  15  16
ENDBRANCH   1  15
TORSDOF 22
ENDMDL
