MODEL 1
REMARK VINA RESULT:    -3.485      0.000      0.000
REMARK INTER + INTRA:          -6.860
REMARK INTER:                  -5.930
REMARK INTRA:                  -0.930
REMARK UNBOUND:                -0.930
REMARK SMILES CCCCCCCCCCCCCC(=O)[O-]
REMARK SMILES IDX 8 1 9 2 10 3 11 4 12 5 13 6 14 7 15 8 16 9 7 10 6 11 5 12
REMARK SMILES IDX 4 13 3 14 2 15 1 16
REMARK H PARENT
REMARK Flexibility Score: inf
ROOT
ATOM      1  C   UNL     1     110.374  61.683 216.334  1.00  0.00     0.000 C 
ENDROOT
BRANCH   1   2
ATOM      2  C   UNL     1     110.426  62.745 215.226  1.00  0.00     0.000 C 
BRANCH   2   3
ATOM      3  C   UNL     1     111.347  63.930 215.572  1.00  0.00     0.000 C 
BRANCH   3   4
ATOM      4  C   UNL     1     111.994  63.870 216.969  1.00  0.00     0.000 C 
BRANCH   4   5
ATOM      5  C   UNL     1     111.740  65.096 217.868  1.00  0.00     0.006 C 
BRANCH   5   6
ATOM      6  C   UNL     1     113.018  65.863 218.256  1.00  0.00     0.053 C 
BRANCH   6   7
ATOM      7  C   UNL     1     113.396  66.895 217.236  1.00  0.00     0.041 C 
ATOM      8  O   UNL     1     113.040  68.093 217.385  1.00  0.00    -0.550 OA
ATOM      9  O   UNL     1     114.110  66.526 216.103  1.00  0.00    -0.550 OA
ENDBRANCH   6   7
ENDBRANCH   5   6
ENDBRANCH   4   5
ENDBRANCH   3   4
ENDBRANCH   2   3
ENDBRANCH   1   2
BRANCH   1  10
ATOM     10  C   UNL     1     109.110  60.819 216.207  1.00  0.00     0.000 C 
BRANCH  10  11
ATOM     11  C   UNL     1     107.956  61.557 215.511  1.00  0.00    -0.000 C 
BRANCH  11  12
ATOM     12  C   UNL     1     106.575  61.055 215.961  1.00  0.00    -0.000 C 
BRANCH  12  13
ATOM     13  C   UNL     1     106.474  59.530 215.826  1.00  0.00    -0.000 C 
BRANCH  13  14
ATOM     14  C   UNL     1     105.621  58.933 216.951  1.00  0.00    -0.000 C 
BRANCH  14  15
ATOM     15  C   UNL     1     106.032  59.502 218.314  1.00  0.00    -0.003 C 
ATOM     16  C   UNL     1     107.280  58.806 218.849  1.00  0.00     0.004 C 
ENDBRANCH  14  15
ENDBRANCH  13  14
ENDBRANCH  12  13
ENDBRANCH  11  12
ENDBRANCH  10  11
ENDBRANCH   1  10
TORSDOF 12
ENDMDL
MODEL 2
REMARK VINA RESULT:    -3.369     13.739     16.197
REMARK INTER + INTRA:          -6.663
REMARK INTER:                  -4.673
REMARK INTRA:                  -1.989
REMARK UNBOUND:                -0.930
REMARK SMILES CCCCCCCCCCCCCC(=O)[O-]
REMARK SMILES IDX 8 1 9 2 10 3 11 4 12 5 13 6 14 7 15 8 16 9 7 10 6 11 5 12
REMARK SMILES IDX 4 13 3 14 2 15 1 16
REMARK H PARENT
REMARK Flexibility Score: inf
ROOT
ATOM      1  C   UNL     1      95.481  65.940 226.381  1.00  0.00     0.000 C 
ENDROOT
BRANCH   1   2
ATOM      2  C   UNL     1      95.775  65.886 224.875  1.00  0.00     0.000 C 
BRANCH   2   3
ATOM      3  C   UNL     1      97.029  65.059 224.537  1.00  0.00     0.000 C 
BRANCH   3   4
ATOM      4  C   UNL     1      97.609  64.240 225.706  1.00  0.00     0.000 C 
BRANCH   4   5
ATOM      5  C   UNL     1      99.105  64.468 225.996  1.00  0.00     0.006 C 
BRANCH   5   6
ATOM      6  C   UNL     1      99.680  65.741 225.346  1.00  0.00     0.053 C 
BRANCH   6   7
ATOM      7  C   UNL     1     100.962  65.480 224.614  1.00  0.00     0.041 C 
ATOM      8  O   UNL     1     101.773  66.418 224.400  1.00  0.00    -0.550 OA
ATOM      9  O   UNL     1     101.243  64.206 224.135  1.00  0.00    -0.550 OA
ENDBRANCH   6   7
ENDBRANCH   5   6
ENDBRANCH   4   5
ENDBRANCH   3   4
ENDBRANCH   2   3
ENDBRANCH   1   2
BRANCH   1  10
ATOM     10  C   UNL     1      95.695  67.358 226.932  1.00  0.00     0.000 C 
BRANCH  10  11
ATOM     11  C   UNL     1      97.163  67.639 227.288  1.00  0.00    -0.000 C 
BRANCH  11  12
ATOM     12  C   UNL     1      97.440  67.525 228.795  1.00  0.00    -0.000 C 
BRANCH  12  13
ATOM     13  C   UNL     1      98.198  66.230 229.117  1.00  0.00    -0.000 C 
BRANCH  13  14
ATOM     14  C   UNL     1      97.231  65.114 229.528  1.00  0.00    -0.000 C 
BRANCH  14  15
ATOM     15  C   UNL     1      97.910  63.742 229.450  1.00  0.00    -0.003 C 
ATOM     16  C   UNL     1      99.416  63.859 229.670  1.00  0.00     0.004 C 
ENDBRANCH  14  15
ENDBRANCH  13  14
ENDBRANCH  12  13
ENDBRANCH  11  12
ENDBRANCH  10  11
ENDBRANCH   1  10
TORSDOF 12
ENDMDL
MODEL 3
REMARK VINA RESULT:    -3.355      1.103      1.813
REMARK INTER + INTRA:          -6.638
REMARK INTER:                  -6.016
REMARK INTRA:                  -0.622
REMARK UNBOUND:                -0.930
REMARK SMILES CCCCCCCCCCCCCC(=O)[O-]
REMARK SMILES IDX 8 1 9 2 10 3 11 4 12 5 13 6 14 7 15 8 16 9 7 10 6 11 5 12
REMARK SMILES IDX 4 13 3 14 2 15 1 16
REMARK H PARENT
REMARK Flexibility Score: inf
ROOT
ATOM      1  C   UNL     1     108.803  61.322 215.912  1.00  0.00     0.000 C 
ENDROOT
BRANCH   1   2
ATOM      2  C   UNL     1     109.605  62.342 215.091  1.00  0.00     0.000 C 
BRANCH   2   3
ATOM      3  C   UNL     1     111.030  62.562 215.632  1.00  0.00     0.000 C 
BRANCH   3   4
ATOM      4  C   UNL     1     111.453  64.035 215.783  1.00  0.00     0.000 C 
BRANCH   4   5
ATOM      5  C   UNL     1     112.299  64.356 217.031  1.00  0.00     0.006 C 
BRANCH   5   6
ATOM      6  C   UNL     1     112.142  65.802 217.538  1.00  0.00     0.053 C 
BRANCH   6   7
ATOM      7  C   UNL     1     113.233  66.702 217.041  1.00  0.00     0.041 C 
ATOM      8  O   UNL     1     113.135  67.950 217.173  1.00  0.00    -0.550 OA
ATOM      9  O   UNL     1     114.342  66.165 216.398  1.00  0.00    -0.550 OA
ENDBRANCH   6   7
ENDBRANCH   5   6
ENDBRANCH   4   5
ENDBRANCH   3   4
ENDBRANCH   2   3
ENDBRANCH   1   2
BRANCH   1  10
ATOM     10  C   UNL     1     107.301  61.436 215.613  1.00  0.00     0.000 C 
BRANCH  10  11
ATOM     11  C   UNL     1     106.449  60.512 216.498  1.00  0.00    -0.000 C 
BRANCH  11  12
ATOM     12  C   UNL     1     107.290  59.465 217.245  1.00  0.00    -0.000 C 
BRANCH  12  13
ATOM     13  C   UNL     1     106.465  58.780 218.341  1.00  0.00    -0.000 C 
BRANCH  13  14
ATOM     14  C   UNL     1     105.745  59.813 219.216  1.00  0.00    -0.000 C 
BRANCH  14  15
ATOM     15  C   UNL     1     104.274  59.432 219.419  1.00  0.00    -0.003 C 
ATOM     16  C   UNL     1     103.912  58.184 218.617  1.00  0.00     0.004 C 
ENDBRANCH  14  15
ENDBRANCH  13  14
ENDBRANCH  12  13
ENDBRANCH  11  12
ENDBRANCH  10  11
ENDBRANCH   1  10
TORSDOF 12
ENDMDL
MODEL 4
REMARK VINA RESULT:    -3.341     13.040     15.588
REMARK INTER + INTRA:          -6.615
REMARK INTER:                  -4.849
REMARK INTRA:                  -1.767
REMARK UNBOUND:                -0.930
REMARK SMILES CCCCCCCCCCCCCC(=O)[O-]
REMARK SMILES IDX 8 1 9 2 10 3 11 4 12 5 13 6 14 7 15 8 16 9 7 10 6 11 5 12
REMARK SMILES IDX 4 13 3 14 2 15 1 16
REMARK H PARENT
REMARK Flexibility Score: inf
ROOT
ATOM      1  C   UNL     1      97.509  64.537 225.143  1.00  0.00     0.000 C 
ENDROOT
BRANCH   1   2
ATOM      2  C   UNL     1      97.527  64.244 226.650  1.00  0.00     0.000 C 
BRANCH   2   3
ATOM      3  C   UNL     1      98.591  63.203 227.047  1.00  0.00     0.000 C 
BRANCH   3   4
ATOM      4  C   UNL     1      99.960  63.785 227.448  1.00  0.00     0.000 C 
BRANCH   4   5
ATOM      5  C   UNL     1     101.175  62.884 227.149  1.00  0.00     0.006 C 
BRANCH   5   6
ATOM      6  C   UNL     1     101.614  62.898 225.673  1.00  0.00     0.053 C 
BRANCH   6   7
ATOM      7  C   UNL     1     101.680  64.286 225.109  1.00  0.00     0.041 C 
ATOM      8  O   UNL     1     100.943  64.613 224.143  1.00  0.00    -0.550 OA
ATOM      9  O   UNL     1     102.581  65.206 225.629  1.00  0.00    -0.550 OA
ENDBRANCH   6   7
ENDBRANCH   5   6
ENDBRANCH   4   5
ENDBRANCH   3   4
ENDBRANCH   2   3
ENDBRANCH   1   2
BRANCH   1  10
ATOM     10  C   UNL     1      96.268  65.355 224.758  1.00  0.00     0.000 C 
BRANCH  10  11
ATOM     11  C   UNL     1      95.381  65.691 225.966  1.00  0.00    -0.000 C 
BRANCH  11  12
ATOM     12  C   UNL     1      95.228  67.203 226.188  1.00  0.00    -0.000 C 
BRANCH  12  13
ATOM     13  C   UNL     1      96.144  67.687 227.320  1.00  0.00    -0.000 C 
BRANCH  13  14
ATOM     14  C   UNL     1      97.392  68.379 226.759  1.00  0.00    -0.000 C 
BRANCH  14  15
ATOM     15  C   UNL     1      98.666  67.633 227.173  1.00  0.00    -0.003 C 
ATOM     16  C   UNL     1      99.588  67.410 225.976  1.00  0.00     0.004 C 
ENDBRANCH  14  15
ENDBRANCH  13  14
ENDBRANCH  12  13
ENDBRANCH  11  12
ENDBRANCH  10  11
ENDBRANCH   1  10
TORSDOF 12
ENDMDL
MODEL 5
REMARK VINA RESULT:    -3.314     14.118     16.510
REMARK INTER + INTRA:          -6.569
REMARK INTER:                  -4.872
REMARK INTRA:                  -1.697
REMARK UNBOUND:                -0.930
REMARK SMILES CCCCCCCCCCCCCC(=O)[O-]
REMARK SMILES IDX 8 1 9 2 10 3 11 4 12 5 13 6 14 7 15 8 16 9 7 10 6 11 5 12
REMARK SMILES IDX 4 13 3 14 2 15 1 16
REMARK H PARENT
REMARK Flexibility Score: inf
ROOT
ATOM      1  C   UNL     1      95.240  64.999 226.757  1.00  0.00     0.000 C 
ENDROOT
BRANCH   1   2
ATOM      2  C   UNL     1      96.719  64.602 226.643  1.00  0.00     0.000 C 
BRANCH   2   3
ATOM      3  C   UNL     1      97.262  64.717 225.206  1.00  0.00     0.000 C 
BRANCH   3   4
ATOM      4  C   UNL     1      98.458  65.672 225.032  1.00  0.00     0.000 C 
BRANCH   4   5
ATOM      5  C   UNL     1      99.609  65.482 226.039  1.00  0.00     0.006 C 
BRANCH   5   6
ATOM      6  C   UNL     1     100.441  64.207 225.803  1.00  0.00     0.053 C 
BRANCH   6   7
ATOM      7  C   UNL     1     101.711  64.484 225.056  1.00  0.00     0.041 C 
ATOM      8  O   UNL     1     102.775  63.890 225.370  1.00  0.00    -0.550 OA
ATOM      9  O   UNL     1     101.727  65.427 224.035  1.00  0.00    -0.550 OA
ENDBRANCH   6   7
ENDBRANCH   5   6
ENDBRANCH   4   5
ENDBRANCH   3   4
ENDBRANCH   2   3
ENDBRANCH   1   2
BRANCH   1  10
ATOM     10  C   UNL     1      94.887  66.099 225.745  1.00  0.00     0.000 C 
BRANCH  10  11
ATOM     11  C   UNL     1      94.875  67.501 226.375  1.00  0.00    -0.000 C 
BRANCH  11  12
ATOM     12  C   UNL     1      96.174  68.279 226.115  1.00  0.00    -0.000 C 
BRANCH  12  13
ATOM     13  C   UNL     1      97.021  68.375 227.390  1.00  0.00    -0.000 C 
BRANCH  13  14
ATOM     14  C   UNL     1      96.191  68.019 228.630  1.00  0.00    -0.000 C 
BRANCH  14  15
ATOM     15  C   UNL     1      96.890  66.943 229.469  1.00  0.00    -0.003 C 
ATOM     16  C   UNL     1      96.049  66.556 230.682  1.00  0.00     0.004 C 
ENDBRANCH  14  15
ENDBRANCH  13  14
ENDBRANCH  12  13
ENDBRANCH  11  12
ENDBRANCH  10  11
ENDBRANCH   1  10
TORSDOF 12
ENDMDL
MODEL 6
REMARK VINA RESULT:    -3.288     13.466     16.048
REMARK INTER + INTRA:          -6.524
REMARK INTER:                  -4.499
REMARK INTRA:                  -2.025
REMARK UNBOUND:                -0.930
REMARK SMILES CCCCCCCCCCCCCC(=O)[O-]
REMARK SMILES IDX 8 1 9 2 10 3 11 4 12 5 13 6 14 7 15 8 16 9 7 10 6 11 5 12
REMARK SMILES IDX 4 13 3 14 2 15 1 16
REMARK H PARENT
REMARK Flexibility Score: inf
ROOT
ATOM      1  C   UNL     1      95.667  65.300 226.685  1.00  0.00     0.000 C 
ENDROOT
BRANCH   1   2
ATOM      2  C   UNL     1      96.009  65.292 225.187  1.00  0.00     0.000 C 
BRANCH   2   3
ATOM      3  C   UNL     1      97.416  64.738 224.895  1.00  0.00     0.000 C 
BRANCH   3   4
ATOM      4  C   UNL     1      98.074  63.973 226.060  1.00  0.00     0.000 C 
BRANCH   4   5
ATOM      5  C   UNL     1      99.419  64.546 226.550  1.00  0.00     0.006 C 
BRANCH   5   6
ATOM      6  C   UNL     1     100.632  63.651 226.231  1.00  0.00     0.053 C 
BRANCH   6   7
ATOM      7  C   UNL     1     101.468  64.201 225.115  1.00  0.00     0.041 C 
ATOM      8  O   UNL     1     100.930  64.846 224.177  1.00  0.00    -0.550 OA
ATOM      9  O   UNL     1     102.838  63.969 225.091  1.00  0.00    -0.550 OA
ENDBRANCH   6   7
ENDBRANCH   5   6
ENDBRANCH   4   5
ENDBRANCH   3   4
ENDBRANCH   2   3
ENDBRANCH   1   2
BRANCH   1  10
ATOM     10  C   UNL     1      95.964  66.673 227.307  1.00  0.00     0.000 C 
BRANCH  10  11
ATOM     11  C   UNL     1      96.931  66.586 228.498  1.00  0.00    -0.000 C 
BRANCH  11  12
ATOM     12  C   UNL     1      97.788  67.851 228.658  1.00  0.00    -0.000 C 
BRANCH  12  13
ATOM     13  C   UNL     1      97.860  68.637 227.343  1.00  0.00    -0.000 C 
BRANCH  13  14
ATOM     14  C   UNL     1      99.214  68.433 226.653  1.00  0.00    -0.000 C 
BRANCH  14  15
ATOM     15  C   UNL     1      99.028  67.998 225.195  1.00  0.00    -0.003 C 
ATOM     16  C   UNL     1      97.735  68.561 224.612  1.00  0.00     0.004 C 
ENDBRANCH  14  15
ENDBRANCH  13  14
ENDBRANCH  12  13
ENDBRANCH  11  12
ENDBRANCH  10  11
ENDBRANCH   1  10
TORSDOF 12
ENDMDL
MODEL 7
REMARK VINA RESULT:    -3.253     13.508     15.699
REMARK INTER + INTRA:          -6.464
REMARK INTER:                  -4.593
REMARK INTRA:                  -1.871
REMARK UNBOUND:                -0.930
REMARK SMILES CCCCCCCCCCCCCC(=O)[O-]
REMARK SMILES IDX 8 1 9 2 10 3 11 4 12 5 13 6 14 7 15 8 16 9 7 10 6 11 5 12
REMARK SMILES IDX 4 13 3 14 2 15 1 16
REMARK H PARENT
REMARK Flexibility Score: inf
ROOT
ATOM      1  C   UNL     1      96.284  66.755 223.584  1.00  0.00     0.000 C 
ENDROOT
BRANCH   1   2
ATOM      2  C   UNL     1      96.556  67.939 224.523  1.00  0.00     0.000 C 
BRANCH   2   3
ATOM      3  C   UNL     1      98.058  68.191 224.753  1.00  0.00     0.000 C 
BRANCH   3   4
ATOM      4  C   UNL     1      98.522  68.093 226.219  1.00  0.00     0.000 C 
BRANCH   4   5
ATOM      5  C   UNL     1      99.562  66.993 226.511  1.00  0.00     0.006 C 
BRANCH   5   6
ATOM      6  C   UNL     1      99.565  65.847 225.482  1.00  0.00     0.053 C 
BRANCH   6   7
ATOM      7  C   UNL     1     100.933  65.577 224.933  1.00  0.00     0.041 C 
ATOM      8  O   UNL     1     101.113  64.644 224.107  1.00  0.00    -0.550 OA
ATOM      9  O   UNL     1     102.018  66.333 225.360  1.00  0.00    -0.550 OA
ENDBRANCH   6   7
ENDBRANCH   5   6
ENDBRANCH   4   5
ENDBRANCH   3   4
ENDBRANCH   2   3
ENDBRANCH   1   2
BRANCH   1  10
ATOM     10  C   UNL     1      95.978  65.480 224.384  1.00  0.00     0.000 C 
BRANCH  10  11
ATOM     11  C   UNL     1      95.318  65.775 225.740  1.00  0.00    -0.000 C 
BRANCH  11  12
ATOM     12  C   UNL     1      95.800  64.831 226.852  1.00  0.00    -0.000 C 
BRANCH  12  13
ATOM     13  C   UNL     1      96.469  65.617 227.987  1.00  0.00    -0.000 C 
BRANCH  13  14
ATOM     14  C   UNL     1      97.393  64.713 228.812  1.00  0.00    -0.000 C 
BRANCH  14  15
ATOM     15  C   UNL     1      97.992  63.600 227.944  1.00  0.00    -0.003 C 
ATOM     16  C   UNL     1      97.801  62.232 228.591  1.00  0.00     0.004 C 
ENDBRANCH  14  15
ENDBRANCH  13  14
ENDBRANCH  12  13
ENDBRANCH  11  12
ENDBRANCH  10  11
ENDBRANCH   1  10
TORSDOF 12
ENDMDL
MODEL 8
REMARK VINA RESULT:    -3.244     12.574     14.696
REMARK INTER + INTRA:          -6.449
REMARK INTER:                  -4.441
REMARK INTRA:                  -2.008
REMARK UNBOUND:                -0.930
REMARK SMILES CCCCCCCCCCCCCC(=O)[O-]
REMARK SMILES IDX 8 1 9 2 10 3 11 4 12 5 13 6 14 7 15 8 16 9 7 10 6 11 5 12
REMARK SMILES IDX 4 13 3 14 2 15 1 16
REMARK H PARENT
REMARK Flexibility Score: inf
ROOT
ATOM      1  C   UNL     1      97.920  68.178 225.784  1.00  0.00     0.000 C 
ENDROOT
BRANCH   1   2
ATOM      2  C   UNL     1      99.430  67.898 225.795  1.00  0.00     0.000 C 
BRANCH   2   3
ATOM      3  C   UNL     1      99.884  67.104 227.034  1.00  0.00     0.000 C 
BRANCH   3   4
ATOM      4  C   UNL     1     100.752  65.866 226.737  1.00  0.00     0.000 C 
BRANCH   4   5
ATOM      5  C   UNL     1     101.253  65.741 225.285  1.00  0.00     0.006 C 
BRANCH   5   6
ATOM      6  C   UNL     1     101.155  64.316 224.711  1.00  0.00     0.053 C 
BRANCH   6   7
ATOM      7  C   UNL     1     102.254  63.424 225.207  1.00  0.00     0.041 C 
ATOM      8  O   UNL     1     103.396  63.897 225.445  1.00  0.00    -0.550 OA
ATOM      9  O   UNL     1     102.026  62.063 225.372  1.00  0.00    -0.550 OA
ENDBRANCH   6   7
ENDBRANCH   5   6
ENDBRANCH   4   5
ENDBRANCH   3   4
ENDBRANCH   2   3
ENDBRANCH   1   2
BRANCH   1  10
ATOM     10  C   UNL     1      97.261  67.590 224.528  1.00  0.00     0.000 C 
BRANCH  10  11
ATOM     11  C   UNL     1      96.249  66.480 224.854  1.00  0.00    -0.000 C 
BRANCH  11  12
ATOM     12  C   UNL     1      96.715  65.095 224.380  1.00  0.00    -0.000 C 
BRANCH  12  13
ATOM     13  C   UNL     1      97.535  64.390 225.467  1.00  0.00    -0.000 C 
BRANCH  13  14
ATOM     14  C   UNL     1      96.959  64.671 226.860  1.00  0.00    -0.000 C 
BRANCH  14  15
ATOM     15  C   UNL     1      97.694  63.859 227.933  1.00  0.00    -0.003 C 
ATOM     16  C   UNL     1      98.703  62.901 227.305  1.00  0.00     0.004 C 
ENDBRANCH  14  15
ENDBRANCH  13  14
ENDBRANCH  12  13
ENDBRANCH  11  12
ENDBRANCH  10  11
ENDBRANCH   1  10
TORSDOF 12
ENDMDL
MODEL 9
REMARK VINA RESULT:    -3.239     15.311     17.608
REMARK INTER + INTRA:          -6.441
REMARK INTER:                  -4.516
REMARK INTRA:                  -1.925
REMARK UNBOUND:                -0.930
REMARK SMILES CCCCCCCCCCCCCC(=O)[O-]
REMARK SMILES IDX 8 1 9 2 10 3 11 4 12 5 13 6 14 7 15 8 16 9 7 10 6 11 5 12
REMARK SMILES IDX 4 13 3 14 2 15 1 16
REMARK H PARENT
REMARK Flexibility Score: inf
ROOT
ATOM      1  C   UNL     1      94.905  67.253 226.136  1.00  0.00     0.000 C 
ENDROOT
BRANCH   1   2
ATOM      2  C   UNL     1      96.002  68.122 225.506  1.00  0.00     0.000 C 
BRANCH   2   3
ATOM      3  C   UNL     1      97.141  68.458 226.487  1.00  0.00     0.000 C 
BRANCH   3   4
ATOM      4  C   UNL     1      96.823  68.200 227.972  1.00  0.00     0.000 C 
BRANCH   4   5
ATOM      5  C   UNL     1      97.860  67.350 228.732  1.00  0.00     0.006 C 
BRANCH   5   6
ATOM      6  C   UNL     1      97.457  67.023 230.183  1.00  0.00     0.053 C 
BRANCH   6   7
ATOM      7  C   UNL     1      96.673  65.749 230.284  1.00  0.00     0.041 C 
ATOM      8  O   UNL     1      95.418  65.782 230.377  1.00  0.00    -0.550 OA
ATOM      9  O   UNL     1      97.331  64.526 230.313  1.00  0.00    -0.550 OA
ENDBRANCH   6   7
ENDBRANCH   5   6
ENDBRANCH   4   5
ENDBRANCH   3   4
ENDBRANCH   2   3
ENDBRANCH   1   2
BRANCH   1  10
ATOM     10  C   UNL     1      95.045  65.788 225.699  1.00  0.00     0.000 C 
BRANCH  10  11
ATOM     11  C   UNL     1      95.556  64.879 226.827  1.00  0.00    -0.000 C 
BRANCH  11  12
ATOM     12  C   UNL     1      97.053  64.558 226.699  1.00  0.00    -0.000 C 
BRANCH  12  13
ATOM     13  C   UNL     1      97.503  64.614 225.233  1.00  0.00    -0.000 C 
BRANCH  13  14
ATOM     14  C   UNL     1      98.691  65.567 225.058  1.00  0.00    -0.000 C 
BRANCH  14  15
ATOM     15  C   UNL     1      99.868  65.147 225.946  1.00  0.00    -0.003 C 
ATOM     16  C   UNL     1     100.860  64.280 225.175  1.00  0.00     0.004 C 
ENDBRANCH  14  15
ENDBRANCH  13  14
ENDBRANCH  12  13
ENDBRANCH  11  12
ENDBRANCH  10  11
ENDBRANCH   1  10
TORSDOF 12
ENDMDL
