MODEL 1
REMARK VINA RESULT:    -4.029      0.000      0.000
REMARK INTER + INTRA:          -6.852
REMARK INTER:                  -5.914
REMARK INTRA:                  -0.938
REMARK UNBOUND:                -0.938
REMARK SMILES O=C([O-])CCCCCCCC(=O)[O-]
REMARK SMILES IDX 7 1 6 2 5 3 4 4 2 5 1 6 3 7 8 8 9 9 10 10 11 11 12 12 13 13
REMARK H PARENT
REMARK Flexibility Score: inf
ROOT
ATOM      1  C   UNL     1     -36.402  18.730 -28.237  1.00  0.00     0.000 C 
ENDROOT
BRANCH   1   2
ATOM      2  C   UNL     1     -36.161  19.047 -29.720  1.00  0.00     0.000 C 
BRANCH   2   3
ATOM      3  C   UNL     1     -35.587  20.460 -29.894  1.00  0.00     0.006 C 
BRANCH   3   4
ATOM      4  C   UNL     1     -35.676  21.286 -28.602  1.00  0.00     0.053 C 
BRANCH   4   5
ATOM      5  C   UNL     1     -35.993  22.722 -28.881  1.00  0.00     0.041 C 
ATOM      6  O   UNL     1     -36.244  23.099 -30.055  1.00  0.00    -0.550 OA
ATOM      7  O   UNL     1     -36.044  23.640 -27.838  1.00  0.00    -0.550 OA
ENDBRANCH   4   5
ENDBRANCH   3   4
ENDBRANCH   2   3
ENDBRANCH   1   2
BRANCH   1   8
ATOM      8  C   UNL     1     -37.874  18.411 -27.921  1.00  0.00     0.000 C 
BRANCH   8   9
ATOM      9  C   UNL     1     -38.881  18.843 -29.003  1.00  0.00     0.006 C 
BRANCH   9  10
ATOM     10  C   UNL     1     -39.722  20.057 -28.585  1.00  0.00     0.053 C 
BRANCH  10  11
ATOM     11  C   UNL     1     -39.358  21.251 -29.410  1.00  0.00     0.041 C 
ATOM     12  O   UNL     1     -39.459  22.410 -28.926  1.00  0.00    -0.550 OA
ATOM     13  O   UNL     1     -38.952  21.089 -30.729  1.00  0.00    -0.550 OA
ENDBRANCH  10  11
ENDBRANCH   9  10
ENDBRANCH   8   9
ENDBRANCH   1   8
TORSDOF 8
ENDMDL
MODEL 2
REMARK VINA RESULT:    -4.012      2.213      3.464
REMARK INTER + INTRA:          -6.826
REMARK INTER:                  -5.911
REMARK INTRA:                  -0.915
REMARK UNBOUND:                -0.938
REMARK SMILES O=C([O-])CCCCCCCC(=O)[O-]
REMARK SMILES IDX 7 1 6 2 5 3 4 4 2 5 1 6 3 7 8 8 9 9 10 10 11 11 12 12 13 13
REMARK H PARENT
REMARK Flexibility Score: inf
ROOT
ATOM      1  C   UNL     1     -39.200  18.973 -29.342  1.00  0.00     0.000 C 
ENDROOT
BRANCH   1   2
ATOM      2  C   UNL     1     -38.360  18.807 -30.617  1.00  0.00     0.000 C 
BRANCH   2   3
ATOM      3  C   UNL     1     -38.102  20.166 -31.285  1.00  0.00     0.006 C 
BRANCH   3   4
ATOM      4  C   UNL     1     -36.690  20.695 -30.998  1.00  0.00     0.053 C 
BRANCH   4   5
ATOM      5  C   UNL     1     -36.718  21.904 -30.115  1.00  0.00     0.041 C 
ATOM      6  O   UNL     1     -37.340  21.874 -29.020  1.00  0.00    -0.550 OA
ATOM      7  O   UNL     1     -36.030  23.053 -30.483  1.00  0.00    -0.550 OA
ENDBRANCH   4   5
ENDBRANCH   3   4
ENDBRANCH   2   3
ENDBRANCH   1   2
BRANCH   1   8
ATOM      8  C   UNL     1     -38.414  18.652 -28.058  1.00  0.00     0.000 C 
BRANCH   8   9
ATOM      9  C   UNL     1     -36.964  18.186 -28.281  1.00  0.00     0.006 C 
BRANCH   9  10
ATOM     10  C   UNL     1     -35.951  18.954 -27.423  1.00  0.00     0.053 C 
BRANCH  10  11
ATOM     11  C   UNL     1     -34.747  19.315 -28.235  1.00  0.00     0.041 C 
ATOM     12  O   UNL     1     -34.177  20.425 -28.066  1.00  0.00    -0.550 OA
ATOM     13  O   UNL     1     -34.282  18.444 -29.214  1.00  0.00    -0.550 OA
ENDBRANCH  10  11
ENDBRANCH   9  10
ENDBRANCH   8   9
ENDBRANCH   1   8
TORSDOF 8
ENDMDL
MODEL 3
REMARK VINA RESULT:    -3.979      2.587      4.246
REMARK INTER + INTRA:          -6.778
REMARK INTER:                  -5.901
REMARK INTRA:                  -0.877
REMARK UNBOUND:                -0.938
REMARK SMILES O=C([O-])CCCCCCCC(=O)[O-]
REMARK SMILES IDX 7 1 6 2 5 3 4 4 2 5 1 6 3 7 8 8 9 9 10 10 11 11 12 12 13 13
REMARK H PARENT
REMARK Flexibility Score: inf
ROOT
ATOM      1  C   UNL     1     -39.206  19.023 -29.195  1.00  0.00     0.000 C 
ENDROOT
BRANCH   1   2
ATOM      2  C   UNL     1     -38.425  18.638 -27.929  1.00  0.00     0.000 C 
BRANCH   2   3
ATOM      3  C   UNL     1     -37.106  17.939 -28.289  1.00  0.00     0.006 C 
BRANCH   3   4
ATOM      4  C   UNL     1     -37.129  17.349 -29.706  1.00  0.00     0.053 C 
BRANCH   4   5
ATOM      5  C   UNL     1     -35.753  17.240 -30.286  1.00  0.00     0.041 C 
ATOM      6  O   UNL     1     -34.912  18.158 -30.097  1.00  0.00    -0.550 OA
ATOM      7  O   UNL     1     -35.387  16.110 -31.007  1.00  0.00    -0.550 OA
ENDBRANCH   4   5
ENDBRANCH   3   4
ENDBRANCH   2   3
ENDBRANCH   1   2
BRANCH   1   8
ATOM      8  C   UNL     1     -39.153  20.530 -29.499  1.00  0.00     0.000 C 
BRANCH   8   9
ATOM      9  C   UNL     1     -38.568  20.897 -30.876  1.00  0.00     0.006 C 
BRANCH   9  10
ATOM     10  C   UNL     1     -37.034  20.870 -30.900  1.00  0.00     0.053 C 
BRANCH  10  11
ATOM     11  C   UNL     1     -36.481  21.695 -29.780  1.00  0.00     0.041 C 
ATOM     12  O   UNL     1     -36.596  22.949 -29.798  1.00  0.00    -0.550 OA
ATOM     13  O   UNL     1     -35.794  21.081 -28.739  1.00  0.00    -0.550 OA
ENDBRANCH  10  11
ENDBRANCH   9  10
ENDBRANCH   8   9
ENDBRANCH   1   8
TORSDOF 8
ENDMDL
MODEL 4
REMARK VINA RESULT:    -3.942      2.209      3.117
REMARK INTER + INTRA:          -6.723
REMARK INTER:                  -5.990
REMARK INTRA:                  -0.734
REMARK UNBOUND:                -0.938
REMARK SMILES O=C([O-])CCCCCCCC(=O)[O-]
REMARK SMILES IDX 7 1 6 2 5 3 4 4 2 5 1 6 3 7 8 8 9 9 10 10 11 11 12 12 13 13
REMARK H PARENT
REMARK Flexibility Score: inf
ROOT
ATOM      1  C   UNL     1     -39.183  21.206 -30.402  1.00  0.00     0.000 C 
ENDROOT
BRANCH   1   2
ATOM      2  C   UNL     1     -38.402  20.392 -31.445  1.00  0.00     0.000 C 
BRANCH   2   3
ATOM      3  C   UNL     1     -37.205  21.190 -31.980  1.00  0.00     0.006 C 
BRANCH   3   4
ATOM      4  C   UNL     1     -36.052  21.256 -30.967  1.00  0.00     0.053 C 
BRANCH   4   5
ATOM      5  C   UNL     1     -35.796  22.658 -30.507  1.00  0.00     0.041 C 
ATOM      6  O   UNL     1     -35.066  23.425 -31.188  1.00  0.00    -0.550 OA
ATOM      7  O   UNL     1     -36.391  23.128 -29.342  1.00  0.00    -0.550 OA
ENDBRANCH   4   5
ENDBRANCH   3   4
ENDBRANCH   2   3
ENDBRANCH   1   2
BRANCH   1   8
ATOM      8  C   UNL     1     -39.160  20.568 -29.002  1.00  0.00     0.000 C 
BRANCH   8   9
ATOM      9  C   UNL     1     -39.164  19.028 -28.987  1.00  0.00     0.006 C 
BRANCH   9  10
ATOM     10  C   UNL     1     -38.036  18.435 -28.133  1.00  0.00     0.053 C 
BRANCH  10  11
ATOM     11  C   UNL     1     -36.851  18.110 -28.987  1.00  0.00     0.041 C 
ATOM     12  O   UNL     1     -35.713  18.559 -28.690  1.00  0.00    -0.550 OA
ATOM     13  O   UNL     1     -37.012  17.351 -30.140  1.00  0.00    -0.550 OA
ENDBRANCH  10  11
ENDBRANCH   9  10
ENDBRANCH   8   9
ENDBRANCH   1   8
TORSDOF 8
ENDMDL
MODEL 5
REMARK VINA RESULT:    -3.933      0.369      3.580
REMARK INTER + INTRA:          -6.711
REMARK INTER:                  -5.815
REMARK INTRA:                  -0.895
REMARK UNBOUND:                -0.938
REMARK SMILES O=C([O-])CCCCCCCC(=O)[O-]
REMARK SMILES IDX 7 1 6 2 5 3 4 4 2 5 1 6 3 7 8 8 9 9 10 10 11 11 12 12 13 13
REMARK H PARENT
REMARK Flexibility Score: inf
ROOT
ATOM      1  C   UNL     1     -36.463  18.638 -28.512  1.00  0.00     0.000 C 
ENDROOT
BRANCH   1   2
ATOM      2  C   UNL     1     -37.878  18.605 -27.915  1.00  0.00     0.000 C 
BRANCH   2   3
ATOM      3  C   UNL     1     -38.934  18.903 -28.988  1.00  0.00     0.006 C 
BRANCH   3   4
ATOM      4  C   UNL     1     -39.809  20.111 -28.622  1.00  0.00     0.053 C 
BRANCH   4   5
ATOM      5  C   UNL     1     -39.460  21.318 -29.435  1.00  0.00     0.041 C 
ATOM      6  O   UNL     1     -39.133  21.194 -30.644  1.00  0.00    -0.550 OA
ATOM      7  O   UNL     1     -39.529  22.585 -28.867  1.00  0.00    -0.550 OA
ENDBRANCH   4   5
ENDBRANCH   3   4
ENDBRANCH   2   3
ENDBRANCH   1   2
BRANCH   1   8
ATOM      8  C   UNL     1     -36.449  19.010 -30.005  1.00  0.00     0.000 C 
BRANCH   8   9
ATOM      9  C   UNL     1     -35.656  20.283 -30.353  1.00  0.00     0.006 C 
BRANCH   9  10
ATOM     10  C   UNL     1     -35.344  21.147 -29.125  1.00  0.00     0.053 C 
BRANCH  10  11
ATOM     11  C   UNL     1     -35.979  22.496 -29.262  1.00  0.00     0.041 C 
ATOM     12  O   UNL     1     -36.135  23.011 -30.401  1.00  0.00    -0.550 OA
ATOM     13  O   UNL     1     -36.356  23.205 -28.128  1.00  0.00    -0.550 OA
ENDBRANCH  10  11
ENDBRANCH   9  10
ENDBRANCH   8   9
ENDBRANCH   1   8
TORSDOF 8
ENDMDL
MODEL 6
REMARK VINA RESULT:    -3.893      2.073      2.953
REMARK INTER + INTRA:          -6.652
REMARK INTER:                  -5.805
REMARK INTRA:                  -0.847
REMARK UNBOUND:                -0.938
REMARK SMILES O=C([O-])CCCCCCCC(=O)[O-]
REMARK SMILES IDX 7 1 6 2 5 3 4 4 2 5 1 6 3 7 8 8 9 9 10 10 11 11 12 12 13 13
REMARK H PARENT
REMARK Flexibility Score: inf
ROOT
ATOM      1  C   UNL     1     -38.630  18.515 -29.792  1.00  0.00     0.000 C 
ENDROOT
BRANCH   1   2
ATOM      2  C   UNL     1     -37.424  17.692 -29.314  1.00  0.00     0.000 C 
BRANCH   2   3
ATOM      3  C   UNL     1     -36.964  18.151 -27.922  1.00  0.00     0.006 C 
BRANCH   3   4
ATOM      4  C   UNL     1     -36.201  19.483 -27.973  1.00  0.00     0.053 C 
BRANCH   4   5
ATOM      5  C   UNL     1     -35.060  19.434 -28.941  1.00  0.00     0.041 C 
ATOM      6  O   UNL     1     -34.071  18.688 -28.717  1.00  0.00    -0.550 OA
ATOM      7  O   UNL     1     -35.104  20.186 -30.109  1.00  0.00    -0.550 OA
ENDBRANCH   4   5
ENDBRANCH   3   4
ENDBRANCH   2   3
ENDBRANCH   1   2
BRANCH   1   8
ATOM      8  C   UNL     1     -38.354  19.286 -31.094  1.00  0.00     0.000 C 
BRANCH   8   9
ATOM      9  C   UNL     1     -38.537  20.813 -30.999  1.00  0.00     0.006 C 
BRANCH   9  10
ATOM     10  C   UNL     1     -39.390  21.238 -29.798  1.00  0.00     0.053 C 
BRANCH  10  11
ATOM     11  C   UNL     1     -38.710  22.333 -29.037  1.00  0.00     0.041 C 
ATOM     12  O   UNL     1     -39.378  23.094 -28.287  1.00  0.00    -0.550 OA
ATOM     13  O   UNL     1     -37.345  22.544 -29.193  1.00  0.00    -0.550 OA
ENDBRANCH  10  11
ENDBRANCH   9  10
ENDBRANCH   8   9
ENDBRANCH   1   8
TORSDOF 8
ENDMDL
MODEL 7
REMARK VINA RESULT:    -3.892      2.194      3.519
REMARK INTER + INTRA:          -6.651
REMARK INTER:                  -6.084
REMARK INTRA:                  -0.567
REMARK UNBOUND:                -0.938
REMARK SMILES O=C([O-])CCCCCCCC(=O)[O-]
REMARK SMILES IDX 7 1 6 2 5 3 4 4 2 5 1 6 3 7 8 8 9 9 10 10 11 11 12 12 13 13
REMARK H PARENT
REMARK Flexibility Score: inf
ROOT
ATOM      1  C   UNL     1     -39.078  20.190 -29.552  1.00  0.00     0.000 C 
ENDROOT
BRANCH   1   2
ATOM      2  C   UNL     1     -39.693  21.552 -29.198  1.00  0.00     0.000 C 
BRANCH   2   3
ATOM      3  C   UNL     1     -38.601  22.574 -28.849  1.00  0.00     0.006 C 
BRANCH   3   4
ATOM      4  C   UNL     1     -37.237  22.190 -29.439  1.00  0.00     0.053 C 
BRANCH   4   5
ATOM      5  C   UNL     1     -36.110  22.572 -28.529  1.00  0.00     0.041 C 
ATOM      6  O   UNL     1     -36.212  23.582 -27.785  1.00  0.00    -0.550 OA
ATOM      7  O   UNL     1     -34.961  21.793 -28.479  1.00  0.00    -0.550 OA
ENDBRANCH   4   5
ENDBRANCH   3   4
ENDBRANCH   2   3
ENDBRANCH   1   2
BRANCH   1   8
ATOM      8  C   UNL     1     -39.229  19.152 -28.427  1.00  0.00     0.000 C 
BRANCH   8   9
ATOM      9  C   UNL     1     -37.968  18.316 -28.137  1.00  0.00     0.006 C 
BRANCH   9  10
ATOM     10  C   UNL     1     -36.873  18.500 -29.195  1.00  0.00     0.053 C 
BRANCH  10  11
ATOM     11  C   UNL     1     -36.896  17.367 -30.172  1.00  0.00     0.041 C 
ATOM     12  O   UNL     1     -35.850  16.702 -30.397  1.00  0.00    -0.550 OA
ATOM     13  O   UNL     1     -38.061  17.075 -30.871  1.00  0.00    -0.550 OA
ENDBRANCH  10  11
ENDBRANCH   9  10
ENDBRANCH   8   9
ENDBRANCH   1   8
TORSDOF 8
ENDMDL
MODEL 8
REMARK VINA RESULT:    -3.889      1.020      1.632
REMARK INTER + INTRA:          -6.646
REMARK INTER:                  -5.812
REMARK INTRA:                  -0.834
REMARK UNBOUND:                -0.938
REMARK SMILES O=C([O-])CCCCCCCC(=O)[O-]
REMARK SMILES IDX 7 1 6 2 5 3 4 4 2 5 1 6 3 7 8 8 9 9 10 10 11 11 12 12 13 13
REMARK H PARENT
REMARK Flexibility Score: inf
ROOT
ATOM      1  C   UNL     1     -36.205  18.978 -27.689  1.00  0.00     0.000 C 
ENDROOT
BRANCH   1   2
ATOM      2  C   UNL     1     -35.393  18.931 -28.992  1.00  0.00     0.000 C 
BRANCH   2   3
ATOM      3  C   UNL     1     -35.071  20.347 -29.491  1.00  0.00     0.006 C 
BRANCH   3   4
ATOM      4  C   UNL     1     -35.422  21.422 -28.451  1.00  0.00     0.053 C 
BRANCH   4   5
ATOM      5  C   UNL     1     -36.301  22.488 -29.029  1.00  0.00     0.041 C 
ATOM      6  O   UNL     1     -37.230  22.985 -28.339  1.00  0.00    -0.550 OA
ATOM      7  O   UNL     1     -36.075  22.956 -30.318  1.00  0.00    -0.550 OA
ENDBRANCH   4   5
ENDBRANCH   3   4
ENDBRANCH   2   3
ENDBRANCH   1   2
BRANCH   1   8
ATOM      8  C   UNL     1     -37.531  18.203 -27.779  1.00  0.00     0.000 C 
BRANCH   8   9
ATOM      9  C   UNL     1     -38.700  18.982 -28.412  1.00  0.00     0.006 C 
BRANCH   9  10
ATOM     10  C   UNL     1     -38.750  18.848 -29.939  1.00  0.00     0.053 C 
BRANCH  10  11
ATOM     11  C   UNL     1     -38.696  20.198 -30.583  1.00  0.00     0.041 C 
ATOM     12  O   UNL     1     -37.947  20.397 -31.576  1.00  0.00    -0.550 OA
ATOM     13  O   UNL     1     -39.436  21.249 -30.057  1.00  0.00    -0.550 OA
ENDBRANCH  10  11
ENDBRANCH   9  10
ENDBRANCH   8   9
ENDBRANCH   1   8
TORSDOF 8
ENDMDL
MODEL 9
REMARK VINA RESULT:    -3.871      1.560      3.866
REMARK INTER + INTRA:          -6.619
REMARK INTER:                  -5.725
REMARK INTRA:                  -0.895
REMARK UNBOUND:                -0.938
REMARK SMILES O=C([O-])CCCCCCCC(=O)[O-]
REMARK SMILES IDX 7 1 6 2 5 3 4 4 2 5 1 6 3 7 8 8 9 9 10 10 11 11 12 12 13 13
REMARK H PARENT
REMARK Flexibility Score: inf
ROOT
ATOM      1  C   UNL     1     -34.506  19.643 -28.984  1.00  0.00     0.000 C 
ENDROOT
BRANCH   1   2
ATOM      2  C   UNL     1     -35.445  19.031 -27.933  1.00  0.00     0.000 C 
BRANCH   2   3
ATOM      3  C   UNL     1     -36.671  18.390 -28.600  1.00  0.00     0.006 C 
BRANCH   3   4
ATOM      4  C   UNL     1     -37.945  18.563 -27.760  1.00  0.00     0.053 C 
BRANCH   4   5
ATOM      5  C   UNL     1     -39.132  18.889 -28.612  1.00  0.00     0.041 C 
ATOM      6  O   UNL     1     -40.205  19.277 -28.081  1.00  0.00    -0.550 OA
ATOM      7  O   UNL     1     -39.043  18.797 -29.996  1.00  0.00    -0.550 OA
ENDBRANCH   4   5
ENDBRANCH   3   4
ENDBRANCH   2   3
ENDBRANCH   1   2
BRANCH   1   8
ATOM      8  C   UNL     1     -35.175  19.820 -30.358  1.00  0.00     0.000 C 
BRANCH   8   9
ATOM      9  C   UNL     1     -35.522  21.273 -30.733  1.00  0.00     0.006 C 
BRANCH   9  10
ATOM     10  C   UNL     1     -37.020  21.578 -30.617  1.00  0.00     0.053 C 
BRANCH  10  11
ATOM     11  C   UNL     1     -37.314  22.265 -29.320  1.00  0.00     0.041 C 
ATOM     12  O   UNL     1     -36.375  22.740 -28.628  1.00  0.00    -0.550 OA
ATOM     13  O   UNL     1     -38.620  22.337 -28.852  1.00  0.00    -0.550 OA
ENDBRANCH  10  11
ENDBRANCH   9  10
ENDBRANCH   8   9
ENDBRANCH   1   8
TORSDOF 8
ENDMDL
