MODEL 1
REMARK VINA RESULT:    -3.554      0.000      0.000
REMARK INTER + INTRA:          -4.293
REMARK INTER:                  -4.178
REMARK INTRA:                  -0.116
REMARK UNBOUND:                -0.116
REMARK SMILES O=C([O-])CCC(=O)[O-]
REMARK SMILES IDX 4 1 2 2 1 3 3 4 5 5 6 6 7 7 8 8
REMARK H PARENT
REMARK Flexibility Score: inf
ROOT
ATOM      1  C   UNL     1     -32.771  51.871 -51.018  1.00  0.00     0.059 C 
ENDROOT
BRANCH   1   2
ATOM      2  C   UNL     1     -31.878  52.906 -51.630  1.00  0.00     0.042 C 
ATOM      3  O   UNL     1     -31.335  52.694 -52.746  1.00  0.00    -0.550 OA
ATOM      4  O   UNL     1     -31.678  54.121 -50.988  1.00  0.00    -0.550 OA
ENDBRANCH   1   2
BRANCH   1   5
ATOM      5  C   UNL     1     -33.924  51.493 -51.955  1.00  0.00     0.059 C 
BRANCH   5   6
ATOM      6  C   UNL     1     -33.908  50.032 -52.287  1.00  0.00     0.042 C 
ATOM      7  O   UNL     1     -32.814  49.415 -52.379  1.00  0.00    -0.550 OA
ATOM      8  O   UNL     1     -35.103  49.342 -52.455  1.00  0.00    -0.550 OA
ENDBRANCH   5   6
ENDBRANCH   1   5
TORSDOF 3
ENDMDL
MODEL 2
REMARK VINA RESULT:    -3.549      0.066      4.037
REMARK INTER + INTRA:          -4.287
REMARK INTER:                  -4.175
REMARK INTRA:                  -0.112
REMARK UNBOUND:                -0.116
REMARK SMILES O=C([O-])CCC(=O)[O-]
REMARK SMILES IDX 4 1 2 2 1 3 3 4 5 5 6 6 7 7 8 8
REMARK H PARENT
REMARK Flexibility Score: inf
ROOT
ATOM      1  C   UNL     1     -33.914  51.496 -52.022  1.00  0.00     0.059 C 
ENDROOT
BRANCH   1   2
ATOM      2  C   UNL     1     -33.907  50.024 -52.296  1.00  0.00     0.042 C 
ATOM      3  O   UNL     1     -32.817  49.395 -52.346  1.00  0.00    -0.550 OA
ATOM      4  O   UNL     1     -35.104  49.338 -52.453  1.00  0.00    -0.550 OA
ENDBRANCH   1   2
BRANCH   1   5
ATOM      5  C   UNL     1     -32.835  51.889 -51.006  1.00  0.00     0.059 C 
BRANCH   5   6
ATOM      6  C   UNL     1     -31.901  52.918 -51.564  1.00  0.00     0.042 C 
ATOM      7  O   UNL     1     -31.305  52.707 -52.653  1.00  0.00    -0.550 OA
ATOM      8  O   UNL     1     -31.718  54.126 -50.902  1.00  0.00    -0.550 OA
ENDBRANCH   5   6
ENDBRANCH   1   5
TORSDOF 3
ENDMDL
MODEL 3
REMARK VINA RESULT:    -3.490      1.391      1.635
REMARK INTER + INTRA:          -4.218
REMARK INTER:                  -4.106
REMARK INTRA:                  -0.112
REMARK UNBOUND:                -0.116
REMARK SMILES O=C([O-])CCC(=O)[O-]
REMARK SMILES IDX 4 1 2 2 1 3 3 4 5 5 6 6 7 7 8 8
REMARK H PARENT
REMARK Flexibility Score: inf
ROOT
ATOM      1  C   UNL     1     -32.528  51.803 -51.711  1.00  0.00     0.059 C 
ENDROOT
BRANCH   1   2
ATOM      2  C   UNL     1     -32.383  52.022 -50.236  1.00  0.00     0.042 C 
ATOM      3  O   UNL     1     -32.602  51.079 -49.431  1.00  0.00    -0.550 OA
ATOM      4  O   UNL     1     -31.965  53.256 -49.753  1.00  0.00    -0.550 OA
ENDBRANCH   1   2
BRANCH   1   5
ATOM      5  C   UNL     1     -33.969  51.440 -52.090  1.00  0.00     0.059 C 
BRANCH   5   6
ATOM      6  C   UNL     1     -34.106  49.981 -52.399  1.00  0.00     0.042 C 
ATOM      7  O   UNL     1     -33.088  49.239 -52.416  1.00  0.00    -0.550 OA
ATOM      8  O   UNL     1     -35.362  49.432 -52.631  1.00  0.00    -0.550 OA
ENDBRANCH   5   6
ENDBRANCH   1   5
TORSDOF 3
ENDMDL
MODEL 4
REMARK VINA RESULT:    -3.446      1.570      4.527
REMARK INTER + INTRA:          -4.166
REMARK INTER:                  -4.126
REMARK INTRA:                  -0.040
REMARK UNBOUND:                -0.116
REMARK SMILES O=C([O-])CCC(=O)[O-]
REMARK SMILES IDX 4 1 2 2 1 3 3 4 5 5 6 6 7 7 8 8
REMARK H PARENT
REMARK Flexibility Score: inf
ROOT
ATOM      1  C   UNL     1     -34.277  49.694 -52.475  1.00  0.00     0.059 C 
ENDROOT
BRANCH   1   2
ATOM      2  C   UNL     1     -35.639  49.071 -52.443  1.00  0.00     0.042 C 
ATOM      3  O   UNL     1     -36.668  49.796 -52.476  1.00  0.00    -0.550 OA
ATOM      4  O   UNL     1     -35.772  47.689 -52.420  1.00  0.00    -0.550 OA
ENDBRANCH   1   2
BRANCH   1   5
ATOM      5  C   UNL     1     -34.325  51.178 -52.096  1.00  0.00     0.059 C 
BRANCH   5   6
ATOM      6  C   UNL     1     -33.059  51.617 -51.424  1.00  0.00     0.042 C 
ATOM      7  O   UNL     1     -32.360  52.535 -51.929  1.00  0.00    -0.550 OA
ATOM      8  O   UNL     1     -32.672  51.038 -50.222  1.00  0.00    -0.550 OA
ENDBRANCH   5   6
ENDBRANCH   1   5
TORSDOF 3
ENDMDL
MODEL 5
REMARK VINA RESULT:    -3.446      1.694      2.550
REMARK INTER + INTRA:          -4.166
REMARK INTER:                  -4.134
REMARK INTRA:                  -0.032
REMARK UNBOUND:                -0.116
REMARK SMILES O=C([O-])CCC(=O)[O-]
REMARK SMILES IDX 4 1 2 2 1 3 3 4 5 5 6 6 7 7 8 8
REMARK H PARENT
REMARK Flexibility Score: inf
ROOT
ATOM      1  C   UNL     1     -34.159  51.077 -51.859  1.00  0.00     0.059 C 
ENDROOT
BRANCH   1   2
ATOM      2  C   UNL     1     -32.832  51.325 -51.211  1.00  0.00     0.042 C 
ATOM      3  O   UNL     1     -32.770  51.630 -49.990  1.00  0.00    -0.550 OA
ATOM      4  O   UNL     1     -31.661  51.178 -51.943  1.00  0.00    -0.550 OA
ENDBRANCH   1   2
BRANCH   1   5
ATOM      5  C   UNL     1     -34.207  49.706 -52.544  1.00  0.00     0.059 C 
BRANCH   5   6
ATOM      6  C   UNL     1     -35.569  49.089 -52.446  1.00  0.00     0.042 C 
ATOM      7  O   UNL     1     -36.596  49.817 -52.456  1.00  0.00    -0.550 OA
ATOM      8  O   UNL     1     -35.705  47.707 -52.384  1.00  0.00    -0.550 OA
ENDBRANCH   5   6
ENDBRANCH   1   5
TORSDOF 3
ENDMDL
MODEL 6
REMARK VINA RESULT:    -3.370     13.971     15.383
REMARK INTER + INTRA:          -4.077
REMARK INTER:                  -3.949
REMARK INTRA:                  -0.127
REMARK UNBOUND:                -0.116
REMARK SMILES O=C([O-])CCC(=O)[O-]
REMARK SMILES IDX 4 1 2 2 1 3 3 4 5 5 6 6 7 7 8 8
REMARK H PARENT
REMARK Flexibility Score: inf
ROOT
ATOM      1  C   UNL     1     -40.589  39.213 -50.272  1.00  0.00     0.059 C 
ENDROOT
BRANCH   1   2
ATOM      2  C   UNL     1     -41.085  40.402 -49.506  1.00  0.00     0.042 C 
ATOM      3  O   UNL     1     -41.775  41.283 -50.082  1.00  0.00    -0.550 OA
ATOM      4  O   UNL     1     -40.820  40.514 -48.147  1.00  0.00    -0.550 OA
ENDBRANCH   1   2
BRANCH   1   5
ATOM      5  C   UNL     1     -41.613  38.744 -51.312  1.00  0.00     0.059 C 
BRANCH   5   6
ATOM      6  C   UNL     1     -42.760  38.023 -50.671  1.00  0.00     0.042 C 
ATOM      7  O   UNL     1     -42.544  37.104 -49.838  1.00  0.00    -0.550 OA
ATOM      8  O   UNL     1     -44.067  38.393 -50.965  1.00  0.00    -0.550 OA
ENDBRANCH   5   6
ENDBRANCH   1   5
TORSDOF 3
ENDMDL
MODEL 7
REMARK VINA RESULT:    -3.348     13.638     15.112
REMARK INTER + INTRA:          -4.051
REMARK INTER:                  -3.870
REMARK INTRA:                  -0.181
REMARK UNBOUND:                -0.116
REMARK SMILES O=C([O-])CCC(=O)[O-]
REMARK SMILES IDX 4 1 2 2 1 3 3 4 5 5 6 6 7 7 8 8
REMARK H PARENT
REMARK Flexibility Score: inf
ROOT
ATOM      1  C   UNL     1     -40.403  39.506 -50.362  1.00  0.00     0.059 C 
ENDROOT
BRANCH   1   2
ATOM      2  C   UNL     1     -40.989  40.606 -49.532  1.00  0.00     0.042 C 
ATOM      3  O   UNL     1     -40.921  40.557 -48.275  1.00  0.00    -0.550 OA
ATOM      4  O   UNL     1     -41.574  41.706 -50.147  1.00  0.00    -0.550 OA
ENDBRANCH   1   2
BRANCH   1   5
ATOM      5  C   UNL     1     -41.410  38.971 -51.387  1.00  0.00     0.059 C 
BRANCH   5   6
ATOM      6  C   UNL     1     -42.634  38.420 -50.720  1.00  0.00     0.042 C 
ATOM      7  O   UNL     1     -43.774  38.856 -51.029  1.00  0.00    -0.550 OA
ATOM      8  O   UNL     1     -42.517  37.397 -49.786  1.00  0.00    -0.550 OA
ENDBRANCH   5   6
ENDBRANCH   1   5
TORSDOF 3
ENDMDL
MODEL 8
REMARK VINA RESULT:    -3.335     13.645     15.477
REMARK INTER + INTRA:          -4.035
REMARK INTER:                  -3.858
REMARK INTRA:                  -0.177
REMARK UNBOUND:                -0.116
REMARK SMILES O=C([O-])CCC(=O)[O-]
REMARK SMILES IDX 4 1 2 2 1 3 3 4 5 5 6 6 7 7 8 8
REMARK H PARENT
REMARK Flexibility Score: inf
ROOT
ATOM      1  C   UNL     1     -41.380  38.914 -51.412  1.00  0.00     0.059 C 
ENDROOT
BRANCH   1   2
ATOM      2  C   UNL     1     -42.599  38.387 -50.719  1.00  0.00     0.042 C 
ATOM      3  O   UNL     1     -43.736  38.849 -50.998  1.00  0.00    -0.550 OA
ATOM      4  O   UNL     1     -42.483  37.356 -49.795  1.00  0.00    -0.550 OA
ENDBRANCH   1   2
BRANCH   1   5
ATOM      5  C   UNL     1     -40.380  39.517 -50.418  1.00  0.00     0.059 C 
BRANCH   5   6
ATOM      6  C   UNL     1     -41.001  40.613 -49.608  1.00  0.00     0.042 C 
ATOM      7  O   UNL     1     -40.940  40.583 -48.350  1.00  0.00    -0.550 OA
ATOM      8  O   UNL     1     -41.613  41.688 -50.242  1.00  0.00    -0.550 OA
ENDBRANCH   5   6
ENDBRANCH   1   5
TORSDOF 3
ENDMDL
MODEL 9
REMARK VINA RESULT:    -3.260      2.008      3.268
REMARK INTER + INTRA:          -3.948
REMARK INTER:                  -3.822
REMARK INTRA:                  -0.126
REMARK UNBOUND:                -0.116
REMARK SMILES O=C([O-])CCC(=O)[O-]
REMARK SMILES IDX 4 1 2 2 1 3 3 4 5 5 6 6 7 7 8 8
REMARK H PARENT
REMARK Flexibility Score: inf
ROOT
ATOM      1  C   UNL     1     -33.104  50.173 -52.627  1.00  0.00     0.059 C 
ENDROOT
BRANCH   1   2
ATOM      2  C   UNL     1     -32.531  50.762 -53.879  1.00  0.00     0.042 C 
ATOM      3  O   UNL     1     -33.288  51.078 -54.835  1.00  0.00    -0.550 OA
ATOM      4  O   UNL     1     -31.166  51.001 -53.974  1.00  0.00    -0.550 OA
ENDBRANCH   1   2
BRANCH   1   5
ATOM      5  C   UNL     1     -33.725  51.249 -51.728  1.00  0.00     0.059 C 
BRANCH   5   6
ATOM      6  C   UNL     1     -32.717  51.826 -50.782  1.00  0.00     0.042 C 
ATOM      7  O   UNL     1     -32.109  52.889 -51.076  1.00  0.00    -0.550 OA
ATOM      8  O   UNL     1     -32.477  51.211 -49.559  1.00  0.00    -0.550 OA
ENDBRANCH   5   6
ENDBRANCH   1   5
TORSDOF 3
ENDMDL
