MODEL 1
REMARK VINA RESULT:    -7.158      0.000      0.000
REMARK INTER + INTRA:          -7.367
REMARK INTER:                  -7.367
REMARK INTRA:                   0.000
REMARK UNBOUND:                 0.000
REMARK SMILES CC1(C)CC[C@@]2(C)CC[C@]3(C)C(=CC[C@H]4[C@@]5(C)CC[C@H](O)C(C)(C)[C@@H]5CC[C@]43C)[C@H]2C1
REMARK SMILES IDX 1 1 2 2 4 3 5 4 6 5 8 6 9 7 10 8 12 9 13 10 14 11 15 12
REMARK SMILES IDX 28 13 27 14 26 15 25 16 16 17 18 18 19 19 20 20 22 21 23 22
REMARK SMILES IDX 24 23 17 24 29 25 30 26 31 27 11 28 7 29 3 30 21 31
REMARK H PARENT 21 32
REMARK Flexibility Score: inf
ROOT
ATOM      1  C   UNL     1     120.197 130.058 131.004  1.00  0.00     0.011 C 
ATOM      2  C   UNL     1     119.255 129.687 129.836  1.00  0.00    -0.035 C 
ATOM      3  C   UNL     1     117.767 129.652 130.320  1.00  0.00     0.007 C 
ATOM      4  C   UNL     1     117.059 128.315 130.032  1.00  0.00     0.008 C 
ATOM      5  C   UNL     1     117.835 127.102 130.630  1.00  0.00    -0.026 C 
ATOM      6  C   UNL     1     117.094 125.806 130.199  1.00  0.00     0.008 C 
ATOM      7  C   UNL     1     117.841 124.488 130.545  1.00  0.00     0.012 C 
ATOM      8  C   UNL     1     119.401 124.465 130.277  1.00  0.00    -0.006 C 
ATOM      9  C   UNL     1     119.690 125.720 129.446  1.00  0.00    -0.064 C 
ATOM     10  C   UNL     1     119.906 125.626 128.120  1.00  0.00    -0.027 C 
ATOM     11  C   UNL     1     119.998 124.360 127.346  1.00  0.00     0.032 C 
ATOM     12  C   UNL     1     119.508 123.055 128.040  1.00  0.00     0.006 C 
ATOM     13  C   UNL     1     119.873 123.073 129.582  1.00  0.00    -0.020 C 
ATOM     14  C   UNL     1     121.421 122.871 129.682  1.00  0.00     0.008 C 
ATOM     15  C   UNL     1     121.950 121.610 128.972  1.00  0.00     0.005 C 
ATOM     16  C   UNL     1     121.549 121.524 127.481  1.00  0.00     0.003 C 
ATOM     17  C   UNL     1     120.011 121.751 127.235  1.00  0.00    -0.025 C 
ATOM     18  C   UNL     1     119.851 121.943 125.689  1.00  0.00     0.010 C 
ATOM     19  C   UNL     1     120.464 120.832 124.800  1.00  0.00     0.033 C 
ATOM     20  C   UNL     1     121.334 119.767 125.503  1.00  0.00     0.120 C 
ATOM     21  C   UNL     1     122.225 120.316 126.681  1.00  0.00    -0.006 C 
ATOM     22  C   UNL     1     123.554 120.828 126.060  1.00  0.00     0.014 C 
ATOM     23  C   UNL     1     122.616 119.129 127.608  1.00  0.00     0.014 C 
ATOM     24  C   UNL     1     119.125 120.525 127.631  1.00  0.00     0.012 C 
ATOM     25  C   UNL     1     119.185 121.891 130.359  1.00  0.00     0.012 C 
ATOM     26  C   UNL     1     119.337 127.087 130.104  1.00  0.00     0.022 C 
ATOM     27  C   UNL     1     119.678 128.326 129.218  1.00  0.00     0.015 C 
ATOM     28  C   UNL     1     120.166 124.636 131.635  1.00  0.00     0.017 C 
ATOM     29  C   UNL     1     117.747 127.218 132.183  1.00  0.00     0.012 C 
ATOM     30  C   UNL     1     119.411 130.777 128.749  1.00  0.00     0.011 C 
ENDROOT
BRANCH  20  31
ATOM     31  O   UNL     1     120.512 118.700 125.919  1.00  0.00    -0.393 OA
ATOM     32  H   UNL     1     120.970 118.229 126.664  1.00  0.00     0.210 HD
ENDBRANCH  20  31
TORSDOF 1
ENDMDL
MODEL 2
REMARK VINA RESULT:    -7.018      3.719      8.621
REMARK INTER + INTRA:          -7.223
REMARK INTER:                  -7.223
REMARK INTRA:                   0.000
REMARK UNBOUND:                 0.000
REMARK SMILES CC1(C)CC[C@@]2(C)CC[C@]3(C)C(=CC[C@H]4[C@@]5(C)CC[C@H](O)C(C)(C)[C@@H]5CC[C@]43C)[C@H]2C1
REMARK SMILES IDX 1 1 2 2 4 3 5 4 6 5 8 6 9 7 10 8 12 9 13 10 14 11 15 12
REMARK SMILES IDX 28 13 27 14 26 15 25 16 16 17 18 18 19 19 20 20 22 21 23 22
REMARK SMILES IDX 24 23 17 24 29 25 30 26 31 27 11 28 7 29 3 30 21 31
REMARK H PARENT 21 32
REMARK Flexibility Score: inf
ROOT
ATOM      1  C   UNL     1     123.756 117.309 122.410  1.00  0.00     0.011 C 
ATOM      2  C   UNL     1     123.858 118.851 122.458  1.00  0.00    -0.035 C 
ATOM      3  C   UNL     1     125.213 119.291 123.106  1.00  0.00     0.007 C 
ATOM      4  C   UNL     1     125.040 120.238 124.309  1.00  0.00     0.008 C 
ATOM      5  C   UNL     1     124.108 119.630 125.401  1.00  0.00    -0.026 C 
ATOM      6  C   UNL     1     123.922 120.699 126.514  1.00  0.00     0.008 C 
ATOM      7  C   UNL     1     122.863 120.334 127.592  1.00  0.00     0.012 C 
ATOM      8  C   UNL     1     121.512 119.695 127.070  1.00  0.00    -0.006 C 
ATOM      9  C   UNL     1     121.527 119.892 125.551  1.00  0.00    -0.064 C 
ATOM     10  C   UNL     1     120.779 120.855 124.980  1.00  0.00    -0.027 C 
ATOM     11  C   UNL     1     119.809 121.732 125.688  1.00  0.00     0.032 C 
ATOM     12  C   UNL     1     119.875 121.767 127.244  1.00  0.00     0.006 C 
ATOM     13  C   UNL     1     120.216 120.330 127.819  1.00  0.00    -0.020 C 
ATOM     14  C   UNL     1     118.940 119.448 127.619  1.00  0.00     0.008 C 
ATOM     15  C   UNL     1     117.654 120.032 128.234  1.00  0.00     0.005 C 
ATOM     16  C   UNL     1     117.330 121.465 127.749  1.00  0.00     0.003 C 
ATOM     17  C   UNL     1     118.550 122.451 127.861  1.00  0.00    -0.025 C 
ATOM     18  C   UNL     1     118.141 123.727 127.048  1.00  0.00     0.010 C 
ATOM     19  C   UNL     1     116.786 124.371 127.434  1.00  0.00     0.033 C 
ATOM     20  C   UNL     1     115.891 123.591 128.422  1.00  0.00     0.120 C 
ATOM     21  C   UNL     1     115.916 122.026 128.240  1.00  0.00    -0.006 C 
ATOM     22  C   UNL     1     114.851 121.665 127.167  1.00  0.00     0.014 C 
ATOM     23  C   UNL     1     115.433 121.361 129.561  1.00  0.00     0.014 C 
ATOM     24  C   UNL     1     118.845 122.922 129.322  1.00  0.00     0.012 C 
ATOM     25  C   UNL     1     120.529 120.378 129.361  1.00  0.00     0.012 C 
ATOM     26  C   UNL     1     122.702 119.228 124.774  1.00  0.00     0.022 C 
ATOM     27  C   UNL     1     122.646 119.444 123.229  1.00  0.00     0.015 C 
ATOM     28  C   UNL     1     121.534 118.149 127.325  1.00  0.00     0.017 C 
ATOM     29  C   UNL     1     124.858 118.411 126.021  1.00  0.00     0.012 C 
ATOM     30  C   UNL     1     123.800 119.366 121.001  1.00  0.00     0.011 C 
ENDROOT
BRANCH  20  31
ATOM     31  O   UNL     1     116.216 123.972 129.739  1.00  0.00    -0.393 OA
ATOM     32  H   UNL     1     115.470 124.522 130.095  1.00  0.00     0.210 HD
ENDBRANCH  20  31
TORSDOF 1
ENDMDL
MODEL 3
REMARK VINA RESULT:    -6.955      5.269      9.419
REMARK INTER + INTRA:          -7.158
REMARK INTER:                  -7.158
REMARK INTRA:                   0.000
REMARK UNBOUND:                 0.000
REMARK SMILES CC1(C)CC[C@@]2(C)CC[C@]3(C)C(=CC[C@H]4[C@@]5(C)CC[C@H](O)C(C)(C)[C@@H]5CC[C@]43C)[C@H]2C1
REMARK SMILES IDX 1 1 2 2 4 3 5 4 6 5 8 6 9 7 10 8 12 9 13 10 14 11 15 12
REMARK SMILES IDX 28 13 27 14 26 15 25 16 16 17 18 18 19 19 20 20 22 21 23 22
REMARK SMILES IDX 24 23 17 24 29 25 30 26 31 27 11 28 7 29 3 30 21 31
REMARK H PARENT 21 32
REMARK Flexibility Score: inf
ROOT
ATOM      1  C   UNL     1     120.724 120.978 128.423  1.00  0.00     0.011 C 
ATOM      2  C   UNL     1     119.951 120.614 127.135  1.00  0.00    -0.035 C 
ATOM      3  C   UNL     1     119.200 119.252 127.311  1.00  0.00     0.007 C 
ATOM      4  C   UNL     1     119.551 118.212 126.231  1.00  0.00     0.008 C 
ATOM      5  C   UNL     1     121.086 117.957 126.143  1.00  0.00    -0.026 C 
ATOM      6  C   UNL     1     121.336 116.975 124.964  1.00  0.00     0.008 C 
ATOM      7  C   UNL     1     122.834 116.761 124.607  1.00  0.00     0.012 C 
ATOM      8  C   UNL     1     123.749 118.052 124.584  1.00  0.00    -0.006 C 
ATOM      9  C   UNL     1     122.782 119.239 124.648  1.00  0.00    -0.064 C 
ATOM     10  C   UNL     1     122.504 119.954 123.542  1.00  0.00    -0.027 C 
ATOM     11  C   UNL     1     123.142 119.773 122.211  1.00  0.00     0.032 C 
ATOM     12  C   UNL     1     123.965 118.471 121.980  1.00  0.00     0.006 C 
ATOM     13  C   UNL     1     124.744 118.064 123.298  1.00  0.00    -0.020 C 
ATOM     14  C   UNL     1     125.907 119.095 123.474  1.00  0.00     0.008 C 
ATOM     15  C   UNL     1     126.844 119.218 122.257  1.00  0.00     0.005 C 
ATOM     16  C   UNL     1     126.107 119.543 120.937  1.00  0.00     0.003 C 
ATOM     17  C   UNL     1     124.882 118.597 120.658  1.00  0.00    -0.025 C 
ATOM     18  C   UNL     1     124.090 119.262 119.482  1.00  0.00     0.010 C 
ATOM     19  C   UNL     1     124.914 119.599 118.214  1.00  0.00     0.033 C 
ATOM     20  C   UNL     1     126.447 119.438 118.307  1.00  0.00     0.120 C 
ATOM     21  C   UNL     1     127.070 119.843 119.697  1.00  0.00    -0.006 C 
ATOM     22  C   UNL     1     127.348 121.371 119.655  1.00  0.00     0.014 C 
ATOM     23  C   UNL     1     128.461 119.160 119.840  1.00  0.00     0.014 C 
ATOM     24  C   UNL     1     125.290 117.167 120.175  1.00  0.00     0.012 C 
ATOM     25  C   UNL     1     125.388 116.632 123.178  1.00  0.00     0.012 C 
ATOM     26  C   UNL     1     121.866 119.324 125.905  1.00  0.00     0.022 C 
ATOM     27  C   UNL     1     120.923 120.567 125.923  1.00  0.00     0.015 C 
ATOM     28  C   UNL     1     124.612 118.102 125.891  1.00  0.00     0.017 C 
ATOM     29  C   UNL     1     121.512 117.246 127.464  1.00  0.00     0.012 C 
ATOM     30  C   UNL     1     118.919 121.736 126.880  1.00  0.00     0.011 C 
ENDROOT
BRANCH  20  31
ATOM     31  O   UNL     1     126.797 118.123 117.938  1.00  0.00    -0.393 OA
ATOM     32  H   UNL     1     126.238 117.861 117.160  1.00  0.00     0.210 HD
ENDBRANCH  20  31
TORSDOF 1
ENDMDL
MODEL 4
REMARK VINA RESULT:    -6.927      2.391      8.319
REMARK INTER + INTRA:          -7.130
REMARK INTER:                  -7.130
REMARK INTRA:                   0.000
REMARK UNBOUND:                 0.000
REMARK SMILES CC1(C)CC[C@@]2(C)CC[C@]3(C)C(=CC[C@H]4[C@@]5(C)CC[C@H](O)C(C)(C)[C@@H]5CC[C@]43C)[C@H]2C1
REMARK SMILES IDX 1 1 2 2 4 3 5 4 6 5 8 6 9 7 10 8 12 9 13 10 14 11 15 12
REMARK SMILES IDX 28 13 27 14 26 15 25 16 16 17 18 18 19 19 20 20 22 21 23 22
REMARK SMILES IDX 24 23 17 24 29 25 30 26 31 27 11 28 7 29 3 30 21 31
REMARK H PARENT 21 32
REMARK Flexibility Score: inf
ROOT
ATOM      1  C   UNL     1     125.628 120.099 123.684  1.00  0.00     0.011 C 
ATOM      2  C   UNL     1     125.702 120.013 125.226  1.00  0.00    -0.035 C 
ATOM      3  C   UNL     1     125.496 118.537 125.704  1.00  0.00     0.007 C 
ATOM      4  C   UNL     1     124.353 118.376 126.723  1.00  0.00     0.008 C 
ATOM      5  C   UNL     1     123.005 118.946 126.184  1.00  0.00    -0.026 C 
ATOM      6  C   UNL     1     121.951 118.825 127.320  1.00  0.00     0.008 C 
ATOM      7  C   UNL     1     120.596 119.525 127.022  1.00  0.00     0.012 C 
ATOM      8  C   UNL     1     120.670 120.958 126.354  1.00  0.00    -0.006 C 
ATOM      9  C   UNL     1     122.139 121.381 126.457  1.00  0.00    -0.064 C 
ATOM     10  C   UNL     1     122.528 122.277 127.384  1.00  0.00    -0.027 C 
ATOM     11  C   UNL     1     121.625 123.019 128.304  1.00  0.00     0.032 C 
ATOM     12  C   UNL     1     120.158 122.512 128.434  1.00  0.00     0.006 C 
ATOM     13  C   UNL     1     119.620 121.997 127.035  1.00  0.00    -0.020 C 
ATOM     14  C   UNL     1     119.394 123.262 126.144  1.00  0.00     0.008 C 
ATOM     15  C   UNL     1     118.473 124.328 126.765  1.00  0.00     0.005 C 
ATOM     16  C   UNL     1     118.928 124.801 128.166  1.00  0.00     0.003 C 
ATOM     17  C   UNL     1     119.229 123.616 129.156  1.00  0.00    -0.025 C 
ATOM     18  C   UNL     1     119.965 124.261 130.380  1.00  0.00     0.010 C 
ATOM     19  C   UNL     1     119.246 125.460 131.048  1.00  0.00     0.033 C 
ATOM     20  C   UNL     1     117.999 126.023 130.331  1.00  0.00     0.120 C 
ATOM     21  C   UNL     1     118.088 126.025 128.758  1.00  0.00    -0.006 C 
ATOM     22  C   UNL     1     118.787 127.346 128.333  1.00  0.00     0.014 C 
ATOM     23  C   UNL     1     116.647 126.098 128.176  1.00  0.00     0.014 C 
ATOM     24  C   UNL     1     117.944 122.924 129.716  1.00  0.00     0.012 C 
ATOM     25  C   UNL     1     118.238 121.257 127.177  1.00  0.00     0.012 C 
ATOM     26  C   UNL     1     123.179 120.466 125.745  1.00  0.00     0.022 C 
ATOM     27  C   UNL     1     124.653 120.965 125.866  1.00  0.00     0.015 C 
ATOM     28  C   UNL     1     120.341 120.838 124.826  1.00  0.00     0.017 C 
ATOM     29  C   UNL     1     122.556 118.030 125.004  1.00  0.00     0.012 C 
ATOM     30  C   UNL     1     127.109 120.495 125.650  1.00  0.00     0.011 C 
ENDROOT
BRANCH  20  31
ATOM     31  O   UNL     1     116.855 125.341 130.792  1.00  0.00    -0.393 OA
ATOM     32  H   UNL     1     116.305 125.980 131.317  1.00  0.00     0.210 HD
ENDBRANCH  20  31
TORSDOF 1
ENDMDL
MODEL 5
REMARK VINA RESULT:    -6.878      2.706      4.832
REMARK INTER + INTRA:          -7.079
REMARK INTER:                  -7.079
REMARK INTRA:                   0.000
REMARK UNBOUND:                 0.000
REMARK SMILES CC1(C)CC[C@@]2(C)CC[C@]3(C)C(=CC[C@H]4[C@@]5(C)CC[C@H](O)C(C)(C)[C@@H]5CC[C@]43C)[C@H]2C1
REMARK SMILES IDX 1 1 2 2 4 3 5 4 6 5 8 6 9 7 10 8 12 9 13 10 14 11 15 12
REMARK SMILES IDX 28 13 27 14 26 15 25 16 16 17 18 18 19 19 20 20 22 21 23 22
REMARK SMILES IDX 24 23 17 24 29 25 30 26 31 27 11 28 7 29 3 30 21 31
REMARK H PARENT 21 32
REMARK Flexibility Score: inf
ROOT
ATOM      1  C   UNL     1     117.756 125.279 129.768  1.00  0.00     0.011 C 
ATOM      2  C   UNL     1     117.138 124.841 128.420  1.00  0.00    -0.035 C 
ATOM      3  C   UNL     1     115.824 124.025 128.657  1.00  0.00     0.007 C 
ATOM      4  C   UNL     1     115.835 122.637 127.990  1.00  0.00     0.008 C 
ATOM      5  C   UNL     1     117.067 121.788 128.427  1.00  0.00    -0.026 C 
ATOM      6  C   UNL     1     117.035 120.457 127.625  1.00  0.00     0.008 C 
ATOM      7  C   UNL     1     118.300 119.569 127.793  1.00  0.00     0.012 C 
ATOM      8  C   UNL     1     119.697 120.313 127.763  1.00  0.00    -0.006 C 
ATOM      9  C   UNL     1     119.394 121.732 127.269  1.00  0.00    -0.064 C 
ATOM     10  C   UNL     1     119.674 122.088 126.001  1.00  0.00    -0.027 C 
ATOM     11  C   UNL     1     120.375 121.242 124.999  1.00  0.00     0.032 C 
ATOM     12  C   UNL     1     120.529 119.726 125.320  1.00  0.00     0.006 C 
ATOM     13  C   UNL     1     120.790 119.508 126.868  1.00  0.00    -0.020 C 
ATOM     14  C   UNL     1     122.248 119.997 127.154  1.00  0.00     0.008 C 
ATOM     15  C   UNL     1     123.330 119.334 126.281  1.00  0.00     0.005 C 
ATOM     16  C   UNL     1     123.068 119.465 124.762  1.00  0.00     0.003 C 
ATOM     17  C   UNL     1     121.612 119.038 124.342  1.00  0.00    -0.025 C 
ATOM     18  C   UNL     1     121.435 119.530 122.865  1.00  0.00     0.010 C 
ATOM     19  C   UNL     1     122.526 119.077 121.864  1.00  0.00     0.033 C 
ATOM     20  C   UNL     1     123.769 118.370 122.448  1.00  0.00     0.120 C 
ATOM     21  C   UNL     1     124.258 118.935 123.836  1.00  0.00    -0.006 C 
ATOM     22  C   UNL     1     125.213 120.125 123.544  1.00  0.00     0.014 C 
ATOM     23  C   UNL     1     125.126 117.852 124.538  1.00  0.00     0.014 C 
ATOM     24  C   UNL     1     121.390 117.491 124.332  1.00  0.00     0.012 C 
ATOM     25  C   UNL     1     120.709 117.987 127.265  1.00  0.00     0.012 C 
ATOM     26  C   UNL     1     118.419 122.578 128.141  1.00  0.00     0.022 C 
ATOM     27  C   UNL     1     118.171 124.021 127.598  1.00  0.00     0.015 C 
ATOM     28  C   UNL     1     120.245 120.451 129.225  1.00  0.00     0.017 C 
ATOM     29  C   UNL     1     116.881 121.448 129.938  1.00  0.00     0.012 C 
ATOM     30  C   UNL     1     116.803 126.125 127.625  1.00  0.00     0.011 C 
ENDROOT
BRANCH  20  31
ATOM     31  O   UNL     1     123.529 116.983 122.501  1.00  0.00    -0.393 OA
ATOM     32  H   UNL     1     124.256 116.562 123.030  1.00  0.00     0.210 HD
ENDBRANCH  20  31
TORSDOF 1
ENDMDL
MODEL 6
REMARK VINA RESULT:    -6.852      9.611     11.532
REMARK INTER + INTRA:          -7.052
REMARK INTER:                  -7.052
REMARK INTRA:                   0.000
REMARK UNBOUND:                 0.000
REMARK SMILES CC1(C)CC[C@@]2(C)CC[C@]3(C)C(=CC[C@H]4[C@@]5(C)CC[C@H](O)C(C)(C)[C@@H]5CC[C@]43C)[C@H]2C1
REMARK SMILES IDX 1 1 2 2 4 3 5 4 6 5 8 6 9 7 10 8 12 9 13 10 14 11 15 12
REMARK SMILES IDX 28 13 27 14 26 15 25 16 16 17 18 18 19 19 20 20 22 21 23 22
REMARK SMILES IDX 24 23 17 24 29 25 30 26 31 27 11 28 7 29 3 30 21 31
REMARK H PARENT 21 32
REMARK Flexibility Score: inf
ROOT
ATOM      1  C   UNL     1     128.622 130.158 131.842  1.00  0.00     0.011 C 
ATOM      2  C   UNL     1     128.660 129.278 133.112  1.00  0.00    -0.035 C 
ATOM      3  C   UNL     1     129.854 129.696 134.034  1.00  0.00     0.007 C 
ATOM      4  C   UNL     1     130.800 128.530 134.379  1.00  0.00     0.008 C 
ATOM      5  C   UNL     1     131.345 127.823 133.102  1.00  0.00    -0.026 C 
ATOM      6  C   UNL     1     132.202 126.610 133.561  1.00  0.00     0.008 C 
ATOM      7  C   UNL     1     132.666 125.673 132.411  1.00  0.00     0.012 C 
ATOM      8  C   UNL     1     131.592 125.328 131.300  1.00  0.00    -0.006 C 
ATOM      9  C   UNL     1     130.253 125.817 131.862  1.00  0.00    -0.064 C 
ATOM     10  C   UNL     1     129.364 124.941 132.368  1.00  0.00    -0.027 C 
ATOM     11  C   UNL     1     129.502 123.461 132.352  1.00  0.00     0.032 C 
ATOM     12  C   UNL     1     130.903 122.873 132.010  1.00  0.00     0.006 C 
ATOM     13  C   UNL     1     131.620 123.751 130.903  1.00  0.00    -0.020 C 
ATOM     14  C   UNL     1     130.873 123.479 129.556  1.00  0.00     0.008 C 
ATOM     15  C   UNL     1     130.790 121.993 129.158  1.00  0.00     0.005 C 
ATOM     16  C   UNL     1     130.161 121.094 130.247  1.00  0.00     0.003 C 
ATOM     17  C   UNL     1     130.800 121.299 131.671  1.00  0.00    -0.025 C 
ATOM     18  C   UNL     1     129.847 120.565 132.674  1.00  0.00     0.010 C 
ATOM     19  C   UNL     1     129.527 119.085 132.347  1.00  0.00     0.033 C 
ATOM     20  C   UNL     1     130.003 118.548 130.979  1.00  0.00     0.120 C 
ATOM     21  C   UNL     1     129.908 119.581 129.794  1.00  0.00    -0.006 C 
ATOM     22  C   UNL     1     128.473 119.484 129.205  1.00  0.00     0.014 C 
ATOM     23  C   UNL     1     130.869 119.129 128.657  1.00  0.00     0.014 C 
ATOM     24  C   UNL     1     132.210 120.644 131.826  1.00  0.00     0.012 C 
ATOM     25  C   UNL     1     133.125 123.332 130.710  1.00  0.00     0.012 C 
ATOM     26  C   UNL     1     130.144 127.338 132.177  1.00  0.00     0.022 C 
ATOM     27  C   UNL     1     128.749 127.777 132.721  1.00  0.00     0.015 C 
ATOM     28  C   UNL     1     131.880 126.177 130.015  1.00  0.00     0.017 C 
ATOM     29  C   UNL     1     132.286 128.835 132.379  1.00  0.00     0.012 C 
ATOM     30  C   UNL     1     127.330 129.500 133.870  1.00  0.00     0.011 C 
ENDROOT
BRANCH  20  31
ATOM     31  O   UNL     1     131.304 118.024 131.117  1.00  0.00    -0.393 OA
ATOM     32  H   UNL     1     131.245 117.033 131.076  1.00  0.00     0.210 HD
ENDBRANCH  20  31
TORSDOF 1
ENDMDL
MODEL 7
REMARK VINA RESULT:    -6.809      4.130      7.889
REMARK INTER + INTRA:          -7.008
REMARK INTER:                  -7.008
REMARK INTRA:                   0.000
REMARK UNBOUND:                 0.000
REMARK SMILES CC1(C)CC[C@@]2(C)CC[C@]3(C)C(=CC[C@H]4[C@@]5(C)CC[C@H](O)C(C)(C)[C@@H]5CC[C@]43C)[C@H]2C1
REMARK SMILES IDX 1 1 2 2 4 3 5 4 6 5 8 6 9 7 10 8 12 9 13 10 14 11 15 12
REMARK SMILES IDX 28 13 27 14 26 15 25 16 16 17 18 18 19 19 20 20 22 21 23 22
REMARK SMILES IDX 24 23 17 24 29 25 30 26 31 27 11 28 7 29 3 30 21 31
REMARK H PARENT 21 32
REMARK Flexibility Score: inf
ROOT
ATOM      1  C   UNL     1     119.868 123.324 128.105  1.00  0.00     0.011 C 
ATOM      2  C   UNL     1     119.064 122.430 127.134  1.00  0.00    -0.035 C 
ATOM      3  C   UNL     1     118.396 121.244 127.906  1.00  0.00     0.007 C 
ATOM      4  C   UNL     1     118.758 119.859 127.336  1.00  0.00     0.008 C 
ATOM      5  C   UNL     1     120.300 119.641 127.269  1.00  0.00    -0.026 C 
ATOM      6  C   UNL     1     120.555 118.265 126.592  1.00  0.00     0.008 C 
ATOM      7  C   UNL     1     122.045 117.970 126.265  1.00  0.00     0.012 C 
ATOM      8  C   UNL     1     122.887 119.163 125.652  1.00  0.00    -0.006 C 
ATOM      9  C   UNL     1     121.859 120.236 125.277  1.00  0.00    -0.064 C 
ATOM     10  C   UNL     1     121.496 120.413 123.992  1.00  0.00    -0.027 C 
ATOM     11  C   UNL     1     122.088 119.714 122.821  1.00  0.00     0.032 C 
ATOM     12  C   UNL     1     122.971 118.462 123.102  1.00  0.00     0.006 C 
ATOM     13  C   UNL     1     123.826 118.668 124.420  1.00  0.00    -0.020 C 
ATOM     14  C   UNL     1     124.936 119.716 124.080  1.00  0.00     0.008 C 
ATOM     15  C   UNL     1     125.814 119.350 122.868  1.00  0.00     0.005 C 
ATOM     16  C   UNL     1     125.005 119.070 121.580  1.00  0.00     0.003 C 
ATOM     17  C   UNL     1     123.823 118.053 121.794  1.00  0.00    -0.025 C 
ATOM     18  C   UNL     1     122.947 118.140 120.498  1.00  0.00     0.010 C 
ATOM     19  C   UNL     1     123.698 117.943 119.157  1.00  0.00     0.033 C 
ATOM     20  C   UNL     1     125.241 117.886 119.216  1.00  0.00     0.120 C 
ATOM     21  C   UNL     1     125.898 118.854 120.271  1.00  0.00    -0.006 C 
ATOM     22  C   UNL     1     126.089 120.234 119.581  1.00  0.00     0.014 C 
ATOM     23  C   UNL     1     127.328 118.339 120.600  1.00  0.00     0.014 C 
ATOM     24  C   UNL     1     124.289 116.567 121.925  1.00  0.00     0.012 C 
ATOM     25  C   UNL     1     124.541 117.339 124.866  1.00  0.00     0.012 C 
ATOM     26  C   UNL     1     120.993 120.808 126.438  1.00  0.00     0.022 C 
ATOM     27  C   UNL     1     119.985 121.913 125.994  1.00  0.00     0.015 C 
ATOM     28  C   UNL     1     123.800 119.782 126.765  1.00  0.00     0.017 C 
ATOM     29  C   UNL     1     120.820 119.562 128.737  1.00  0.00     0.012 C 
ATOM     30  C   UNL     1     117.961 123.309 126.499  1.00  0.00     0.011 C 
ENDROOT
BRANCH  20  31
ATOM     31  O   UNL     1     125.646 116.550 119.406  1.00  0.00    -0.393 OA
ATOM     32  H   UNL     1     126.618 116.490 119.210  1.00  0.00     0.210 HD
ENDBRANCH  20  31
TORSDOF 1
ENDMDL
MODEL 8
REMARK VINA RESULT:    -6.703      1.776      3.302
REMARK INTER + INTRA:          -6.899
REMARK INTER:                  -6.899
REMARK INTRA:                   0.000
REMARK UNBOUND:                 0.000
REMARK SMILES CC1(C)CC[C@@]2(C)CC[C@]3(C)C(=CC[C@H]4[C@@]5(C)CC[C@H](O)C(C)(C)[C@@H]5CC[C@]43C)[C@H]2C1
REMARK SMILES IDX 1 1 2 2 4 3 5 4 6 5 8 6 9 7 10 8 12 9 13 10 14 11 15 12
REMARK SMILES IDX 28 13 27 14 26 15 25 16 16 17 18 18 19 19 20 20 22 21 23 22
REMARK SMILES IDX 24 23 17 24 29 25 30 26 31 27 11 28 7 29 3 30 21 31
REMARK H PARENT 21 32
REMARK Flexibility Score: inf
ROOT
ATOM      1  C   UNL     1     118.766 126.521 130.985  1.00  0.00     0.011 C 
ATOM      2  C   UNL     1     118.529 126.523 129.458  1.00  0.00    -0.035 C 
ATOM      3  C   UNL     1     116.997 126.478 129.140  1.00  0.00     0.007 C 
ATOM      4  C   UNL     1     116.595 125.311 128.219  1.00  0.00     0.008 C 
ATOM      5  C   UNL     1     117.053 123.934 128.788  1.00  0.00    -0.026 C 
ATOM      6  C   UNL     1     116.689 122.844 127.741  1.00  0.00     0.008 C 
ATOM      7  C   UNL     1     117.250 121.430 128.058  1.00  0.00     0.012 C 
ATOM      8  C   UNL     1     118.743 121.359 128.577  1.00  0.00    -0.006 C 
ATOM      9  C   UNL     1     119.325 122.756 128.336  1.00  0.00    -0.064 C 
ATOM     10  C   UNL     1     120.160 122.979 127.303  1.00  0.00    -0.027 C 
ATOM     11  C   UNL     1     120.688 121.943 126.377  1.00  0.00     0.032 C 
ATOM     12  C   UNL     1     119.999 120.546 126.394  1.00  0.00     0.006 C 
ATOM     13  C   UNL     1     119.572 120.153 127.868  1.00  0.00    -0.020 C 
ATOM     14  C   UNL     1     120.888 119.818 128.646  1.00  0.00     0.008 C 
ATOM     15  C   UNL     1     121.765 118.738 127.985  1.00  0.00     0.005 C 
ATOM     16  C   UNL     1     122.141 119.055 126.519  1.00  0.00     0.003 C 
ATOM     17  C   UNL     1     120.903 119.449 125.630  1.00  0.00    -0.025 C 
ATOM     18  C   UNL     1     121.500 120.031 124.304  1.00  0.00     0.010 C 
ATOM     19  C   UNL     1     122.528 119.134 123.571  1.00  0.00     0.033 C 
ATOM     20  C   UNL     1     123.009 117.866 124.311  1.00  0.00     0.120 C 
ATOM     21  C   UNL     1     123.187 118.037 125.867  1.00  0.00    -0.006 C 
ATOM     22  C   UNL     1     124.619 118.588 126.114  1.00  0.00     0.014 C 
ATOM     23  C   UNL     1     123.148 116.632 126.533  1.00  0.00     0.014 C 
ATOM     24  C   UNL     1     120.008 118.233 125.226  1.00  0.00     0.012 C 
ATOM     25  C   UNL     1     118.663 118.868 127.890  1.00  0.00     0.012 C 
ATOM     26  C   UNL     1     118.621 123.939 129.064  1.00  0.00     0.022 C 
ATOM     27  C   UNL     1     119.276 125.330 128.798  1.00  0.00     0.015 C 
ATOM     28  C   UNL     1     118.746 121.130 130.127  1.00  0.00     0.017 C 
ATOM     29  C   UNL     1     116.219 123.666 130.078  1.00  0.00     0.012 C 
ATOM     30  C   UNL     1     119.127 127.834 128.897  1.00  0.00     0.011 C 
ENDROOT
BRANCH  20  31
ATOM     31  O   UNL     1     122.152 116.794 123.995  1.00  0.00    -0.393 OA
ATOM     32  H   UNL     1     121.262 116.981 124.394  1.00  0.00     0.210 HD
ENDBRANCH  20  31
TORSDOF 1
ENDMDL
MODEL 9
REMARK VINA RESULT:    -6.521      2.252      4.559
REMARK INTER + INTRA:          -6.712
REMARK INTER:                  -6.712
REMARK INTRA:                   0.000
REMARK UNBOUND:                 0.000
REMARK SMILES CC1(C)CC[C@@]2(C)CC[C@]3(C)C(=CC[C@H]4[C@@]5(C)CC[C@H](O)C(C)(C)[C@@H]5CC[C@]43C)[C@H]2C1
REMARK SMILES IDX 1 1 2 2 4 3 5 4 6 5 8 6 9 7 10 8 12 9 13 10 14 11 15 12
REMARK SMILES IDX 28 13 27 14 26 15 25 16 16 17 18 18 19 19 20 20 22 21 23 22
REMARK SMILES IDX 24 23 17 24 29 25 30 26 31 27 11 28 7 29 3 30 21 31
REMARK H PARENT 21 32
REMARK Flexibility Score: inf
ROOT
ATOM      1  C   UNL     1     117.017 124.996 130.881  1.00  0.00     0.011 C 
ATOM      2  C   UNL     1     117.984 125.790 129.974  1.00  0.00    -0.035 C 
ATOM      3  C   UNL     1     117.275 126.201 128.640  1.00  0.00     0.007 C 
ATOM      4  C   UNL     1     118.023 125.734 127.378  1.00  0.00     0.008 C 
ATOM      5  C   UNL     1     118.280 124.197 127.384  1.00  0.00    -0.026 C 
ATOM      6  C   UNL     1     119.122 123.851 126.125  1.00  0.00     0.008 C 
ATOM      7  C   UNL     1     119.637 122.385 126.073  1.00  0.00     0.012 C 
ATOM      8  C   UNL     1     120.207 121.786 127.422  1.00  0.00    -0.006 C 
ATOM      9  C   UNL     1     120.354 122.981 128.370  1.00  0.00    -0.064 C 
ATOM     10  C   UNL     1     121.566 123.517 128.610  1.00  0.00    -0.027 C 
ATOM     11  C   UNL     1     122.862 122.987 128.108  1.00  0.00     0.032 C 
ATOM     12  C   UNL     1     122.812 121.922 126.973  1.00  0.00     0.006 C 
ATOM     13  C   UNL     1     121.579 120.947 127.178  1.00  0.00    -0.020 C 
ATOM     14  C   UNL     1     121.925 120.031 128.398  1.00  0.00     0.008 C 
ATOM     15  C   UNL     1     123.256 119.267 128.269  1.00  0.00     0.005 C 
ATOM     16  C   UNL     1     124.472 120.183 127.995  1.00  0.00     0.003 C 
ATOM     17  C   UNL     1     124.240 121.189 126.808  1.00  0.00    -0.025 C 
ATOM     18  C   UNL     1     125.417 122.220 126.887  1.00  0.00     0.010 C 
ATOM     19  C   UNL     1     126.844 121.618 126.919  1.00  0.00     0.033 C 
ATOM     20  C   UNL     1     126.959 120.085 127.074  1.00  0.00     0.120 C 
ATOM     21  C   UNL     1     125.885 119.436 128.026  1.00  0.00    -0.006 C 
ATOM     22  C   UNL     1     126.442 119.510 129.475  1.00  0.00     0.014 C 
ATOM     23  C   UNL     1     125.768 117.921 127.690  1.00  0.00     0.014 C 
ATOM     24  C   UNL     1     124.318 120.523 125.396  1.00  0.00     0.012 C 
ATOM     25  C   UNL     1     121.356 120.017 125.928  1.00  0.00     0.012 C 
ATOM     26  C   UNL     1     119.053 123.766 128.708  1.00  0.00     0.022 C 
ATOM     27  C   UNL     1     119.265 124.955 129.696  1.00  0.00     0.015 C 
ATOM     28  C   UNL     1     119.140 120.832 128.061  1.00  0.00     0.017 C 
ATOM     29  C   UNL     1     116.892 123.497 127.247  1.00  0.00     0.012 C 
ATOM     30  C   UNL     1     118.400 127.066 130.743  1.00  0.00     0.011 C 
ENDROOT
BRANCH  20  31
ATOM     31  O   UNL     1     126.956 119.491 125.797  1.00  0.00    -0.393 OA
ATOM     32  H   UNL     1     126.934 118.505 125.914  1.00  0.00     0.210 HD
ENDBRANCH  20  31
TORSDOF 1
ENDMDL
