MODEL 1
REMARK VINA RESULT:    -4.950      0.000      0.000
REMARK INTER + INTRA:          -6.603
REMARK INTER:                  -6.253
REMARK INTRA:                  -0.350
REMARK UNBOUND:                -0.350
REMARK SMILES O[C@@H]1OC[C@@H](Cc2ccc3c(c2)OCO3)[C@H]1Cc1ccc2c(c1)OCO2
REMARK SMILES IDX 4 1 5 2 16 3 2 4 3 5 6 6 7 7 12 8 8 9 11 10 9 11 10 12 13 13
REMARK SMILES IDX 15 14 14 15 17 16 18 17 23 18 19 19 22 20 20 21 21 22 24 23
REMARK SMILES IDX 26 24 25 25 1 26
REMARK H PARENT 1 27
REMARK Flexibility Score: inf
ROOT
ATOM      1  C   UNL     1     -18.378 -17.016 -13.759  1.00  0.00     0.168 C 
ATOM      2  C   UNL     1     -19.673 -16.219 -13.609  1.00  0.00     0.028 C 
ATOM      3  C   UNL     1     -19.109 -14.843 -13.282  1.00  0.00     0.055 C 
ATOM      4  C   UNL     1     -17.824 -15.187 -12.522  1.00  0.00     0.250 C 
ATOM      5  O   UNL     1     -17.399 -16.481 -12.895  1.00  0.00    -0.352 OA
ENDROOT
BRANCH   2   6
ATOM      6  C   UNL     1     -20.579 -16.862 -12.519  1.00  0.00     0.042 C 
BRANCH   6   7
ATOM      7  C   UNL     1     -21.760 -17.615 -13.086  1.00  0.00    -0.044 A 
ATOM      8  C   UNL     1     -23.006 -16.966 -13.251  1.00  0.00     0.054 A 
ATOM      9  C   UNL     1     -21.648 -18.996 -13.401  1.00  0.00     0.008 A 
ATOM     10  C   UNL     1     -24.068 -17.705 -13.762  1.00  0.00     0.166 A 
ATOM     11  C   UNL     1     -22.747 -19.706 -13.915  1.00  0.00     0.051 A 
ATOM     12  C   UNL     1     -23.944 -19.017 -14.083  1.00  0.00     0.165 A 
ATOM     13  O   UNL     1     -25.359 -17.288 -14.022  1.00  0.00    -0.454 OA
ATOM     14  O   UNL     1     -25.150 -19.490 -14.563  1.00  0.00    -0.454 OA
ATOM     15  C   UNL     1     -26.091 -18.408 -14.541  1.00  0.00     0.468 C 
ENDBRANCH   6   7
ENDBRANCH   2   6
BRANCH   3  16
ATOM     16  C   UNL     1     -20.043 -13.878 -12.523  1.00  0.00     0.044 C 
BRANCH  16  17
ATOM     17  C   UNL     1     -21.437 -13.904 -13.095  1.00  0.00    -0.044 A 
ATOM     18  C   UNL     1     -21.625 -13.902 -14.496  1.00  0.00     0.054 A 
ATOM     19  C   UNL     1     -22.566 -13.886 -12.236  1.00  0.00     0.008 A 
ATOM     20  C   UNL     1     -22.930 -13.894 -14.981  1.00  0.00     0.166 A 
ATOM     21  C   UNL     1     -23.868 -13.878 -12.768  1.00  0.00     0.051 A 
ATOM     22  C   UNL     1     -24.005 -13.883 -14.152  1.00  0.00     0.165 A 
ATOM     23  O   UNL     1     -23.360 -13.892 -16.293  1.00  0.00    -0.454 OA
ATOM     24  O   UNL     1     -25.164 -13.875 -14.903  1.00  0.00    -0.454 OA
ATOM     25  C   UNL     1     -24.795 -13.881 -16.290  1.00  0.00     0.468 C 
ENDBRANCH  16  17
ENDBRANCH   3  16
BRANCH   4  26
ATOM     26  O   UNL     1     -16.812 -14.250 -12.782  1.00  0.00    -0.368 OA
ATOM     27  H   UNL     1     -16.378 -14.514 -13.635  1.00  0.00     0.213 HD
ENDBRANCH   4  26
TORSDOF 5
ENDMDL
MODEL 2
REMARK VINA RESULT:    -3.958      1.789      6.881
REMARK INTER + INTRA:          -5.349
REMARK INTER:                  -3.871
REMARK INTRA:                  -1.478
REMARK UNBOUND:                -0.350
REMARK SMILES O[C@@H]1OC[C@@H](Cc2ccc3c(c2)OCO3)[C@H]1Cc1ccc2c(c1)OCO2
REMARK SMILES IDX 4 1 5 2 16 3 2 4 3 5 6 6 7 7 12 8 8 9 11 10 9 11 10 12 13 13
REMARK SMILES IDX 15 14 14 15 17 16 18 17 23 18 19 19 22 20 20 21 21 22 24 23
REMARK SMILES IDX 26 24 25 25 1 26
REMARK H PARENT 1 27
REMARK Flexibility Score: inf
ROOT
ATOM      1  C   UNL     1     -23.987 -14.035 -16.640  1.00  0.00     0.168 C 
ATOM      2  C   UNL     1     -23.457 -14.786 -15.420  1.00  0.00     0.028 C 
ATOM      3  C   UNL     1     -24.373 -16.001 -15.430  1.00  0.00     0.055 C 
ATOM      4  C   UNL     1     -25.671 -15.430 -16.009  1.00  0.00     0.250 C 
ATOM      5  O   UNL     1     -25.369 -14.284 -16.776  1.00  0.00    -0.352 OA
ENDROOT
BRANCH   2   6
ATOM      6  C   UNL     1     -23.535 -13.882 -14.155  1.00  0.00     0.042 C 
BRANCH   6   7
ATOM      7  C   UNL     1     -22.261 -13.875 -13.341  1.00  0.00    -0.044 A 
ATOM      8  C   UNL     1     -21.003 -13.926 -13.986  1.00  0.00     0.054 A 
ATOM      9  C   UNL     1     -22.316 -13.880 -11.921  1.00  0.00     0.008 A 
ATOM     10  C   UNL     1     -19.860 -13.932 -13.194  1.00  0.00     0.166 A 
ATOM     11  C   UNL     1     -21.135 -13.889 -11.158  1.00  0.00     0.051 A 
ATOM     12  C   UNL     1     -19.923 -13.912 -11.839  1.00  0.00     0.165 A 
ATOM     13  O   UNL     1     -18.538 -13.963 -13.593  1.00  0.00    -0.454 OA
ATOM     14  O   UNL     1     -18.643 -13.927 -11.318  1.00  0.00    -0.454 OA
ATOM     15  C   UNL     1     -17.719 -13.959 -12.415  1.00  0.00     0.468 C 
ENDBRANCH   6   7
ENDBRANCH   2   6
BRANCH   3  16
ATOM     16  C   UNL     1     -24.558 -16.736 -14.086  1.00  0.00     0.044 C 
BRANCH  16  17
ATOM     17  C   UNL     1     -23.489 -17.778 -13.880  1.00  0.00    -0.044 A 
ATOM     18  C   UNL     1     -23.814 -19.150 -13.974  1.00  0.00     0.054 A 
ATOM     19  C   UNL     1     -22.165 -17.392 -13.547  1.00  0.00     0.008 A 
ATOM     20  C   UNL     1     -22.803 -20.078 -13.745  1.00  0.00     0.166 A 
ATOM     21  C   UNL     1     -21.173 -18.363 -13.324  1.00  0.00     0.051 A 
ATOM     22  C   UNL     1     -21.537 -19.701 -13.434  1.00  0.00     0.165 A 
ATOM     23  O   UNL     1     -22.877 -21.457 -13.781  1.00  0.00    -0.454 OA
ATOM     24  O   UNL     1     -20.752 -20.824 -13.260  1.00  0.00    -0.454 OA
ATOM     25  C   UNL     1     -21.576 -21.980 -13.475  1.00  0.00     0.468 C 
ENDBRANCH  16  17
ENDBRANCH   3  16
BRANCH   4  26
ATOM     26  O   UNL     1     -26.339 -16.381 -16.797  1.00  0.00    -0.368 OA
ATOM     27  H   UNL     1     -27.303 -16.147 -16.785  1.00  0.00     0.213 HD
ENDBRANCH   4  26
TORSDOF 5
ENDMDL
MODEL 3
REMARK VINA RESULT:    -2.190      1.443      4.843
REMARK INTER + INTRA:          -3.116
REMARK INTER:                  -5.034
REMARK INTRA:                   1.918
REMARK UNBOUND:                -0.350
REMARK SMILES O[C@@H]1OC[C@@H](Cc2ccc3c(c2)OCO3)[C@H]1Cc1ccc2c(c1)OCO2
REMARK SMILES IDX 4 1 5 2 16 3 2 4 3 5 6 6 7 7 12 8 8 9 11 10 9 11 10 12 13 13
REMARK SMILES IDX 15 14 14 15 17 16 18 17 23 18 19 19 22 20 20 21 21 22 24 23
REMARK SMILES IDX 26 24 25 25 1 26
REMARK H PARENT 1 27
REMARK Flexibility Score: inf
ROOT
ATOM      1  C   UNL     1     -25.007 -15.574 -15.991  1.00  0.00     0.168 C 
ATOM      2  C   UNL     1     -24.996 -14.863 -14.639  1.00  0.00     0.028 C 
ATOM      3  C   UNL     1     -23.554 -14.376 -14.601  1.00  0.00     0.055 C 
ATOM      4  C   UNL     1     -22.817 -15.469 -15.380  1.00  0.00     0.250 C 
ATOM      5  O   UNL     1     -23.729 -16.115 -16.243  1.00  0.00    -0.352 OA
ENDROOT
BRANCH   2   6
ATOM      6  C   UNL     1     -25.416 -15.846 -13.509  1.00  0.00     0.042 C 
BRANCH   6   7
ATOM      7  C   UNL     1     -24.949 -17.264 -13.741  1.00  0.00    -0.044 A 
ATOM      8  C   UNL     1     -23.659 -17.667 -13.322  1.00  0.00     0.054 A 
ATOM      9  C   UNL     1     -25.775 -18.188 -14.436  1.00  0.00     0.008 A 
ATOM     10  C   UNL     1     -23.268 -18.979 -13.572  1.00  0.00     0.166 A 
ATOM     11  C   UNL     1     -25.340 -19.505 -14.668  1.00  0.00     0.051 A 
ATOM     12  C   UNL     1     -24.074 -19.860 -14.214  1.00  0.00     0.165 A 
ATOM     13  O   UNL     1     -22.076 -19.597 -13.246  1.00  0.00    -0.454 OA
ATOM     14  O   UNL     1     -23.431 -21.078 -14.323  1.00  0.00    -0.454 OA
ATOM     15  C   UNL     1     -22.140 -20.953 -13.711  1.00  0.00     0.468 C 
ENDBRANCH   6   7
ENDBRANCH   2   6
BRANCH   3  16
ATOM     16  C   UNL     1     -22.960 -14.094 -13.205  1.00  0.00     0.044 C 
BRANCH  16  17
ATOM     17  C   UNL     1     -21.591 -14.707 -13.060  1.00  0.00    -0.044 A 
ATOM     18  C   UNL     1     -20.457 -13.875 -12.919  1.00  0.00     0.054 A 
ATOM     19  C   UNL     1     -21.426 -16.115 -13.107  1.00  0.00     0.008 A 
ATOM     20  C   UNL     1     -19.209 -14.482 -12.820  1.00  0.00     0.166 A 
ATOM     21  C   UNL     1     -20.146 -16.688 -13.002  1.00  0.00     0.051 A 
ATOM     22  C   UNL     1     -19.060 -15.831 -12.859  1.00  0.00     0.165 A 
ATOM     23  O   UNL     1     -17.971 -13.887 -12.677  1.00  0.00    -0.454 OA
ATOM     24  O   UNL     1     -17.721 -16.150 -12.742  1.00  0.00    -0.454 OA
ATOM     25  C   UNL     1     -16.982 -14.925 -12.621  1.00  0.00     0.468 C 
ENDBRANCH  16  17
ENDBRANCH   3  16
BRANCH   4  26
ATOM     26  O   UNL     1     -21.746 -14.937 -16.115  1.00  0.00    -0.368 OA
ATOM     27  H   UNL     1     -21.087 -15.667 -16.245  1.00  0.00     0.213 HD
ENDBRANCH   4  26
TORSDOF 5
ENDMDL
MODEL 4
REMARK VINA RESULT:    -2.077      0.988      1.582
REMARK INTER + INTRA:          -2.973
REMARK INTER:                  -3.416
REMARK INTRA:                   0.443
REMARK UNBOUND:                -0.350
REMARK SMILES O[C@@H]1OC[C@@H](Cc2ccc3c(c2)OCO3)[C@H]1Cc1ccc2c(c1)OCO2
REMARK SMILES IDX 4 1 5 2 16 3 2 4 3 5 6 6 7 7 12 8 8 9 11 10 9 11 10 12 13 13
REMARK SMILES IDX 15 14 14 15 17 16 18 17 23 18 19 19 22 20 20 21 21 22 24 23
REMARK SMILES IDX 26 24 25 25 1 26
REMARK H PARENT 1 27
REMARK Flexibility Score: inf
ROOT
ATOM      1  C   UNL     1     -18.719 -16.980 -13.285  1.00  0.00     0.168 C 
ATOM      2  C   UNL     1     -20.083 -16.315 -13.457  1.00  0.00     0.028 C 
ATOM      3  C   UNL     1     -19.690 -14.850 -13.320  1.00  0.00     0.055 C 
ATOM      4  C   UNL     1     -18.509 -14.917 -12.347  1.00  0.00     0.250 C 
ATOM      5  O   UNL     1     -17.928 -16.202 -12.414  1.00  0.00    -0.352 OA
ENDROOT
BRANCH   2   6
ATOM      6  C   UNL     1     -21.085 -16.855 -12.396  1.00  0.00     0.042 C 
BRANCH   6   7
ATOM      7  C   UNL     1     -22.308 -17.507 -13.000  1.00  0.00    -0.044 A 
ATOM      8  C   UNL     1     -22.236 -18.826 -13.505  1.00  0.00     0.054 A 
ATOM      9  C   UNL     1     -23.523 -16.779 -13.123  1.00  0.00     0.008 A 
ATOM     10  C   UNL     1     -23.384 -19.377 -14.065  1.00  0.00     0.166 A 
ATOM     11  C   UNL     1     -24.659 -17.375 -13.698  1.00  0.00     0.051 A 
ATOM     12  C   UNL     1     -24.546 -18.683 -14.155  1.00  0.00     0.165 A 
ATOM     13  O   UNL     1     -23.558 -20.638 -14.603  1.00  0.00    -0.454 OA
ATOM     14  O   UNL     1     -25.510 -19.473 -14.752  1.00  0.00    -0.454 OA
ATOM     15  C   UNL     1     -24.916 -20.742 -15.056  1.00  0.00     0.468 C 
ENDBRANCH   6   7
ENDBRANCH   2   6
BRANCH   3  16
ATOM     16  C   UNL     1     -20.805 -13.876 -12.884  1.00  0.00     0.044 C 
BRANCH  16  17
ATOM     17  C   UNL     1     -22.041 -14.046 -13.729  1.00  0.00    -0.044 A 
ATOM     18  C   UNL     1     -21.919 -14.332 -15.108  1.00  0.00     0.054 A 
ATOM     19  C   UNL     1     -23.329 -13.876 -13.159  1.00  0.00     0.008 A 
ATOM     20  C   UNL     1     -23.086 -14.449 -15.857  1.00  0.00     0.166 A 
ATOM     21  C   UNL     1     -24.483 -14.004 -13.952  1.00  0.00     0.051 A 
ATOM     22  C   UNL     1     -24.316 -14.292 -15.302  1.00  0.00     0.165 A 
ATOM     23  O   UNL     1     -23.221 -14.722 -17.204  1.00  0.00    -0.454 OA
ATOM     24  O   UNL     1     -25.283 -14.460 -16.274  1.00  0.00    -0.454 OA
ATOM     25  C   UNL     1     -24.621 -14.739 -17.516  1.00  0.00     0.468 C 
ENDBRANCH  16  17
ENDBRANCH   3  16
BRANCH   4  26
ATOM     26  O   UNL     1     -17.551 -13.934 -12.641  1.00  0.00    -0.368 OA
ATOM     27  H   UNL     1     -17.304 -13.498 -11.784  1.00  0.00     0.213 HD
ENDBRANCH   4  26
TORSDOF 5
ENDMDL
