MODEL 1
REMARK VINA RESULT:    -2.217      0.000      0.000
REMARK INTER + INTRA:          -4.070
REMARK INTER:                  -3.254
REMARK INTRA:                  -0.816
REMARK UNBOUND:                -0.816
REMARK SMILES O=C([O-])CCCCCCCC(=O)[O-]
REMARK SMILES IDX 7 1 6 2 5 3 4 4 2 5 1 6 3 7 8 8 9 9 10 10 11 11 12 12 13 13
REMARK H PARENT
REMARK Flexibility Score: inf
ROOT
ATOM      1  C   UNL     1     176.263 206.035 201.785  1.00  0.00     0.000 C 
ENDROOT
BRANCH   1   2
ATOM      2  C   UNL     1     176.372 207.570 201.769  1.00  0.00     0.000 C 
BRANCH   2   3
ATOM      3  C   UNL     1     176.674 208.125 200.368  1.00  0.00     0.006 C 
BRANCH   3   4
ATOM      4  C   UNL     1     178.155 208.000 199.988  1.00  0.00     0.053 C 
BRANCH   4   5
ATOM      5  C   UNL     1     178.299 207.313 198.667  1.00  0.00     0.041 C 
ATOM      6  O   UNL     1     179.420 207.267 198.095  1.00  0.00    -0.550 OA
ATOM      7  O   UNL     1     177.206 206.680 198.089  1.00  0.00    -0.550 OA
ENDBRANCH   4   5
ENDBRANCH   3   4
ENDBRANCH   2   3
ENDBRANCH   1   2
BRANCH   1   8
ATOM      8  C   UNL     1     176.967 205.406 202.999  1.00  0.00     0.000 C 
BRANCH   8   9
ATOM      9  C   UNL     1     178.475 205.212 202.776  1.00  0.00     0.006 C 
BRANCH   9  10
ATOM     10  C   UNL     1     178.745 204.519 201.437  1.00  0.00     0.053 C 
BRANCH  10  11
ATOM     11  C   UNL     1     180.099 204.889 200.918  1.00  0.00     0.041 C 
ATOM     12  O   UNL     1     180.451 204.540 199.761  1.00  0.00    -0.550 OA
ATOM     13  O   UNL     1     180.953 205.664 201.693  1.00  0.00    -0.550 OA
ENDBRANCH  10  11
ENDBRANCH   9  10
ENDBRANCH   8   9
ENDBRANCH   1   8
TORSDOF 8
ENDMDL
MODEL 2
REMARK VINA RESULT:    -2.187      1.806      4.492
REMARK INTER + INTRA:          -4.026
REMARK INTER:                  -3.483
REMARK INTRA:                  -0.543
REMARK UNBOUND:                -0.816
REMARK SMILES O=C([O-])CCCCCCCC(=O)[O-]
REMARK SMILES IDX 7 1 6 2 5 3 4 4 2 5 1 6 3 7 8 8 9 9 10 10 11 11 12 12 13 13
REMARK H PARENT
REMARK Flexibility Score: inf
ROOT
ATOM      1  C   UNL     1     177.017 208.015 199.906  1.00  0.00     0.000 C 
ENDROOT
BRANCH   1   2
ATOM      2  C   UNL     1     176.367 207.973 201.300  1.00  0.00     0.000 C 
BRANCH   2   3
ATOM      3  C   UNL     1     175.866 206.569 201.675  1.00  0.00     0.006 C 
BRANCH   3   4
ATOM      4  C   UNL     1     176.620 205.971 202.870  1.00  0.00     0.053 C 
BRANCH   4   5
ATOM      5  C   UNL     1     177.833 205.228 202.404  1.00  0.00     0.041 C 
ATOM      6  O   UNL     1     178.868 205.194 203.120  1.00  0.00    -0.550 OA
ATOM      7  O   UNL     1     177.803 204.532 201.203  1.00  0.00    -0.550 OA
ENDBRANCH   4   5
ENDBRANCH   3   4
ENDBRANCH   2   3
ENDBRANCH   1   2
BRANCH   1   8
ATOM      8  C   UNL     1     178.538 207.791 199.957  1.00  0.00     0.000 C 
BRANCH   8   9
ATOM      9  C   UNL     1     179.098 207.218 198.646  1.00  0.00     0.006 C 
BRANCH   9  10
ATOM     10  C   UNL     1     178.000 207.110 197.584  1.00  0.00     0.053 C 
BRANCH  10  11
ATOM     11  C   UNL     1     178.560 207.376 196.222  1.00  0.00     0.041 C 
ATOM     12  O   UNL     1     179.802 207.509 196.063  1.00  0.00    -0.550 OA
ATOM     13  O   UNL     1     177.716 207.426 195.120  1.00  0.00    -0.550 OA
ENDBRANCH  10  11
ENDBRANCH   9  10
ENDBRANCH   8   9
ENDBRANCH   1   8
TORSDOF 8
ENDMDL
MODEL 3
REMARK VINA RESULT:    -2.165      1.169      1.546
REMARK INTER + INTRA:          -3.994
REMARK INTER:                  -3.209
REMARK INTRA:                  -0.785
REMARK UNBOUND:                -0.816
REMARK SMILES O=C([O-])CCCCCCCC(=O)[O-]
REMARK SMILES IDX 7 1 6 2 5 3 4 4 2 5 1 6 3 7 8 8 9 9 10 10 11 11 12 12 13 13
REMARK H PARENT
REMARK Flexibility Score: inf
ROOT
ATOM      1  C   UNL     1     176.300 206.184 201.280  1.00  0.00     0.000 C 
ENDROOT
BRANCH   1   2
ATOM      2  C   UNL     1     176.307 207.683 200.931  1.00  0.00     0.000 C 
BRANCH   2   3
ATOM      3  C   UNL     1     177.616 208.125 200.259  1.00  0.00     0.006 C 
BRANCH   3   4
ATOM      4  C   UNL     1     178.003 207.234 199.072  1.00  0.00     0.053 C 
BRANCH   4   5
ATOM      5  C   UNL     1     179.492 207.169 198.930  1.00  0.00     0.041 C 
ATOM      6  O   UNL     1     180.013 206.969 197.801  1.00  0.00    -0.550 OA
ATOM      7  O   UNL     1     180.305 207.379 200.036  1.00  0.00    -0.550 OA
ENDBRANCH   4   5
ENDBRANCH   3   4
ENDBRANCH   2   3
ENDBRANCH   1   2
BRANCH   1   8
ATOM      8  C   UNL     1     176.655 205.919 202.752  1.00  0.00     0.000 C 
BRANCH   8   9
ATOM      9  C   UNL     1     177.656 204.767 202.924  1.00  0.00     0.006 C 
BRANCH   9  10
ATOM     10  C   UNL     1     179.038 205.159 202.392  1.00  0.00     0.053 C 
BRANCH  10  11
ATOM     11  C   UNL     1     179.456 204.239 201.289  1.00  0.00     0.041 C 
ATOM     12  O   UNL     1     178.596 203.558 200.672  1.00  0.00    -0.550 OA
ATOM     13  O   UNL     1     180.791 204.170 200.909  1.00  0.00    -0.550 OA
ENDBRANCH  10  11
ENDBRANCH   9  10
ENDBRANCH   8   9
ENDBRANCH   1   8
TORSDOF 8
ENDMDL
MODEL 4
REMARK VINA RESULT:    -2.139      2.137      3.535
REMARK INTER + INTRA:          -3.956
REMARK INTER:                  -3.335
REMARK INTRA:                  -0.621
REMARK UNBOUND:                -0.816
REMARK SMILES O=C([O-])CCCCCCCC(=O)[O-]
REMARK SMILES IDX 7 1 6 2 5 3 4 4 2 5 1 6 3 7 8 8 9 9 10 10 11 11 12 12 13 13
REMARK H PARENT
REMARK Flexibility Score: inf
ROOT
ATOM      1  C   UNL     1     176.869 206.392 201.640  1.00  0.00     0.000 C 
ENDROOT
BRANCH   1   2
ATOM      2  C   UNL     1     176.311 207.825 201.621  1.00  0.00     0.000 C 
BRANCH   2   3
ATOM      3  C   UNL     1     174.852 207.883 201.141  1.00  0.00     0.006 C 
BRANCH   3   4
ATOM      4  C   UNL     1     174.734 208.125 199.631  1.00  0.00     0.053 C 
BRANCH   4   5
ATOM      5  C   UNL     1     173.918 207.045 198.992  1.00  0.00     0.041 C 
ATOM      6  O   UNL     1     172.802 207.317 198.475  1.00  0.00    -0.550 OA
ATOM      7  O   UNL     1     174.412 205.750 198.922  1.00  0.00    -0.550 OA
ENDBRANCH   4   5
ENDBRANCH   3   4
ENDBRANCH   2   3
ENDBRANCH   1   2
BRANCH   1   8
ATOM      8  C   UNL     1     178.211 206.271 200.899  1.00  0.00     0.000 C 
BRANCH   8   9
ATOM      9  C   UNL     1     178.564 207.534 200.099  1.00  0.00     0.006 C 
BRANCH   9  10
ATOM     10  C   UNL     1     178.421 207.285 198.595  1.00  0.00     0.053 C 
BRANCH  10  11
ATOM     11  C   UNL     1     179.756 207.002 197.981  1.00  0.00     0.041 C 
ATOM     12  O   UNL     1     179.860 206.845 196.736  1.00  0.00    -0.550 OA
ATOM     13  O   UNL     1     180.894 206.963 198.777  1.00  0.00    -0.550 OA
ENDBRANCH  10  11
ENDBRANCH   9  10
ENDBRANCH   8   9
ENDBRANCH   1   8
TORSDOF 8
ENDMDL
MODEL 5
REMARK VINA RESULT:    -2.123      2.186      3.673
REMARK INTER + INTRA:          -3.931
REMARK INTER:                  -3.281
REMARK INTRA:                  -0.650
REMARK UNBOUND:                -0.816
REMARK SMILES O=C([O-])CCCCCCCC(=O)[O-]
REMARK SMILES IDX 7 1 6 2 5 3 4 4 2 5 1 6 3 7 8 8 9 9 10 10 11 11 12 12 13 13
REMARK H PARENT
REMARK Flexibility Score: inf
ROOT
ATOM      1  C   UNL     1     176.505 207.129 198.102  1.00  0.00     0.000 C 
ENDROOT
BRANCH   1   2
ATOM      2  C   UNL     1     176.310 207.784 196.724  1.00  0.00     0.000 C 
BRANCH   2   3
ATOM      3  C   UNL     1     177.604 207.807 195.894  1.00  0.00     0.006 C 
BRANCH   3   4
ATOM      4  C   UNL     1     178.632 206.774 196.371  1.00  0.00     0.053 C 
BRANCH   4   5
ATOM      5  C   UNL     1     180.020 207.316 196.234  1.00  0.00     0.041 C 
ATOM      6  O   UNL     1     180.347 207.966 195.206  1.00  0.00    -0.550 OA
ATOM      7  O   UNL     1     180.938 207.147 197.262  1.00  0.00    -0.550 OA
ENDBRANCH   4   5
ENDBRANCH   3   4
ENDBRANCH   2   3
ENDBRANCH   1   2
BRANCH   1   8
ATOM      8  C   UNL     1     176.076 208.047 199.258  1.00  0.00     0.000 C 
BRANCH   8   9
ATOM      9  C   UNL     1     177.109 208.095 200.394  1.00  0.00     0.006 C 
BRANCH   9  10
ATOM     10  C   UNL     1     178.513 207.776 199.869  1.00  0.00     0.053 C 
BRANCH  10  11
ATOM     11  C   UNL     1     179.074 206.577 200.566  1.00  0.00     0.041 C 
ATOM     12  O   UNL     1     180.301 206.310 200.479  1.00  0.00    -0.550 OA
ATOM     13  O   UNL     1     178.250 205.782 201.354  1.00  0.00    -0.550 OA
ENDBRANCH  10  11
ENDBRANCH   9  10
ENDBRANCH   8   9
ENDBRANCH   1   8
TORSDOF 8
ENDMDL
MODEL 6
REMARK VINA RESULT:    -2.084      2.946      4.731
REMARK INTER + INTRA:          -3.874
REMARK INTER:                  -3.286
REMARK INTRA:                  -0.589
REMARK UNBOUND:                -0.816
REMARK SMILES O=C([O-])CCCCCCCC(=O)[O-]
REMARK SMILES IDX 7 1 6 2 5 3 4 4 2 5 1 6 3 7 8 8 9 9 10 10 11 11 12 12 13 13
REMARK H PARENT
REMARK Flexibility Score: inf
ROOT
ATOM      1  C   UNL     1     176.339 207.925 200.926  1.00  0.00     0.000 C 
ENDROOT
BRANCH   1   2
ATOM      2  C   UNL     1     177.447 208.118 199.876  1.00  0.00     0.000 C 
BRANCH   2   3
ATOM      3  C   UNL     1     177.937 206.787 199.285  1.00  0.00     0.006 C 
BRANCH   3   4
ATOM      4  C   UNL     1     179.434 206.803 198.951  1.00  0.00     0.053 C 
BRANCH   4   5
ATOM      5  C   UNL     1     180.250 206.790 200.205  1.00  0.00     0.041 C 
ATOM      6  O   UNL     1     181.124 207.676 200.401  1.00  0.00    -0.550 OA
ATOM      7  O   UNL     1     180.011 205.831 201.181  1.00  0.00    -0.550 OA
ENDBRANCH   4   5
ENDBRANCH   3   4
ENDBRANCH   2   3
ENDBRANCH   1   2
BRANCH   1   8
ATOM      8  C   UNL     1     176.614 206.736 201.862  1.00  0.00     0.000 C 
BRANCH   8   9
ATOM      9  C   UNL     1     175.397 205.813 202.023  1.00  0.00     0.006 C 
BRANCH   9  10
ATOM     10  C   UNL     1     174.261 206.238 201.087  1.00  0.00     0.053 C 
BRANCH  10  11
ATOM     11  C   UNL     1     173.009 206.495 201.865  1.00  0.00     0.041 C 
ATOM     12  O   UNL     1     172.520 205.593 202.595  1.00  0.00    -0.550 OA
ATOM     13  O   UNL     1     172.409 207.747 201.823  1.00  0.00    -0.550 OA
ENDBRANCH  10  11
ENDBRANCH   9  10
ENDBRANCH   8   9
ENDBRANCH   1   8
TORSDOF 8
ENDMDL
MODEL 7
REMARK VINA RESULT:    -2.037      2.083      3.724
REMARK INTER + INTRA:          -3.806
REMARK INTER:                  -3.075
REMARK INTRA:                  -0.730
REMARK UNBOUND:                -0.816
REMARK SMILES O=C([O-])CCCCCCCC(=O)[O-]
REMARK SMILES IDX 7 1 6 2 5 3 4 4 2 5 1 6 3 7 8 8 9 9 10 10 11 11 12 12 13 13
REMARK H PARENT
REMARK Flexibility Score: inf
ROOT
ATOM      1  C   UNL     1     175.501 206.853 198.626  1.00  0.00     0.000 C 
ENDROOT
BRANCH   1   2
ATOM      2  C   UNL     1     176.926 206.304 198.443  1.00  0.00     0.000 C 
BRANCH   2   3
ATOM      3  C   UNL     1     177.969 207.418 198.262  1.00  0.00     0.006 C 
BRANCH   3   4
ATOM      4  C   UNL     1     179.019 207.434 199.380  1.00  0.00     0.053 C 
BRANCH   4   5
ATOM      5  C   UNL     1     180.247 206.692 198.954  1.00  0.00     0.041 C 
ATOM      6  O   UNL     1     180.591 205.640 199.554  1.00  0.00    -0.550 OA
ATOM      7  O   UNL     1     180.983 207.135 197.863  1.00  0.00    -0.550 OA
ENDBRANCH   4   5
ENDBRANCH   3   4
ENDBRANCH   2   3
ENDBRANCH   1   2
BRANCH   1   8
ATOM      8  C   UNL     1     175.465 208.125 199.490  1.00  0.00     0.000 C 
BRANCH   8   9
ATOM      9  C   UNL     1     175.034 207.846 200.938  1.00  0.00     0.006 C 
BRANCH   9  10
ATOM     10  C   UNL     1     176.253 207.729 201.859  1.00  0.00     0.053 C 
BRANCH  10  11
ATOM     11  C   UNL     1     176.547 206.294 202.159  1.00  0.00     0.041 C 
ATOM     12  O   UNL     1     177.732 205.919 202.362  1.00  0.00    -0.550 OA
ATOM     13  O   UNL     1     175.508 205.378 202.266  1.00  0.00    -0.550 OA
ENDBRANCH  10  11
ENDBRANCH   9  10
ENDBRANCH   8   9
ENDBRANCH   1   8
TORSDOF 8
ENDMDL
MODEL 8
REMARK VINA RESULT:    -1.991      1.945      3.425
REMARK INTER + INTRA:          -3.738
REMARK INTER:                  -2.943
REMARK INTRA:                  -0.796
REMARK UNBOUND:                -0.816
REMARK SMILES O=C([O-])CCCCCCCC(=O)[O-]
REMARK SMILES IDX 7 1 6 2 5 3 4 4 2 5 1 6 3 7 8 8 9 9 10 10 11 11 12 12 13 13
REMARK H PARENT
REMARK Flexibility Score: inf
ROOT
ATOM      1  C   UNL     1     178.760 205.028 200.955  1.00  0.00     0.000 C 
ENDROOT
BRANCH   1   2
ATOM      2  C   UNL     1     179.876 205.983 200.497  1.00  0.00     0.000 C 
BRANCH   2   3
ATOM      3  C   UNL     1     179.334 207.343 200.029  1.00  0.00     0.006 C 
BRANCH   3   4
ATOM      4  C   UNL     1     178.520 207.242 198.732  1.00  0.00     0.053 C 
BRANCH   4   5
ATOM      5  C   UNL     1     179.345 206.632 197.643  1.00  0.00     0.041 C 
ATOM      6  O   UNL     1     180.372 207.225 197.219  1.00  0.00    -0.550 OA
ATOM      7  O   UNL     1     179.010 205.386 197.131  1.00  0.00    -0.550 OA
ENDBRANCH   4   5
ENDBRANCH   3   4
ENDBRANCH   2   3
ENDBRANCH   1   2
BRANCH   1   8
ATOM      8  C   UNL     1     178.458 205.151 202.457  1.00  0.00     0.000 C 
BRANCH   8   9
ATOM      9  C   UNL     1     177.118 205.849 202.739  1.00  0.00     0.006 C 
BRANCH   9  10
ATOM     10  C   UNL     1     176.130 205.620 201.591  1.00  0.00     0.053 C 
BRANCH  10  11
ATOM     11  C   UNL     1     175.566 206.922 201.116  1.00  0.00     0.041 C 
ATOM     12  O   UNL     1     174.519 206.942 200.417  1.00  0.00    -0.550 OA
ATOM     13  O   UNL     1     176.168 208.118 201.488  1.00  0.00    -0.550 OA
ENDBRANCH  10  11
ENDBRANCH   9  10
ENDBRANCH   8   9
ENDBRANCH   1   8
TORSDOF 8
ENDMDL
