MODEL 1
REMARK VINA RESULT:    -3.058      0.000      0.000
REMARK INTER + INTRA:          -3.640
REMARK INTER:                  -3.594
REMARK INTRA:                  -0.046
REMARK UNBOUND:                -0.046
REMARK SMILES O=C([O-])CCC(=O)[O-]
REMARK SMILES IDX 4 1 2 2 1 3 3 4 5 5 6 6 7 7 8 8
REMARK H PARENT
REMARK Flexibility Score: inf
ROOT
ATOM      1  C   UNL     1     205.764 188.533  -3.501  1.00  0.00     0.059 C 
ENDROOT
BRANCH   1   2
ATOM      2  C   UNL     1     206.262 189.728  -2.750  1.00  0.00     0.042 C 
ATOM      3  O   UNL     1     205.447 190.533  -2.227  1.00  0.00    -0.550 OA
ATOM      4  O   UNL     1     207.626 189.979  -2.668  1.00  0.00    -0.550 OA
ENDBRANCH   1   2
BRANCH   1   5
ATOM      5  C   UNL     1     206.578 187.292  -3.132  1.00  0.00     0.059 C 
BRANCH   5   6
ATOM      6  C   UNL     1     207.629 187.030  -4.164  1.00  0.00     0.042 C 
ATOM      7  O   UNL     1     207.306 186.875  -5.372  1.00  0.00    -0.550 OA
ATOM      8  O   UNL     1     208.970 187.005  -3.802  1.00  0.00    -0.550 OA
ENDBRANCH   5   6
ENDBRANCH   1   5
TORSDOF 3
ENDMDL
MODEL 2
REMARK VINA RESULT:    -3.057      0.157      3.622
REMARK INTER + INTRA:          -3.639
REMARK INTER:                  -3.593
REMARK INTRA:                  -0.046
REMARK UNBOUND:                -0.046
REMARK SMILES O=C([O-])CCC(=O)[O-]
REMARK SMILES IDX 4 1 2 2 1 3 3 4 5 5 6 6 7 7 8 8
REMARK H PARENT
REMARK Flexibility Score: inf
ROOT
ATOM      1  C   UNL     1     206.500 187.309  -3.160  1.00  0.00     0.059 C 
ENDROOT
BRANCH   1   2
ATOM      2  C   UNL     1     207.573 187.038  -4.168  1.00  0.00     0.042 C 
ATOM      3  O   UNL     1     207.276 186.875  -5.381  1.00  0.00    -0.550 OA
ATOM      4  O   UNL     1     208.895 186.918  -3.761  1.00  0.00    -0.550 OA
ENDBRANCH   1   2
BRANCH   1   5
ATOM      5  C   UNL     1     205.749 188.594  -3.511  1.00  0.00     0.059 C 
BRANCH   5   6
ATOM      6  C   UNL     1     206.245 189.733  -2.676  1.00  0.00     0.042 C 
ATOM      7  O   UNL     1     205.442 190.608  -2.257  1.00  0.00    -0.550 OA
ATOM      8  O   UNL     1     207.586 189.803  -2.320  1.00  0.00    -0.550 OA
ENDBRANCH   5   6
ENDBRANCH   1   5
TORSDOF 3
ENDMDL
MODEL 3
REMARK VINA RESULT:    -2.937     20.008     20.972
REMARK INTER + INTRA:          -3.498
REMARK INTER:                  -3.358
REMARK INTRA:                  -0.140
REMARK UNBOUND:                -0.046
REMARK SMILES O=C([O-])CCC(=O)[O-]
REMARK SMILES IDX 4 1 2 2 1 3 3 4 5 5 6 6 7 7 8 8
REMARK H PARENT
REMARK Flexibility Score: inf
ROOT
ATOM      1  C   UNL     1     221.033 205.054  -6.899  1.00  0.00     0.059 C 
ENDROOT
BRANCH   1   2
ATOM      2  C   UNL     1     219.720 205.768  -6.838  1.00  0.00     0.042 C 
ATOM      3  O   UNL     1     219.145 206.128  -7.900  1.00  0.00    -0.550 OA
ATOM      4  O   UNL     1     219.153 206.080  -5.609  1.00  0.00    -0.550 OA
ENDBRANCH   1   2
BRANCH   1   5
ATOM      5  C   UNL     1     220.820 203.564  -7.166  1.00  0.00     0.059 C 
BRANCH   5   6
ATOM      6  C   UNL     1     220.366 202.869  -5.920  1.00  0.00     0.042 C 
ATOM      7  O   UNL     1     219.418 202.041  -5.966  1.00  0.00    -0.550 OA
ATOM      8  O   UNL     1     221.022 203.099  -4.717  1.00  0.00    -0.550 OA
ENDBRANCH   5   6
ENDBRANCH   1   5
TORSDOF 3
ENDMDL
MODEL 4
REMARK VINA RESULT:    -2.891     19.936     21.067
REMARK INTER + INTRA:          -3.444
REMARK INTER:                  -3.304
REMARK INTRA:                  -0.140
REMARK UNBOUND:                -0.046
REMARK SMILES O=C([O-])CCC(=O)[O-]
REMARK SMILES IDX 4 1 2 2 1 3 3 4 5 5 6 6 7 7 8 8
REMARK H PARENT
REMARK Flexibility Score: inf
ROOT
ATOM      1  C   UNL     1     220.754 203.410  -7.181  1.00  0.00     0.059 C 
ENDROOT
BRANCH   1   2
ATOM      2  C   UNL     1     220.443 202.669  -5.919  1.00  0.00     0.042 C 
ATOM      3  O   UNL     1     219.637 201.701  -5.934  1.00  0.00    -0.550 OA
ATOM      4  O   UNL     1     221.005 203.077  -4.716  1.00  0.00    -0.550 OA
ENDBRANCH   1   2
BRANCH   1   5
ATOM      5  C   UNL     1     221.043 204.881  -6.880  1.00  0.00     0.059 C 
BRANCH   5   6
ATOM      6  C   UNL     1     219.773 205.672  -6.870  1.00  0.00     0.042 C 
ATOM      7  O   UNL     1     219.235 206.021  -7.954  1.00  0.00    -0.550 OA
ATOM      8  O   UNL     1     219.156 205.982  -5.664  1.00  0.00    -0.550 OA
ENDBRANCH   5   6
ENDBRANCH   1   5
TORSDOF 3
ENDMDL
MODEL 5
REMARK VINA RESULT:    -2.876     20.275     21.520
REMARK INTER + INTRA:          -3.427
REMARK INTER:                  -3.318
REMARK INTRA:                  -0.108
REMARK UNBOUND:                -0.046
REMARK SMILES O=C([O-])CCC(=O)[O-]
REMARK SMILES IDX 4 1 2 2 1 3 3 4 5 5 6 6 7 7 8 8
REMARK H PARENT
REMARK Flexibility Score: inf
ROOT
ATOM      1  C   UNL     1     219.649 205.651  -6.948  1.00  0.00     0.059 C 
ENDROOT
BRANCH   1   2
ATOM      2  C   UNL     1     220.875 204.806  -7.100  1.00  0.00     0.042 C 
ATOM      3  O   UNL     1     221.998 205.346  -7.285  1.00  0.00    -0.550 OA
ATOM      4  O   UNL     1     220.772 203.421  -7.087  1.00  0.00    -0.550 OA
ENDBRANCH   1   2
BRANCH   1   5
ATOM      5  C   UNL     1     219.525 206.159  -5.511  1.00  0.00     0.059 C 
BRANCH   5   6
ATOM      6  C   UNL     1     218.334 205.549  -4.842  1.00  0.00     0.042 C 
ATOM      7  O   UNL     1     218.197 204.297  -4.810  1.00  0.00    -0.550 OA
ATOM      8  O   UNL     1     217.399 206.360  -4.210  1.00  0.00    -0.550 OA
ENDBRANCH   5   6
ENDBRANCH   1   5
TORSDOF 3
ENDMDL
MODEL 6
REMARK VINA RESULT:    -2.873      1.946      2.607
REMARK INTER + INTRA:          -3.422
REMARK INTER:                  -3.301
REMARK INTRA:                  -0.122
REMARK UNBOUND:                -0.046
REMARK SMILES O=C([O-])CCC(=O)[O-]
REMARK SMILES IDX 4 1 2 2 1 3 3 4 5 5 6 6 7 7 8 8
REMARK H PARENT
REMARK Flexibility Score: inf
ROOT
ATOM      1  C   UNL     1     207.519 187.426  -4.469  1.00  0.00     0.059 C 
ENDROOT
BRANCH   1   2
ATOM      2  C   UNL     1     206.475 187.838  -3.479  1.00  0.00     0.042 C 
ATOM      3  O   UNL     1     206.256 189.059  -3.261  1.00  0.00    -0.550 OA
ATOM      4  O   UNL     1     205.777 186.875  -2.762  1.00  0.00    -0.550 OA
ENDBRANCH   1   2
BRANCH   1   5
ATOM      5  C   UNL     1     208.751 186.878  -3.749  1.00  0.00     0.059 C 
BRANCH   5   6
ATOM      6  C   UNL     1     209.767 187.959  -3.553  1.00  0.00     0.042 C 
ATOM      7  O   UNL     1     209.731 188.998  -4.265  1.00  0.00    -0.550 OA
ATOM      8  O   UNL     1     210.722 187.843  -2.552  1.00  0.00    -0.550 OA
ENDBRANCH   5   6
ENDBRANCH   1   5
TORSDOF 3
ENDMDL
MODEL 7
REMARK VINA RESULT:    -2.860     20.246     21.282
REMARK INTER + INTRA:          -3.408
REMARK INTER:                  -3.302
REMARK INTRA:                  -0.106
REMARK UNBOUND:                -0.046
REMARK SMILES O=C([O-])CCC(=O)[O-]
REMARK SMILES IDX 4 1 2 2 1 3 3 4 5 5 6 6 7 7 8 8
REMARK H PARENT
REMARK Flexibility Score: inf
ROOT
ATOM      1  C   UNL     1     219.539 206.102  -5.422  1.00  0.00     0.059 C 
ENDROOT
BRANCH   1   2
ATOM      2  C   UNL     1     218.333 205.509  -4.763  1.00  0.00     0.042 C 
ATOM      3  O   UNL     1     218.168 204.261  -4.750  1.00  0.00    -0.550 OA
ATOM      4  O   UNL     1     217.367 206.338  -4.205  1.00  0.00    -0.550 OA
ENDBRANCH   1   2
BRANCH   1   5
ATOM      5  C   UNL     1     219.610 205.676  -6.889  1.00  0.00     0.059 C 
BRANCH   5   6
ATOM      6  C   UNL     1     220.821 204.830  -7.130  1.00  0.00     0.042 C 
ATOM      7  O   UNL     1     221.955 205.366  -7.244  1.00  0.00    -0.550 OA
ATOM      8  O   UNL     1     220.705 203.447  -7.180  1.00  0.00    -0.550 OA
ENDBRANCH   5   6
ENDBRANCH   1   5
TORSDOF 3
ENDMDL
MODEL 8
REMARK VINA RESULT:    -2.789      1.263      1.385
REMARK INTER + INTRA:          -3.324
REMARK INTER:                  -3.270
REMARK INTRA:                  -0.054
REMARK UNBOUND:                -0.046
REMARK SMILES O=C([O-])CCC(=O)[O-]
REMARK SMILES IDX 4 1 2 2 1 3 3 4 5 5 6 6 7 7 8 8
REMARK H PARENT
REMARK Flexibility Score: inf
ROOT
ATOM      1  C   UNL     1     207.048 189.505  -2.707  1.00  0.00     0.059 C 
ENDROOT
BRANCH   1   2
ATOM      2  C   UNL     1     205.920 190.459  -2.470  1.00  0.00     0.042 C 
ATOM      3  O   UNL     1     205.012 190.593  -3.332  1.00  0.00    -0.550 OA
ATOM      4  O   UNL     1     205.895 191.235  -1.318  1.00  0.00    -0.550 OA
ENDBRANCH   1   2
BRANCH   1   5
ATOM      5  C   UNL     1     206.544 188.245  -3.412  1.00  0.00     0.059 C 
BRANCH   5   6
ATOM      6  C   UNL     1     207.564 187.749  -4.389  1.00  0.00     0.042 C 
ATOM      7  O   UNL     1     207.252 186.876  -5.241  1.00  0.00    -0.550 OA
ATOM      8  O   UNL     1     208.845 188.286  -4.390  1.00  0.00    -0.550 OA
ENDBRANCH   5   6
ENDBRANCH   1   5
TORSDOF 3
ENDMDL
MODEL 9
REMARK VINA RESULT:    -2.777      1.037      4.124
REMARK INTER + INTRA:          -3.310
REMARK INTER:                  -3.274
REMARK INTRA:                  -0.037
REMARK UNBOUND:                -0.046
REMARK SMILES O=C([O-])CCC(=O)[O-]
REMARK SMILES IDX 4 1 2 2 1 3 3 4 5 5 6 6 7 7 8 8
REMARK H PARENT
REMARK Flexibility Score: inf
ROOT
ATOM      1  C   UNL     1     206.547 188.134  -3.296  1.00  0.00     0.059 C 
ENDROOT
BRANCH   1   2
ATOM      2  C   UNL     1     207.564 187.357  -4.072  1.00  0.00     0.042 C 
ATOM      3  O   UNL     1     208.718 187.175  -3.599  1.00  0.00    -0.550 OA
ATOM      4  O   UNL     1     207.255 186.875  -5.337  1.00  0.00    -0.550 OA
ENDBRANCH   1   2
BRANCH   1   5
ATOM      5  C   UNL     1     207.171 189.405  -2.719  1.00  0.00     0.059 C 
BRANCH   5   6
ATOM      6  C   UNL     1     206.115 190.428  -2.443  1.00  0.00     0.042 C 
ATOM      7  O   UNL     1     206.242 191.226  -1.477  1.00  0.00    -0.550 OA
ATOM      8  O   UNL     1     205.011 190.532  -3.281  1.00  0.00    -0.550 OA
ENDBRANCH   5   6
ENDBRANCH   1   5
TORSDOF 3
ENDMDL
