MODEL 1
REMARK VINA RESULT:    -3.714      0.000      0.000
REMARK INTER + INTRA:          -8.174
REMARK INTER:                  -6.972
REMARK INTRA:                  -1.203
REMARK UNBOUND:                -1.203
REMARK SMILES CCCCCCCCC=CCCCCCCCC(=O)[O-]
REMARK SMILES IDX 10 1 9 2 11 3 12 4 13 5 14 6 15 7 16 8 17 9 18 10 19 11
REMARK SMILES IDX 20 12 8 13 7 14 6 15 5 16 4 17 3 18 2 19 1 20
REMARK H PARENT
REMARK Flexibility Score: inf
ROOT
ATOM      1  C   UNL     1      17.818  23.203   3.621  1.00  0.00    -0.031 C 
ATOM      2  C   UNL     1      17.744  24.196   4.527  1.00  0.00    -0.031 C 
ENDROOT
BRANCH   1   3
ATOM      3  C   UNL     1      17.159  21.854   3.772  1.00  0.00     0.027 C 
BRANCH   3   4
ATOM      4  C   UNL     1      16.200  21.550   2.610  1.00  0.00     0.004 C 
BRANCH   4   5
ATOM      5  C   UNL     1      15.838  22.815   1.813  1.00  0.00     0.000 C 
BRANCH   5   6
ATOM      6  C   UNL     1      15.491  22.519   0.343  1.00  0.00     0.000 C 
BRANCH   6   7
ATOM      7  C   UNL     1      15.488  23.745  -0.587  1.00  0.00     0.000 C 
BRANCH   7   8
ATOM      8  C   UNL     1      16.137  23.462  -1.953  1.00  0.00     0.006 C 
BRANCH   8   9
ATOM      9  C   UNL     1      17.327  24.390  -2.231  1.00  0.00     0.053 C 
BRANCH   9  10
ATOM     10  C   UNL     1      17.465  24.698  -3.691  1.00  0.00     0.041 C 
ATOM     11  O   UNL     1      16.462  24.640  -4.449  1.00  0.00    -0.550 OA
ATOM     12  O   UNL     1      18.708  25.020  -4.219  1.00  0.00    -0.550 OA
ENDBRANCH   9  10
ENDBRANCH   8   9
ENDBRANCH   7   8
ENDBRANCH   6   7
ENDBRANCH   5   6
ENDBRANCH   4   5
ENDBRANCH   3   4
ENDBRANCH   1   3
BRANCH   2  13
ATOM     13  C   UNL     1      16.919  24.146   5.788  1.00  0.00     0.027 C 
BRANCH  13  14
ATOM     14  C   UNL     1      17.467  25.124   6.831  1.00  0.00     0.004 C 
BRANCH  14  15
ATOM     15  C   UNL     1      16.907  24.813   8.225  1.00  0.00     0.000 C 
BRANCH  15  16
ATOM     16  C   UNL     1      17.927  24.040   9.069  1.00  0.00     0.000 C 
BRANCH  16  17
ATOM     17  C   UNL     1      17.264  22.849   9.777  1.00  0.00    -0.000 C 
BRANCH  17  18
ATOM     18  C   UNL     1      17.438  21.530   9.006  1.00  0.00    -0.000 C 
BRANCH  18  19
ATOM     19  C   UNL     1      16.108  20.977   8.474  1.00  0.00    -0.003 C 
ATOM     20  C   UNL     1      16.170  20.753   6.966  1.00  0.00     0.004 C 
ENDBRANCH  18  19
ENDBRANCH  17  18
ENDBRANCH  16  17
ENDBRANCH  15  16
ENDBRANCH  14  15
ENDBRANCH  13  14
ENDBRANCH   2  13
TORSDOF 15
ENDMDL
MODEL 2
REMARK VINA RESULT:    -3.546      4.083      9.493
REMARK INTER + INTRA:          -7.858
REMARK INTER:                  -6.579
REMARK INTRA:                  -1.279
REMARK UNBOUND:                -1.203
REMARK SMILES CCCCCCCCC=CCCCCCCCC(=O)[O-]
REMARK SMILES IDX 10 1 9 2 11 3 12 4 13 5 14 6 15 7 16 8 17 9 18 10 19 11
REMARK SMILES IDX 20 12 8 13 7 14 6 15 5 16 4 17 3 18 2 19 1 20
REMARK H PARENT
REMARK Flexibility Score: inf
ROOT
ATOM      1  C   UNL     1      17.395  22.298   4.143  1.00  0.00    -0.031 C 
ATOM      2  C   UNL     1      16.743  21.916   3.029  1.00  0.00    -0.031 C 
ENDROOT
BRANCH   1   3
ATOM      3  C   UNL     1      17.667  23.732   4.528  1.00  0.00     0.027 C 
BRANCH   3   4
ATOM      4  C   UNL     1      16.663  24.245   5.573  1.00  0.00     0.004 C 
BRANCH   4   5
ATOM      5  C   UNL     1      17.342  25.107   6.652  1.00  0.00     0.000 C 
BRANCH   5   6
ATOM      6  C   UNL     1      16.793  24.840   8.065  1.00  0.00     0.000 C 
BRANCH   6   7
ATOM      7  C   UNL     1      17.740  24.063   8.998  1.00  0.00     0.000 C 
BRANCH   7   8
ATOM      8  C   UNL     1      17.206  22.668   9.367  1.00  0.00     0.006 C 
BRANCH   8   9
ATOM      9  C   UNL     1      17.378  21.662   8.222  1.00  0.00     0.053 C 
BRANCH   9  10
ATOM     10  C   UNL     1      16.057  21.199   7.684  1.00  0.00     0.041 C 
ATOM     11  O   UNL     1      16.012  20.320   6.784  1.00  0.00    -0.550 OA
ATOM     12  O   UNL     1      14.879  21.761   8.158  1.00  0.00    -0.550 OA
ENDBRANCH   9  10
ENDBRANCH   8   9
ENDBRANCH   7   8
ENDBRANCH   6   7
ENDBRANCH   5   6
ENDBRANCH   4   5
ENDBRANCH   3   4
ENDBRANCH   1   3
BRANCH   2  13
ATOM     13  C   UNL     1      16.104  22.861   2.043  1.00  0.00     0.027 C 
BRANCH  13  14
ATOM     14  C   UNL     1      15.212  22.096   1.061  1.00  0.00     0.004 C 
BRANCH  14  15
ATOM     15  C   UNL     1      15.060  22.864  -0.258  1.00  0.00     0.000 C 
BRANCH  15  16
ATOM     16  C   UNL     1      16.287  23.743  -0.528  1.00  0.00     0.000 C 
BRANCH  16  17
ATOM     17  C   UNL     1      16.482  23.966  -2.036  1.00  0.00    -0.000 C 
BRANCH  17  18
ATOM     18  C   UNL     1      15.150  24.033  -2.800  1.00  0.00    -0.000 C 
BRANCH  18  19
ATOM     19  C   UNL     1      15.302  23.671  -4.285  1.00  0.00    -0.003 C 
ATOM     20  C   UNL     1      15.753  24.879  -5.101  1.00  0.00     0.004 C 
ENDBRANCH  18  19
ENDBRANCH  17  18
ENDBRANCH  16  17
ENDBRANCH  15  16
ENDBRANCH  14  15
ENDBRANCH  13  14
ENDBRANCH   2  13
TORSDOF 15
ENDMDL
MODEL 3
REMARK VINA RESULT:    -3.405      1.242      2.248
REMARK INTER + INTRA:          -7.594
REMARK INTER:                  -6.040
REMARK INTRA:                  -1.554
REMARK UNBOUND:                -1.203
REMARK SMILES CCCCCCCCC=CCCCCCCCC(=O)[O-]
REMARK SMILES IDX 10 1 9 2 11 3 12 4 13 5 14 6 15 7 16 8 17 9 18 10 19 11
REMARK SMILES IDX 20 12 8 13 7 14 6 15 5 16 4 17 3 18 2 19 1 20
REMARK H PARENT
REMARK Flexibility Score: inf
ROOT
ATOM      1  C   UNL     1      15.823  24.059   5.677  1.00  0.00    -0.031 C 
ATOM      2  C   UNL     1      15.490  24.631   6.850  1.00  0.00    -0.031 C 
ENDROOT
BRANCH   1   3
ATOM      3  C   UNL     1      17.225  23.660   5.286  1.00  0.00     0.027 C 
BRANCH   3   4
ATOM      4  C   UNL     1      17.241  22.775   4.030  1.00  0.00     0.004 C 
BRANCH   4   5
ATOM      5  C   UNL     1      17.129  23.603   2.738  1.00  0.00     0.000 C 
BRANCH   5   6
ATOM      6  C   UNL     1      15.866  23.274   1.923  1.00  0.00     0.000 C 
BRANCH   6   7
ATOM      7  C   UNL     1      15.545  24.263   0.787  1.00  0.00     0.000 C 
BRANCH   7   8
ATOM      8  C   UNL     1      16.732  24.486  -0.165  1.00  0.00     0.006 C 
BRANCH   8   9
ATOM      9  C   UNL     1      16.618  23.639  -1.439  1.00  0.00     0.053 C 
BRANCH   9  10
ATOM     10  C   UNL     1      16.778  24.470  -2.677  1.00  0.00     0.041 C 
ATOM     11  O   UNL     1      15.769  24.971  -3.238  1.00  0.00    -0.550 OA
ATOM     12  O   UNL     1      18.039  24.665  -3.225  1.00  0.00    -0.550 OA
ENDBRANCH   9  10
ENDBRANCH   8   9
ENDBRANCH   7   8
ENDBRANCH   6   7
ENDBRANCH   5   6
ENDBRANCH   4   5
ENDBRANCH   3   4
ENDBRANCH   1   3
BRANCH   2  13
ATOM     13  C   UNL     1      16.449  24.876   7.987  1.00  0.00     0.027 C 
BRANCH  13  14
ATOM     14  C   UNL     1      16.356  23.751   9.023  1.00  0.00     0.004 C 
BRANCH  14  15
ATOM     15  C   UNL     1      17.678  22.978   9.114  1.00  0.00     0.000 C 
BRANCH  15  16
ATOM     16  C   UNL     1      17.444  21.469   8.973  1.00  0.00     0.000 C 
BRANCH  16  17
ATOM     17  C   UNL     1      16.023  21.179   8.466  1.00  0.00    -0.000 C 
BRANCH  17  18
ATOM     18  C   UNL     1      16.015  20.469   7.103  1.00  0.00    -0.000 C 
BRANCH  18  19
ATOM     19  C   UNL     1      15.419  19.055   7.177  1.00  0.00    -0.003 C 
ATOM     20  C   UNL     1      16.256  18.065   6.373  1.00  0.00     0.004 C 
ENDBRANCH  18  19
ENDBRANCH  17  18
ENDBRANCH  16  17
ENDBRANCH  15  16
ENDBRANCH  14  15
ENDBRANCH  13  14
ENDBRANCH   2  13
TORSDOF 15
ENDMDL
MODEL 4
REMARK VINA RESULT:    -3.386      1.095      1.880
REMARK INTER + INTRA:          -7.558
REMARK INTER:                  -6.149
REMARK INTRA:                  -1.409
REMARK UNBOUND:                -1.203
REMARK SMILES CCCCCCCCC=CCCCCCCCC(=O)[O-]
REMARK SMILES IDX 10 1 9 2 11 3 12 4 13 5 14 6 15 7 16 8 17 9 18 10 19 11
REMARK SMILES IDX 20 12 8 13 7 14 6 15 5 16 4 17 3 18 2 19 1 20
REMARK H PARENT
REMARK Flexibility Score: inf
ROOT
ATOM      1  C   UNL     1      16.866  21.429   4.955  1.00  0.00    -0.031 C 
ATOM      2  C   UNL     1      16.761  22.624   5.568  1.00  0.00    -0.031 C 
ENDROOT
BRANCH   1   3
ATOM      3  C   UNL     1      17.034  21.241   3.467  1.00  0.00     0.027 C 
BRANCH   3   4
ATOM      4  C   UNL     1      16.294  19.994   2.959  1.00  0.00     0.004 C 
BRANCH   4   5
ATOM      5  C   UNL     1      15.207  20.346   1.930  1.00  0.00     0.000 C 
BRANCH   5   6
ATOM      6  C   UNL     1      15.167  21.846   1.590  1.00  0.00     0.000 C 
BRANCH   6   7
ATOM      7  C   UNL     1      15.105  22.175   0.087  1.00  0.00     0.000 C 
BRANCH   7   8
ATOM      8  C   UNL     1      15.203  23.683  -0.201  1.00  0.00     0.006 C 
BRANCH   8   9
ATOM      9  C   UNL     1      16.620  24.102  -0.614  1.00  0.00     0.053 C 
BRANCH   9  10
ATOM     10  C   UNL     1      16.766  24.179  -2.104  1.00  0.00     0.041 C 
ATOM     11  O   UNL     1      17.895  24.390  -2.620  1.00  0.00    -0.550 OA
ATOM     12  O   UNL     1      15.650  24.046  -2.919  1.00  0.00    -0.550 OA
ENDBRANCH   9  10
ENDBRANCH   8   9
ENDBRANCH   7   8
ENDBRANCH   6   7
ENDBRANCH   5   6
ENDBRANCH   4   5
ENDBRANCH   3   4
ENDBRANCH   1   3
BRANCH   2  13
ATOM     13  C   UNL     1      16.887  23.956   4.874  1.00  0.00     0.027 C 
BRANCH  13  14
ATOM     14  C   UNL     1      16.594  25.102   5.848  1.00  0.00     0.004 C 
BRANCH  14  15
ATOM     15  C   UNL     1      17.608  25.117   6.999  1.00  0.00     0.000 C 
BRANCH  15  16
ATOM     16  C   UNL     1      16.902  25.027   8.357  1.00  0.00     0.000 C 
BRANCH  16  17
ATOM     17  C   UNL     1      17.735  24.208   9.355  1.00  0.00    -0.000 C 
BRANCH  17  18
ATOM     18  C   UNL     1      17.081  22.861   9.706  1.00  0.00    -0.000 C 
BRANCH  18  19
ATOM     19  C   UNL     1      17.613  21.705   8.848  1.00  0.00    -0.003 C 
ATOM     20  C   UNL     1      16.540  20.641   8.634  1.00  0.00     0.004 C 
ENDBRANCH  18  19
ENDBRANCH  17  18
ENDBRANCH  16  17
ENDBRANCH  15  16
ENDBRANCH  14  15
ENDBRANCH  13  14
ENDBRANCH   2  13
TORSDOF 15
ENDMDL
MODEL 5
REMARK VINA RESULT:    -3.330      3.183      8.175
REMARK INTER + INTRA:          -7.454
REMARK INTER:                  -5.973
REMARK INTRA:                  -1.480
REMARK UNBOUND:                -1.203
REMARK SMILES CCCCCCCCC=CCCCCCCCC(=O)[O-]
REMARK SMILES IDX 10 1 9 2 11 3 12 4 13 5 14 6 15 7 16 8 17 9 18 10 19 11
REMARK SMILES IDX 20 12 8 13 7 14 6 15 5 16 4 17 3 18 2 19 1 20
REMARK H PARENT
REMARK Flexibility Score: inf
ROOT
ATOM      1  C   UNL     1      16.609  21.536   6.095  1.00  0.00    -0.031 C 
ATOM      2  C   UNL     1      16.839  21.490   4.769  1.00  0.00    -0.031 C 
ENDROOT
BRANCH   1   3
ATOM      3  C   UNL     1      16.013  20.408   6.902  1.00  0.00     0.027 C 
BRANCH   3   4
ATOM      4  C   UNL     1      16.256  20.588   8.408  1.00  0.00     0.004 C 
BRANCH   4   5
ATOM      5  C   UNL     1      17.501  21.446   8.694  1.00  0.00     0.000 C 
BRANCH   5   6
ATOM      6  C   UNL     1      17.198  22.666   9.582  1.00  0.00     0.000 C 
BRANCH   6   7
ATOM      7  C   UNL     1      17.832  23.989   9.114  1.00  0.00     0.000 C 
BRANCH   7   8
ATOM      8  C   UNL     1      16.917  24.792   8.173  1.00  0.00     0.006 C 
BRANCH   8   9
ATOM      9  C   UNL     1      17.606  25.125   6.843  1.00  0.00     0.053 C 
BRANCH   9  10
ATOM     10  C   UNL     1      16.645  25.092   5.694  1.00  0.00     0.041 C 
ATOM     11  O   UNL     1      17.071  25.093   4.510  1.00  0.00    -0.550 OA
ATOM     12  O   UNL     1      15.276  25.089   5.933  1.00  0.00    -0.550 OA
ENDBRANCH   9  10
ENDBRANCH   8   9
ENDBRANCH   7   8
ENDBRANCH   6   7
ENDBRANCH   5   6
ENDBRANCH   4   5
ENDBRANCH   3   4
ENDBRANCH   1   3
BRANCH   2  13
ATOM     13  C   UNL     1      16.623  20.274   3.904  1.00  0.00     0.027 C 
BRANCH  13  14
ATOM     14  C   UNL     1      16.010  20.672   2.557  1.00  0.00     0.004 C 
BRANCH  14  15
ATOM     15  C   UNL     1      16.125  22.185   2.327  1.00  0.00     0.000 C 
BRANCH  15  16
ATOM     16  C   UNL     1      15.468  22.591   1.002  1.00  0.00     0.000 C 
BRANCH  16  17
ATOM     17  C   UNL     1      15.450  24.120   0.845  1.00  0.00    -0.000 C 
BRANCH  17  18
ATOM     18  C   UNL     1      16.571  24.634  -0.072  1.00  0.00    -0.000 C 
BRANCH  18  19
ATOM     19  C   UNL     1      16.709  23.805  -1.357  1.00  0.00    -0.003 C 
ATOM     20  C   UNL     1      17.795  24.377  -2.265  1.00  0.00     0.004 C 
ENDBRANCH  18  19
ENDBRANCH  17  18
ENDBRANCH  16  17
ENDBRANCH  15  16
ENDBRANCH  14  15
ENDBRANCH  13  14
ENDBRANCH   2  13
TORSDOF 15
ENDMDL
MODEL 6
REMARK VINA RESULT:    -3.307      4.340      8.870
REMARK INTER + INTRA:          -7.410
REMARK INTER:                  -5.441
REMARK INTRA:                  -1.969
REMARK UNBOUND:                -1.203
REMARK SMILES CCCCCCCCC=CCCCCCCCC(=O)[O-]
REMARK SMILES IDX 10 1 9 2 11 3 12 4 13 5 14 6 15 7 16 8 17 9 18 10 19 11
REMARK SMILES IDX 20 12 8 13 7 14 6 15 5 16 4 17 3 18 2 19 1 20
REMARK H PARENT
REMARK Flexibility Score: inf
ROOT
ATOM      1  C   UNL     1      16.343  20.432   2.999  1.00  0.00    -0.031 C 
ATOM      2  C   UNL     1      15.623  20.656   1.884  1.00  0.00    -0.031 C 
ENDROOT
BRANCH   1   3
ATOM      3  C   UNL     1      16.635  21.472   4.054  1.00  0.00     0.027 C 
BRANCH   3   4
ATOM      4  C   UNL     1      17.930  22.245   3.756  1.00  0.00     0.004 C 
BRANCH   4   5
ATOM      5  C   UNL     1      17.716  23.767   3.795  1.00  0.00     0.000 C 
BRANCH   5   6
ATOM      6  C   UNL     1      16.362  24.167   4.407  1.00  0.00     0.000 C 
BRANCH   6   7
ATOM      7  C   UNL     1      16.422  24.652   5.867  1.00  0.00     0.000 C 
BRANCH   7   8
ATOM      8  C   UNL     1      15.847  23.629   6.862  1.00  0.00     0.006 C 
BRANCH   8   9
ATOM      9  C   UNL     1      16.919  23.085   7.815  1.00  0.00     0.053 C 
BRANCH   9  10
ATOM     10  C   UNL     1      16.734  21.623   8.087  1.00  0.00     0.041 C 
ATOM     11  O   UNL     1      15.883  20.960   7.438  1.00  0.00    -0.550 OA
ATOM     12  O   UNL     1      17.481  21.000   9.078  1.00  0.00    -0.550 OA
ENDBRANCH   9  10
ENDBRANCH   8   9
ENDBRANCH   7   8
ENDBRANCH   6   7
ENDBRANCH   5   6
ENDBRANCH   4   5
ENDBRANCH   3   4
ENDBRANCH   1   3
BRANCH   2  13
ATOM     13  C   UNL     1      14.922  21.951   1.562  1.00  0.00     0.027 C 
BRANCH  13  14
ATOM     14  C   UNL     1      15.786  22.819   0.642  1.00  0.00     0.004 C 
BRANCH  14  15
ATOM     15  C   UNL     1      15.423  24.303   0.785  1.00  0.00     0.000 C 
BRANCH  15  16
ATOM     16  C   UNL     1      15.995  25.124  -0.377  1.00  0.00     0.000 C 
BRANCH  16  17
ATOM     17  C   UNL     1      17.275  24.476  -0.929  1.00  0.00    -0.000 C 
BRANCH  17  18
ATOM     18  C   UNL     1      17.373  24.571  -2.461  1.00  0.00    -0.000 C 
BRANCH  18  19
ATOM     19  C   UNL     1      16.011  24.822  -3.125  1.00  0.00    -0.003 C 
ATOM     20  C   UNL     1      16.122  24.755  -4.646  1.00  0.00     0.004 C 
ENDBRANCH  18  19
ENDBRANCH  17  18
ENDBRANCH  16  17
ENDBRANCH  15  16
ENDBRANCH  14  15
ENDBRANCH  13  14
ENDBRANCH   2  13
TORSDOF 15
ENDMDL
MODEL 7
REMARK VINA RESULT:    -3.213      1.150      2.228
REMARK INTER + INTRA:          -7.233
REMARK INTER:                  -6.047
REMARK INTRA:                  -1.186
REMARK UNBOUND:                -1.203
REMARK SMILES CCCCCCCCC=CCCCCCCCC(=O)[O-]
REMARK SMILES IDX 10 1 9 2 11 3 12 4 13 5 14 6 15 7 16 8 17 9 18 10 19 11
REMARK SMILES IDX 20 12 8 13 7 14 6 15 5 16 4 17 3 18 2 19 1 20
REMARK H PARENT
REMARK Flexibility Score: inf
ROOT
ATOM      1  C   UNL     1      17.456  24.160   3.352  1.00  0.00    -0.031 C 
ATOM      2  C   UNL     1      16.947  24.899   4.356  1.00  0.00    -0.031 C 
ENDROOT
BRANCH   1   3
ATOM      3  C   UNL     1      16.769  22.967   2.732  1.00  0.00     0.027 C 
BRANCH   3   4
ATOM      4  C   UNL     1      15.968  23.354   1.479  1.00  0.00     0.004 C 
BRANCH   4   5
ATOM      5  C   UNL     1      16.220  24.812   1.059  1.00  0.00     0.000 C 
BRANCH   5   6
ATOM      6  C   UNL     1      15.711  25.124  -0.360  1.00  0.00     0.000 C 
BRANCH   6   7
ATOM      7  C   UNL     1      15.604  23.909  -1.298  1.00  0.00     0.000 C 
BRANCH   7   8
ATOM      8  C   UNL     1      16.886  23.668  -2.115  1.00  0.00     0.006 C 
BRANCH   8   9
ATOM      9  C   UNL     1      17.551  24.981  -2.546  1.00  0.00     0.053 C 
BRANCH   9  10
ATOM     10  C   UNL     1      17.808  25.017  -4.022  1.00  0.00     0.041 C 
ATOM     11  O   UNL     1      18.987  25.000  -4.461  1.00  0.00    -0.550 OA
ATOM     12  O   UNL     1      16.744  25.098  -4.911  1.00  0.00    -0.550 OA
ENDBRANCH   9  10
ENDBRANCH   8   9
ENDBRANCH   7   8
ENDBRANCH   6   7
ENDBRANCH   5   6
ENDBRANCH   4   5
ENDBRANCH   3   4
ENDBRANCH   1   3
BRANCH   2  13
ATOM     13  C   UNL     1      15.575  24.706   4.951  1.00  0.00     0.027 C 
BRANCH  13  14
ATOM     14  C   UNL     1      15.678  24.310   6.427  1.00  0.00     0.004 C 
BRANCH  14  15
ATOM     15  C   UNL     1      16.279  22.906   6.579  1.00  0.00     0.000 C 
BRANCH  15  16
ATOM     16  C   UNL     1      15.465  22.063   7.568  1.00  0.00     0.000 C 
BRANCH  16  17
ATOM     17  C   UNL     1      16.389  21.326   8.550  1.00  0.00    -0.000 C 
BRANCH  17  18
ATOM     18  C   UNL     1      17.652  22.132   8.893  1.00  0.00    -0.000 C 
BRANCH  18  19
ATOM     19  C   UNL     1      17.388  23.228   9.936  1.00  0.00    -0.003 C 
ATOM     20  C   UNL     1      18.255  24.456   9.673  1.00  0.00     0.004 C 
ENDBRANCH  18  19
ENDBRANCH  17  18
ENDBRANCH  16  17
ENDBRANCH  15  16
ENDBRANCH  14  15
ENDBRANCH  13  14
ENDBRANCH   2  13
TORSDOF 15
ENDMDL
MODEL 8
REMARK VINA RESULT:    -3.107      1.831      3.632
REMARK INTER + INTRA:          -7.034
REMARK INTER:                  -5.367
REMARK INTRA:                  -1.666
REMARK UNBOUND:                -1.203
REMARK SMILES CCCCCCCCC=CCCCCCCCC(=O)[O-]
REMARK SMILES IDX 10 1 9 2 11 3 12 4 13 5 14 6 15 7 16 8 17 9 18 10 19 11
REMARK SMILES IDX 20 12 8 13 7 14 6 15 5 16 4 17 3 18 2 19 1 20
REMARK H PARENT
REMARK Flexibility Score: inf
ROOT
ATOM      1  C   UNL     1      15.414  24.023   6.165  1.00  0.00    -0.031 C 
ATOM      2  C   UNL     1      14.886  23.692   7.358  1.00  0.00    -0.031 C 
ENDROOT
BRANCH   1   3
ATOM      3  C   UNL     1      16.423  25.125   5.950  1.00  0.00     0.027 C 
BRANCH   3   4
ATOM      4  C   UNL     1      17.804  24.571   5.565  1.00  0.00     0.004 C 
BRANCH   4   5
ATOM      5  C   UNL     1      17.843  24.073   4.111  1.00  0.00     0.000 C 
BRANCH   5   6
ATOM      6  C   UNL     1      17.349  22.623   3.960  1.00  0.00     0.000 C 
BRANCH   6   7
ATOM      7  C   UNL     1      16.599  22.320   2.650  1.00  0.00     0.000 C 
BRANCH   7   8
ATOM      8  C   UNL     1      15.618  23.435   2.250  1.00  0.00     0.006 C 
BRANCH   8   9
ATOM      9  C   UNL     1      16.106  24.225   1.029  1.00  0.00     0.053 C 
BRANCH   9  10
ATOM     10  C   UNL     1      15.943  23.444  -0.240  1.00  0.00     0.041 C 
ATOM     11  O   UNL     1      16.722  23.639  -1.210  1.00  0.00    -0.550 OA
ATOM     12  O   UNL     1      14.911  22.522  -0.361  1.00  0.00    -0.550 OA
ENDBRANCH   9  10
ENDBRANCH   8   9
ENDBRANCH   7   8
ENDBRANCH   6   7
ENDBRANCH   5   6
ENDBRANCH   4   5
ENDBRANCH   3   4
ENDBRANCH   1   3
BRANCH   2  13
ATOM     13  C   UNL     1      15.291  24.307   8.674  1.00  0.00     0.027 C 
BRANCH  13  14
ATOM     14  C   UNL     1      15.980  23.270   9.566  1.00  0.00     0.004 C 
BRANCH  14  15
ATOM     15  C   UNL     1      17.354  22.886   9.001  1.00  0.00     0.000 C 
BRANCH  15  16
ATOM     16  C   UNL     1      17.533  21.363   8.976  1.00  0.00     0.000 C 
BRANCH  16  17
ATOM     17  C   UNL     1      16.218  20.662   8.605  1.00  0.00    -0.000 C 
BRANCH  17  18
ATOM     18  C   UNL     1      16.049  20.486   7.087  1.00  0.00    -0.000 C 
BRANCH  18  19
ATOM     19  C   UNL     1      16.023  19.010   6.663  1.00  0.00    -0.003 C 
ATOM     20  C   UNL     1      16.246  18.867   5.160  1.00  0.00     0.004 C 
ENDBRANCH  18  19
ENDBRANCH  17  18
ENDBRANCH  16  17
ENDBRANCH  15  16
ENDBRANCH  14  15
ENDBRANCH  13  14
ENDBRANCH   2  13
TORSDOF 15
ENDMDL
