MODEL 1
REMARK VINA RESULT:    -6.229      0.000      0.000
REMARK INTER + INTRA:          -8.471
REMARK INTER:                  -7.868
REMARK INTRA:                  -0.603
REMARK UNBOUND:                -0.603
REMARK SMILES Oc1cc(O)cc(CCc2ccccc2O)c1
REMARK SMILES IDX 9 1 10 2 12 3 13 4 11 5 14 6 15 7 16 8 8 10 7 11 6 12 17 13
REMARK SMILES IDX 4 14 2 15 3 16 5 17 1 19
REMARK H PARENT 16 9 5 18 1 20
REMARK Flexibility Score: inf
ROOT
ATOM      1  C   UNL     1      -5.657  -5.918   2.381  1.00  0.00     0.044 C 
ENDROOT
BRANCH   1   2
ATOM      2  C   UNL     1      -4.292  -6.339   2.864  1.00  0.00    -0.006 A 
ATOM      3  C   UNL     1      -1.896  -5.944   2.968  1.00  0.00     0.001 A 
ATOM      4  C   UNL     1      -1.743  -7.052   3.804  1.00  0.00     0.004 A 
ATOM      5  C   UNL     1      -3.163  -5.584   2.504  1.00  0.00     0.007 A 
ATOM      6  C   UNL     1      -2.860  -7.801   4.181  1.00  0.00     0.046 A 
ATOM      7  C   UNL     1      -4.138  -7.449   3.721  1.00  0.00     0.118 A 
BRANCH   7   8
ATOM      8  O   UNL     1      -5.250  -8.193   4.114  1.00  0.00    -0.508 OA
ATOM      9  H   UNL     1      -6.111  -8.184   3.581  1.00  0.00     0.293 HD
ENDBRANCH   7   8
ENDBRANCH   1   2
BRANCH   1  10
ATOM     10  C   UNL     1      -6.410  -5.166   3.481  1.00  0.00     0.040 C 
BRANCH  10  11
ATOM     11  C   UNL     1      -5.958  -3.732   3.547  1.00  0.00    -0.040 A 
ATOM     12  C   UNL     1      -5.273  -3.255   4.677  1.00  0.00     0.050 A 
ATOM     13  C   UNL     1      -6.164  -2.875   2.453  1.00  0.00     0.050 A 
ATOM     14  C   UNL     1      -4.822  -1.929   4.724  1.00  0.00     0.119 A 
ATOM     15  C   UNL     1      -5.715  -1.551   2.498  1.00  0.00     0.119 A 
ATOM     16  C   UNL     1      -5.047  -1.079   3.635  1.00  0.00     0.092 A 
BRANCH  14  17
ATOM     17  O   UNL     1      -4.150  -1.447   5.844  1.00  0.00    -0.508 OA
ATOM     18  H   UNL     1      -4.566  -1.483   6.768  1.00  0.00     0.293 HD
ENDBRANCH  14  17
BRANCH  15  19
ATOM     19  O   UNL     1      -5.936  -0.714   1.406  1.00  0.00    -0.508 OA
ATOM     20  H   UNL     1      -6.858  -0.606   0.998  1.00  0.00     0.293 HD
ENDBRANCH  15  19
ENDBRANCH  10  11
ENDBRANCH   1  10
TORSDOF 6
ENDMDL
MODEL 2
REMARK VINA RESULT:    -6.184      0.174      2.040
REMARK INTER + INTRA:          -8.414
REMARK INTER:                  -7.818
REMARK INTRA:                  -0.596
REMARK UNBOUND:                -0.603
REMARK SMILES Oc1cc(O)cc(CCc2ccccc2O)c1
REMARK SMILES IDX 9 1 10 2 12 3 13 4 11 5 14 6 15 7 16 8 8 10 7 11 6 12 17 13
REMARK SMILES IDX 4 14 2 15 3 16 5 17 1 19
REMARK H PARENT 16 9 5 18 1 20
REMARK Flexibility Score: inf
ROOT
ATOM      1  C   UNL     1      -5.647  -5.922   2.441  1.00  0.00     0.044 C 
ENDROOT
BRANCH   1   2
ATOM      2  C   UNL     1      -4.279  -6.359   2.900  1.00  0.00    -0.006 A 
ATOM      3  C   UNL     1      -1.877  -5.990   2.962  1.00  0.00     0.001 A 
ATOM      4  C   UNL     1      -1.722  -7.102   3.793  1.00  0.00     0.004 A 
ATOM      5  C   UNL     1      -3.148  -5.616   2.520  1.00  0.00     0.007 A 
ATOM      6  C   UNL     1      -2.840  -7.840   4.188  1.00  0.00     0.046 A 
ATOM      7  C   UNL     1      -4.122  -7.472   3.751  1.00  0.00     0.118 A 
BRANCH   7   8
ATOM      8  O   UNL     1      -5.235  -8.205   4.162  1.00  0.00    -0.508 OA
ATOM      9  H   UNL     1      -5.737  -8.811   3.525  1.00  0.00     0.293 HD
ENDBRANCH   7   8
ENDBRANCH   1   2
BRANCH   1  10
ATOM     10  C   UNL     1      -6.340  -5.094   3.527  1.00  0.00     0.040 C 
BRANCH  10  11
ATOM     11  C   UNL     1      -5.892  -3.659   3.465  1.00  0.00    -0.040 A 
ATOM     12  C   UNL     1      -6.205  -2.865   2.350  1.00  0.00     0.050 A 
ATOM     13  C   UNL     1      -5.208  -3.086   4.550  1.00  0.00     0.050 A 
ATOM     14  C   UNL     1      -5.816  -1.519   2.308  1.00  0.00     0.119 A 
ATOM     15  C   UNL     1      -4.820  -1.742   4.511  1.00  0.00     0.119 A 
ATOM     16  C   UNL     1      -5.122  -0.962   3.388  1.00  0.00     0.092 A 
BRANCH  14  17
ATOM     17  O   UNL     1      -6.116  -0.728   1.202  1.00  0.00    -0.508 OA
ATOM     18  H   UNL     1      -5.621   0.138   1.020  1.00  0.00     0.293 HD
ENDBRANCH  14  17
BRANCH  15  19
ATOM     19  O   UNL     1      -4.136  -1.193   5.593  1.00  0.00    -0.508 OA
ATOM     20  H   UNL     1      -4.620  -0.674   6.318  1.00  0.00     0.293 HD
ENDBRANCH  15  19
ENDBRANCH  10  11
ENDBRANCH   1  10
TORSDOF 6
ENDMDL
MODEL 3
REMARK VINA RESULT:    -6.116     10.312     12.613
REMARK INTER + INTRA:          -8.328
REMARK INTER:                  -7.723
REMARK INTRA:                  -0.605
REMARK UNBOUND:                -0.603
REMARK SMILES Oc1cc(O)cc(CCc2ccccc2O)c1
REMARK SMILES IDX 9 1 10 2 12 3 13 4 11 5 14 6 15 7 16 8 8 10 7 11 6 12 17 13
REMARK SMILES IDX 4 14 2 15 3 16 5 17 1 19
REMARK H PARENT 16 9 5 18 1 20
REMARK Flexibility Score: inf
ROOT
ATOM      1  C   UNL     1      -4.862  -2.893  16.513  1.00  0.00     0.044 C 
ENDROOT
BRANCH   1   2
ATOM      2  C   UNL     1      -4.464  -1.515  16.047  1.00  0.00    -0.006 A 
ATOM      3  C   UNL     1      -2.810  -0.042  15.046  1.00  0.00     0.001 A 
ATOM      4  C   UNL     1      -3.712   1.022  15.104  1.00  0.00     0.004 A 
ATOM      5  C   UNL     1      -3.183  -1.306  15.510  1.00  0.00     0.007 A 
ATOM      6  C   UNL     1      -4.994   0.822  15.623  1.00  0.00     0.046 A 
ATOM      7  C   UNL     1      -5.380  -0.443  16.091  1.00  0.00     0.118 A 
BRANCH   7   8
ATOM      8  O   UNL     1      -6.666  -0.637  16.594  1.00  0.00    -0.508 OA
ATOM      9  H   UNL     1      -7.489  -0.429  16.042  1.00  0.00     0.293 HD
ENDBRANCH   7   8
ENDBRANCH   1   2
BRANCH   1  10
ATOM     10  C   UNL     1      -4.005  -3.961  15.829  1.00  0.00     0.040 C 
BRANCH  10  11
ATOM     11  C   UNL     1      -4.777  -4.631  14.724  1.00  0.00    -0.040 A 
ATOM     12  C   UNL     1      -4.188  -4.822  13.463  1.00  0.00     0.050 A 
ATOM     13  C   UNL     1      -6.070  -5.124  14.963  1.00  0.00     0.050 A 
ATOM     14  C   UNL     1      -4.894  -5.476  12.444  1.00  0.00     0.119 A 
ATOM     15  C   UNL     1      -6.776  -5.778  13.948  1.00  0.00     0.119 A 
ATOM     16  C   UNL     1      -6.188  -5.950  12.689  1.00  0.00     0.092 A 
BRANCH  14  17
ATOM     17  O   UNL     1      -4.320  -5.662  11.189  1.00  0.00    -0.508 OA
ATOM     18  H   UNL     1      -3.644  -5.006  10.813  1.00  0.00     0.293 HD
ENDBRANCH  14  17
BRANCH  15  19
ATOM     19  O   UNL     1      -8.061  -6.254  14.202  1.00  0.00    -0.508 OA
ATOM     20  H   UNL     1      -8.604  -6.722  13.485  1.00  0.00     0.293 HD
ENDBRANCH  15  19
ENDBRANCH  10  11
ENDBRANCH   1  10
TORSDOF 6
ENDMDL
MODEL 4
REMARK VINA RESULT:    -6.071     10.347     12.604
REMARK INTER + INTRA:          -8.272
REMARK INTER:                  -7.685
REMARK INTRA:                  -0.587
REMARK UNBOUND:                -0.603
REMARK SMILES Oc1cc(O)cc(CCc2ccccc2O)c1
REMARK SMILES IDX 9 1 10 2 12 3 13 4 11 5 14 6 15 7 16 8 8 10 7 11 6 12 17 13
REMARK SMILES IDX 4 14 2 15 3 16 5 17 1 19
REMARK H PARENT 16 9 5 18 1 20
REMARK Flexibility Score: inf
ROOT
ATOM      1  C   UNL     1      -4.863  -2.862  16.433  1.00  0.00     0.044 C 
ENDROOT
BRANCH   1   2
ATOM      2  C   UNL     1      -4.422  -1.490  15.989  1.00  0.00    -0.006 A 
ATOM      3  C   UNL     1      -2.726  -0.055  15.001  1.00  0.00     0.001 A 
ATOM      4  C   UNL     1      -3.591   1.037  15.087  1.00  0.00     0.004 A 
ATOM      5  C   UNL     1      -3.138  -1.314  15.445  1.00  0.00     0.007 A 
ATOM      6  C   UNL     1      -4.875   0.871  15.613  1.00  0.00     0.046 A 
ATOM      7  C   UNL     1      -5.300  -0.389  16.061  1.00  0.00     0.118 A 
BRANCH   7   8
ATOM      8  O   UNL     1      -6.588  -0.549  16.571  1.00  0.00    -0.508 OA
ATOM      9  H   UNL     1      -6.769  -1.121  17.386  1.00  0.00     0.293 HD
ENDBRANCH   7   8
ENDBRANCH   1   2
BRANCH   1  10
ATOM     10  C   UNL     1      -3.967  -3.941  15.818  1.00  0.00     0.040 C 
BRANCH  10  11
ATOM     11  C   UNL     1      -4.722  -4.729  14.781  1.00  0.00    -0.040 A 
ATOM     12  C   UNL     1      -6.044  -5.135  15.023  1.00  0.00     0.050 A 
ATOM     13  C   UNL     1      -4.129  -5.013  13.540  1.00  0.00     0.050 A 
ATOM     14  C   UNL     1      -6.758  -5.839  14.044  1.00  0.00     0.119 A 
ATOM     15  C   UNL     1      -4.840  -5.715  12.561  1.00  0.00     0.119 A 
ATOM     16  C   UNL     1      -6.153  -6.130  12.816  1.00  0.00     0.092 A 
BRANCH  14  17
ATOM     17  O   UNL     1      -8.067  -6.252  14.279  1.00  0.00    -0.508 OA
ATOM     18  H   UNL     1      -8.322  -6.751  15.125  1.00  0.00     0.293 HD
ENDBRANCH  14  17
BRANCH  15  19
ATOM     19  O   UNL     1      -4.232  -5.994  11.339  1.00  0.00    -0.508 OA
ATOM     20  H   UNL     1      -3.868  -6.916  11.125  1.00  0.00     0.293 HD
ENDBRANCH  15  19
ENDBRANCH  10  11
ENDBRANCH   1  10
TORSDOF 6
ENDMDL
MODEL 5
REMARK VINA RESULT:    -6.002     10.307     11.704
REMARK INTER + INTRA:          -8.184
REMARK INTER:                  -7.618
REMARK INTRA:                  -0.565
REMARK UNBOUND:                -0.603
REMARK SMILES Oc1cc(O)cc(CCc2ccccc2O)c1
REMARK SMILES IDX 9 1 10 2 12 3 13 4 11 5 14 6 15 7 16 8 8 10 7 11 6 12 17 13
REMARK SMILES IDX 4 14 2 15 3 16 5 17 1 19
REMARK H PARENT 16 9 5 18 1 20
REMARK Flexibility Score: inf
ROOT
ATOM      1  C   UNL     1      -5.455  -4.551  15.640  1.00  0.00     0.044 C 
ENDROOT
BRANCH   1   2
ATOM      2  C   UNL     1      -5.319  -5.201  14.286  1.00  0.00    -0.006 A 
ATOM      3  C   UNL     1      -3.941  -5.761  12.364  1.00  0.00     0.001 A 
ATOM      4  C   UNL     1      -5.008  -6.459  11.794  1.00  0.00     0.004 A 
ATOM      5  C   UNL     1      -4.092  -5.139  13.605  1.00  0.00     0.007 A 
ATOM      6  C   UNL     1      -6.229  -6.539  12.469  1.00  0.00     0.046 A 
ATOM      7  C   UNL     1      -6.391  -5.918  13.717  1.00  0.00     0.118 A 
BRANCH   7   8
ATOM      8  O   UNL     1      -7.609  -6.016  14.390  1.00  0.00    -0.508 OA
ATOM      9  H   UNL     1      -7.724  -6.622  15.193  1.00  0.00     0.293 HD
ENDBRANCH   7   8
ENDBRANCH   1   2
BRANCH   1  10
ATOM     10  C   UNL     1      -4.091  -4.077  16.150  1.00  0.00     0.040 C 
BRANCH  10  11
ATOM     11  C   UNL     1      -3.964  -2.584  16.012  1.00  0.00    -0.040 A 
ATOM     12  C   UNL     1      -2.759  -2.012  15.573  1.00  0.00     0.050 A 
ATOM     13  C   UNL     1      -5.070  -1.755  16.265  1.00  0.00     0.050 A 
ATOM     14  C   UNL     1      -2.652  -0.623  15.413  1.00  0.00     0.119 A 
ATOM     15  C   UNL     1      -4.965  -0.369  16.106  1.00  0.00     0.119 A 
ATOM     16  C   UNL     1      -3.754   0.195  15.682  1.00  0.00     0.092 A 
BRANCH  14  17
ATOM     17  O   UNL     1      -1.458  -0.048  14.985  1.00  0.00    -0.508 OA
ATOM     18  H   UNL     1      -1.336   0.958  14.952  1.00  0.00     0.293 HD
ENDBRANCH  14  17
BRANCH  15  19
ATOM     19  O   UNL     1      -6.070   0.438  16.369  1.00  0.00    -0.508 OA
ATOM     20  H   UNL     1      -6.676   0.265  17.162  1.00  0.00     0.293 HD
ENDBRANCH  15  19
ENDBRANCH  10  11
ENDBRANCH   1  10
TORSDOF 6
ENDMDL
MODEL 6
REMARK VINA RESULT:    -5.998     10.670     12.296
REMARK INTER + INTRA:          -8.179
REMARK INTER:                  -7.493
REMARK INTRA:                  -0.686
REMARK UNBOUND:                -0.603
REMARK SMILES Oc1cc(O)cc(CCc2ccccc2O)c1
REMARK SMILES IDX 9 1 10 2 12 3 13 4 11 5 14 6 15 7 16 8 8 10 7 11 6 12 17 13
REMARK SMILES IDX 4 14 2 15 3 16 5 17 1 19
REMARK H PARENT 16 9 5 18 1 20
REMARK Flexibility Score: inf
ROOT
ATOM      1  C   UNL     1      -4.424  -4.557  16.162  1.00  0.00     0.044 C 
ENDROOT
BRANCH   1   2
ATOM      2  C   UNL     1      -4.974  -4.803  14.780  1.00  0.00    -0.006 A 
ATOM      3  C   UNL     1      -6.791  -5.569  13.358  1.00  0.00     0.001 A 
ATOM      4  C   UNL     1      -6.062  -5.210  12.223  1.00  0.00     0.004 A 
ATOM      5  C   UNL     1      -6.255  -5.363  14.631  1.00  0.00     0.007 A 
ATOM      6  C   UNL     1      -4.795  -4.638  12.359  1.00  0.00     0.046 A 
ATOM      7  C   UNL     1      -4.246  -4.426  13.633  1.00  0.00     0.118 A 
BRANCH   7   8
ATOM      8  O   UNL     1      -2.987  -3.841  13.760  1.00  0.00    -0.508 OA
ATOM      9  H   UNL     1      -2.876  -2.846  13.908  1.00  0.00     0.293 HD
ENDBRANCH   7   8
ENDBRANCH   1   2
BRANCH   1  10
ATOM     10  C   UNL     1      -5.248  -3.491  16.889  1.00  0.00     0.040 C 
BRANCH  10  11
ATOM     11  C   UNL     1      -4.642  -2.127  16.693  1.00  0.00    -0.040 A 
ATOM     12  C   UNL     1      -3.274  -1.918  16.932  1.00  0.00     0.050 A 
ATOM     13  C   UNL     1      -5.428  -1.067  16.212  1.00  0.00     0.050 A 
ATOM     14  C   UNL     1      -2.703  -0.656  16.717  1.00  0.00     0.119 A 
ATOM     15  C   UNL     1      -4.860   0.193  15.996  1.00  0.00     0.119 A 
ATOM     16  C   UNL     1      -3.498   0.397  16.252  1.00  0.00     0.092 A 
BRANCH  14  17
ATOM     17  O   UNL     1      -1.349  -0.439  16.959  1.00  0.00    -0.508 OA
ATOM     18  H   UNL     1      -0.970  -0.457  17.899  1.00  0.00     0.293 HD
ENDBRANCH  14  17
BRANCH  15  19
ATOM     19  O   UNL     1      -5.657   1.234  15.525  1.00  0.00    -0.508 OA
ATOM     20  H   UNL     1      -6.542   1.465  15.964  1.00  0.00     0.293 HD
ENDBRANCH  15  19
ENDBRANCH  10  11
ENDBRANCH   1  10
TORSDOF 6
ENDMDL
MODEL 7
REMARK VINA RESULT:    -5.943     10.705     12.450
REMARK INTER + INTRA:          -8.109
REMARK INTER:                  -7.402
REMARK INTRA:                  -0.707
REMARK UNBOUND:                -0.603
REMARK SMILES Oc1cc(O)cc(CCc2ccccc2O)c1
REMARK SMILES IDX 9 1 10 2 12 3 13 4 11 5 14 6 15 7 16 8 8 10 7 11 6 12 17 13
REMARK SMILES IDX 4 14 2 15 3 16 5 17 1 19
REMARK H PARENT 16 9 5 18 1 20
REMARK Flexibility Score: inf
ROOT
ATOM      1  C   UNL     1      -4.394  -4.502  16.238  1.00  0.00     0.044 C 
ENDROOT
BRANCH   1   2
ATOM      2  C   UNL     1      -4.890  -4.728  14.832  1.00  0.00    -0.006 A 
ATOM      3  C   UNL     1      -6.635  -5.510  13.331  1.00  0.00     0.001 A 
ATOM      4  C   UNL     1      -5.879  -5.101  12.230  1.00  0.00     0.004 A 
ATOM      5  C   UNL     1      -6.148  -5.321  14.626  1.00  0.00     0.007 A 
ATOM      6  C   UNL     1      -4.634  -4.498  12.424  1.00  0.00     0.046 A 
ATOM      7  C   UNL     1      -4.136  -4.302  13.720  1.00  0.00     0.118 A 
BRANCH   7   8
ATOM      8  O   UNL     1      -2.898  -3.685  13.905  1.00  0.00    -0.508 OA
ATOM      9  H   UNL     1      -2.820  -2.771  14.334  1.00  0.00     0.293 HD
ENDBRANCH   7   8
ENDBRANCH   1   2
BRANCH   1  10
ATOM     10  C   UNL     1      -5.217  -3.413  16.932  1.00  0.00     0.040 C 
BRANCH  10  11
ATOM     11  C   UNL     1      -4.619  -2.055  16.680  1.00  0.00    -0.040 A 
ATOM     12  C   UNL     1      -5.418  -1.007  16.195  1.00  0.00     0.050 A 
ATOM     13  C   UNL     1      -3.270  -1.810  16.986  1.00  0.00     0.050 A 
ATOM     14  C   UNL     1      -4.868   0.266  15.992  1.00  0.00     0.119 A 
ATOM     15  C   UNL     1      -2.720  -0.539  16.785  1.00  0.00     0.119 A 
ATOM     16  C   UNL     1      -3.520   0.496  16.286  1.00  0.00     0.092 A 
BRANCH  14  17
ATOM     17  O   UNL     1      -5.652   1.308  15.504  1.00  0.00    -0.508 OA
ATOM     18  H   UNL     1      -6.123   1.242  14.608  1.00  0.00     0.293 HD
ENDBRANCH  14  17
BRANCH  15  19
ATOM     19  O   UNL     1      -1.378  -0.317  17.088  1.00  0.00    -0.508 OA
ATOM     20  H   UNL     1      -0.933  -0.758  17.885  1.00  0.00     0.293 HD
ENDBRANCH  15  19
ENDBRANCH  10  11
ENDBRANCH   1  10
TORSDOF 6
ENDMDL
MODEL 8
REMARK VINA RESULT:    -5.937     14.285     16.254
REMARK INTER + INTRA:          -8.102
REMARK INTER:                  -7.554
REMARK INTRA:                  -0.548
REMARK UNBOUND:                -0.603
REMARK SMILES Oc1cc(O)cc(CCc2ccccc2O)c1
REMARK SMILES IDX 9 1 10 2 12 3 13 4 11 5 14 6 15 7 16 8 8 10 7 11 6 12 17 13
REMARK SMILES IDX 4 14 2 15 3 16 5 17 1 19
REMARK H PARENT 16 9 5 18 1 20
REMARK Flexibility Score: inf
ROOT
ATOM      1  C   UNL     1       4.638   4.621  13.915  1.00  0.00     0.044 C 
ENDROOT
BRANCH   1   2
ATOM      2  C   UNL     1       4.148   5.152  12.591  1.00  0.00    -0.006 A 
ATOM      3  C   UNL     1       2.391   5.300  10.918  1.00  0.00     0.001 A 
ATOM      4  C   UNL     1       3.174   6.176  10.164  1.00  0.00     0.004 A 
ATOM      5  C   UNL     1       2.871   4.793  12.128  1.00  0.00     0.007 A 
ATOM      6  C   UNL     1       4.440   6.551  10.622  1.00  0.00     0.046 A 
ATOM      7  C   UNL     1       4.932   6.048  11.836  1.00  0.00     0.118 A 
BRANCH   7   8
ATOM      8  O   UNL     1       6.190   6.440  12.293  1.00  0.00    -0.508 OA
ATOM      9  H   UNL     1       6.893   5.761  12.557  1.00  0.00     0.293 HD
ENDBRANCH   7   8
ENDBRANCH   1   2
BRANCH   1  10
ATOM     10  C   UNL     1       3.458   4.296  14.835  1.00  0.00     0.040 C 
BRANCH  10  11
ATOM     11  C   UNL     1       3.300   2.807  14.987  1.00  0.00    -0.040 A 
ATOM     12  C   UNL     1       2.020   2.232  15.048  1.00  0.00     0.050 A 
ATOM     13  C   UNL     1       4.431   1.975  15.009  1.00  0.00     0.050 A 
ATOM     14  C   UNL     1       1.873   0.843  15.156  1.00  0.00     0.119 A 
ATOM     15  C   UNL     1       4.286   0.588  15.116  1.00  0.00     0.119 A 
ATOM     16  C   UNL     1       3.007   0.024  15.193  1.00  0.00     0.092 A 
BRANCH  14  17
ATOM     17  O   UNL     1       0.607   0.266  15.225  1.00  0.00    -0.508 OA
ATOM     18  H   UNL     1       0.101   0.201  16.101  1.00  0.00     0.293 HD
ENDBRANCH  14  17
BRANCH  15  19
ATOM     19  O   UNL     1       5.421  -0.221  15.144  1.00  0.00    -0.508 OA
ATOM     20  H   UNL     1       6.155  -0.129  14.451  1.00  0.00     0.293 HD
ENDBRANCH  15  19
ENDBRANCH  10  11
ENDBRANCH   1  10
TORSDOF 6
ENDMDL
MODEL 9
REMARK VINA RESULT:    -5.845      6.720      8.245
REMARK INTER + INTRA:          -7.986
REMARK INTER:                  -7.382
REMARK INTRA:                  -0.604
REMARK UNBOUND:                -0.603
REMARK SMILES Oc1cc(O)cc(CCc2ccccc2O)c1
REMARK SMILES IDX 9 1 10 2 12 3 13 4 11 5 14 6 15 7 16 8 8 10 7 11 6 12 17 13
REMARK SMILES IDX 4 14 2 15 3 16 5 17 1 19
REMARK H PARENT 16 9 5 18 1 20
REMARK Flexibility Score: inf
ROOT
ATOM      1  C   UNL     1       1.428  -6.369   7.615  1.00  0.00     0.044 C 
ENDROOT
BRANCH   1   2
ATOM      2  C   UNL     1       1.197  -6.386   9.106  1.00  0.00    -0.006 A 
ATOM      3  C   UNL     1      -0.310  -6.109  10.993  1.00  0.00     0.001 A 
ATOM      4  C   UNL     1       0.712  -6.475  11.871  1.00  0.00     0.004 A 
ATOM      5  C   UNL     1      -0.073  -6.068   9.617  1.00  0.00     0.007 A 
ATOM      6  C   UNL     1       1.975  -6.807  11.373  1.00  0.00     0.046 A 
ATOM      7  C   UNL     1       2.224  -6.770   9.992  1.00  0.00     0.118 A 
BRANCH   7   8
ATOM      8  O   UNL     1       3.483  -7.118   9.503  1.00  0.00    -0.508 OA
ATOM      9  H   UNL     1       4.328  -6.692   9.862  1.00  0.00     0.293 HD
ENDBRANCH   7   8
ENDBRANCH   1   2
BRANCH   1  10
ATOM     10  C   UNL     1       0.378  -5.500   6.918  1.00  0.00     0.040 C 
BRANCH  10  11
ATOM     11  C   UNL     1       0.815  -4.060   6.892  1.00  0.00    -0.040 A 
ATOM     12  C   UNL     1      -0.069  -3.043   7.288  1.00  0.00     0.050 A 
ATOM     13  C   UNL     1       2.130  -3.728   6.527  1.00  0.00     0.050 A 
ATOM     14  C   UNL     1       0.349  -1.706   7.295  1.00  0.00     0.119 A 
ATOM     15  C   UNL     1       2.549  -2.393   6.535  1.00  0.00     0.119 A 
ATOM     16  C   UNL     1       1.657  -1.383   6.916  1.00  0.00     0.092 A 
BRANCH  14  17
ATOM     17  O   UNL     1      -0.524  -0.691   7.680  1.00  0.00    -0.508 OA
ATOM     18  H   UNL     1      -0.360  -0.138   8.513  1.00  0.00     0.293 HD
ENDBRANCH  14  17
BRANCH  15  19
ATOM     19  O   UNL     1       3.856  -2.082   6.163  1.00  0.00    -0.508 OA
ATOM     20  H   UNL     1       4.636  -2.676   6.419  1.00  0.00     0.293 HD
ENDBRANCH  15  19
ENDBRANCH  10  11
ENDBRANCH   1  10
TORSDOF 6
ENDMDL
