MODEL 1
REMARK VINA RESULT:    -5.874      0.000      0.000
REMARK INTER + INTRA:          -6.406
REMARK INTER:                  -6.389
REMARK INTRA:                  -0.017
REMARK UNBOUND:                -0.017
REMARK SMILES C[C@H]1[C@H](C)CC[C@]2(C(=O)[O-])CC[C@]3(C)C(=CC[C@H]4[C@]5(C)CC[C@H](O)C(C)(C)[C@@H]5CC[C@@]43C)[C@H]12
REMARK SMILES IDX 7 1 6 2 11 3 33 4 5 5 12 6 15 7 2 8 3 9 13 10 16 11 1 12
REMARK SMILES IDX 4 13 14 14 31 15 17 16 18 17 30 18 32 19 19 20 29 21 28 22
REMARK SMILES IDX 21 23 20 24 25 25 22 26 23 27 26 28 27 29 8 30 9 31 10 32
REMARK SMILES IDX 24 33
REMARK H PARENT 24 34
REMARK Flexibility Score: inf
ROOT
ATOM      1  C   UNL     1       3.424  -3.190  26.419  1.00  0.00     0.017 C 
ATOM      2  C   UNL     1       2.348  -2.792  25.366  1.00  0.00     0.014 C 
ATOM      3  C   UNL     1       4.771  -2.498  26.009  1.00  0.00     0.014 C 
ATOM      4  C   UNL     1       3.530  -4.774  26.498  1.00  0.00     0.030 C 
ATOM      5  C   UNL     1       0.976  -3.425  25.622  1.00  0.00     0.004 C 
ATOM      6  C   UNL     1       5.980  -3.432  26.089  1.00  0.00     0.013 C 
ATOM      7  C   UNL     1       4.487  -5.371  25.432  1.00  0.00    -0.063 C 
ATOM      8  C   UNL     1       2.120  -5.471  26.663  1.00  0.00    -0.003 C 
ATOM      9  C   UNL     1       1.040  -4.961  25.663  1.00  0.00    -0.011 C 
ATOM     10  C   UNL     1       5.843  -4.684  25.163  1.00  0.00    -0.006 C 
ATOM     11  C   UNL     1       4.285  -6.580  24.840  1.00  0.00    -0.027 C 
ATOM     12  C   UNL     1       1.588  -5.381  28.110  1.00  0.00     0.008 C 
ATOM     13  C   UNL     1       1.194  -5.552  24.253  1.00  0.00     0.008 C 
ATOM     14  C   UNL     1       5.731  -4.137  23.693  1.00  0.00     0.017 C 
ATOM     15  C   UNL     1       7.104  -5.722  25.350  1.00  0.00    -0.020 C 
ATOM     16  C   UNL     1       5.446  -7.366  24.284  1.00  0.00     0.032 C 
ATOM     17  C   UNL     1       6.611  -7.221  25.287  1.00  0.00     0.006 C 
ATOM     18  C   UNL     1       7.774  -5.617  26.747  1.00  0.00     0.008 C 
ATOM     19  C   UNL     1       8.202  -5.368  24.298  1.00  0.00     0.012 C 
ATOM     20  C   UNL     1       7.715  -8.360  25.268  1.00  0.00    -0.025 C 
ATOM     21  C   UNL     1       8.748  -6.765  27.131  1.00  0.00     0.005 C 
ATOM     22  C   UNL     1       9.000  -7.946  26.126  1.00  0.00     0.003 C 
ATOM     23  C   UNL     1       7.080  -9.679  25.844  1.00  0.00     0.010 C 
ATOM     24  C   UNL     1       8.127  -8.653  23.794  1.00  0.00     0.012 C 
ATOM     25  C   UNL     1       9.728  -9.160  26.862  1.00  0.00    -0.006 C 
ATOM     26  C   UNL     1       7.253  -9.812  27.356  1.00  0.00     0.033 C 
ATOM     27  C   UNL     1       8.726  -9.979  27.768  1.00  0.00     0.120 C 
ATOM     28  C   UNL     1      10.374 -10.125  25.824  1.00  0.00     0.014 C 
ATOM     29  C   UNL     1      10.935  -8.641  27.704  1.00  0.00     0.014 C 
ENDROOT
BRANCH   1  30
ATOM     30  C   UNL     1       3.060  -2.616  27.788  1.00  0.00     0.048 C 
ATOM     31  O   UNL     1       3.727  -2.937  28.808  1.00  0.00    -0.550 OA
ATOM     32  O   UNL     1       2.080  -1.637  27.915  1.00  0.00    -0.550 OA
ENDBRANCH   1  30
BRANCH  27  33
ATOM     33  O   UNL     1       8.829  -9.617  29.125  1.00  0.00    -0.393 OA
ATOM     34  H   UNL     1       9.783  -9.708  29.385  1.00  0.00     0.210 HD
ENDBRANCH  27  33
TORSDOF 2
ENDMDL
MODEL 2
REMARK VINA RESULT:    -5.633      2.204      7.629
REMARK INTER + INTRA:          -6.145
REMARK INTER:                  -6.136
REMARK INTRA:                  -0.009
REMARK UNBOUND:                -0.017
REMARK SMILES C[C@H]1[C@H](C)CC[C@]2(C(=O)[O-])CC[C@]3(C)C(=CC[C@H]4[C@]5(C)CC[C@H](O)C(C)(C)[C@@H]5CC[C@@]43C)[C@H]12
REMARK SMILES IDX 7 1 6 2 11 3 33 4 5 5 12 6 15 7 2 8 3 9 13 10 16 11 1 12
REMARK SMILES IDX 4 13 14 14 31 15 17 16 18 17 30 18 32 19 19 20 29 21 28 22
REMARK SMILES IDX 21 23 20 24 25 25 22 26 23 27 26 28 27 29 8 30 9 31 10 32
REMARK SMILES IDX 24 33
REMARK H PARENT 24 34
REMARK Flexibility Score: inf
ROOT
ATOM      1  C   UNL     1       9.072  -7.184  26.173  1.00  0.00     0.017 C 
ATOM      2  C   UNL     1      10.005  -7.756  27.280  1.00  0.00     0.014 C 
ATOM      3  C   UNL     1       9.202  -5.620  26.199  1.00  0.00     0.014 C 
ATOM      4  C   UNL     1       7.586  -7.694  26.413  1.00  0.00     0.030 C 
ATOM      5  C   UNL     1       9.958  -9.283  27.393  1.00  0.00     0.004 C 
ATOM      6  C   UNL     1       7.856  -4.899  26.120  1.00  0.00     0.013 C 
ATOM      7  C   UNL     1       6.794  -6.805  27.408  1.00  0.00    -0.063 C 
ATOM      8  C   UNL     1       7.508  -9.258  26.633  1.00  0.00    -0.003 C 
ATOM      9  C   UNL     1       8.537  -9.805  27.667  1.00  0.00    -0.011 C 
ATOM     10  C   UNL     1       6.898  -5.269  27.299  1.00  0.00    -0.006 C 
ATOM     11  C   UNL     1       5.858  -7.296  28.267  1.00  0.00    -0.027 C 
ATOM     12  C   UNL     1       7.620 -10.043  25.308  1.00  0.00     0.008 C 
ATOM     13  C   UNL     1       8.120  -9.555  29.125  1.00  0.00     0.008 C 
ATOM     14  C   UNL     1       7.627  -4.822  28.618  1.00  0.00     0.017 C 
ATOM     15  C   UNL     1       5.422  -4.565  27.130  1.00  0.00    -0.020 C 
ATOM     16  C   UNL     1       4.747  -6.414  28.777  1.00  0.00     0.032 C 
ATOM     17  C   UNL     1       4.275  -5.549  27.588  1.00  0.00     0.006 C 
ATOM     18  C   UNL     1       5.065  -4.252  25.651  1.00  0.00     0.008 C 
ATOM     19  C   UNL     1       5.431  -3.200  27.887  1.00  0.00     0.012 C 
ATOM     20  C   UNL     1       2.798  -4.975  27.664  1.00  0.00    -0.025 C 
ATOM     21  C   UNL     1       3.581  -3.893  25.363  1.00  0.00     0.005 C 
ATOM     22  C   UNL     1       2.539  -3.869  26.539  1.00  0.00     0.003 C 
ATOM     23  C   UNL     1       1.789  -6.170  27.492  1.00  0.00     0.010 C 
ATOM     24  C   UNL     1       2.555  -4.367  29.079  1.00  0.00     0.012 C 
ATOM     25  C   UNL     1       1.051  -3.837  25.966  1.00  0.00    -0.006 C 
ATOM     26  C   UNL     1       1.404  -6.419  26.035  1.00  0.00     0.033 C 
ATOM     27  C   UNL     1       0.602  -5.254  25.431  1.00  0.00     0.120 C 
ATOM     28  C   UNL     1       0.048  -3.370  27.063  1.00  0.00     0.014 C 
ATOM     29  C   UNL     1       0.921  -2.758  24.846  1.00  0.00     0.014 C 
ENDROOT
BRANCH   1  30
ATOM     30  C   UNL     1       9.563  -7.620  24.792  1.00  0.00     0.048 C 
ATOM     31  O   UNL     1       8.822  -7.480  23.782  1.00  0.00    -0.550 OA
ATOM     32  O   UNL     1      10.872  -8.053  24.603  1.00  0.00    -0.550 OA
ENDBRANCH   1  30
BRANCH  27  33
ATOM     33  O   UNL     1       0.713  -5.345  24.030  1.00  0.00    -0.393 OA
ATOM     34  H   UNL     1      -0.056  -5.884  23.705  1.00  0.00     0.210 HD
ENDBRANCH  27  33
TORSDOF 2
ENDMDL
MODEL 3
REMARK VINA RESULT:    -5.217      1.512      7.605
REMARK INTER + INTRA:          -5.692
REMARK INTER:                  -5.673
REMARK INTRA:                  -0.019
REMARK UNBOUND:                -0.017
REMARK SMILES C[C@H]1[C@H](C)CC[C@]2(C(=O)[O-])CC[C@]3(C)C(=CC[C@H]4[C@]5(C)CC[C@H](O)C(C)(C)[C@@H]5CC[C@@]43C)[C@H]12
REMARK SMILES IDX 7 1 6 2 11 3 33 4 5 5 12 6 15 7 2 8 3 9 13 10 16 11 1 12
REMARK SMILES IDX 4 13 14 14 31 15 17 16 18 17 30 18 32 19 19 20 29 21 28 22
REMARK SMILES IDX 21 23 20 24 25 25 22 26 23 27 26 28 27 29 8 30 9 31 10 32
REMARK SMILES IDX 24 33
REMARK H PARENT 24 34
REMARK Flexibility Score: inf
ROOT
ATOM      1  C   UNL     1       8.233  -9.032  26.639  1.00  0.00     0.017 C 
ATOM      2  C   UNL     1       8.511 -10.112  25.553  1.00  0.00     0.014 C 
ATOM      3  C   UNL     1       7.068  -9.558  27.550  1.00  0.00     0.014 C 
ATOM      4  C   UNL     1       7.902  -7.644  25.937  1.00  0.00     0.030 C 
ATOM      5  C   UNL     1       9.612  -9.717  24.564  1.00  0.00     0.004 C 
ATOM      6  C   UNL     1       6.002  -8.502  27.842  1.00  0.00     0.013 C 
ATOM      7  C   UNL     1       6.406  -7.504  25.548  1.00  0.00    -0.063 C 
ATOM      8  C   UNL     1       8.966  -7.250  24.837  1.00  0.00    -0.003 C 
ATOM      9  C   UNL     1       9.301  -8.398  23.838  1.00  0.00    -0.011 C 
ATOM     10  C   UNL     1       5.319  -7.953  26.548  1.00  0.00    -0.006 C 
ATOM     11  C   UNL     1       5.981  -6.833  24.442  1.00  0.00    -0.027 C 
ATOM     12  C   UNL     1      10.266  -6.689  25.454  1.00  0.00     0.008 C 
ATOM     13  C   UNL     1       8.223  -8.593  22.759  1.00  0.00     0.008 C 
ATOM     14  C   UNL     1       4.625  -9.185  25.858  1.00  0.00     0.017 C 
ATOM     15  C   UNL     1       4.257  -6.744  26.883  1.00  0.00    -0.020 C 
ATOM     16  C   UNL     1       4.598  -6.234  24.392  1.00  0.00     0.032 C 
ATOM     17  C   UNL     1       4.322  -5.616  25.780  1.00  0.00     0.006 C 
ATOM     18  C   UNL     1       4.596  -5.988  28.198  1.00  0.00     0.008 C 
ATOM     19  C   UNL     1       2.838  -7.365  27.077  1.00  0.00     0.012 C 
ATOM     20  C   UNL     1       3.241  -4.458  25.844  1.00  0.00    -0.025 C 
ATOM     21  C   UNL     1       3.855  -4.641  28.426  1.00  0.00     0.005 C 
ATOM     22  C   UNL     1       2.835  -4.117  27.352  1.00  0.00     0.003 C 
ATOM     23  C   UNL     1       3.833  -3.182  25.140  1.00  0.00     0.010 C 
ATOM     24  C   UNL     1       1.979  -4.887  25.034  1.00  0.00     0.012 C 
ATOM     25  C   UNL     1       2.484  -2.583  27.617  1.00  0.00    -0.006 C 
ATOM     26  C   UNL     1       4.583  -2.265  26.104  1.00  0.00     0.033 C 
ATOM     27  C   UNL     1       3.655  -1.629  27.153  1.00  0.00     0.120 C 
ATOM     28  C   UNL     1       1.178  -2.181  26.870  1.00  0.00     0.014 C 
ATOM     29  C   UNL     1       2.149  -2.353  29.123  1.00  0.00     0.014 C 
ENDROOT
BRANCH   1  30
ATOM     30  C   UNL     1       9.445  -8.883  27.557  1.00  0.00     0.048 C 
ATOM     31  O   UNL     1       9.483  -7.958  28.413  1.00  0.00    -0.550 OA
ATOM     32  O   UNL     1      10.462  -9.832  27.558  1.00  0.00    -0.550 OA
ENDBRANCH   1  30
BRANCH  27  33
ATOM     33  O   UNL     1       4.457  -1.218  28.235  1.00  0.00    -0.393 OA
ATOM     34  H   UNL     1       5.404  -1.284  27.944  1.00  0.00     0.210 HD
ENDBRANCH  27  33
TORSDOF 2
ENDMDL
MODEL 4
REMARK VINA RESULT:    -4.697      1.001      1.094
REMARK INTER + INTRA:          -5.126
REMARK INTER:                  -5.106
REMARK INTRA:                  -0.020
REMARK UNBOUND:                -0.017
REMARK SMILES C[C@H]1[C@H](C)CC[C@]2(C(=O)[O-])CC[C@]3(C)C(=CC[C@H]4[C@]5(C)CC[C@H](O)C(C)(C)[C@@H]5CC[C@@]43C)[C@H]12
REMARK SMILES IDX 7 1 6 2 11 3 33 4 5 5 12 6 15 7 2 8 3 9 13 10 16 11 1 12
REMARK SMILES IDX 4 13 14 14 31 15 17 16 18 17 30 18 32 19 19 20 29 21 28 22
REMARK SMILES IDX 21 23 20 24 25 25 22 26 23 27 26 28 27 29 8 30 9 31 10 32
REMARK SMILES IDX 24 33
REMARK H PARENT 24 34
REMARK Flexibility Score: inf
ROOT
ATOM      1  C   UNL     1       2.530  -4.123  26.358  1.00  0.00     0.017 C 
ATOM      2  C   UNL     1       1.655  -3.663  25.155  1.00  0.00     0.014 C 
ATOM      3  C   UNL     1       3.760  -3.153  26.453  1.00  0.00     0.014 C 
ATOM      4  C   UNL     1       2.945  -5.645  26.163  1.00  0.00     0.030 C 
ATOM      5  C   UNL     1       0.425  -4.544  24.920  1.00  0.00     0.004 C 
ATOM      6  C   UNL     1       5.089  -3.878  26.668  1.00  0.00     0.013 C 
ATOM      7  C   UNL     1       4.218  -5.819  25.292  1.00  0.00    -0.063 C 
ATOM      8  C   UNL     1       1.711  -6.572  25.820  1.00  0.00    -0.003 C 
ATOM      9  C   UNL     1       0.798  -6.018  24.687  1.00  0.00    -0.011 C 
ATOM     10  C   UNL     1       5.425  -4.885  25.521  1.00  0.00    -0.006 C 
ATOM     11  C   UNL     1       4.409  -6.873  24.451  1.00  0.00    -0.027 C 
ATOM     12  C   UNL     1       0.866  -6.907  27.068  1.00  0.00     0.008 C 
ATOM     13  C   UNL     1       1.380  -6.233  23.281  1.00  0.00     0.008 C 
ATOM     14  C   UNL     1       5.529  -4.034  24.202  1.00  0.00     0.017 C 
ATOM     15  C   UNL     1       6.802  -5.728  25.832  1.00  0.00    -0.020 C 
ATOM     16  C   UNL     1       5.802  -7.316  24.081  1.00  0.00     0.032 C 
ATOM     17  C   UNL     1       6.660  -7.229  25.362  1.00  0.00     0.006 C 
ATOM     18  C   UNL     1       7.109  -5.849  27.350  1.00  0.00     0.008 C 
ATOM     19  C   UNL     1       8.006  -4.971  25.190  1.00  0.00     0.012 C 
ATOM     20  C   UNL     1       7.953  -8.145  25.419  1.00  0.00    -0.025 C 
ATOM     21  C   UNL     1       8.191  -6.888  27.752  1.00  0.00     0.005 C 
ATOM     22  C   UNL     1       8.901  -7.748  26.644  1.00  0.00     0.003 C 
ATOM     23  C   UNL     1       7.497  -9.645  25.550  1.00  0.00     0.010 C 
ATOM     24  C   UNL     1       8.734  -8.017  24.075  1.00  0.00     0.012 C 
ATOM     25  C   UNL     1       9.685  -8.971  27.303  1.00  0.00    -0.006 C 
ATOM     26  C   UNL     1       7.354 -10.099  27.002  1.00  0.00     0.033 C 
ATOM     27  C   UNL     1       8.701 -10.125  27.745  1.00  0.00     0.120 C 
ATOM     28  C   UNL     1      10.732  -9.553  26.308  1.00  0.00     0.014 C 
ATOM     29  C   UNL     1      10.539  -8.481  28.513  1.00  0.00     0.014 C 
ENDROOT
BRANCH   1  30
ATOM     30  C   UNL     1       1.761  -3.949  27.667  1.00  0.00     0.048 C 
ATOM     31  O   UNL     1       2.238  -4.390  28.747  1.00  0.00    -0.550 OA
ATOM     32  O   UNL     1       0.593  -3.193  27.715  1.00  0.00    -0.550 OA
ENDBRANCH   1  30
BRANCH  27  33
ATOM     33  O   UNL     1       8.423 -10.078  29.125  1.00  0.00    -0.393 OA
ATOM     34  H   UNL     1       9.288  -9.961  29.599  1.00  0.00     0.210 HD
ENDBRANCH  27  33
TORSDOF 2
ENDMDL
MODEL 5
REMARK VINA RESULT:    -4.367      2.019      7.595
REMARK INTER + INTRA:          -4.767
REMARK INTER:                  -4.882
REMARK INTRA:                   0.115
REMARK UNBOUND:                -0.017
REMARK SMILES C[C@H]1[C@H](C)CC[C@]2(C(=O)[O-])CC[C@]3(C)C(=CC[C@H]4[C@]5(C)CC[C@H](O)C(C)(C)[C@@H]5CC[C@@]43C)[C@H]12
REMARK SMILES IDX 7 1 6 2 11 3 33 4 5 5 12 6 15 7 2 8 3 9 13 10 16 11 1 12
REMARK SMILES IDX 4 13 14 14 31 15 17 16 18 17 30 18 32 19 19 20 29 21 28 22
REMARK SMILES IDX 21 23 20 24 25 25 22 26 23 27 26 28 27 29 8 30 9 31 10 32
REMARK SMILES IDX 24 33
REMARK H PARENT 24 34
REMARK Flexibility Score: inf
ROOT
ATOM      1  C   UNL     1       7.569  -7.888  24.683  1.00  0.00     0.017 C 
ATOM      2  C   UNL     1       9.117  -7.887  24.852  1.00  0.00     0.014 C 
ATOM      3  C   UNL     1       7.213  -6.882  23.533  1.00  0.00     0.014 C 
ATOM      4  C   UNL     1       6.883  -7.524  26.069  1.00  0.00     0.030 C 
ATOM      5  C   UNL     1       9.613  -8.807  25.971  1.00  0.00     0.004 C 
ATOM      6  C   UNL     1       6.040  -5.962  23.874  1.00  0.00     0.013 C 
ATOM      7  C   UNL     1       6.761  -5.994  26.303  1.00  0.00    -0.063 C 
ATOM      8  C   UNL     1       7.441  -8.388  27.270  1.00  0.00    -0.003 C 
ATOM      9  C   UNL     1       8.996  -8.453  27.335  1.00  0.00    -0.011 C 
ATOM     10  C   UNL     1       6.304  -5.087  25.142  1.00  0.00    -0.006 C 
ATOM     11  C   UNL     1       6.859  -5.416  27.531  1.00  0.00    -0.027 C 
ATOM     12  C   UNL     1       6.849  -9.814  27.291  1.00  0.00     0.008 C 
ATOM     13  C   UNL     1       9.630  -7.183  27.923  1.00  0.00     0.008 C 
ATOM     14  C   UNL     1       7.558  -4.196  24.811  1.00  0.00     0.017 C 
ATOM     15  C   UNL     1       4.989  -4.188  25.548  1.00  0.00    -0.020 C 
ATOM     16  C   UNL     1       6.196  -4.090  27.810  1.00  0.00     0.032 C 
ATOM     17  C   UNL     1       4.817  -4.120  27.116  1.00  0.00     0.006 C 
ATOM     18  C   UNL     1       3.653  -4.815  25.062  1.00  0.00     0.008 C 
ATOM     19  C   UNL     1       5.105  -2.793  24.858  1.00  0.00     0.012 C 
ATOM     20  C   UNL     1       3.705  -3.148  27.695  1.00  0.00    -0.025 C 
ATOM     21  C   UNL     1       2.353  -4.221  25.670  1.00  0.00     0.005 C 
ATOM     22  C   UNL     1       2.442  -3.054  26.719  1.00  0.00     0.003 C 
ATOM     23  C   UNL     1       3.262  -3.682  29.107  1.00  0.00     0.010 C 
ATOM     24  C   UNL     1       4.321  -1.732  27.910  1.00  0.00     0.012 C 
ATOM     25  C   UNL     1       1.042  -2.861  27.460  1.00  0.00    -0.006 C 
ATOM     26  C   UNL     1       2.088  -4.657  29.033  1.00  0.00     0.033 C 
ATOM     27  C   UNL     1       0.794  -3.985  28.542  1.00  0.00     0.120 C 
ATOM     28  C   UNL     1       0.973  -1.468  28.153  1.00  0.00     0.014 C 
ATOM     29  C   UNL     1      -0.123  -2.830  26.423  1.00  0.00     0.014 C 
ENDROOT
BRANCH   1  30
ATOM     30  C   UNL     1       7.093  -9.258  24.201  1.00  0.00     0.048 C 
ATOM     31  O   UNL     1       7.927 -10.124  23.825  1.00  0.00    -0.550 OA
ATOM     32  O   UNL     1       5.752  -9.620  24.292  1.00  0.00    -0.550 OA
ENDBRANCH   1  30
BRANCH  27  33
ATOM     33  O   UNL     1      -0.053  -5.001  28.061  1.00  0.00    -0.393 OA
ATOM     34  H   UNL     1       0.501  -5.617  27.514  1.00  0.00     0.210 HD
ENDBRANCH  27  33
TORSDOF 2
ENDMDL
MODEL 6
REMARK VINA RESULT:    -4.312      1.803      7.603
REMARK INTER + INTRA:          -4.707
REMARK INTER:                  -4.717
REMARK INTRA:                   0.009
REMARK UNBOUND:                -0.017
REMARK SMILES C[C@H]1[C@H](C)CC[C@]2(C(=O)[O-])CC[C@]3(C)C(=CC[C@H]4[C@]5(C)CC[C@H](O)C(C)(C)[C@@H]5CC[C@@]43C)[C@H]12
REMARK SMILES IDX 7 1 6 2 11 3 33 4 5 5 12 6 15 7 2 8 3 9 13 10 16 11 1 12
REMARK SMILES IDX 4 13 14 14 31 15 17 16 18 17 30 18 32 19 19 20 29 21 28 22
REMARK SMILES IDX 21 23 20 24 25 25 22 26 23 27 26 28 27 29 8 30 9 31 10 32
REMARK SMILES IDX 24 33
REMARK H PARENT 24 34
REMARK Flexibility Score: inf
ROOT
ATOM      1  C   UNL     1       9.073  -8.800  26.254  1.00  0.00     0.017 C 
ATOM      2  C   UNL     1       9.179 -10.117  25.431  1.00  0.00     0.014 C 
ATOM      3  C   UNL     1       8.389  -9.146  27.624  1.00  0.00     0.014 C 
ATOM      4  C   UNL     1       8.278  -7.710  25.414  1.00  0.00     0.030 C 
ATOM      5  C   UNL     1       9.803  -9.926  24.045  1.00  0.00     0.004 C 
ATOM      6  C   UNL     1       7.299  -8.151  28.025  1.00  0.00     0.013 C 
ATOM      7  C   UNL     1       6.738  -7.824  25.576  1.00  0.00    -0.063 C 
ATOM      8  C   UNL     1       8.832  -7.554  23.941  1.00  0.00    -0.003 C 
ATOM      9  C   UNL     1       9.031  -8.905  23.193  1.00  0.00    -0.011 C 
ATOM     10  C   UNL     1       6.142  -8.064  26.979  1.00  0.00    -0.006 C 
ATOM     11  C   UNL     1       5.859  -7.542  24.576  1.00  0.00    -0.027 C 
ATOM     12  C   UNL     1      10.132  -6.723  23.890  1.00  0.00     0.008 C 
ATOM     13  C   UNL     1       7.717  -9.501  22.661  1.00  0.00     0.008 C 
ATOM     14  C   UNL     1       5.504  -9.499  26.903  1.00  0.00     0.017 C 
ATOM     15  C   UNL     1       5.041  -6.911  27.381  1.00  0.00    -0.020 C 
ATOM     16  C   UNL     1       4.449  -7.111  24.893  1.00  0.00     0.032 C 
ATOM     17  C   UNL     1       4.530  -6.148  26.097  1.00  0.00     0.006 C 
ATOM     18  C   UNL     1       5.642  -5.780  28.262  1.00  0.00     0.008 C 
ATOM     19  C   UNL     1       3.905  -7.576  28.220  1.00  0.00     0.012 C 
ATOM     20  C   UNL     1       3.332  -5.124  26.274  1.00  0.00    -0.025 C 
ATOM     21  C   UNL     1       4.778  -4.498  28.419  1.00  0.00     0.005 C 
ATOM     22  C   UNL     1       3.384  -4.401  27.699  1.00  0.00     0.003 C 
ATOM     23  C   UNL     1       3.413  -4.056  25.121  1.00  0.00     0.010 C 
ATOM     24  C   UNL     1       1.979  -5.881  26.106  1.00  0.00     0.012 C 
ATOM     25  C   UNL     1       2.858  -2.895  27.701  1.00  0.00    -0.006 C 
ATOM     26  C   UNL     1       4.251  -2.836  25.498  1.00  0.00     0.033 C 
ATOM     27  C   UNL     1       3.614  -2.012  26.631  1.00  0.00     0.120 C 
ATOM     28  C   UNL     1       1.329  -2.845  27.410  1.00  0.00     0.014 C 
ATOM     29  C   UNL     1       2.996  -2.272  29.125  1.00  0.00     0.014 C 
ENDROOT
BRANCH   1  30
ATOM     30  C   UNL     1      10.468  -8.283  26.604  1.00  0.00     0.048 C 
ATOM     31  O   UNL     1      10.626  -7.093  26.988  1.00  0.00    -0.550 OA
ATOM     32  O   UNL     1      11.562  -9.142  26.632  1.00  0.00    -0.550 OA
ENDBRANCH   1  30
BRANCH  27  33
ATOM     33  O   UNL     1       4.633  -1.236  27.214  1.00  0.00    -0.393 OA
ATOM     34  H   UNL     1       4.351  -1.024  28.142  1.00  0.00     0.210 HD
ENDBRANCH  27  33
TORSDOF 2
ENDMDL
MODEL 7
REMARK VINA RESULT:    -4.239      2.221      3.492
REMARK INTER + INTRA:          -4.628
REMARK INTER:                  -4.777
REMARK INTRA:                   0.150
REMARK UNBOUND:                -0.017
REMARK SMILES C[C@H]1[C@H](C)CC[C@]2(C(=O)[O-])CC[C@]3(C)C(=CC[C@H]4[C@]5(C)CC[C@H](O)C(C)(C)[C@@H]5CC[C@@]43C)[C@H]12
REMARK SMILES IDX 7 1 6 2 11 3 33 4 5 5 12 6 15 7 2 8 3 9 13 10 16 11 1 12
REMARK SMILES IDX 4 13 14 14 31 15 17 16 18 17 30 18 32 19 19 20 29 21 28 22
REMARK SMILES IDX 21 23 20 24 25 25 22 26 23 27 26 28 27 29 8 30 9 31 10 32
REMARK SMILES IDX 24 33
REMARK H PARENT 24 34
REMARK Flexibility Score: inf
ROOT
ATOM      1  C   UNL     1       2.177  -5.732  27.767  1.00  0.00     0.017 C 
ATOM      2  C   UNL     1       1.515  -4.334  27.949  1.00  0.00     0.014 C 
ATOM      3  C   UNL     1       2.975  -6.057  29.078  1.00  0.00     0.014 C 
ATOM      4  C   UNL     1       3.087  -5.724  26.464  1.00  0.00     0.030 C 
ATOM      5  C   UNL     1       0.722  -3.867  26.725  1.00  0.00     0.004 C 
ATOM      6  C   UNL     1       4.373  -6.618  28.813  1.00  0.00     0.013 C 
ATOM      7  C   UNL     1       4.518  -5.185  26.728  1.00  0.00    -0.063 C 
ATOM      8  C   UNL     1       2.331  -5.154  25.198  1.00  0.00    -0.003 C 
ATOM      9  C   UNL     1       1.587  -3.810  25.455  1.00  0.00    -0.011 C 
ATOM     10  C   UNL     1       5.275  -5.638  27.995  1.00  0.00    -0.006 C 
ATOM     11  C   UNL     1       5.229  -4.472  25.812  1.00  0.00    -0.027 C 
ATOM     12  C   UNL     1       1.363  -6.186  24.580  1.00  0.00     0.008 C 
ATOM     13  C   UNL     1       2.526  -2.593  25.472  1.00  0.00     0.008 C 
ATOM     14  C   UNL     1       5.416  -4.335  28.865  1.00  0.00     0.017 C 
ATOM     15  C   UNL     1       6.731  -6.308  27.632  1.00  0.00    -0.020 C 
ATOM     16  C   UNL     1       6.736  -4.463  25.849  1.00  0.00     0.032 C 
ATOM     17  C   UNL     1       7.190  -5.902  26.176  1.00  0.00     0.006 C 
ATOM     18  C   UNL     1       6.689  -7.860  27.581  1.00  0.00     0.008 C 
ATOM     19  C   UNL     1       7.750  -5.924  28.751  1.00  0.00     0.012 C 
ATOM     20  C   UNL     1       8.654  -6.310  25.723  1.00  0.00    -0.025 C 
ATOM     21  C   UNL     1       7.916  -8.561  26.936  1.00  0.00     0.005 C 
ATOM     22  C   UNL     1       9.104  -7.699  26.375  1.00  0.00     0.003 C 
ATOM     23  C   UNL     1       8.680  -6.414  24.154  1.00  0.00     0.010 C 
ATOM     24  C   UNL     1       9.651  -5.181  26.126  1.00  0.00     0.012 C 
ATOM     25  C   UNL     1      10.055  -8.590  25.454  1.00  0.00    -0.006 C 
ATOM     26  C   UNL     1       8.346  -7.816  23.645  1.00  0.00     0.033 C 
ATOM     27  C   UNL     1       9.412  -8.853  24.035  1.00  0.00     0.120 C 
ATOM     28  C   UNL     1      11.439  -7.901  25.262  1.00  0.00     0.014 C 
ATOM     29  C   UNL     1      10.394  -9.937  26.164  1.00  0.00     0.014 C 
ENDROOT
BRANCH   1  30
ATOM     30  C   UNL     1       1.102  -6.813  27.654  1.00  0.00     0.048 C 
ATOM     31  O   UNL     1      -0.117  -6.496  27.624  1.00  0.00    -0.550 OA
ATOM     32  O   UNL     1       1.448  -8.146  27.451  1.00  0.00    -0.550 OA
ENDBRANCH   1  30
BRANCH  27  33
ATOM     33  O   UNL     1       8.813 -10.125  23.958  1.00  0.00    -0.393 OA
ATOM     34  H   UNL     1       7.847  -9.988  23.774  1.00  0.00     0.210 HD
ENDBRANCH  27  33
TORSDOF 2
ENDMDL
MODEL 8
REMARK VINA RESULT:    -3.611      1.993      3.366
REMARK INTER + INTRA:          -3.945
REMARK INTER:                  -4.011
REMARK INTRA:                   0.066
REMARK UNBOUND:                -0.017
REMARK SMILES C[C@H]1[C@H](C)CC[C@]2(C(=O)[O-])CC[C@]3(C)C(=CC[C@H]4[C@]5(C)CC[C@H](O)C(C)(C)[C@@H]5CC[C@@]43C)[C@H]12
REMARK SMILES IDX 7 1 6 2 11 3 33 4 5 5 12 6 15 7 2 8 3 9 13 10 16 11 1 12
REMARK SMILES IDX 4 13 14 14 31 15 17 16 18 17 30 18 32 19 19 20 29 21 28 22
REMARK SMILES IDX 21 23 20 24 25 25 22 26 23 27 26 28 27 29 8 30 9 31 10 32
REMARK SMILES IDX 24 33
REMARK H PARENT 24 34
REMARK Flexibility Score: inf
ROOT
ATOM      1  C   UNL     1       1.505  -4.791  25.488  1.00  0.00     0.017 C 
ATOM      2  C   UNL     1       0.154  -5.165  26.164  1.00  0.00     0.014 C 
ATOM      3  C   UNL     1       1.634  -5.641  24.175  1.00  0.00     0.014 C 
ATOM      4  C   UNL     1       2.697  -5.032  26.510  1.00  0.00     0.030 C 
ATOM      5  C   UNL     1      -0.095  -4.429  27.485  1.00  0.00     0.004 C 
ATOM      6  C   UNL     1       3.017  -6.269  23.993  1.00  0.00     0.013 C 
ATOM      7  C   UNL     1       3.211  -6.497  26.509  1.00  0.00    -0.063 C 
ATOM      8  C   UNL     1       2.432  -4.369  27.921  1.00  0.00    -0.003 C 
ATOM      9  C   UNL     1       1.024  -4.676  28.511  1.00  0.00    -0.011 C 
ATOM     10  C   UNL     1       3.407  -7.227  25.164  1.00  0.00    -0.006 C 
ATOM     11  C   UNL     1       3.677  -7.126  27.623  1.00  0.00    -0.027 C 
ATOM     12  C   UNL     1       2.680  -2.845  27.908  1.00  0.00     0.008 C 
ATOM     13  C   UNL     1       0.919  -6.082  29.125  1.00  0.00     0.008 C 
ATOM     14  C   UNL     1       2.334  -8.377  25.172  1.00  0.00     0.017 C 
ATOM     15  C   UNL     1       4.938  -7.803  24.998  1.00  0.00    -0.020 C 
ATOM     16  C   UNL     1       4.657  -8.266  27.506  1.00  0.00     0.032 C 
ATOM     17  C   UNL     1       5.663  -7.885  26.398  1.00  0.00     0.006 C 
ATOM     18  C   UNL     1       5.853  -6.859  24.168  1.00  0.00     0.008 C 
ATOM     19  C   UNL     1       4.881  -9.160  24.229  1.00  0.00     0.012 C 
ATOM     20  C   UNL     1       7.085  -8.586  26.453  1.00  0.00    -0.025 C 
ATOM     21  C   UNL     1       7.378  -7.151  24.231  1.00  0.00     0.005 C 
ATOM     22  C   UNL     1       7.912  -8.342  25.106  1.00  0.00     0.003 C 
ATOM     23  C   UNL     1       7.876  -8.014  27.686  1.00  0.00     0.010 C 
ATOM     24  C   UNL     1       6.896 -10.115  26.695  1.00  0.00     0.012 C 
ATOM     25  C   UNL     1       9.490  -8.225  25.306  1.00  0.00    -0.006 C 
ATOM     26  C   UNL     1       8.716  -6.786  27.337  1.00  0.00     0.033 C 
ATOM     27  C   UNL     1       9.863  -7.115  26.366  1.00  0.00     0.120 C 
ATOM     28  C   UNL     1      10.090  -9.586  25.768  1.00  0.00     0.014 C 
ATOM     29  C   UNL     1      10.193  -7.941  23.942  1.00  0.00     0.014 C 
ENDROOT
BRANCH   1  30
ATOM     30  C   UNL     1       1.483  -3.330  25.037  1.00  0.00     0.048 C 
ATOM     31  O   UNL     1       2.563  -2.706  24.854  1.00  0.00    -0.550 OA
ATOM     32  O   UNL     1       0.287  -2.705  24.698  1.00  0.00    -0.550 OA
ENDBRANCH   1  30
BRANCH  27  33
ATOM     33  O   UNL     1      10.253  -5.910  25.751  1.00  0.00    -0.393 OA
ATOM     34  H   UNL     1      11.116  -6.078  25.288  1.00  0.00     0.210 HD
ENDBRANCH  27  33
TORSDOF 2
ENDMDL
