MODEL 1
REMARK VINA RESULT:    -8.682      0.000      0.000
REMARK INTER + INTRA:         -11.286
REMARK INTER:                 -10.966
REMARK INTRA:                  -0.320
REMARK UNBOUND:                -0.320
REMARK SMILES O[C@@H]1OC[C@@H](Cc2ccc3c(c2)OCO3)[C@@H]1Cc1ccc2c(c1)OCO2
REMARK SMILES IDX 4 1 5 2 16 3 2 4 3 5 6 6 7 7 12 8 8 9 11 10 9 11 10 12 13 13
REMARK SMILES IDX 15 14 14 15 17 16 18 17 23 18 19 19 22 20 20 21 21 22 24 23
REMARK SMILES IDX 26 24 25 25 1 26
REMARK H PARENT 1 27
REMARK Flexibility Score: inf
ROOT
ATOM      1  C   UNL     1     -25.204 -18.056 -11.539  1.00  0.00     0.168 C 
ATOM      2  C   UNL     1     -26.041 -18.976 -12.425  1.00  0.00     0.028 C 
ATOM      3  C   UNL     1     -25.747 -20.335 -11.833  1.00  0.00     0.055 C 
ATOM      4  C   UNL     1     -25.487 -19.991 -10.362  1.00  0.00     0.250 C 
ATOM      5  O   UNL     1     -25.000 -18.667 -10.283  1.00  0.00    -0.352 OA
ENDROOT
BRANCH   2   6
ATOM      6  C   UNL     1     -25.674 -18.877 -13.920  1.00  0.00     0.042 C 
BRANCH   6   7
ATOM      7  C   UNL     1     -25.081 -17.532 -14.249  1.00  0.00    -0.044 A 
ATOM      8  C   UNL     1     -23.739 -17.244 -13.916  1.00  0.00     0.054 A 
ATOM      9  C   UNL     1     -25.884 -16.531 -14.857  1.00  0.00     0.008 A 
ATOM     10  C   UNL     1     -23.249 -15.976 -14.216  1.00  0.00     0.166 A 
ATOM     11  C   UNL     1     -25.348 -15.262 -15.143  1.00  0.00     0.051 A 
ATOM     12  C   UNL     1     -24.019 -15.027 -14.805  1.00  0.00     0.165 A 
ATOM     13  O   UNL     1     -21.984 -15.467 -13.989  1.00  0.00    -0.454 OA
ATOM     14  O   UNL     1     -23.278 -13.875 -14.980  1.00  0.00    -0.454 OA
ATOM     15  C   UNL     1     -21.958 -14.115 -14.470  1.00  0.00     0.468 C 
ENDBRANCH   6   7
ENDBRANCH   2   6
BRANCH   3  16
ATOM     16  C   UNL     1     -26.873 -21.365 -12.080  1.00  0.00     0.044 C 
BRANCH  16  17
ATOM     17  C   UNL     1     -26.373 -22.552 -12.864  1.00  0.00    -0.044 A 
ATOM     18  C   UNL     1     -25.099 -23.104 -12.591  1.00  0.00     0.054 A 
ATOM     19  C   UNL     1     -27.174 -23.110 -13.894  1.00  0.00     0.008 A 
ATOM     20  C   UNL     1     -24.682 -24.190 -13.356  1.00  0.00     0.166 A 
ATOM     21  C   UNL     1     -26.712 -24.208 -14.642  1.00  0.00     0.051 A 
ATOM     22  C   UNL     1     -25.454 -24.719 -14.338  1.00  0.00     0.165 A 
ATOM     23  O   UNL     1     -23.495 -24.892 -13.275  1.00  0.00    -0.454 OA
ATOM     24  O   UNL     1     -24.791 -25.779 -14.925  1.00  0.00    -0.454 OA
ATOM     25  C   UNL     1     -23.523 -25.926 -14.269  1.00  0.00     0.468 C 
ENDBRANCH  16  17
ENDBRANCH   3  16
BRANCH   4  26
ATOM     26  O   UNL     1     -26.641 -20.115  -9.568  1.00  0.00    -0.368 OA
ATOM     27  H   UNL     1     -27.280 -20.694 -10.060  1.00  0.00     0.213 HD
ENDBRANCH   4  26
TORSDOF 5
ENDMDL
MODEL 2
REMARK VINA RESULT:    -8.229      1.522      7.870
REMARK INTER + INTRA:         -10.714
REMARK INTER:                 -10.610
REMARK INTRA:                  -0.105
REMARK UNBOUND:                -0.320
REMARK SMILES O[C@@H]1OC[C@@H](Cc2ccc3c(c2)OCO3)[C@@H]1Cc1ccc2c(c1)OCO2
REMARK SMILES IDX 4 1 5 2 16 3 2 4 3 5 6 6 7 7 12 8 8 9 11 10 9 11 10 12 13 13
REMARK SMILES IDX 15 14 14 15 17 16 18 17 23 18 19 19 22 20 20 21 21 22 24 23
REMARK SMILES IDX 26 24 25 25 1 26
REMARK H PARENT 1 27
REMARK Flexibility Score: inf
ROOT
ATOM      1  C   UNL     1     -25.900 -21.232 -11.876  1.00  0.00     0.168 C 
ATOM      2  C   UNL     1     -24.644 -20.368 -11.969  1.00  0.00     0.028 C 
ATOM      3  C   UNL     1     -25.219 -19.015 -12.320  1.00  0.00     0.055 C 
ATOM      4  C   UNL     1     -26.594 -19.070 -11.643  1.00  0.00     0.250 C 
ATOM      5  O   UNL     1     -27.011 -20.417 -11.569  1.00  0.00    -0.352 OA
ENDROOT
BRANCH   2   6
ATOM      6  C   UNL     1     -23.630 -20.881 -13.013  1.00  0.00     0.042 C 
BRANCH   6   7
ATOM      7  C   UNL     1     -23.974 -22.276 -13.467  1.00  0.00    -0.044 A 
ATOM      8  C   UNL     1     -25.160 -22.516 -14.196  1.00  0.00     0.054 A 
ATOM      9  C   UNL     1     -23.127 -23.363 -13.126  1.00  0.00     0.008 A 
ATOM     10  C   UNL     1     -25.445 -23.828 -14.567  1.00  0.00     0.166 A 
ATOM     11  C   UNL     1     -23.452 -24.673 -13.522  1.00  0.00     0.051 A 
ATOM     12  C   UNL     1     -24.626 -24.861 -14.245  1.00  0.00     0.165 A 
ATOM     13  O   UNL     1     -26.531 -24.304 -15.276  1.00  0.00    -0.454 OA
ATOM     14  O   UNL     1     -25.155 -26.038 -14.736  1.00  0.00    -0.454 OA
ATOM     15  C   UNL     1     -26.383 -25.726 -15.411  1.00  0.00     0.468 C 
ENDBRANCH   6   7
ENDBRANCH   2   6
BRANCH   3  16
ATOM     16  C   UNL     1     -24.317 -17.837 -11.884  1.00  0.00     0.044 C 
BRANCH  16  17
ATOM     17  C   UNL     1     -24.013 -16.918 -13.040  1.00  0.00    -0.044 A 
ATOM     18  C   UNL     1     -24.907 -16.822 -14.132  1.00  0.00     0.054 A 
ATOM     19  C   UNL     1     -22.816 -16.156 -13.044  1.00  0.00     0.008 A 
ATOM     20  C   UNL     1     -24.569 -15.970 -15.179  1.00  0.00     0.166 A 
ATOM     21  C   UNL     1     -22.514 -15.307 -14.124  1.00  0.00     0.051 A 
ATOM     22  C   UNL     1     -23.422 -15.244 -15.175  1.00  0.00     0.165 A 
ATOM     23  O   UNL     1     -25.274 -15.710 -16.338  1.00  0.00    -0.454 OA
ATOM     24  O   UNL     1     -23.350 -14.492 -16.331  1.00  0.00    -0.454 OA
ATOM     25  C   UNL     1     -24.524 -14.762 -17.110  1.00  0.00     0.468 C 
ENDBRANCH  16  17
ENDBRANCH   3  16
BRANCH   4  26
ATOM     26  O   UNL     1     -26.583 -18.510 -10.354  1.00  0.00    -0.368 OA
ATOM     27  H   UNL     1     -26.092 -17.649 -10.407  1.00  0.00     0.213 HD
ENDBRANCH   4  26
TORSDOF 5
ENDMDL
MODEL 3
REMARK VINA RESULT:    -8.072      0.684      1.339
REMARK INTER + INTRA:         -10.516
REMARK INTER:                 -10.183
REMARK INTRA:                  -0.333
REMARK UNBOUND:                -0.320
REMARK SMILES O[C@@H]1OC[C@@H](Cc2ccc3c(c2)OCO3)[C@@H]1Cc1ccc2c(c1)OCO2
REMARK SMILES IDX 4 1 5 2 16 3 2 4 3 5 6 6 7 7 12 8 8 9 11 10 9 11 10 12 13 13
REMARK SMILES IDX 15 14 14 15 17 16 18 17 23 18 19 19 22 20 20 21 21 22 24 23
REMARK SMILES IDX 26 24 25 25 1 26
REMARK H PARENT 1 27
REMARK Flexibility Score: inf
ROOT
ATOM      1  C   UNL     1     -25.292 -17.934 -11.573  1.00  0.00     0.168 C 
ATOM      2  C   UNL     1     -25.893 -19.013 -12.471  1.00  0.00     0.028 C 
ATOM      3  C   UNL     1     -25.396 -20.280 -11.816  1.00  0.00     0.055 C 
ATOM      4  C   UNL     1     -25.294 -19.858 -10.345  1.00  0.00     0.250 C 
ATOM      5  O   UNL     1     -25.059 -18.466 -10.287  1.00  0.00    -0.352 OA
ENDROOT
BRANCH   2   6
ATOM      6  C   UNL     1     -25.459 -18.886 -13.947  1.00  0.00     0.042 C 
BRANCH   6   7
ATOM      7  C   UNL     1     -24.841 -17.540 -14.219  1.00  0.00    -0.044 A 
ATOM      8  C   UNL     1     -23.511 -17.272 -13.823  1.00  0.00     0.054 A 
ATOM      9  C   UNL     1     -25.608 -16.518 -14.838  1.00  0.00     0.008 A 
ATOM     10  C   UNL     1     -22.997 -16.003 -14.074  1.00  0.00     0.166 A 
ATOM     11  C   UNL     1     -25.049 -15.249 -15.073  1.00  0.00     0.051 A 
ATOM     12  C   UNL     1     -23.734 -15.034 -14.674  1.00  0.00     0.165 A 
ATOM     13  O   UNL     1     -21.739 -15.512 -13.783  1.00  0.00    -0.454 OA
ATOM     14  O   UNL     1     -22.976 -13.886 -14.792  1.00  0.00    -0.454 OA
ATOM     15  C   UNL     1     -21.681 -14.150 -14.231  1.00  0.00     0.468 C 
ENDBRANCH   6   7
ENDBRANCH   2   6
BRANCH   3  16
ATOM     16  C   UNL     1     -26.300 -21.504 -12.089  1.00  0.00     0.044 C 
BRANCH  16  17
ATOM     17  C   UNL     1     -25.516 -22.650 -12.674  1.00  0.00    -0.044 A 
ATOM     18  C   UNL     1     -26.091 -23.479 -13.666  1.00  0.00     0.054 A 
ATOM     19  C   UNL     1     -24.198 -22.914 -12.218  1.00  0.00     0.008 A 
ATOM     20  C   UNL     1     -25.327 -24.532 -14.160  1.00  0.00     0.166 A 
ATOM     21  C   UNL     1     -23.461 -23.990 -12.746  1.00  0.00     0.051 A 
ATOM     22  C   UNL     1     -24.067 -24.777 -13.719  1.00  0.00     0.165 A 
ATOM     23  O   UNL     1     -25.667 -25.463 -15.122  1.00  0.00    -0.454 OA
ATOM     24  O   UNL     1     -23.553 -25.875 -14.381  1.00  0.00    -0.454 OA
ATOM     25  C   UNL     1     -24.552 -26.349 -15.295  1.00  0.00     0.468 C 
ENDBRANCH  16  17
ENDBRANCH   3  16
BRANCH   4  26
ATOM     26  O   UNL     1     -26.453 -20.170  -9.613  1.00  0.00    -0.368 OA
ATOM     27  H   UNL     1     -27.156 -19.523  -9.879  1.00  0.00     0.213 HD
ENDBRANCH   4  26
TORSDOF 5
ENDMDL
MODEL 4
REMARK VINA RESULT:    -7.633      1.486      7.584
REMARK INTER + INTRA:          -9.962
REMARK INTER:                 -10.959
REMARK INTRA:                   0.998
REMARK UNBOUND:                -0.320
REMARK SMILES O[C@@H]1OC[C@@H](Cc2ccc3c(c2)OCO3)[C@@H]1Cc1ccc2c(c1)OCO2
REMARK SMILES IDX 4 1 5 2 16 3 2 4 3 5 6 6 7 7 12 8 8 9 11 10 9 11 10 12 13 13
REMARK SMILES IDX 15 14 14 15 17 16 18 17 23 18 19 19 22 20 20 21 21 22 24 23
REMARK SMILES IDX 26 24 25 25 1 26
REMARK H PARENT 1 27
REMARK Flexibility Score: inf
ROOT
ATOM      1  C   UNL     1     -24.254 -20.631 -11.180  1.00  0.00     0.168 C 
ATOM      2  C   UNL     1     -24.352 -19.870 -12.500  1.00  0.00     0.028 C 
ATOM      3  C   UNL     1     -25.841 -19.883 -12.761  1.00  0.00     0.055 C 
ATOM      4  C   UNL     1     -26.412 -19.903 -11.338  1.00  0.00     0.250 C 
ATOM      5  O   UNL     1     -25.475 -20.522 -10.480  1.00  0.00    -0.352 OA
ENDROOT
BRANCH   2   6
ATOM      6  C   UNL     1     -23.535 -20.518 -13.637  1.00  0.00     0.042 C 
BRANCH   6   7
ATOM      7  C   UNL     1     -23.953 -21.947 -13.862  1.00  0.00    -0.044 A 
ATOM      8  C   UNL     1     -25.171 -22.240 -14.516  1.00  0.00     0.054 A 
ATOM      9  C   UNL     1     -23.143 -23.009 -13.379  1.00  0.00     0.008 A 
ATOM     10  C   UNL     1     -25.523 -23.577 -14.674  1.00  0.00     0.166 A 
ATOM     11  C   UNL     1     -23.537 -24.347 -13.560  1.00  0.00     0.051 A 
ATOM     12  C   UNL     1     -24.740 -24.587 -14.217  1.00  0.00     0.165 A 
ATOM     13  O   UNL     1     -26.650 -24.104 -15.274  1.00  0.00    -0.454 OA
ATOM     14  O   UNL     1     -25.334 -25.799 -14.508  1.00  0.00    -0.454 OA
ATOM     15  C   UNL     1     -26.569 -25.535 -15.192  1.00  0.00     0.468 C 
ENDBRANCH   6   7
ENDBRANCH   2   6
BRANCH   3  16
ATOM     16  C   UNL     1     -26.316 -18.707 -13.645  1.00  0.00     0.044 C 
BRANCH  16  17
ATOM     17  C   UNL     1     -25.265 -17.633 -13.748  1.00  0.00    -0.044 A 
ATOM     18  C   UNL     1     -25.083 -16.923 -14.957  1.00  0.00     0.054 A 
ATOM     19  C   UNL     1     -24.437 -17.342 -12.632  1.00  0.00     0.008 A 
ATOM     20  C   UNL     1     -24.086 -15.952 -15.001  1.00  0.00     0.166 A 
ATOM     21  C   UNL     1     -23.442 -16.351 -12.720  1.00  0.00     0.051 A 
ATOM     22  C   UNL     1     -23.300 -15.678 -13.929  1.00  0.00     0.165 A 
ATOM     23  O   UNL     1     -23.726 -15.136 -16.056  1.00  0.00    -0.454 OA
ATOM     24  O   UNL     1     -22.407 -14.678 -14.257  1.00  0.00    -0.454 OA
ATOM     25  C   UNL     1     -22.646 -14.299 -15.620  1.00  0.00     0.468 C 
ENDBRANCH  16  17
ENDBRANCH   3  16
BRANCH   4  26
ATOM     26  O   UNL     1     -26.708 -18.615 -10.858  1.00  0.00    -0.368 OA
ATOM     27  H   UNL     1     -27.697 -18.534 -10.813  1.00  0.00     0.213 HD
ENDBRANCH   4  26
TORSDOF 5
ENDMDL
MODEL 5
REMARK VINA RESULT:    -7.352      1.484      2.454
REMARK INTER + INTRA:          -9.606
REMARK INTER:                  -8.663
REMARK INTRA:                  -0.943
REMARK UNBOUND:                -0.320
REMARK SMILES O[C@@H]1OC[C@@H](Cc2ccc3c(c2)OCO3)[C@@H]1Cc1ccc2c(c1)OCO2
REMARK SMILES IDX 4 1 5 2 16 3 2 4 3 5 6 6 7 7 12 8 8 9 11 10 9 11 10 12 13 13
REMARK SMILES IDX 15 14 14 15 17 16 18 17 23 18 19 19 22 20 20 21 21 22 24 23
REMARK SMILES IDX 26 24 25 25 1 26
REMARK H PARENT 1 27
REMARK Flexibility Score: inf
ROOT
ATOM      1  C   UNL     1     -25.588 -18.473 -10.685  1.00  0.00     0.168 C 
ATOM      2  C   UNL     1     -25.068 -18.563 -12.118  1.00  0.00     0.028 C 
ATOM      3  C   UNL     1     -25.213 -20.038 -12.414  1.00  0.00     0.055 C 
ATOM      4  C   UNL     1     -26.417 -20.419 -11.545  1.00  0.00     0.250 C 
ATOM      5  O   UNL     1     -26.474 -19.544 -10.437  1.00  0.00    -0.352 OA
ENDROOT
BRANCH   2   6
ATOM      6  C   UNL     1     -23.619 -18.056 -12.272  1.00  0.00     0.042 C 
BRANCH   6   7
ATOM      7  C   UNL     1     -23.541 -16.910 -13.246  1.00  0.00    -0.044 A 
ATOM      8  C   UNL     1     -24.591 -16.683 -14.164  1.00  0.00     0.054 A 
ATOM      9  C   UNL     1     -22.391 -16.078 -13.274  1.00  0.00     0.008 A 
ATOM     10  C   UNL     1     -24.457 -15.627 -15.062  1.00  0.00     0.166 A 
ATOM     11  C   UNL     1     -22.297 -15.021 -14.198  1.00  0.00     0.051 A 
ATOM     12  C   UNL     1     -23.359 -14.830 -15.077  1.00  0.00     0.165 A 
ATOM     13  O   UNL     1     -25.340 -15.213 -16.040  1.00  0.00    -0.454 OA
ATOM     14  O   UNL     1     -23.497 -13.875 -16.065  1.00  0.00    -0.454 OA
ATOM     15  C   UNL     1     -24.762 -14.084 -16.710  1.00  0.00     0.468 C 
ENDBRANCH   6   7
ENDBRANCH   2   6
BRANCH   3  16
ATOM     16  C   UNL     1     -25.364 -20.347 -13.921  1.00  0.00     0.044 C 
BRANCH  16  17
ATOM     17  C   UNL     1     -25.313 -21.829 -14.189  1.00  0.00    -0.044 A 
ATOM     18  C   UNL     1     -26.468 -22.517 -14.628  1.00  0.00     0.054 A 
ATOM     19  C   UNL     1     -24.106 -22.545 -13.982  1.00  0.00     0.008 A 
ATOM     20  C   UNL     1     -26.368 -23.888 -14.845  1.00  0.00     0.166 A 
ATOM     21  C   UNL     1     -24.050 -23.932 -14.214  1.00  0.00     0.051 A 
ATOM     22  C   UNL     1     -25.210 -24.566 -14.646  1.00  0.00     0.165 A 
ATOM     23  O   UNL     1     -27.347 -24.764 -15.272  1.00  0.00    -0.454 OA
ATOM     24  O   UNL     1     -25.402 -25.902 -14.938  1.00  0.00    -0.454 OA
ATOM     25  C   UNL     1     -26.767 -26.074 -15.346  1.00  0.00     0.468 C 
ENDBRANCH  16  17
ENDBRANCH   3  16
BRANCH   4  26
ATOM     26  O   UNL     1     -27.631 -20.361 -12.251  1.00  0.00    -0.368 OA
ATOM     27  H   UNL     1     -27.802 -19.408 -12.472  1.00  0.00     0.213 HD
ENDBRANCH   4  26
TORSDOF 5
ENDMDL
MODEL 6
REMARK VINA RESULT:    -7.222      0.619      7.605
REMARK INTER + INTRA:          -9.442
REMARK INTER:                  -9.231
REMARK INTRA:                  -0.211
REMARK UNBOUND:                -0.320
REMARK SMILES O[C@@H]1OC[C@@H](Cc2ccc3c(c2)OCO3)[C@@H]1Cc1ccc2c(c1)OCO2
REMARK SMILES IDX 4 1 5 2 16 3 2 4 3 5 6 6 7 7 12 8 8 9 11 10 9 11 10 12 13 13
REMARK SMILES IDX 15 14 14 15 17 16 18 17 23 18 19 19 22 20 20 21 21 22 24 23
REMARK SMILES IDX 26 24 25 25 1 26
REMARK H PARENT 1 27
REMARK Flexibility Score: inf
ROOT
ATOM      1  C   UNL     1     -26.525 -20.261 -10.214  1.00  0.00     0.168 C 
ATOM      2  C   UNL     1     -26.230 -20.661 -11.658  1.00  0.00     0.028 C 
ATOM      3  C   UNL     1     -26.200 -19.321 -12.355  1.00  0.00     0.055 C 
ATOM      4  C   UNL     1     -25.707 -18.393 -11.239  1.00  0.00     0.250 C 
ATOM      5  O   UNL     1     -26.090 -18.937  -9.992  1.00  0.00    -0.352 OA
ENDROOT
BRANCH   2   6
ATOM      6  C   UNL     1     -27.280 -21.625 -12.248  1.00  0.00     0.042 C 
BRANCH   6   7
ATOM      7  C   UNL     1     -26.623 -22.754 -12.998  1.00  0.00    -0.044 A 
ATOM      8  C   UNL     1     -25.357 -23.235 -12.597  1.00  0.00     0.054 A 
ATOM      9  C   UNL     1     -27.257 -23.312 -14.139  1.00  0.00     0.008 A 
ATOM     10  C   UNL     1     -24.781 -24.261 -13.341  1.00  0.00     0.166 A 
ATOM     11  C   UNL     1     -26.640 -24.349 -14.863  1.00  0.00     0.051 A 
ATOM     12  C   UNL     1     -25.397 -24.796 -14.426  1.00  0.00     0.165 A 
ATOM     13  O   UNL     1     -23.566 -24.889 -13.145  1.00  0.00    -0.454 OA
ATOM     14  O   UNL     1     -24.601 -25.787 -14.966  1.00  0.00    -0.454 OA
ATOM     15  C   UNL     1     -23.410 -25.882 -14.169  1.00  0.00     0.468 C 
ENDBRANCH   6   7
ENDBRANCH   2   6
BRANCH   3  16
ATOM     16  C   UNL     1     -25.341 -19.320 -13.641  1.00  0.00     0.044 C 
BRANCH  16  17
ATOM     17  C   UNL     1     -25.049 -17.918 -14.108  1.00  0.00    -0.044 A 
ATOM     18  C   UNL     1     -23.744 -17.383 -13.995  1.00  0.00     0.054 A 
ATOM     19  C   UNL     1     -26.090 -17.119 -14.649  1.00  0.00     0.008 A 
ATOM     20  C   UNL     1     -23.534 -16.077 -14.429  1.00  0.00     0.166 A 
ATOM     21  C   UNL     1     -25.833 -15.803 -15.076  1.00  0.00     0.051 A 
ATOM     22  C   UNL     1     -24.535 -15.320 -14.946  1.00  0.00     0.165 A 
ATOM     23  O   UNL     1     -22.362 -15.347 -14.422  1.00  0.00    -0.454 OA
ATOM     24  O   UNL     1     -24.041 -14.077 -15.289  1.00  0.00    -0.454 OA
ATOM     25  C   UNL     1     -22.643 -14.051 -14.969  1.00  0.00     0.468 C 
ENDBRANCH  16  17
ENDBRANCH   3  16
BRANCH   4  26
ATOM     26  O   UNL     1     -24.313 -18.214 -11.264  1.00  0.00    -0.368 OA
ATOM     27  H   UNL     1     -23.933 -18.728 -10.505  1.00  0.00     0.213 HD
ENDBRANCH   4  26
TORSDOF 5
ENDMDL
MODEL 7
REMARK VINA RESULT:    -6.452      2.612      5.459
REMARK INTER + INTRA:          -8.469
REMARK INTER:                  -7.482
REMARK INTRA:                  -0.987
REMARK UNBOUND:                -0.320
REMARK SMILES O[C@@H]1OC[C@@H](Cc2ccc3c(c2)OCO3)[C@@H]1Cc1ccc2c(c1)OCO2
REMARK SMILES IDX 4 1 5 2 16 3 2 4 3 5 6 6 7 7 12 8 8 9 11 10 9 11 10 12 13 13
REMARK SMILES IDX 15 14 14 15 17 16 18 17 23 18 19 19 22 20 20 21 21 22 24 23
REMARK SMILES IDX 26 24 25 25 1 26
REMARK H PARENT 1 27
REMARK Flexibility Score: inf
ROOT
ATOM      1  C   UNL     1     -24.026 -13.912 -14.918  1.00  0.00     0.168 C 
ATOM      2  C   UNL     1     -23.510 -15.311 -14.591  1.00  0.00     0.028 C 
ATOM      3  C   UNL     1     -24.728 -16.166 -14.856  1.00  0.00     0.055 C 
ATOM      4  C   UNL     1     -25.438 -15.372 -15.960  1.00  0.00     0.250 C 
ATOM      5  O   UNL     1     -25.104 -14.006 -15.825  1.00  0.00    -0.352 OA
ENDROOT
BRANCH   2   6
ATOM      6  C   UNL     1     -22.984 -15.443 -13.147  1.00  0.00     0.042 C 
BRANCH   6   7
ATOM      7  C   UNL     1     -21.486 -15.299 -13.097  1.00  0.00    -0.044 A 
ATOM      8  C   UNL     1     -20.656 -16.440 -13.184  1.00  0.00     0.054 A 
ATOM      9  C   UNL     1     -20.900 -14.018 -12.918  1.00  0.00     0.008 A 
ATOM     10  C   UNL     1     -19.279 -16.254 -13.104  1.00  0.00     0.166 A 
ATOM     11  C   UNL     1     -19.503 -13.875 -12.843  1.00  0.00     0.051 A 
ATOM     12  C   UNL     1     -18.726 -15.025 -12.942  1.00  0.00     0.165 A 
ATOM     13  O   UNL     1     -18.278 -17.205 -13.165  1.00  0.00    -0.454 OA
ATOM     14  O   UNL     1     -17.351 -15.142 -12.894  1.00  0.00    -0.454 OA
ATOM     15  C   UNL     1     -17.018 -16.531 -13.036  1.00  0.00     0.468 C 
ENDBRANCH   6   7
ENDBRANCH   2   6
BRANCH   3  16
ATOM     16  C   UNL     1     -24.381 -17.629 -15.216  1.00  0.00     0.044 C 
BRANCH  16  17
ATOM     17  C   UNL     1     -24.933 -18.593 -14.197  1.00  0.00    -0.044 A 
ATOM     18  C   UNL     1     -25.380 -19.875 -14.594  1.00  0.00     0.054 A 
ATOM     19  C   UNL     1     -25.021 -18.210 -12.833  1.00  0.00     0.008 A 
ATOM     20  C   UNL     1     -25.895 -20.719 -13.613  1.00  0.00     0.166 A 
ATOM     21  C   UNL     1     -25.548 -19.095 -11.876  1.00  0.00     0.051 A 
ATOM     22  C   UNL     1     -25.975 -20.345 -12.311  1.00  0.00     0.165 A 
ATOM     23  O   UNL     1     -26.385 -22.002 -13.755  1.00  0.00    -0.454 OA
ATOM     24  O   UNL     1     -26.521 -21.375 -11.570  1.00  0.00    -0.454 OA
ATOM     25  C   UNL     1     -26.800 -22.463 -12.462  1.00  0.00     0.468 C 
ENDBRANCH  16  17
ENDBRANCH   3  16
BRANCH   4  26
ATOM     26  O   UNL     1     -25.093 -15.815 -17.249  1.00  0.00    -0.368 OA
ATOM     27  H   UNL     1     -24.169 -15.503 -17.433  1.00  0.00     0.213 HD
ENDBRANCH   4  26
TORSDOF 5
ENDMDL
MODEL 8
REMARK VINA RESULT:    -6.070      2.642      8.136
REMARK INTER + INTRA:          -7.987
REMARK INTER:                  -7.839
REMARK INTRA:                  -0.148
REMARK UNBOUND:                -0.320
REMARK SMILES O[C@@H]1OC[C@@H](Cc2ccc3c(c2)OCO3)[C@@H]1Cc1ccc2c(c1)OCO2
REMARK SMILES IDX 4 1 5 2 16 3 2 4 3 5 6 6 7 7 12 8 8 9 11 10 9 11 10 12 13 13
REMARK SMILES IDX 15 14 14 15 17 16 18 17 23 18 19 19 22 20 20 21 21 22 24 23
REMARK SMILES IDX 26 24 25 25 1 26
REMARK H PARENT 1 27
REMARK Flexibility Score: inf
ROOT
ATOM      1  C   UNL     1     -25.893 -16.697 -14.512  1.00  0.00     0.168 C 
ATOM      2  C   UNL     1     -24.785 -16.079 -13.661  1.00  0.00     0.028 C 
ATOM      3  C   UNL     1     -23.781 -15.660 -14.710  1.00  0.00     0.055 C 
ATOM      4  C   UNL     1     -24.683 -15.360 -15.912  1.00  0.00     0.250 C 
ATOM      5  O   UNL     1     -25.852 -16.148 -15.812  1.00  0.00    -0.352 OA
ENDROOT
BRANCH   2   6
ATOM      6  C   UNL     1     -24.199 -17.058 -12.622  1.00  0.00     0.042 C 
BRANCH   6   7
ATOM      7  C   UNL     1     -24.836 -18.419 -12.737  1.00  0.00    -0.044 A 
ATOM      8  C   UNL     1     -24.648 -19.199 -13.900  1.00  0.00     0.054 A 
ATOM      9  C   UNL     1     -25.664 -18.906 -11.691  1.00  0.00     0.008 A 
ATOM     10  C   UNL     1     -25.281 -20.437 -13.966  1.00  0.00     0.166 A 
ATOM     11  C   UNL     1     -26.284 -20.164 -11.799  1.00  0.00     0.051 A 
ATOM     12  C   UNL     1     -26.064 -20.900 -12.959  1.00  0.00     0.165 A 
ATOM     13  O   UNL     1     -25.246 -21.367 -14.987  1.00  0.00    -0.454 OA
ATOM     14  O   UNL     1     -26.560 -22.144 -13.296  1.00  0.00    -0.454 OA
ATOM     15  C   UNL     1     -26.056 -22.485 -14.596  1.00  0.00     0.468 C 
ENDBRANCH   6   7
ENDBRANCH   2   6
BRANCH   3  16
ATOM     16  C   UNL     1     -22.876 -14.491 -14.257  1.00  0.00     0.044 C 
BRANCH  16  17
ATOM     17  C   UNL     1     -21.523 -14.981 -13.810  1.00  0.00    -0.044 A 
ATOM     18  C   UNL     1     -20.520 -14.060 -13.425  1.00  0.00     0.054 A 
ATOM     19  C   UNL     1     -21.243 -16.372 -13.791  1.00  0.00     0.008 A 
ATOM     20  C   UNL     1     -19.284 -14.567 -13.036  1.00  0.00     0.166 A 
ATOM     21  C   UNL     1     -19.979 -16.840 -13.390  1.00  0.00     0.051 A 
ATOM     22  C   UNL     1     -19.024 -15.899 -13.019  1.00  0.00     0.165 A 
ATOM     23  O   UNL     1     -18.163 -13.875 -12.620  1.00  0.00    -0.454 OA
ATOM     24  O   UNL     1     -17.728 -16.110 -12.593  1.00  0.00    -0.454 OA
ATOM     25  C   UNL     1     -17.136 -14.831 -12.325  1.00  0.00     0.468 C 
ENDBRANCH  16  17
ENDBRANCH   3  16
BRANCH   4  26
ATOM     26  O   UNL     1     -25.038 -14.002 -15.994  1.00  0.00    -0.368 OA
ATOM     27  H   UNL     1     -24.199 -13.473 -15.964  1.00  0.00     0.213 HD
ENDBRANCH   4  26
TORSDOF 5
ENDMDL
MODEL 9
REMARK VINA RESULT:    -5.828      2.348      6.073
REMARK INTER + INTRA:          -7.681
REMARK INTER:                  -7.447
REMARK INTRA:                  -0.234
REMARK UNBOUND:                -0.320
REMARK SMILES O[C@@H]1OC[C@@H](Cc2ccc3c(c2)OCO3)[C@@H]1Cc1ccc2c(c1)OCO2
REMARK SMILES IDX 4 1 5 2 16 3 2 4 3 5 6 6 7 7 12 8 8 9 11 10 9 11 10 12 13 13
REMARK SMILES IDX 15 14 14 15 17 16 18 17 23 18 19 19 22 20 20 21 21 22 24 23
REMARK SMILES IDX 26 24 25 25 1 26
REMARK H PARENT 1 27
REMARK Flexibility Score: inf
ROOT
ATOM      1  C   UNL     1     -23.124 -18.997 -14.138  1.00  0.00     0.168 C 
ATOM      2  C   UNL     1     -23.990 -19.806 -13.173  1.00  0.00     0.028 C 
ATOM      3  C   UNL     1     -24.693 -18.718 -12.395  1.00  0.00     0.055 C 
ATOM      4  C   UNL     1     -24.777 -17.590 -13.431  1.00  0.00     0.250 C 
ATOM      5  O   UNL     1     -23.703 -17.726 -14.339  1.00  0.00    -0.352 OA
ENDROOT
BRANCH   2   6
ATOM      6  C   UNL     1     -23.172 -20.757 -12.275  1.00  0.00     0.042 C 
BRANCH   6   7
ATOM      7  C   UNL     1     -23.418 -22.197 -12.641  1.00  0.00    -0.044 A 
ATOM      8  C   UNL     1     -23.579 -22.572 -13.994  1.00  0.00     0.054 A 
ATOM      9  C   UNL     1     -23.532 -23.180 -11.622  1.00  0.00     0.008 A 
ATOM     10  C   UNL     1     -23.832 -23.912 -14.275  1.00  0.00     0.166 A 
ATOM     11  C   UNL     1     -23.788 -24.523 -11.951  1.00  0.00     0.051 A 
ATOM     12  C   UNL     1     -23.930 -24.847 -13.297  1.00  0.00     0.165 A 
ATOM     13  O   UNL     1     -24.022 -24.511 -15.506  1.00  0.00    -0.454 OA
ATOM     14  O   UNL     1     -24.186 -26.080 -13.862  1.00  0.00    -0.454 OA
ATOM     15  C   UNL     1     -24.251 -25.911 -15.286  1.00  0.00     0.468 C 
ENDBRANCH   6   7
ENDBRANCH   2   6
BRANCH   3  16
ATOM     16  C   UNL     1     -26.048 -19.170 -11.802  1.00  0.00     0.044 C 
BRANCH  16  17
ATOM     17  C   UNL     1     -26.429 -20.546 -12.282  1.00  0.00    -0.044 A 
ATOM     18  C   UNL     1     -26.372 -20.865 -13.659  1.00  0.00     0.054 A 
ATOM     19  C   UNL     1     -26.866 -21.526 -11.353  1.00  0.00     0.008 A 
ATOM     20  C   UNL     1     -26.750 -22.147 -14.048  1.00  0.00     0.166 A 
ATOM     21  C   UNL     1     -27.238 -22.810 -11.791  1.00  0.00     0.051 A 
ATOM     22  C   UNL     1     -27.165 -23.078 -13.153  1.00  0.00     0.165 A 
ATOM     23  O   UNL     1     -26.776 -22.687 -15.320  1.00  0.00    -0.454 OA
ATOM     24  O   UNL     1     -27.474 -24.250 -13.817  1.00  0.00    -0.454 OA
ATOM     25  C   UNL     1     -27.236 -24.041 -15.217  1.00  0.00     0.468 C 
ENDBRANCH  16  17
ENDBRANCH   3  16
BRANCH   4  26
ATOM     26  O   UNL     1     -25.993 -17.596 -14.137  1.00  0.00    -0.368 OA
ATOM     27  H   UNL     1     -25.817 -17.997 -15.028  1.00  0.00     0.213 HD
ENDBRANCH   4  26
TORSDOF 5
ENDMDL
