MODEL 1
REMARK VINA RESULT:    -4.285      0.000      0.000
REMARK INTER + INTRA:          -9.869
REMARK INTER:                  -7.793
REMARK INTRA:                  -2.077
REMARK UNBOUND:                -2.077
REMARK SMILES CCCCCCCCCCCCCCCC(=O)[O-]
REMARK SMILES IDX 9 1 10 2 11 3 12 4 13 5 14 6 15 7 16 8 17 9 18 10 8 11 7 12
REMARK SMILES IDX 6 13 5 14 4 15 3 16 2 17 1 18
REMARK H PARENT
REMARK Flexibility Score: inf
ROOT
ATOM      1  C   UNL     1      15.388  26.541  54.719  1.00  0.00     0.000 C 
ENDROOT
BRANCH   1   2
ATOM      2  C   UNL     1      15.942  27.970  54.818  1.00  0.00     0.000 C 
BRANCH   2   3
ATOM      3  C   UNL     1      17.180  28.195  53.930  1.00  0.00     0.000 C 
BRANCH   3   4
ATOM      4  C   UNL     1      17.672  29.652  53.854  1.00  0.00     0.000 C 
BRANCH   4   5
ATOM      5  C   UNL     1      16.851  30.661  54.679  1.00  0.00     0.000 C 
BRANCH   5   6
ATOM      6  C   UNL     1      17.513  31.055  56.017  1.00  0.00     0.006 C 
BRANCH   6   7
ATOM      7  C   UNL     1      16.535  30.996  57.197  1.00  0.00     0.053 C 
BRANCH   7   8
ATOM      8  C   UNL     1      15.718  32.248  57.262  1.00  0.00     0.041 C 
ATOM      9  O   UNL     1      16.259  33.343  57.568  1.00  0.00    -0.550 OA
ATOM     10  O   UNL     1      14.368  32.214  56.937  1.00  0.00    -0.550 OA
ENDBRANCH   7   8
ENDBRANCH   6   7
ENDBRANCH   5   6
ENDBRANCH   4   5
ENDBRANCH   3   4
ENDBRANCH   2   3
ENDBRANCH   1   2
BRANCH   1  11
ATOM     11  C   UNL     1      16.368  25.621  53.982  1.00  0.00     0.000 C 
BRANCH  11  12
ATOM     12  C   UNL     1      15.622  24.539  53.193  1.00  0.00    -0.000 C 
BRANCH  12  13
ATOM     13  C   UNL     1      15.567  24.888  51.698  1.00  0.00    -0.000 C 
BRANCH  13  14
ATOM     14  C   UNL     1      14.233  25.530  51.285  1.00  0.00    -0.000 C 
BRANCH  14  15
ATOM     15  C   UNL     1      14.297  27.067  51.263  1.00  0.00    -0.000 C 
BRANCH  15  16
ATOM     16  C   UNL     1      15.555  27.595  50.556  1.00  0.00    -0.000 C 
BRANCH  16  17
ATOM     17  C   UNL     1      15.666  29.126  50.605  1.00  0.00    -0.003 C 
ATOM     18  C   UNL     1      14.604  29.723  51.524  1.00  0.00     0.004 C 
ENDBRANCH  16  17
ENDBRANCH  15  16
ENDBRANCH  14  15
ENDBRANCH  13  14
ENDBRANCH  12  13
ENDBRANCH  11  12
ENDBRANCH   1  11
TORSDOF 14
ENDMDL
MODEL 2
REMARK VINA RESULT:    -4.285      2.246      4.533
REMARK INTER + INTRA:          -9.868
REMARK INTER:                  -7.817
REMARK INTRA:                  -2.051
REMARK UNBOUND:                -2.077
REMARK SMILES CCCCCCCCCCCCCCCC(=O)[O-]
REMARK SMILES IDX 9 1 10 2 11 3 12 4 13 5 14 6 15 7 16 8 17 9 18 10 8 11 7 12
REMARK SMILES IDX 6 13 5 14 4 15 3 16 2 17 1 18
REMARK H PARENT
REMARK Flexibility Score: inf
ROOT
ATOM      1  C   UNL     1      13.729  25.262  51.767  1.00  0.00     0.000 C 
ENDROOT
BRANCH   1   2
ATOM      2  C   UNL     1      13.887  25.760  50.322  1.00  0.00     0.000 C 
BRANCH   2   3
ATOM      3  C   UNL     1      14.823  26.978  50.207  1.00  0.00     0.000 C 
BRANCH   3   4
ATOM      4  C   UNL     1      14.682  28.017  51.335  1.00  0.00     0.000 C 
BRANCH   4   5
ATOM      5  C   UNL     1      15.747  29.129  51.335  1.00  0.00     0.000 C 
BRANCH   5   6
ATOM      6  C   UNL     1      15.216  30.500  51.805  1.00  0.00     0.006 C 
BRANCH   6   7
ATOM      7  C   UNL     1      15.307  31.573  50.713  1.00  0.00     0.053 C 
BRANCH   7   8
ATOM      8  C   UNL     1      15.207  32.939  51.313  1.00  0.00     0.041 C 
ATOM      9  O   UNL     1      15.754  33.922  50.745  1.00  0.00    -0.550 OA
ATOM     10  O   UNL     1      14.471  33.138  52.474  1.00  0.00    -0.550 OA
ENDBRANCH   7   8
ENDBRANCH   6   7
ENDBRANCH   5   6
ENDBRANCH   4   5
ENDBRANCH   3   4
ENDBRANCH   2   3
ENDBRANCH   1   2
BRANCH   1  11
ATOM     11  C   UNL     1      14.714  24.126  52.067  1.00  0.00     0.000 C 
BRANCH  11  12
ATOM     12  C   UNL     1      15.572  24.450  53.295  1.00  0.00    -0.000 C 
BRANCH  12  13
ATOM     13  C   UNL     1      16.727  25.394  52.925  1.00  0.00    -0.000 C 
BRANCH  13  14
ATOM     14  C   UNL     1      17.008  26.445  54.011  1.00  0.00    -0.000 C 
BRANCH  14  15
ATOM     15  C   UNL     1      15.750  26.816  54.815  1.00  0.00    -0.000 C 
BRANCH  15  16
ATOM     16  C   UNL     1      15.670  28.319  55.126  1.00  0.00    -0.000 C 
BRANCH  16  17
ATOM     17  C   UNL     1      16.968  29.066  54.784  1.00  0.00    -0.003 C 
ATOM     18  C   UNL     1      16.888  30.528  55.213  1.00  0.00     0.004 C 
ENDBRANCH  16  17
ENDBRANCH  15  16
ENDBRANCH  14  15
ENDBRANCH  13  14
ENDBRANCH  12  13
ENDBRANCH  11  12
ENDBRANCH   1  11
TORSDOF 14
ENDMDL
MODEL 3
REMARK VINA RESULT:    -4.262      1.169      2.210
REMARK INTER + INTRA:          -9.827
REMARK INTER:                  -7.743
REMARK INTRA:                  -2.084
REMARK UNBOUND:                -2.077
REMARK SMILES CCCCCCCCCCCCCCCC(=O)[O-]
REMARK SMILES IDX 9 1 10 2 11 3 12 4 13 5 14 6 15 7 16 8 17 9 18 10 8 11 7 12
REMARK SMILES IDX 6 13 5 14 4 15 3 16 2 17 1 18
REMARK H PARENT
REMARK Flexibility Score: inf
ROOT
ATOM      1  C   UNL     1      15.783  25.292  53.879  1.00  0.00     0.000 C 
ENDROOT
BRANCH   1   2
ATOM      2  C   UNL     1      15.200  26.586  54.468  1.00  0.00     0.000 C 
BRANCH   2   3
ATOM      3  C   UNL     1      16.210  27.354  55.343  1.00  0.00     0.000 C 
BRANCH   3   4
ATOM      4  C   UNL     1      15.902  28.851  55.530  1.00  0.00     0.000 C 
BRANCH   4   5
ATOM      5  C   UNL     1      17.001  29.810  55.035  1.00  0.00     0.000 C 
BRANCH   5   6
ATOM      6  C   UNL     1      17.294  30.974  56.004  1.00  0.00     0.006 C 
BRANCH   6   7
ATOM      7  C   UNL     1      16.232  31.109  57.102  1.00  0.00     0.053 C 
BRANCH   7   8
ATOM      8  C   UNL     1      15.642  32.483  57.093  1.00  0.00     0.041 C 
ATOM      9  O   UNL     1      16.265  33.444  57.618  1.00  0.00    -0.550 OA
ATOM     10  O   UNL     1      14.425  32.714  56.464  1.00  0.00    -0.550 OA
ENDBRANCH   7   8
ENDBRANCH   6   7
ENDBRANCH   5   6
ENDBRANCH   4   5
ENDBRANCH   3   4
ENDBRANCH   2   3
ENDBRANCH   1   2
BRANCH   1  11
ATOM     11  C   UNL     1      15.164  24.985  52.510  1.00  0.00     0.000 C 
BRANCH  11  12
ATOM     12  C   UNL     1      14.123  26.042  52.126  1.00  0.00    -0.000 C 
BRANCH  12  13
ATOM     13  C   UNL     1      14.624  26.910  50.960  1.00  0.00    -0.000 C 
BRANCH  13  14
ATOM     14  C   UNL     1      14.670  28.406  51.308  1.00  0.00    -0.000 C 
BRANCH  14  15
ATOM     15  C   UNL     1      16.093  28.897  51.622  1.00  0.00    -0.000 C 
BRANCH  15  16
ATOM     16  C   UNL     1      17.173  27.895  51.185  1.00  0.00    -0.000 C 
BRANCH  16  17
ATOM     17  C   UNL     1      18.192  27.598  52.295  1.00  0.00    -0.003 C 
ATOM     18  C   UNL     1      19.490  28.369  52.069  1.00  0.00     0.004 C 
ENDBRANCH  16  17
ENDBRANCH  15  16
ENDBRANCH  14  15
ENDBRANCH  13  14
ENDBRANCH  12  13
ENDBRANCH  11  12
ENDBRANCH   1  11
TORSDOF 14
ENDMDL
MODEL 4
REMARK VINA RESULT:    -4.226      1.624      3.184
REMARK INTER + INTRA:          -9.760
REMARK INTER:                  -7.495
REMARK INTRA:                  -2.266
REMARK UNBOUND:                -2.077
REMARK SMILES CCCCCCCCCCCCCCCC(=O)[O-]
REMARK SMILES IDX 9 1 10 2 11 3 12 4 13 5 14 6 15 7 16 8 17 9 18 10 8 11 7 12
REMARK SMILES IDX 6 13 5 14 4 15 3 16 2 17 1 18
REMARK H PARENT
REMARK Flexibility Score: inf
ROOT
ATOM      1  C   UNL     1      15.035  24.408  51.975  1.00  0.00     0.000 C 
ENDROOT
BRANCH   1   2
ATOM      2  C   UNL     1      15.620  24.564  53.387  1.00  0.00     0.000 C 
BRANCH   2   3
ATOM      3  C   UNL     1      17.026  25.194  53.387  1.00  0.00     0.000 C 
BRANCH   3   4
ATOM      4  C   UNL     1      17.110  26.597  54.015  1.00  0.00     0.000 C 
BRANCH   4   5
ATOM      5  C   UNL     1      15.923  26.981  54.918  1.00  0.00     0.000 C 
BRANCH   5   6
ATOM      6  C   UNL     1      15.710  28.504  55.052  1.00  0.00     0.006 C 
BRANCH   6   7
ATOM      7  C   UNL     1      16.970  29.308  54.708  1.00  0.00     0.053 C 
BRANCH   7   8
ATOM      8  C   UNL     1      16.618  30.732  54.418  1.00  0.00     0.041 C 
ATOM      9  O   UNL     1      15.893  31.381  55.217  1.00  0.00    -0.550 OA
ATOM     10  O   UNL     1      17.131  31.359  53.289  1.00  0.00    -0.550 OA
ENDBRANCH   7   8
ENDBRANCH   6   7
ENDBRANCH   5   6
ENDBRANCH   4   5
ENDBRANCH   3   4
ENDBRANCH   2   3
ENDBRANCH   1   2
BRANCH   1  11
ATOM     11  C   UNL     1      14.199  25.634  51.589  1.00  0.00     0.000 C 
BRANCH  11  12
ATOM     12  C   UNL     1      14.141  25.805  50.067  1.00  0.00    -0.000 C 
BRANCH  12  13
ATOM     13  C   UNL     1      14.858  27.092  49.630  1.00  0.00    -0.000 C 
BRANCH  13  14
ATOM     14  C   UNL     1      16.157  27.344  50.411  1.00  0.00    -0.000 C 
BRANCH  14  15
ATOM     15  C   UNL     1      16.181  28.725  51.089  1.00  0.00    -0.000 C 
BRANCH  15  16
ATOM     16  C   UNL     1      14.779  29.209  51.490  1.00  0.00    -0.000 C 
BRANCH  16  17
ATOM     17  C   UNL     1      14.511  30.663  51.073  1.00  0.00    -0.003 C 
ATOM     18  C   UNL     1      14.440  30.793  49.553  1.00  0.00     0.004 C 
ENDBRANCH  16  17
ENDBRANCH  15  16
ENDBRANCH  14  15
ENDBRANCH  13  14
ENDBRANCH  12  13
ENDBRANCH  11  12
ENDBRANCH   1  11
TORSDOF 14
ENDMDL
MODEL 5
REMARK VINA RESULT:    -4.197      2.758      5.241
REMARK INTER + INTRA:          -9.709
REMARK INTER:                  -7.492
REMARK INTRA:                  -2.218
REMARK UNBOUND:                -2.077
REMARK SMILES CCCCCCCCCCCCCCCC(=O)[O-]
REMARK SMILES IDX 9 1 10 2 11 3 12 4 13 5 14 6 15 7 16 8 17 9 18 10 8 11 7 12
REMARK SMILES IDX 6 13 5 14 4 15 3 16 2 17 1 18
REMARK H PARENT
REMARK Flexibility Score: inf
ROOT
ATOM      1  C   UNL     1      14.759  24.916  49.727  1.00  0.00     0.000 C 
ENDROOT
BRANCH   1   2
ATOM      2  C   UNL     1      14.253  25.829  48.600  1.00  0.00     0.000 C 
BRANCH   2   3
ATOM      3  C   UNL     1      14.649  27.304  48.801  1.00  0.00     0.000 C 
BRANCH   3   4
ATOM      4  C   UNL     1      16.093  27.530  49.284  1.00  0.00     0.000 C 
BRANCH   4   5
ATOM      5  C   UNL     1      16.222  28.178  50.676  1.00  0.00     0.000 C 
BRANCH   5   6
ATOM      6  C   UNL     1      14.945  28.910  51.142  1.00  0.00     0.006 C 
BRANCH   6   7
ATOM      7  C   UNL     1      15.203  30.380  51.492  1.00  0.00     0.053 C 
BRANCH   7   8
ATOM      8  C   UNL     1      15.024  31.245  50.285  1.00  0.00     0.041 C 
ATOM      9  O   UNL     1      14.431  30.797  49.268  1.00  0.00    -0.550 OA
ATOM     10  O   UNL     1      15.470  32.560  50.299  1.00  0.00    -0.550 OA
ENDBRANCH   7   8
ENDBRANCH   6   7
ENDBRANCH   5   6
ENDBRANCH   4   5
ENDBRANCH   3   4
ENDBRANCH   2   3
ENDBRANCH   1   2
BRANCH   1  11
ATOM     11  C   UNL     1      13.939  25.118  51.007  1.00  0.00     0.000 C 
BRANCH  11  12
ATOM     12  C   UNL     1      14.612  24.439  52.206  1.00  0.00    -0.000 C 
BRANCH  12  13
ATOM     13  C   UNL     1      16.131  24.674  52.190  1.00  0.00    -0.000 C 
BRANCH  13  14
ATOM     14  C   UNL     1      16.580  25.735  53.207  1.00  0.00    -0.000 C 
BRANCH  14  15
ATOM     15  C   UNL     1      15.499  26.041  54.259  1.00  0.00    -0.000 C 
BRANCH  15  16
ATOM     16  C   UNL     1      15.885  27.211  55.178  1.00  0.00    -0.000 C 
BRANCH  16  17
ATOM     17  C   UNL     1      16.708  28.287  54.455  1.00  0.00    -0.003 C 
ATOM     18  C   UNL     1      16.461  29.666  55.061  1.00  0.00     0.004 C 
ENDBRANCH  16  17
ENDBRANCH  15  16
ENDBRANCH  14  15
ENDBRANCH  13  14
ENDBRANCH  12  13
ENDBRANCH  11  12
ENDBRANCH   1  11
TORSDOF 14
ENDMDL
MODEL 6
REMARK VINA RESULT:    -4.196      2.598      5.779
REMARK INTER + INTRA:          -9.706
REMARK INTER:                  -8.157
REMARK INTRA:                  -1.549
REMARK UNBOUND:                -2.077
REMARK SMILES CCCCCCCCCCCCCCCC(=O)[O-]
REMARK SMILES IDX 9 1 10 2 11 3 12 4 13 5 14 6 15 7 16 8 17 9 18 10 8 11 7 12
REMARK SMILES IDX 6 13 5 14 4 15 3 16 2 17 1 18
REMARK H PARENT
REMARK Flexibility Score: inf
ROOT
ATOM      1  C   UNL     1      15.910  25.267  53.941  1.00  0.00     0.000 C 
ENDROOT
BRANCH   1   2
ATOM      2  C   UNL     1      15.153  24.773  52.699  1.00  0.00     0.000 C 
BRANCH   2   3
ATOM      3  C   UNL     1      14.401  25.900  51.968  1.00  0.00     0.000 C 
BRANCH   3   4
ATOM      4  C   UNL     1      15.114  26.458  50.723  1.00  0.00     0.000 C 
BRANCH   4   5
ATOM      5  C   UNL     1      15.750  27.850  50.904  1.00  0.00     0.000 C 
BRANCH   5   6
ATOM      6  C   UNL     1      14.751  28.938  51.348  1.00  0.00     0.006 C 
BRANCH   6   7
ATOM      7  C   UNL     1      15.402  30.321  51.474  1.00  0.00     0.053 C 
BRANCH   7   8
ATOM      8  C   UNL     1      15.094  31.156  50.273  1.00  0.00     0.041 C 
ATOM      9  O   UNL     1      15.326  32.394  50.285  1.00  0.00    -0.550 OA
ATOM     10  O   UNL     1      14.593  30.562  49.122  1.00  0.00    -0.550 OA
ENDBRANCH   7   8
ENDBRANCH   6   7
ENDBRANCH   5   6
ENDBRANCH   4   5
ENDBRANCH   3   4
ENDBRANCH   2   3
ENDBRANCH   1   2
BRANCH   1  11
ATOM     11  C   UNL     1      15.373  26.626  54.406  1.00  0.00     0.000 C 
BRANCH  11  12
ATOM     12  C   UNL     1      16.519  27.578  54.766  1.00  0.00    -0.000 C 
BRANCH  12  13
ATOM     13  C   UNL     1      15.978  28.919  55.285  1.00  0.00    -0.000 C 
BRANCH  13  14
ATOM     14  C   UNL     1      16.799  30.123  54.795  1.00  0.00    -0.000 C 
BRANCH  14  15
ATOM     15  C   UNL     1      17.374  30.957  55.953  1.00  0.00    -0.000 C 
BRANCH  15  16
ATOM     16  C   UNL     1      16.435  31.005  57.168  1.00  0.00    -0.000 C 
BRANCH  16  17
ATOM     17  C   UNL     1      15.913  32.419  57.460  1.00  0.00    -0.003 C 
ATOM     18  C   UNL     1      14.738  32.769  56.550  1.00  0.00     0.004 C 
ENDBRANCH  16  17
ENDBRANCH  15  16
ENDBRANCH  14  15
ENDBRANCH  13  14
ENDBRANCH  12  13
ENDBRANCH  11  12
ENDBRANCH   1  11
TORSDOF 14
ENDMDL
MODEL 7
REMARK VINA RESULT:    -4.181      2.968      4.315
REMARK INTER + INTRA:          -9.680
REMARK INTER:                  -7.073
REMARK INTRA:                  -2.607
REMARK UNBOUND:                -2.077
REMARK SMILES CCCCCCCCCCCCCCCC(=O)[O-]
REMARK SMILES IDX 9 1 10 2 11 3 12 4 13 5 14 6 15 7 16 8 17 9 18 10 8 11 7 12
REMARK SMILES IDX 6 13 5 14 4 15 3 16 2 17 1 18
REMARK H PARENT
REMARK Flexibility Score: inf
ROOT
ATOM      1  C   UNL     1      15.251  26.431  54.056  1.00  0.00     0.000 C 
ENDROOT
BRANCH   1   2
ATOM      2  C   UNL     1      15.946  27.095  55.254  1.00  0.00     0.000 C 
BRANCH   2   3
ATOM      3  C   UNL     1      15.877  28.634  55.209  1.00  0.00     0.000 C 
BRANCH   3   4
ATOM      4  C   UNL     1      17.064  29.318  54.507  1.00  0.00     0.000 C 
BRANCH   4   5
ATOM      5  C   UNL     1      16.707  30.089  53.222  1.00  0.00     0.000 C 
BRANCH   5   6
ATOM      6  C   UNL     1      16.533  29.187  51.982  1.00  0.00     0.006 C 
BRANCH   6   7
ATOM      7  C   UNL     1      15.104  29.218  51.427  1.00  0.00     0.053 C 
BRANCH   7   8
ATOM      8  C   UNL     1      15.037  30.074  50.202  1.00  0.00     0.041 C 
ATOM      9  O   UNL     1      15.180  31.322  50.293  1.00  0.00    -0.550 OA
ATOM     10  O   UNL     1      14.865  29.489  48.954  1.00  0.00    -0.550 OA
ENDBRANCH   7   8
ENDBRANCH   6   7
ENDBRANCH   5   6
ENDBRANCH   4   5
ENDBRANCH   3   4
ENDBRANCH   2   3
ENDBRANCH   1   2
BRANCH   1  11
ATOM     11  C   UNL     1      16.162  25.384  53.404  1.00  0.00     0.000 C 
BRANCH  11  12
ATOM     12  C   UNL     1      17.633  25.639  53.753  1.00  0.00    -0.000 C 
BRANCH  12  13
ATOM     13  C   UNL     1      18.450  25.959  52.491  1.00  0.00    -0.000 C 
BRANCH  13  14
ATOM     14  C   UNL     1      17.964  25.187  51.255  1.00  0.00    -0.000 C 
BRANCH  14  15
ATOM     15  C   UNL     1      17.992  26.041  49.975  1.00  0.00    -0.000 C 
BRANCH  15  16
ATOM     16  C   UNL     1      16.584  26.398  49.473  1.00  0.00    -0.000 C 
BRANCH  16  17
ATOM     17  C   UNL     1      15.569  25.267  49.697  1.00  0.00    -0.003 C 
ATOM     18  C   UNL     1      14.240  25.816  50.210  1.00  0.00     0.004 C 
ENDBRANCH  16  17
ENDBRANCH  15  16
ENDBRANCH  14  15
ENDBRANCH  13  14
ENDBRANCH  12  13
ENDBRANCH  11  12
ENDBRANCH   1  11
TORSDOF 14
ENDMDL
MODEL 8
REMARK VINA RESULT:    -4.048      2.696      5.598
REMARK INTER + INTRA:          -9.438
REMARK INTER:                  -7.568
REMARK INTRA:                  -1.870
REMARK UNBOUND:                -2.077
REMARK SMILES CCCCCCCCCCCCCCCC(=O)[O-]
REMARK SMILES IDX 9 1 10 2 11 3 12 4 13 5 14 6 15 7 16 8 17 9 18 10 8 11 7 12
REMARK SMILES IDX 6 13 5 14 4 15 3 16 2 17 1 18
REMARK H PARENT
REMARK Flexibility Score: inf
ROOT
ATOM      1  C   UNL     1      16.500  25.708  53.699  1.00  0.00     0.000 C 
ENDROOT
BRANCH   1   2
ATOM      2  C   UNL     1      15.008  25.806  53.350  1.00  0.00     0.000 C 
BRANCH   2   3
ATOM      3  C   UNL     1      14.736  25.671  51.840  1.00  0.00     0.000 C 
BRANCH   3   4
ATOM      4  C   UNL     1      14.571  27.004  51.087  1.00  0.00     0.000 C 
BRANCH   4   5
ATOM      5  C   UNL     1      15.886  27.662  50.628  1.00  0.00     0.000 C 
BRANCH   5   6
ATOM      6  C   UNL     1      16.168  29.023  51.300  1.00  0.00     0.006 C 
BRANCH   6   7
ATOM      7  C   UNL     1      14.909  29.889  51.427  1.00  0.00     0.053 C 
BRANCH   7   8
ATOM      8  C   UNL     1      14.874  30.923  50.347  1.00  0.00     0.041 C 
ATOM      9  O   UNL     1      15.119  32.129  50.616  1.00  0.00    -0.550 OA
ATOM     10  O   UNL     1      14.618  30.549  49.034  1.00  0.00    -0.550 OA
ENDBRANCH   7   8
ENDBRANCH   6   7
ENDBRANCH   5   6
ENDBRANCH   4   5
ENDBRANCH   3   4
ENDBRANCH   2   3
ENDBRANCH   1   2
BRANCH   1  11
ATOM     11  C   UNL     1      16.998  27.005  54.348  1.00  0.00     0.000 C 
BRANCH  11  12
ATOM     12  C   UNL     1      15.941  27.592  55.289  1.00  0.00    -0.000 C 
BRANCH  12  13
ATOM     13  C   UNL     1      15.746  29.094  55.029  1.00  0.00    -0.000 C 
BRANCH  13  14
ATOM     14  C   UNL     1      16.099  29.961  56.248  1.00  0.00    -0.000 C 
BRANCH  14  15
ATOM     15  C   UNL     1      17.382  30.783  56.037  1.00  0.00    -0.000 C 
BRANCH  15  16
ATOM     16  C   UNL     1      17.936  30.656  54.609  1.00  0.00    -0.000 C 
BRANCH  16  17
ATOM     17  C   UNL     1      19.426  31.019  54.517  1.00  0.00    -0.003 C 
ATOM     18  C   UNL     1      19.939  31.573  55.843  1.00  0.00     0.004 C 
ENDBRANCH  16  17
ENDBRANCH  15  16
ENDBRANCH  14  15
ENDBRANCH  13  14
ENDBRANCH  12  13
ENDBRANCH  11  12
ENDBRANCH   1  11
TORSDOF 14
ENDMDL
MODEL 9
REMARK VINA RESULT:    -4.021      3.446      4.783
REMARK INTER + INTRA:          -9.388
REMARK INTER:                  -6.938
REMARK INTRA:                  -2.450
REMARK UNBOUND:                -2.077
REMARK SMILES CCCCCCCCCCCCCCCC(=O)[O-]
REMARK SMILES IDX 9 1 10 2 11 3 12 4 13 5 14 6 15 7 16 8 17 9 18 10 8 11 7 12
REMARK SMILES IDX 6 13 5 14 4 15 3 16 2 17 1 18
REMARK H PARENT
REMARK Flexibility Score: inf
ROOT
ATOM      1  C   UNL     1      15.400  24.189  53.040  1.00  0.00     0.000 C 
ENDROOT
BRANCH   1   2
ATOM      2  C   UNL     1      15.507  25.579  53.686  1.00  0.00     0.000 C 
BRANCH   2   3
ATOM      3  C   UNL     1      16.964  26.018  53.923  1.00  0.00     0.000 C 
BRANCH   3   4
ATOM      4  C   UNL     1      17.333  27.394  53.339  1.00  0.00     0.000 C 
BRANCH   4   5
ATOM      5  C   UNL     1      16.755  27.687  51.942  1.00  0.00     0.000 C 
BRANCH   5   6
ATOM      6  C   UNL     1      16.340  29.159  51.735  1.00  0.00     0.006 C 
BRANCH   6   7
ATOM      7  C   UNL     1      15.005  29.297  50.994  1.00  0.00     0.053 C 
BRANCH   7   8
ATOM      8  C   UNL     1      14.988  30.549  50.176  1.00  0.00     0.041 C 
ATOM      9  O   UNL     1      14.570  30.524  48.988  1.00  0.00    -0.550 OA
ATOM     10  O   UNL     1      15.388  31.753  50.739  1.00  0.00    -0.550 OA
ENDBRANCH   7   8
ENDBRANCH   6   7
ENDBRANCH   5   6
ENDBRANCH   4   5
ENDBRANCH   3   4
ENDBRANCH   2   3
ENDBRANCH   1   2
BRANCH   1  11
ATOM     11  C   UNL     1      14.314  24.169  51.958  1.00  0.00     0.000 C 
BRANCH  11  12
ATOM     12  C   UNL     1      13.776  25.580  51.690  1.00  0.00    -0.000 C 
BRANCH  12  13
ATOM     13  C   UNL     1      13.896  25.941  50.201  1.00  0.00    -0.000 C 
BRANCH  13  14
ATOM     14  C   UNL     1      14.826  24.989  49.431  1.00  0.00    -0.000 C 
BRANCH  14  15
ATOM     15  C   UNL     1      16.165  25.646  49.056  1.00  0.00    -0.000 C 
BRANCH  15  16
ATOM     16  C   UNL     1      17.328  24.642  49.028  1.00  0.00    -0.000 C 
BRANCH  16  17
ATOM     17  C   UNL     1      17.739  24.170  50.431  1.00  0.00    -0.003 C 
ATOM     18  C   UNL     1      19.038  24.837  50.875  1.00  0.00     0.004 C 
ENDBRANCH  16  17
ENDBRANCH  15  16
ENDBRANCH  14  15
ENDBRANCH  13  14
ENDBRANCH  12  13
ENDBRANCH  11  12
ENDBRANCH   1  11
TORSDOF 14
ENDMDL
