MODEL 1
REMARK VINA RESULT:    -2.131      0.000      0.000
REMARK INTER + INTRA:          -4.091
REMARK INTER:                  -3.750
REMARK INTRA:                  -0.342
REMARK UNBOUND:                -0.342
REMARK SMILES CCCCCCCCCCCCCCC(=O)[O-]
REMARK SMILES IDX 9 1 10 2 11 3 12 4 13 5 14 6 15 7 16 8 17 9 8 10 7 11 6 12
REMARK SMILES IDX 5 13 4 14 3 15 2 16 1 17
REMARK H PARENT
REMARK Flexibility Score: inf
ROOT
ATOM      1  C   UNL     1      37.408 106.332 263.384  1.00  0.00     0.000 C 
ENDROOT
BRANCH   1   2
ATOM      2  C   UNL     1      38.211 106.727 262.130  1.00  0.00     0.000 C 
BRANCH   2   3
ATOM      3  C   UNL     1      37.506 106.334 260.821  1.00  0.00     0.000 C 
BRANCH   3   4
ATOM      4  C   UNL     1      37.904 104.931 260.324  1.00  0.00     0.000 C 
BRANCH   4   5
ATOM      5  C   UNL     1      37.373 104.556 258.928  1.00  0.00     0.006 C 
BRANCH   5   6
ATOM      6  C   UNL     1      37.311 105.751 257.968  1.00  0.00     0.053 C 
BRANCH   6   7
ATOM      7  C   UNL     1      35.962 106.395 258.021  1.00  0.00     0.041 C 
ATOM      8  O   UNL     1      34.922 105.697 257.896  1.00  0.00    -0.550 OA
ATOM      9  O   UNL     1      35.854 107.773 258.157  1.00  0.00    -0.550 OA
ENDBRANCH   6   7
ENDBRANCH   5   6
ENDBRANCH   4   5
ENDBRANCH   3   4
ENDBRANCH   2   3
ENDBRANCH   1   2
BRANCH   1  10
ATOM     10  C   UNL     1      35.953 105.893 263.121  1.00  0.00     0.000 C 
BRANCH  10  11
ATOM     11  C   UNL     1      34.877 106.745 263.822  1.00  0.00    -0.000 C 
BRANCH  11  12
ATOM     12  C   UNL     1      34.876 106.657 265.361  1.00  0.00    -0.000 C 
BRANCH  12  13
ATOM     13  C   UNL     1      35.508 107.863 266.079  1.00  0.00    -0.000 C 
BRANCH  13  14
ATOM     14  C   UNL     1      35.086 107.968 267.555  1.00  0.00    -0.000 C 
BRANCH  14  15
ATOM     15  C   UNL     1      35.026 106.588 268.243  1.00  0.00    -0.000 C 
BRANCH  15  16
ATOM     16  C   UNL     1      35.192 106.655 269.771  1.00  0.00    -0.003 C 
ATOM     17  C   UNL     1      36.558 106.160 270.246  1.00  0.00     0.004 C 
ENDBRANCH  15  16
ENDBRANCH  14  15
ENDBRANCH  13  14
ENDBRANCH  12  13
ENDBRANCH  11  12
ENDBRANCH  10  11
ENDBRANCH   1  10
TORSDOF 13
ENDMDL
MODEL 2
REMARK VINA RESULT:    -2.088      4.331      8.974
REMARK INTER + INTRA:          -4.016
REMARK INTER:                  -3.361
REMARK INTRA:                  -0.655
REMARK UNBOUND:                -0.342
REMARK SMILES CCCCCCCCCCCCCCC(=O)[O-]
REMARK SMILES IDX 9 1 10 2 11 3 12 4 13 5 14 6 15 7 16 8 17 9 8 10 7 11 6 12
REMARK SMILES IDX 5 13 4 14 3 15 2 16 1 17
REMARK H PARENT
REMARK Flexibility Score: inf
ROOT
ATOM      1  C   UNL     1      36.017 105.842 263.578  1.00  0.00     0.000 C 
ENDROOT
BRANCH   1   2
ATOM      2  C   UNL     1      34.928 106.751 264.178  1.00  0.00     0.000 C 
BRANCH   2   3
ATOM      3  C   UNL     1      34.893 106.704 265.715  1.00  0.00     0.000 C 
BRANCH   3   4
ATOM      4  C   UNL     1      35.564 107.927 266.368  1.00  0.00     0.000 C 
BRANCH   4   5
ATOM      5  C   UNL     1      35.640 107.890 267.906  1.00  0.00     0.006 C 
BRANCH   5   6
ATOM      6  C   UNL     1      34.951 106.661 268.511  1.00  0.00     0.053 C 
BRANCH   6   7
ATOM      7  C   UNL     1      35.470 106.396 269.889  1.00  0.00     0.041 C 
ATOM      8  O   UNL     1      35.851 105.240 270.210  1.00  0.00    -0.550 OA
ATOM      9  O   UNL     1      35.484 107.413 270.834  1.00  0.00    -0.550 OA
ENDBRANCH   6   7
ENDBRANCH   5   6
ENDBRANCH   4   5
ENDBRANCH   3   4
ENDBRANCH   2   3
ENDBRANCH   1   2
BRANCH   1  10
ATOM     10  C   UNL     1      36.354 106.109 262.097  1.00  0.00     0.000 C 
BRANCH  10  11
ATOM     11  C   UNL     1      37.831 106.444 261.813  1.00  0.00    -0.000 C 
BRANCH  11  12
ATOM     12  C   UNL     1      38.335 106.033 260.416  1.00  0.00    -0.000 C 
BRANCH  12  13
ATOM     13  C   UNL     1      38.037 104.576 260.022  1.00  0.00    -0.000 C 
BRANCH  13  14
ATOM     14  C   UNL     1      37.699 104.417 258.528  1.00  0.00    -0.000 C 
BRANCH  14  15
ATOM     15  C   UNL     1      37.263 105.750 257.885  1.00  0.00    -0.000 C 
BRANCH  15  16
ATOM     16  C   UNL     1      35.834 106.175 258.261  1.00  0.00    -0.003 C 
ATOM     17  C   UNL     1      35.592 107.675 258.090  1.00  0.00     0.004 C 
ENDBRANCH  15  16
ENDBRANCH  14  15
ENDBRANCH  13  14
ENDBRANCH  12  13
ENDBRANCH  11  12
ENDBRANCH  10  11
ENDBRANCH   1  10
TORSDOF 13
ENDMDL
MODEL 3
REMARK VINA RESULT:    -1.960      4.354      8.643
REMARK INTER + INTRA:          -3.792
REMARK INTER:                  -3.551
REMARK INTRA:                  -0.240
REMARK UNBOUND:                -0.342
REMARK SMILES CCCCCCCCCCCCCCC(=O)[O-]
REMARK SMILES IDX 9 1 10 2 11 3 12 4 13 5 14 6 15 7 16 8 17 9 8 10 7 11 6 12
REMARK SMILES IDX 5 13 4 14 3 15 2 16 1 17
REMARK H PARENT
REMARK Flexibility Score: inf
ROOT
ATOM      1  C   UNL     1      35.696 104.314 265.522  1.00  0.00     0.000 C 
ENDROOT
BRANCH   1   2
ATOM      2  C   UNL     1      34.880 105.381 266.275  1.00  0.00     0.000 C 
BRANCH   2   3
ATOM      3  C   UNL     1      35.064 106.793 265.694  1.00  0.00     0.000 C 
BRANCH   3   4
ATOM      4  C   UNL     1      35.436 107.838 266.764  1.00  0.00     0.000 C 
BRANCH   4   5
ATOM      5  C   UNL     1      34.893 107.552 268.176  1.00  0.00     0.006 C 
BRANCH   5   6
ATOM      6  C   UNL     1      36.001 107.391 269.224  1.00  0.00     0.053 C 
BRANCH   6   7
ATOM      7  C   UNL     1      35.990 106.005 269.788  1.00  0.00     0.041 C 
ATOM      8  O   UNL     1      36.927 105.618 270.535  1.00  0.00    -0.550 OA
ATOM      9  O   UNL     1      34.973 105.123 269.447  1.00  0.00    -0.550 OA
ENDBRANCH   6   7
ENDBRANCH   5   6
ENDBRANCH   4   5
ENDBRANCH   3   4
ENDBRANCH   2   3
ENDBRANCH   1   2
BRANCH   1  10
ATOM     10  C   UNL     1      34.932 103.566 264.410  1.00  0.00     0.000 C 
BRANCH  10  11
ATOM     11  C   UNL     1      35.057 104.182 263.003  1.00  0.00    -0.000 C 
BRANCH  11  12
ATOM     12  C   UNL     1      35.867 105.491 262.935  1.00  0.00    -0.000 C 
BRANCH  12  13
ATOM     13  C   UNL     1      36.510 105.784 261.567  1.00  0.00    -0.000 C 
BRANCH  13  14
ATOM     14  C   UNL     1      36.764 104.511 260.741  1.00  0.00    -0.000 C 
BRANCH  14  15
ATOM     15  C   UNL     1      38.052 104.610 259.898  1.00  0.00    -0.000 C 
BRANCH  15  16
ATOM     16  C   UNL     1      37.865 105.376 258.577  1.00  0.00    -0.003 C 
ATOM     17  C   UNL     1      36.397 105.549 258.189  1.00  0.00     0.004 C 
ENDBRANCH  15  16
ENDBRANCH  14  15
ENDBRANCH  13  14
ENDBRANCH  12  13
ENDBRANCH  11  12
ENDBRANCH  10  11
ENDBRANCH   1  10
TORSDOF 13
ENDMDL
MODEL 4
REMARK VINA RESULT:    -1.379      3.092      7.953
REMARK INTER + INTRA:          -2.769
REMARK INTER:                  -4.336
REMARK INTRA:                   1.567
REMARK UNBOUND:                -0.342
REMARK SMILES CCCCCCCCCCCCCCC(=O)[O-]
REMARK SMILES IDX 9 1 10 2 11 3 12 4 13 5 14 6 15 7 16 8 17 9 8 10 7 11 6 12
REMARK SMILES IDX 5 13 4 14 3 15 2 16 1 17
REMARK H PARENT
REMARK Flexibility Score: inf
ROOT
ATOM      1  C   UNL     1      35.641 103.833 267.528  1.00  0.00     0.000 C 
ENDROOT
BRANCH   1   2
ATOM      2  C   UNL     1      34.876 105.027 268.129  1.00  0.00     0.000 C 
BRANCH   2   3
ATOM      3  C   UNL     1      35.306 105.349 269.569  1.00  0.00     0.000 C 
BRANCH   3   4
ATOM      4  C   UNL     1      35.502 106.857 269.815  1.00  0.00     0.000 C 
BRANCH   4   5
ATOM      5  C   UNL     1      34.875 107.780 268.754  1.00  0.00     0.006 C 
BRANCH   5   6
ATOM      6  C   UNL     1      34.976 107.215 267.331  1.00  0.00     0.053 C 
BRANCH   6   7
ATOM      7  C   UNL     1      34.950 108.322 266.325  1.00  0.00     0.041 C 
ATOM      8  O   UNL     1      34.895 108.059 265.095  1.00  0.00    -0.550 OA
ATOM      9  O   UNL     1      35.038 109.644 266.743  1.00  0.00    -0.550 OA
ENDBRANCH   6   7
ENDBRANCH   5   6
ENDBRANCH   4   5
ENDBRANCH   3   4
ENDBRANCH   2   3
ENDBRANCH   1   2
BRANCH   1  10
ATOM     10  C   UNL     1      35.410 103.593 266.022  1.00  0.00     0.000 C 
BRANCH  10  11
ATOM     11  C   UNL     1      35.069 104.854 265.205  1.00  0.00    -0.000 C 
BRANCH  11  12
ATOM     12  C   UNL     1      35.145 104.680 263.676  1.00  0.00    -0.000 C 
BRANCH  12  13
ATOM     13  C   UNL     1      35.913 105.790 262.935  1.00  0.00    -0.000 C 
BRANCH  13  14
ATOM     14  C   UNL     1      35.980 105.558 261.415  1.00  0.00    -0.000 C 
BRANCH  14  15
ATOM     15  C   UNL     1      37.372 105.887 260.836  1.00  0.00    -0.000 C 
BRANCH  15  16
ATOM     16  C   UNL     1      37.809 104.940 259.707  1.00  0.00    -0.003 C 
ATOM     17  C   UNL     1      37.195 105.299 258.354  1.00  0.00     0.004 C 
ENDBRANCH  15  16
ENDBRANCH  14  15
ENDBRANCH  13  14
ENDBRANCH  12  13
ENDBRANCH  11  12
ENDBRANCH  10  11
ENDBRANCH   1  10
TORSDOF 13
ENDMDL
MODEL 5
REMARK VINA RESULT:    -0.976      3.443      8.007
REMARK INTER + INTRA:          -2.059
REMARK INTER:                  -1.239
REMARK INTRA:                  -0.821
REMARK UNBOUND:                -0.342
REMARK SMILES CCCCCCCCCCCCCCC(=O)[O-]
REMARK SMILES IDX 9 1 10 2 11 3 12 4 13 5 14 6 15 7 16 8 17 9 8 10 7 11 6 12
REMARK SMILES IDX 5 13 4 14 3 15 2 16 1 17
REMARK H PARENT
REMARK Flexibility Score: inf
ROOT
ATOM      1  C   UNL     1      38.393 106.522 262.611  1.00  0.00     0.000 C 
ENDROOT
BRANCH   1   2
ATOM      2  C   UNL     1      36.860 106.433 262.491  1.00  0.00     0.000 C 
BRANCH   2   3
ATOM      3  C   UNL     1      36.277 105.193 263.189  1.00  0.00     0.000 C 
BRANCH   3   4
ATOM      4  C   UNL     1      34.913 105.463 263.852  1.00  0.00     0.000 C 
BRANCH   4   5
ATOM      5  C   UNL     1      34.875 106.675 264.802  1.00  0.00     0.006 C 
BRANCH   5   6
ATOM      6  C   UNL     1      34.875 106.277 266.283  1.00  0.00     0.053 C 
BRANCH   6   7
ATOM      7  C   UNL     1      35.266 107.441 267.138  1.00  0.00     0.041 C 
ATOM      8  O   UNL     1      35.429 108.578 266.623  1.00  0.00    -0.550 OA
ATOM      9  O   UNL     1      35.500 107.260 268.495  1.00  0.00    -0.550 OA
ENDBRANCH   6   7
ENDBRANCH   5   6
ENDBRANCH   4   5
ENDBRANCH   3   4
ENDBRANCH   2   3
ENDBRANCH   1   2
BRANCH   1  10
ATOM     10  C   UNL     1      39.183 105.798 261.502  1.00  0.00     0.000 C 
BRANCH  10  11
ATOM     11  C   UNL     1      38.332 104.931 260.554  1.00  0.00    -0.000 C 
BRANCH  11  12
ATOM     12  C   UNL     1      38.688 105.057 259.060  1.00  0.00    -0.000 C 
BRANCH  12  13
ATOM     13  C   UNL     1      37.481 105.198 258.115  1.00  0.00    -0.000 C 
BRANCH  13  14
ATOM     14  C   UNL     1      36.145 105.337 258.868  1.00  0.00    -0.000 C 
BRANCH  14  15
ATOM     15  C   UNL     1      35.203 106.360 258.201  1.00  0.00    -0.000 C 
BRANCH  15  16
ATOM     16  C   UNL     1      35.883 107.701 257.876  1.00  0.00    -0.003 C 
ATOM     17  C   UNL     1      34.927 108.890 257.958  1.00  0.00     0.004 C 
ENDBRANCH  15  16
ENDBRANCH  14  15
ENDBRANCH  13  14
ENDBRANCH  12  13
ENDBRANCH  11  12
ENDBRANCH  10  11
ENDBRANCH   1  10
TORSDOF 13
ENDMDL
