MODEL 1
REMARK VINA RESULT:    -5.366      0.000      0.000
REMARK INTER + INTRA:          -6.730
REMARK INTER:                  -6.465
REMARK INTRA:                  -0.265
REMARK UNBOUND:                -0.265
REMARK SMILES CCCCc1oc(O)c2ccccc12
REMARK SMILES IDX 4 1 5 2 7 3 6 4 9 5 14 6 10 7 13 8 11 9 12 10 8 11 3 13 2 14
REMARK SMILES IDX 1 15
REMARK H PARENT 8 12
REMARK Flexibility Score: inf
ROOT
ATOM      1  C   UNL     1      35.140  17.979  -5.643  1.00  0.00     0.076 C 
ENDROOT
BRANCH   1   2
ATOM      2  C   UNL     1      36.338  18.486  -6.385  1.00  0.00     0.116 A 
ATOM      3  C   UNL     1      37.531  19.264  -7.989  1.00  0.00     0.290 A 
ATOM      4  O   UNL     1      36.309  18.914  -7.635  1.00  0.00    -0.430 OA
ATOM      5  C   UNL     1      38.398  19.053  -6.937  1.00  0.00     0.066 A 
ATOM      6  C   UNL     1      37.637  18.555  -5.914  1.00  0.00     0.027 A 
ATOM      7  C   UNL     1      39.772  19.251  -6.807  1.00  0.00     0.016 A 
ATOM      8  C   UNL     1      38.197  18.213  -4.682  1.00  0.00     0.012 A 
ATOM      9  C   UNL     1      40.365  18.918  -5.576  1.00  0.00     0.001 A 
ATOM     10  C   UNL     1      39.581  18.402  -4.518  1.00  0.00     0.001 A 
BRANCH   3  11
ATOM     11  O   UNL     1      37.860  19.763  -9.246  1.00  0.00    -0.480 OA
ATOM     12  H   UNL     1      37.628  20.712  -9.512  1.00  0.00     0.297 HD
ENDBRANCH   3  11
ENDBRANCH   1   2
BRANCH   1  13
ATOM     13  C   UNL     1      34.450  19.125  -4.893  1.00  0.00     0.008 C 
BRANCH  13  14
ATOM     14  C   UNL     1      33.337  18.630  -3.956  1.00  0.00    -0.003 C 
ATOM     15  C   UNL     1      32.948  17.175  -4.220  1.00  0.00     0.004 C 
ENDBRANCH  13  14
ENDBRANCH   1  13
TORSDOF 4
ENDMDL
MODEL 2
REMARK VINA RESULT:    -5.317      2.056      3.080
REMARK INTER + INTRA:          -6.670
REMARK INTER:                  -6.441
REMARK INTRA:                  -0.229
REMARK UNBOUND:                -0.265
REMARK SMILES CCCCc1oc(O)c2ccccc12
REMARK SMILES IDX 4 1 5 2 7 3 6 4 9 5 14 6 10 7 13 8 11 9 12 10 8 11 3 13 2 14
REMARK SMILES IDX 1 15
REMARK H PARENT 8 12
REMARK Flexibility Score: inf
ROOT
ATOM      1  C   UNL     1      34.060  19.699  -4.824  1.00  0.00     0.076 C 
ENDROOT
BRANCH   1   2
ATOM      2  C   UNL     1      35.414  19.227  -5.258  1.00  0.00     0.116 A 
ATOM      3  C   UNL     1      37.338  18.283  -5.173  1.00  0.00     0.290 A 
ATOM      4  O   UNL     1      36.223  18.504  -4.503  1.00  0.00    -0.430 OA
ATOM      5  C   UNL     1      37.264  18.887  -6.411  1.00  0.00     0.066 A 
ATOM      6  C   UNL     1      36.037  19.491  -6.464  1.00  0.00     0.027 A 
ATOM      7  C   UNL     1      38.168  18.955  -7.470  1.00  0.00     0.016 A 
ATOM      8  C   UNL     1      35.623  20.215  -7.584  1.00  0.00     0.012 A 
ATOM      9  C   UNL     1      37.778  19.676  -8.615  1.00  0.00     0.001 A 
ATOM     10  C   UNL     1      36.512  20.302  -8.671  1.00  0.00     0.001 A 
BRANCH   3  11
ATOM     11  O   UNL     1      38.410  17.549  -4.672  1.00  0.00    -0.480 OA
ATOM     12  H   UNL     1      38.628  16.628  -5.030  1.00  0.00     0.297 HD
ENDBRANCH   3  11
ENDBRANCH   1   2
BRANCH   1  13
ATOM     13  C   UNL     1      33.552  18.857  -3.648  1.00  0.00     0.008 C 
BRANCH  13  14
ATOM     14  C   UNL     1      32.966  17.510  -4.097  1.00  0.00    -0.003 C 
ATOM     15  C   UNL     1      32.431  16.680  -2.929  1.00  0.00     0.004 C 
ENDBRANCH  13  14
ENDBRANCH   1  13
TORSDOF 4
ENDMDL
MODEL 3
REMARK VINA RESULT:    -5.231      2.597      3.936
REMARK INTER + INTRA:          -6.566
REMARK INTER:                  -6.123
REMARK INTRA:                  -0.443
REMARK UNBOUND:                -0.265
REMARK SMILES CCCCc1oc(O)c2ccccc12
REMARK SMILES IDX 4 1 5 2 7 3 6 4 9 5 14 6 10 7 13 8 11 9 12 10 8 11 3 13 2 14
REMARK SMILES IDX 1 15
REMARK H PARENT 8 12
REMARK Flexibility Score: inf
ROOT
ATOM      1  C   UNL     1      38.204  18.183  -5.343  1.00  0.00     0.076 C 
ENDROOT
BRANCH   1   2
ATOM      2  C   UNL     1      37.812  18.822  -6.640  1.00  0.00     0.116 A 
ATOM      3  C   UNL     1      36.576  19.503  -8.254  1.00  0.00     0.290 A 
ATOM      4  O   UNL     1      36.568  18.911  -7.075  1.00  0.00    -0.430 OA
ATOM      5  C   UNL     1      37.872  19.808  -8.612  1.00  0.00     0.066 A 
ATOM      6  C   UNL     1      38.662  19.372  -7.583  1.00  0.00     0.027 A 
ATOM      7  C   UNL     1      38.408  20.419  -9.746  1.00  0.00     0.016 A 
ATOM      8  C   UNL     1      40.051  19.510  -7.613  1.00  0.00     0.012 A 
ATOM      9  C   UNL     1      39.805  20.575  -9.804  1.00  0.00     0.001 A 
ATOM     10  C   UNL     1      40.622  20.124  -8.742  1.00  0.00     0.001 A 
BRANCH   3  11
ATOM     11  O   UNL     1      35.429  19.760  -9.000  1.00  0.00    -0.480 OA
ATOM     12  H   UNL     1      35.347  19.453  -9.961  1.00  0.00     0.297 HD
ENDBRANCH   3  11
ENDBRANCH   1   2
BRANCH   1  13
ATOM     13  C   UNL     1      38.442  19.253  -4.270  1.00  0.00     0.008 C 
BRANCH  13  14
ATOM     14  C   UNL     1      39.758  19.038  -3.506  1.00  0.00    -0.003 C 
ATOM     15  C   UNL     1      40.810  18.303  -4.337  1.00  0.00     0.004 C 
ENDBRANCH  13  14
ENDBRANCH   1  13
TORSDOF 4
ENDMDL
MODEL 4
REMARK VINA RESULT:    -5.163      2.524      5.413
REMARK INTER + INTRA:          -6.484
REMARK INTER:                  -6.127
REMARK INTRA:                  -0.357
REMARK UNBOUND:                -0.265
REMARK SMILES CCCCc1oc(O)c2ccccc12
REMARK SMILES IDX 4 1 5 2 7 3 6 4 9 5 14 6 10 7 13 8 11 9 12 10 8 11 3 13 2 14
REMARK SMILES IDX 1 15
REMARK H PARENT 8 12
REMARK Flexibility Score: inf
ROOT
ATOM      1  C   UNL     1      40.098  18.257  -4.593  1.00  0.00     0.076 C 
ENDROOT
BRANCH   1   2
ATOM      2  C   UNL     1      38.832  19.015  -4.337  1.00  0.00     0.116 A 
ATOM      3  C   UNL     1      37.492  20.474  -3.515  1.00  0.00     0.290 A 
ATOM      4  O   UNL     1      38.745  20.063  -3.537  1.00  0.00    -0.430 OA
ATOM      5  C   UNL     1      36.723  19.663  -4.325  1.00  0.00     0.066 A 
ATOM      6  C   UNL     1      37.578  18.731  -4.848  1.00  0.00     0.027 A 
ATOM      7  C   UNL     1      35.363  19.671  -4.630  1.00  0.00     0.016 A 
ATOM      8  C   UNL     1      37.133  17.731  -5.715  1.00  0.00     0.012 A 
ATOM      9  C   UNL     1      34.885  18.677  -5.504  1.00  0.00     0.001 A 
ATOM     10  C   UNL     1      35.766  17.712  -6.044  1.00  0.00     0.001 A 
BRANCH   3  11
ATOM     11  O   UNL     1      37.046  21.563  -2.771  1.00  0.00    -0.480 OA
ATOM     12  H   UNL     1      37.392  21.737  -1.836  1.00  0.00     0.297 HD
ENDBRANCH   3  11
ENDBRANCH   1   2
BRANCH   1  13
ATOM     13  C   UNL     1      41.227  19.218  -4.985  1.00  0.00     0.008 C 
BRANCH  13  14
ATOM     14  C   UNL     1      41.728  18.984  -6.419  1.00  0.00    -0.003 C 
ATOM     15  C   UNL     1      40.661  19.281  -7.473  1.00  0.00     0.004 C 
ENDBRANCH  13  14
ENDBRANCH   1  13
TORSDOF 4
ENDMDL
MODEL 5
REMARK VINA RESULT:    -5.153      2.306      3.634
REMARK INTER + INTRA:          -6.472
REMARK INTER:                  -6.002
REMARK INTRA:                  -0.470
REMARK UNBOUND:                -0.265
REMARK SMILES CCCCc1oc(O)c2ccccc12
REMARK SMILES IDX 4 1 5 2 7 3 6 4 9 5 14 6 10 7 13 8 11 9 12 10 8 11 3 13 2 14
REMARK SMILES IDX 1 15
REMARK H PARENT 8 12
REMARK Flexibility Score: inf
ROOT
ATOM      1  C   UNL     1      34.540  21.425  -5.938  1.00  0.00     0.076 C 
ENDROOT
BRANCH   1   2
ATOM      2  C   UNL     1      35.323  20.154  -5.813  1.00  0.00     0.116 A 
ATOM      3  C   UNL     1      35.819  18.073  -5.968  1.00  0.00     0.290 A 
ATOM      4  O   UNL     1      34.909  18.982  -6.262  1.00  0.00    -0.430 OA
ATOM      5  C   UNL     1      36.867  18.666  -5.296  1.00  0.00     0.066 A 
ATOM      6  C   UNL     1      36.550  19.993  -5.195  1.00  0.00     0.027 A 
ATOM      7  C   UNL     1      38.050  18.147  -4.770  1.00  0.00     0.016 A 
ATOM      8  C   UNL     1      37.393  20.904  -4.555  1.00  0.00     0.012 A 
ATOM      9  C   UNL     1      38.922  19.041  -4.121  1.00  0.00     0.001 A 
ATOM     10  C   UNL     1      38.595  20.412  -4.015  1.00  0.00     0.001 A 
BRANCH   3  11
ATOM     11  O   UNL     1      35.702  16.726  -6.298  1.00  0.00    -0.480 OA
ATOM     12  H   UNL     1      35.671  16.010  -5.583  1.00  0.00     0.297 HD
ENDBRANCH   3  11
ENDBRANCH   1   2
BRANCH   1  13
ATOM     13  C   UNL     1      34.335  21.784  -7.415  1.00  0.00     0.008 C 
BRANCH  13  14
ATOM     14  C   UNL     1      35.648  22.164  -8.116  1.00  0.00    -0.003 C 
ATOM     15  C   UNL     1      36.047  21.165  -9.203  1.00  0.00     0.004 C 
ENDBRANCH  13  14
ENDBRANCH   1  13
TORSDOF 4
ENDMDL
MODEL 6
REMARK VINA RESULT:    -5.106      2.528      5.135
REMARK INTER + INTRA:          -6.416
REMARK INTER:                  -5.898
REMARK INTRA:                  -0.518
REMARK UNBOUND:                -0.265
REMARK SMILES CCCCc1oc(O)c2ccccc12
REMARK SMILES IDX 4 1 5 2 7 3 6 4 9 5 14 6 10 7 13 8 11 9 12 10 8 11 3 13 2 14
REMARK SMILES IDX 1 15
REMARK H PARENT 8 12
REMARK Flexibility Score: inf
ROOT
ATOM      1  C   UNL     1      40.041  18.995  -4.130  1.00  0.00     0.076 C 
ENDROOT
BRANCH   1   2
ATOM      2  C   UNL     1      38.903  18.723  -5.065  1.00  0.00     0.116 A 
ATOM      3  C   UNL     1      37.126  17.828  -5.864  1.00  0.00     0.290 A 
ATOM      4  O   UNL     1      37.952  17.835  -4.836  1.00  0.00    -0.430 OA
ATOM      5  C   UNL     1      37.550  18.740  -6.808  1.00  0.00     0.066 A 
ATOM      6  C   UNL     1      38.686  19.310  -6.299  1.00  0.00     0.027 A 
ATOM      7  C   UNL     1      37.038  19.100  -8.054  1.00  0.00     0.016 A 
ATOM      8  C   UNL     1      39.399  20.283  -7.002  1.00  0.00     0.012 A 
ATOM      9  C   UNL     1      37.733  20.081  -8.786  1.00  0.00     0.001 A 
ATOM     10  C   UNL     1      38.907  20.669  -8.263  1.00  0.00     0.001 A 
BRANCH   3  11
ATOM     11  O   UNL     1      36.005  17.007  -5.952  1.00  0.00    -0.480 OA
ATOM     12  H   UNL     1      35.152  17.228  -5.452  1.00  0.00     0.297 HD
ENDBRANCH   3  11
ENDBRANCH   1   2
BRANCH   1  13
ATOM     13  C   UNL     1      41.253  18.129  -4.496  1.00  0.00     0.008 C 
BRANCH  13  14
ATOM     14  C   UNL     1      42.331  18.917  -5.255  1.00  0.00    -0.003 C 
ATOM     15  C   UNL     1      42.706  18.268  -6.589  1.00  0.00     0.004 C 
ENDBRANCH  13  14
ENDBRANCH   1  13
TORSDOF 4
ENDMDL
MODEL 7
REMARK VINA RESULT:    -5.096      2.018      2.927
REMARK INTER + INTRA:          -6.404
REMARK INTER:                  -6.091
REMARK INTRA:                  -0.313
REMARK UNBOUND:                -0.265
REMARK SMILES CCCCc1oc(O)c2ccccc12
REMARK SMILES IDX 4 1 5 2 7 3 6 4 9 5 14 6 10 7 13 8 11 9 12 10 8 11 3 13 2 14
REMARK SMILES IDX 1 15
REMARK H PARENT 8 12
REMARK Flexibility Score: inf
ROOT
ATOM      1  C   UNL     1      36.093  17.751  -6.009  1.00  0.00     0.076 C 
ENDROOT
BRANCH   1   2
ATOM      2  C   UNL     1      37.501  18.138  -5.676  1.00  0.00     0.116 A 
ATOM      3  C   UNL     1      39.302  18.394  -4.541  1.00  0.00     0.290 A 
ATOM      4  O   UNL     1      38.077  17.906  -4.510  1.00  0.00    -0.430 OA
ATOM      5  C   UNL     1      39.541  18.974  -5.769  1.00  0.00     0.066 A 
ATOM      6  C   UNL     1      38.390  18.813  -6.493  1.00  0.00     0.027 A 
ATOM      7  C   UNL     1      40.658  19.625  -6.292  1.00  0.00     0.016 A 
ATOM      8  C   UNL     1      38.270  19.296  -7.798  1.00  0.00     0.012 A 
ATOM      9  C   UNL     1      40.568  20.121  -7.606  1.00  0.00     0.001 A 
ATOM     10  C   UNL     1      39.380  19.957  -8.355  1.00  0.00     0.001 A 
BRANCH   3  11
ATOM     11  O   UNL     1      40.193  18.320  -3.473  1.00  0.00    -0.480 OA
ATOM     12  H   UNL     1      41.191  18.406  -3.615  1.00  0.00     0.297 HD
ENDBRANCH   3  11
ENDBRANCH   1   2
BRANCH   1  13
ATOM     13  C   UNL     1      35.172  18.976  -5.945  1.00  0.00     0.008 C 
BRANCH  13  14
ATOM     14  C   UNL     1      34.789  19.350  -4.505  1.00  0.00    -0.003 C 
ATOM     15  C   UNL     1      33.365  18.924  -4.143  1.00  0.00     0.004 C 
ENDBRANCH  13  14
ENDBRANCH   1  13
TORSDOF 4
ENDMDL
MODEL 8
REMARK VINA RESULT:    -4.960      1.373      4.813
REMARK INTER + INTRA:          -6.240
REMARK INTER:                  -5.980
REMARK INTRA:                  -0.260
REMARK UNBOUND:                -0.265
REMARK SMILES CCCCc1oc(O)c2ccccc12
REMARK SMILES IDX 4 1 5 2 7 3 6 4 9 5 14 6 10 7 13 8 11 9 12 10 8 11 3 13 2 14
REMARK SMILES IDX 1 15
REMARK H PARENT 8 12
REMARK Flexibility Score: inf
ROOT
ATOM      1  C   UNL     1      39.770  19.672  -5.234  1.00  0.00     0.076 C 
ENDROOT
BRANCH   1   2
ATOM      2  C   UNL     1      38.471  19.288  -5.874  1.00  0.00     0.116 A 
ATOM      3  C   UNL     1      37.078  18.651  -7.375  1.00  0.00     0.290 A 
ATOM      4  O   UNL     1      38.353  18.881  -7.125  1.00  0.00    -0.430 OA
ATOM      5  C   UNL     1      36.328  18.921  -6.249  1.00  0.00     0.066 A 
ATOM      6  C   UNL     1      37.217  19.330  -5.292  1.00  0.00     0.027 A 
ATOM      7  C   UNL     1      34.958  18.846  -6.002  1.00  0.00     0.016 A 
ATOM      8  C   UNL     1      36.799  19.699  -4.012  1.00  0.00     0.012 A 
ATOM      9  C   UNL     1      34.506  19.210  -4.720  1.00  0.00     0.001 A 
ATOM     10  C   UNL     1      35.422  19.634  -3.730  1.00  0.00     0.001 A 
BRANCH   3  11
ATOM     11  O   UNL     1      36.598  18.206  -8.603  1.00  0.00    -0.480 OA
ATOM     12  H   UNL     1      36.085  18.823  -9.221  1.00  0.00     0.297 HD
ENDBRANCH   3  11
ENDBRANCH   1   2
BRANCH   1  13
ATOM     13  C   UNL     1      40.211  18.598  -4.232  1.00  0.00     0.008 C 
BRANCH  13  14
ATOM     14  C   UNL     1      41.565  17.972  -4.597  1.00  0.00    -0.003 C 
ATOM     15  C   UNL     1      42.350  18.811  -5.607  1.00  0.00     0.004 C 
ENDBRANCH  13  14
ENDBRANCH   1  13
TORSDOF 4
ENDMDL
MODEL 9
REMARK VINA RESULT:    -4.895      1.975      4.342
REMARK INTER + INTRA:          -6.162
REMARK INTER:                  -5.884
REMARK INTRA:                  -0.277
REMARK UNBOUND:                -0.265
REMARK SMILES CCCCc1oc(O)c2ccccc12
REMARK SMILES IDX 4 1 5 2 7 3 6 4 9 5 14 6 10 7 13 8 11 9 12 10 8 11 3 13 2 14
REMARK SMILES IDX 1 15
REMARK H PARENT 8 12
REMARK Flexibility Score: inf
ROOT
ATOM      1  C   UNL     1      38.245  20.281  -9.318  1.00  0.00     0.076 C 
ENDROOT
BRANCH   1   2
ATOM      2  C   UNL     1      37.753  19.521  -8.125  1.00  0.00     0.116 A 
ATOM      3  C   UNL     1      36.421  18.446  -6.833  1.00  0.00     0.290 A 
ATOM      4  O   UNL     1      36.531  19.033  -8.010  1.00  0.00    -0.430 OA
ATOM      5  C   UNL     1      37.611  18.557  -6.146  1.00  0.00     0.066 A 
ATOM      6  C   UNL     1      38.461  19.244  -6.969  1.00  0.00     0.027 A 
ATOM      7  C   UNL     1      38.002  18.119  -4.881  1.00  0.00     0.016 A 
ATOM      8  C   UNL     1      39.768  19.550  -6.586  1.00  0.00     0.012 A 
ATOM      9  C   UNL     1      39.315  18.410  -4.467  1.00  0.00     0.001 A 
ATOM     10  C   UNL     1      40.194  19.122  -5.315  1.00  0.00     0.001 A 
BRANCH   3  11
ATOM     11  O   UNL     1      35.260  17.822  -6.384  1.00  0.00    -0.480 OA
ATOM     12  H   UNL     1      35.240  16.829  -6.189  1.00  0.00     0.297 HD
ENDBRANCH   3  11
ENDBRANCH   1   2
BRANCH   1  13
ATOM     13  C   UNL     1      37.879  21.765  -9.195  1.00  0.00     0.008 C 
BRANCH  13  14
ATOM     14  C   UNL     1      36.485  22.078  -9.761  1.00  0.00    -0.003 C 
ATOM     15  C   UNL     1      36.436  23.412 -10.506  1.00  0.00     0.004 C 
ENDBRANCH  13  14
ENDBRANCH   1  13
TORSDOF 4
ENDMDL
