MODEL 1
REMARK VINA RESULT:    -4.110      0.000      0.000
REMARK INTER + INTRA:          -5.600
REMARK INTER:                  -5.552
REMARK INTRA:                  -0.047
REMARK UNBOUND:                -0.047
REMARK SMILES C=C1CCC=C(C)CC[C@@H]2[C@@H]1CC2(C)C
REMARK SMILES IDX 11 1 12 2 13 3 10 4 14 5 15 6 9 7 8 8 6 9 7 10 5 11 2 13
REMARK SMILES IDX 1 14 3 15 4 16
REMARK H PARENT
REMARK Flexibility Score: 70.00
ROOT
ATOM      1  C   UNL     1      32.068   9.957  31.229  1.00  0.00     0.018 C 
ATOM      2  C   UNL     1      32.722   9.783  32.605  1.00  0.00     0.015 C 
ATOM      3  C   UNL     1      31.617   8.799  33.020  1.00  0.00    -0.031 C 
ATOM      4  C   UNL     1      30.913   9.033  31.661  1.00  0.00     0.002 C 
ATOM      5  C   UNL     1      30.789   9.312  34.213  1.00  0.00     0.011 C 
ATOM      6  C   UNL     1      32.159   7.380  33.285  1.00  0.00     0.011 C 
ENDROOT
BRANCH   4   7
ATOM      7  C   UNL     1      30.722   7.818  30.728  1.00  0.00     0.009 C 
BRANCH   7   8
ATOM      8  C   UNL     1      29.690   8.092  29.625  1.00  0.00     0.030 C 
BRANCH   8   9
ATOM      9  C   UNL     1      30.333   8.603  28.348  1.00  0.00    -0.077 C 
ATOM     10  C   UNL     1      30.750   7.593  27.310  1.00  0.00     0.039 C 
ATOM     11  C   UNL     1      30.507   9.916  28.063  1.00  0.00    -0.028 CG0
ATOM     12  G   UNL     1      30.120  11.084  28.945  1.00  0.00     0.000 G0
ENDBRANCH   8   9
ENDBRANCH   7   8
ENDBRANCH   4   7
BRANCH   1  13
ATOM     13  C   UNL     1      31.727  11.404  30.889  1.00  0.00    -0.074 C 
ATOM     14  C   UNL     1      31.907  12.332  31.844  1.00  0.00     0.008 C 
BRANCH  13  15
ATOM     15  C   UNL     1      31.345  11.854  29.488  1.00  0.00     0.035 C 
BRANCH  15  16
ATOM     16  C   UNL     1      30.114  11.100  28.946  1.00  0.00     0.032 CG0
ATOM     17  G   UNL     1      30.496   9.929  28.066  1.00  0.00     0.000 G0
ENDBRANCH  15  16
ENDBRANCH  13  15
ENDBRANCH   1  13
TORSDOF 0
ENDMDL
MODEL 2
REMARK VINA RESULT:    -3.820      1.608      2.516
REMARK INTER + INTRA:          -5.207
REMARK INTER:                  -5.132
REMARK INTRA:                  -0.074
REMARK UNBOUND:                -0.047
REMARK SMILES C=C1CCC=C(C)CC[C@@H]2[C@@H]1CC2(C)C
REMARK SMILES IDX 11 1 12 2 13 3 10 4 14 5 15 6 9 7 8 8 6 9 7 10 5 11 2 13
REMARK SMILES IDX 1 14 3 15 4 16
REMARK H PARENT
REMARK Flexibility Score: 70.00
ROOT
ATOM      1  C   UNL     1      32.005  10.760  28.996  1.00  0.00     0.018 C 
ATOM      2  C   UNL     1      32.878  11.550  29.978  1.00  0.00     0.015 C 
ATOM      3  C   UNL     1      31.983  11.113  31.147  1.00  0.00    -0.031 C 
ATOM      4  C   UNL     1      31.055  10.379  30.148  1.00  0.00     0.002 C 
ATOM      5  C   UNL     1      31.289  12.303  31.836  1.00  0.00     0.011 C 
ATOM      6  C   UNL     1      32.732  10.235  32.170  1.00  0.00     0.011 C 
ENDROOT
BRANCH   4   7
ATOM      7  C   UNL     1      30.878   8.854  30.314  1.00  0.00     0.009 C 
BRANCH   7   8
ATOM      8  C   UNL     1      29.589   8.346  29.650  1.00  0.00     0.030 C 
BRANCH   8   9
ATOM      9  C   UNL     1      29.823   7.866  28.229  1.00  0.00    -0.077 C 
ATOM     10  C   UNL     1      30.085   6.398  28.010  1.00  0.00     0.039 C 
ATOM     11  C   UNL     1      29.760   8.670  27.140  1.00  0.00    -0.028 CG0
ATOM     12  G   UNL     1      29.469  10.155  27.138  1.00  0.00     0.000 G0
ENDBRANCH   8   9
ENDBRANCH   7   8
ENDBRANCH   4   7
BRANCH   1  13
ATOM     13  C   UNL     1      31.436  11.604  27.861  1.00  0.00    -0.074 C 
ATOM     14  C   UNL     1      31.737  12.914  27.842  1.00  0.00     0.008 C 
BRANCH  13  15
ATOM     15  C   UNL     1      30.683  11.006  26.684  1.00  0.00     0.035 C 
BRANCH  15  16
ATOM     16  C   UNL     1      29.470  10.165  27.132  1.00  0.00     0.032 CG0
ATOM     17  G   UNL     1      29.771   8.682  27.145  1.00  0.00     0.000 G0
ENDBRANCH  15  16
ENDBRANCH  13  15
ENDBRANCH   1  13
TORSDOF 0
ENDMDL
MODEL 3
REMARK VINA RESULT:    -3.783      1.312      3.402
REMARK INTER + INTRA:          -5.157
REMARK INTER:                  -5.138
REMARK INTRA:                  -0.018
REMARK UNBOUND:                -0.047
REMARK SMILES C=C1CCC=C(C)CC[C@@H]2[C@@H]1CC2(C)C
REMARK SMILES IDX 11 1 12 2 13 3 10 4 14 5 15 6 9 7 8 8 6 9 7 10 5 11 2 13
REMARK SMILES IDX 1 14 3 15 4 16
REMARK H PARENT
REMARK Flexibility Score: 70.00
ROOT
ATOM      1  C   UNL     1      30.404   9.069  30.305  1.00  0.00     0.018 C 
ATOM      2  C   UNL     1      30.018   8.712  31.746  1.00  0.00     0.015 C 
ATOM      3  C   UNL     1      31.266   9.436  32.273  1.00  0.00    -0.031 C 
ATOM      4  C   UNL     1      31.698   9.730  30.816  1.00  0.00     0.002 C 
ATOM      5  C   UNL     1      32.237   8.486  32.999  1.00  0.00     0.011 C 
ATOM      6  C   UNL     1      30.916  10.655  33.151  1.00  0.00     0.011 C 
ENDROOT
BRANCH   4   7
ATOM      7  C   UNL     1      31.839  11.207  30.388  1.00  0.00     0.009 C 
BRANCH   7   8
ATOM      8  C   UNL     1      32.561  11.353  29.040  1.00  0.00     0.030 C 
BRANCH   8   9
ATOM      9  C   UNL     1      31.593  11.406  27.871  1.00  0.00    -0.077 C 
ATOM     10  C   UNL     1      31.054  12.752  27.458  1.00  0.00     0.039 C 
ATOM     11  C   UNL     1      31.226  10.324  27.145  1.00  0.00    -0.028 CG0
ATOM     12  G   UNL     1      31.684   8.898  27.366  1.00  0.00     0.000 G0
ENDBRANCH   8   9
ENDBRANCH   7   8
ENDBRANCH   4   7
BRANCH   1  13
ATOM     13  C   UNL     1      30.543   7.859  29.388  1.00  0.00    -0.074 C 
ATOM     14  C   UNL     1      30.517   6.638  29.950  1.00  0.00     0.008 C 
BRANCH  13  15
ATOM     15  C   UNL     1      30.553   7.969  27.872  1.00  0.00     0.035 C 
BRANCH  15  16
ATOM     16  C   UNL     1      31.688   8.880  27.359  1.00  0.00     0.032 CG0
ATOM     17  G   UNL     1      31.229  10.306  27.143  1.00  0.00     0.000 G0
ENDBRANCH  15  16
ENDBRANCH  13  15
ENDBRANCH   1  13
TORSDOF 0
ENDMDL
MODEL 4
REMARK VINA RESULT:    -3.734      1.449      3.369
REMARK INTER + INTRA:          -5.091
REMARK INTER:                  -5.044
REMARK INTRA:                  -0.047
REMARK UNBOUND:                -0.047
REMARK SMILES C=C1CCC=C(C)CC[C@@H]2[C@@H]1CC2(C)C
REMARK SMILES IDX 11 1 12 2 13 3 10 4 14 5 15 6 9 7 8 8 6 9 7 10 5 11 2 13
REMARK SMILES IDX 1 14 3 15 4 16
REMARK H PARENT
REMARK Flexibility Score: 70.00
ROOT
ATOM      1  C   UNL     1      30.450   9.501  30.803  1.00  0.00     0.018 C 
ATOM      2  C   UNL     1      30.548  10.123  32.201  1.00  0.00     0.015 C 
ATOM      3  C   UNL     1      31.824  10.874  31.792  1.00  0.00    -0.031 C 
ATOM      4  C   UNL     1      31.771  10.187  30.405  1.00  0.00     0.002 C 
ATOM      5  C   UNL     1      33.051  10.448  32.619  1.00  0.00     0.011 C 
ATOM      6  C   UNL     1      31.641  12.405  31.813  1.00  0.00     0.011 C 
ENDROOT
BRANCH   4   7
ATOM      7  C   UNL     1      31.640  11.087  29.158  1.00  0.00     0.009 C 
BRANCH   7   8
ATOM      8  C   UNL     1      32.073  10.363  27.874  1.00  0.00     0.030 C 
BRANCH   8   9
ATOM      9  C   UNL     1      30.904   9.707  27.160  1.00  0.00    -0.077 C 
ATOM     10  C   UNL     1      30.201  10.491  26.082  1.00  0.00     0.039 C 
ATOM     11  C   UNL     1      30.489   8.440  27.398  1.00  0.00    -0.028 CG0
ATOM     12  G   UNL     1      31.084   7.475  28.401  1.00  0.00     0.000 G0
ENDBRANCH   8   9
ENDBRANCH   7   8
ENDBRANCH   4   7
BRANCH   1  13
ATOM     13  C   UNL     1      30.419   7.976  30.809  1.00  0.00    -0.074 C 
ATOM     14  C   UNL     1      30.524   7.351  31.994  1.00  0.00     0.008 C 
BRANCH  13  15
ATOM     15  C   UNL     1      30.125   7.152  29.567  1.00  0.00     0.035 C 
BRANCH  15  16
ATOM     16  C   UNL     1      31.085   7.480  28.405  1.00  0.00     0.032 CG0
ATOM     17  G   UNL     1      30.473   8.436  27.404  1.00  0.00     0.000 G0
ENDBRANCH  15  16
ENDBRANCH  13  15
ENDBRANCH   1  13
TORSDOF 0
ENDMDL
MODEL 5
REMARK VINA RESULT:    -3.711      1.511      2.099
REMARK INTER + INTRA:          -5.060
REMARK INTER:                  -5.132
REMARK INTRA:                   0.072
REMARK UNBOUND:                -0.047
REMARK SMILES C=C1CCC=C(C)CC[C@@H]2[C@@H]1CC2(C)C
REMARK SMILES IDX 11 1 12 2 13 3 10 4 14 5 15 6 9 7 8 8 6 9 7 10 5 11 2 13
REMARK SMILES IDX 1 14 3 15 4 16
REMARK H PARENT
REMARK Flexibility Score: 70.00
ROOT
ATOM      1  C   UNL     1      32.373   9.786  31.905  1.00  0.00     0.018 C 
ATOM      2  C   UNL     1      32.103   8.836  33.078  1.00  0.00     0.015 C 
ATOM      3  C   UNL     1      30.726   8.484  32.494  1.00  0.00    -0.031 C 
ATOM      4  C   UNL     1      30.964   9.501  31.350  1.00  0.00     0.002 C 
ATOM      5  C   UNL     1      29.569   8.896  33.423  1.00  0.00     0.011 C 
ATOM      6  C   UNL     1      30.617   7.000  32.089  1.00  0.00     0.011 C 
ENDROOT
BRANCH   4   7
ATOM      7  C   UNL     1      30.974   8.969  29.902  1.00  0.00     0.009 C 
BRANCH   7   8
ATOM      8  C   UNL     1      30.428  10.000  28.902  1.00  0.00     0.030 C 
BRANCH   8   9
ATOM      9  C   UNL     1      31.526  10.865  28.309  1.00  0.00    -0.077 C 
ATOM     10  C   UNL     1      31.993  10.556  26.909  1.00  0.00     0.039 C 
ATOM     11  C   UNL     1      32.074  11.929  28.942  1.00  0.00    -0.028 CG0
ATOM     12  G   UNL     1      31.718  12.431  30.325  1.00  0.00     0.000 G0
ENDBRANCH   8   9
ENDBRANCH   7   8
ENDBRANCH   4   7
BRANCH   1  13
ATOM     13  C   UNL     1      32.689  11.215  32.331  1.00  0.00    -0.074 C 
ATOM     14  C   UNL     1      32.943  11.441  33.632  1.00  0.00     0.008 C 
BRANCH  13  15
ATOM     15  C   UNL     1      32.879  12.350  31.338  1.00  0.00     0.035 C 
BRANCH  15  16
ATOM     16  C   UNL     1      31.715  12.447  30.331  1.00  0.00     0.032 CG0
ATOM     17  G   UNL     1      32.090  11.918  28.963  1.00  0.00     0.000 G0
ENDBRANCH  15  16
ENDBRANCH  13  15
ENDBRANCH   1  13
TORSDOF 0
ENDMDL
MODEL 6
REMARK VINA RESULT:    -3.703      1.844      4.426
REMARK INTER + INTRA:          -5.049
REMARK INTER:                  -4.992
REMARK INTRA:                  -0.057
REMARK UNBOUND:                -0.047
REMARK SMILES C=C1CCC=C(C)CC[C@@H]2[C@@H]1CC2(C)C
REMARK SMILES IDX 11 1 12 2 13 3 10 4 14 5 15 6 9 7 8 8 6 9 7 10 5 11 2 13
REMARK SMILES IDX 1 14 3 15 4 16
REMARK H PARENT
REMARK Flexibility Score: 70.00
ROOT
ATOM      1  C   UNL     1      30.681   9.938  30.008  1.00  0.00     0.018 C 
ATOM      2  C   UNL     1      30.057   9.659  28.635  1.00  0.00     0.015 C 
ATOM      3  C   UNL     1      30.322   8.156  28.805  1.00  0.00    -0.031 C 
ATOM      4  C   UNL     1      31.022   8.443  30.157  1.00  0.00     0.002 C 
ATOM      5  C   UNL     1      31.288   7.603  27.742  1.00  0.00     0.011 C 
ATOM      6  C   UNL     1      29.021   7.329  28.862  1.00  0.00     0.011 C 
ENDROOT
BRANCH   4   7
ATOM      7  C   UNL     1      30.426   7.805  31.429  1.00  0.00     0.009 C 
BRANCH   7   8
ATOM      8  C   UNL     1      31.425   7.797  32.596  1.00  0.00     0.030 C 
BRANCH   8   9
ATOM      9  C   UNL     1      31.275   9.014  33.491  1.00  0.00    -0.077 C 
ATOM     10  C   UNL     1      30.358   8.908  34.683  1.00  0.00     0.039 C 
ATOM     11  C   UNL     1      31.956  10.171  33.313  1.00  0.00    -0.028 CG0
ATOM     12  G   UNL     1      32.952  10.465  32.212  1.00  0.00     0.000 G0
ENDBRANCH   8   9
ENDBRANCH   7   8
ENDBRANCH   4   7
BRANCH   1  13
ATOM     13  C   UNL     1      31.840  10.928  29.967  1.00  0.00    -0.074 C 
ATOM     14  C   UNL     1      32.242  11.373  28.765  1.00  0.00     0.008 C 
BRANCH  13  15
ATOM     15  C   UNL     1      32.448  11.539  31.219  1.00  0.00     0.035 C 
BRANCH  15  16
ATOM     16  C   UNL     1      32.960  10.468  32.204  1.00  0.00     0.032 CG0
ATOM     17  G   UNL     1      31.962  10.171  33.302  1.00  0.00     0.000 G0
ENDBRANCH  15  16
ENDBRANCH  13  15
ENDBRANCH   1  13
TORSDOF 0
ENDMDL
MODEL 7
REMARK VINA RESULT:    -3.691      1.768      4.326
REMARK INTER + INTRA:          -5.033
REMARK INTER:                  -5.078
REMARK INTRA:                   0.045
REMARK UNBOUND:                -0.047
REMARK SMILES C=C1CCC=C(C)CC[C@@H]2[C@@H]1CC2(C)C
REMARK SMILES IDX 11 1 12 2 13 3 10 4 14 5 15 6 9 7 8 8 6 9 7 10 5 11 2 13
REMARK SMILES IDX 1 14 3 15 4 16
REMARK H PARENT
REMARK Flexibility Score: 70.00
ROOT
ATOM      1  C   UNL     1      30.765  10.259  29.498  1.00  0.00     0.018 C 
ATOM      2  C   UNL     1      30.038   9.639  28.299  1.00  0.00     0.015 C 
ATOM      3  C   UNL     1      30.357   8.228  28.817  1.00  0.00    -0.031 C 
ATOM      4  C   UNL     1      31.157   8.851  29.988  1.00  0.00     0.002 C 
ATOM      5  C   UNL     1      31.248   7.430  27.847  1.00  0.00     0.011 C 
ATOM      6  C   UNL     1      29.088   7.436  29.191  1.00  0.00     0.011 C 
ENDROOT
BRANCH   4   7
ATOM      7  C   UNL     1      30.685   8.551  31.426  1.00  0.00     0.009 C 
BRANCH   7   8
ATOM      8  C   UNL     1      31.686   9.048  32.480  1.00  0.00     0.030 C 
BRANCH   8   9
ATOM      9  C   UNL     1      31.367  10.451  32.962  1.00  0.00    -0.077 C 
ATOM     10  C   UNL     1      30.387  10.606  34.097  1.00  0.00     0.039 C 
ATOM     11  C   UNL     1      31.949  11.570  32.468  1.00  0.00    -0.028 CG0
ATOM     12  G   UNL     1      32.984  11.630  31.365  1.00  0.00     0.000 G0
ENDBRANCH   8   9
ENDBRANCH   7   8
ENDBRANCH   4   7
BRANCH   1  13
ATOM     13  C   UNL     1      31.890  11.212  29.111  1.00  0.00    -0.074 C 
ATOM     14  C   UNL     1      32.306  11.205  27.833  1.00  0.00     0.008 C 
BRANCH  13  15
ATOM     15  C   UNL     1      32.446  12.262  30.060  1.00  0.00     0.035 C 
BRANCH  15  16
ATOM     16  C   UNL     1      33.002  11.642  31.358  1.00  0.00     0.032 CG0
ATOM     17  G   UNL     1      31.959  11.561  32.452  1.00  0.00     0.000 G0
ENDBRANCH  15  16
ENDBRANCH  13  15
ENDBRANCH   1  13
TORSDOF 0
ENDMDL
MODEL 8
REMARK VINA RESULT:    -3.620      1.756      5.148
REMARK INTER + INTRA:          -4.936
REMARK INTER:                  -4.906
REMARK INTRA:                  -0.031
REMARK UNBOUND:                -0.047
REMARK SMILES C=C1CCC=C(C)CC[C@@H]2[C@@H]1CC2(C)C
REMARK SMILES IDX 11 1 12 2 13 3 10 4 14 5 15 6 9 7 8 8 6 9 7 10 5 11 2 13
REMARK SMILES IDX 1 14 3 15 4 16
REMARK H PARENT
REMARK Flexibility Score: 70.00
ROOT
ATOM      1  C   UNL     1      31.534   9.504  28.433  1.00  0.00     0.018 C 
ATOM      2  C   UNL     1      31.631   9.924  26.961  1.00  0.00     0.015 C 
ATOM      3  C   UNL     1      31.136  11.334  27.317  1.00  0.00    -0.031 C 
ATOM      4  C   UNL     1      30.963  10.890  28.791  1.00  0.00     0.002 C 
ATOM      5  C   UNL     1      29.796  11.678  26.640  1.00  0.00     0.011 C 
ATOM      6  C   UNL     1      32.195  12.420  27.042  1.00  0.00     0.011 C 
ENDROOT
BRANCH   4   7
ATOM      7  C   UNL     1      31.784  11.628  29.869  1.00  0.00     0.009 C 
BRANCH   7   8
ATOM      8  C   UNL     1      31.234  11.386  31.283  1.00  0.00     0.030 C 
BRANCH   8   9
ATOM      9  C   UNL     1      31.914  10.217  31.973  1.00  0.00    -0.077 C 
ATOM     10  C   UNL     1      33.125  10.503  32.824  1.00  0.00     0.039 C 
ATOM     11  C   UNL     1      31.468   8.940  31.912  1.00  0.00    -0.028 CG0
ATOM     12  G   UNL     1      30.253   8.450  31.154  1.00  0.00     0.000 G0
ENDBRANCH   8   9
ENDBRANCH   7   8
ENDBRANCH   4   7
BRANCH   1  13
ATOM     13  C   UNL     1      30.643   8.290  28.668  1.00  0.00    -0.074 C 
ATOM     14  C   UNL     1      29.965   7.795  27.618  1.00  0.00     0.008 C 
BRANCH  13  15
ATOM     15  C   UNL     1      30.610   7.533  29.986  1.00  0.00     0.035 C 
BRANCH  15  16
ATOM     16  C   UNL     1      30.248   8.445  31.176  1.00  0.00     0.032 CG0
ATOM     17  G   UNL     1      31.471   8.932  31.922  1.00  0.00     0.000 G0
ENDBRANCH  15  16
ENDBRANCH  13  15
ENDBRANCH   1  13
TORSDOF 0
ENDMDL
MODEL 9
REMARK VINA RESULT:    -3.535      1.600      2.564
REMARK INTER + INTRA:          -4.823
REMARK INTER:                  -4.990
REMARK INTRA:                   0.168
REMARK UNBOUND:                -0.047
REMARK SMILES C=C1CCC=C(C)CC[C@@H]2[C@@H]1CC2(C)C
REMARK SMILES IDX 11 1 12 2 13 3 10 4 14 5 15 6 9 7 8 8 6 9 7 10 5 11 2 13
REMARK SMILES IDX 1 14 3 15 4 16
REMARK H PARENT
REMARK Flexibility Score: 70.00
ROOT
ATOM      1  C   UNL     1      32.328  10.402  32.850  1.00  0.00     0.018 C 
ATOM      2  C   UNL     1      32.124  11.257  34.106  1.00  0.00     0.015 C 
ATOM      3  C   UNL     1      31.046  10.285  34.610  1.00  0.00    -0.031 C 
ATOM      4  C   UNL     1      31.195   9.462  33.306  1.00  0.00     0.002 C 
ATOM      5  C   UNL     1      29.663  10.951  34.736  1.00  0.00     0.011 C 
ATOM      6  C   UNL     1      31.450   9.582  35.922  1.00  0.00     0.011 C 
ENDROOT
BRANCH   4   7
ATOM      7  C   UNL     1      31.637   7.988  33.429  1.00  0.00     0.009 C 
BRANCH   7   8
ATOM      8  C   UNL     1      31.705   7.288  32.063  1.00  0.00     0.030 C 
BRANCH   8   9
ATOM      9  C   UNL     1      30.424   7.456  31.265  1.00  0.00    -0.077 C 
ATOM     10  C   UNL     1      29.267   6.542  31.580  1.00  0.00     0.039 C 
ATOM     11  C   UNL     1      30.241   8.411  30.322  1.00  0.00    -0.028 CG0
ATOM     12  G   UNL     1      31.254   9.449  29.890  1.00  0.00     0.000 G0
ENDBRANCH   8   9
ENDBRANCH   7   8
ENDBRANCH   4   7
BRANCH   1  13
ATOM     13  C   UNL     1      32.130  11.166  31.546  1.00  0.00    -0.074 C 
ATOM     14  C   UNL     1      33.048  12.091  31.216  1.00  0.00     0.008 C 
BRANCH  13  15
ATOM     15  C   UNL     1      31.040  10.823  30.544  1.00  0.00     0.035 C 
BRANCH  15  16
ATOM     16  C   UNL     1      31.265   9.449  29.882  1.00  0.00     0.032 CG0
ATOM     17  G   UNL     1      30.248   8.420  30.328  1.00  0.00     0.000 G0
ENDBRANCH  15  16
ENDBRANCH  13  15
ENDBRANCH   1  13
TORSDOF 0
ENDMDL
