MODEL 1
REMARK VINA RESULT:    -3.701      0.000      0.000
REMARK INTER + INTRA:          -5.501
REMARK INTER:                  -4.999
REMARK INTRA:                  -0.502
REMARK UNBOUND:                -0.502
REMARK SMILES O=C[C@H](O)[C@@H](O)[C@H](O)CO
REMARK SMILES IDX 7 1 9 2 10 3 5 5 3 6 2 7 1 8 4 9 6 11 8 13
REMARK H PARENT 10 4 4 10 6 12 8 14
REMARK Flexibility Score: inf
ROOT
ATOM      1  C   UNL     1       5.458  40.260  63.812  1.00  0.00     0.171 C 
ENDROOT
BRANCH   1   2
ATOM      2  C   UNL     1       6.758  40.735  64.493  1.00  0.00     0.190 C 
BRANCH   2   3
ATOM      3  O   UNL     1       6.600  40.772  65.886  1.00  0.00    -0.394 OA
ATOM      4  H   UNL     1       6.931  39.902  66.232  1.00  0.00     0.210 HD
ENDBRANCH   2   3
ENDBRANCH   1   2
BRANCH   1   5
ATOM      5  C   UNL     1       4.169  40.876  64.434  1.00  0.00     0.181 C 
BRANCH   5   6
ATOM      6  C   UNL     1       3.018  41.091  63.410  1.00  0.00     0.209 C 
BRANCH   6   7
ATOM      7  C   UNL     1       1.662  40.945  64.044  1.00  0.00     0.258 C 
ATOM      8  O   UNL     1       0.647  41.015  63.369  1.00  0.00    -0.300 OA
ENDBRANCH   6   7
BRANCH   6   9
ATOM      9  O   UNL     1       3.110  40.145  62.374  1.00  0.00    -0.383 OA
ATOM     10  H   UNL     1       3.455  40.619  61.572  1.00  0.00     0.211 HD
ENDBRANCH   6   9
ENDBRANCH   5   6
BRANCH   5  11
ATOM     11  O   UNL     1       3.725  40.055  65.487  1.00  0.00    -0.387 OA
ATOM     12  H   UNL     1       3.453  39.185  65.091  1.00  0.00     0.211 HD
ENDBRANCH   5  11
ENDBRANCH   1   5
BRANCH   1  13
ATOM     13  O   UNL     1       5.385  38.855  63.855  1.00  0.00    -0.388 OA
ATOM     14  H   UNL     1       4.802  38.610  64.620  1.00  0.00     0.211 HD
ENDBRANCH   1  13
TORSDOF 8
ENDMDL
MODEL 2
REMARK VINA RESULT:    -3.669     17.525     18.770
REMARK INTER + INTRA:          -5.457
REMARK INTER:                  -5.108
REMARK INTRA:                  -0.350
REMARK UNBOUND:                -0.502
REMARK SMILES O=C[C@H](O)[C@@H](O)[C@H](O)CO
REMARK SMILES IDX 7 1 9 2 10 3 5 5 3 6 2 7 1 8 4 9 6 11 8 13
REMARK H PARENT 10 4 4 10 6 12 8 14
REMARK Flexibility Score: inf
ROOT
ATOM      1  C   UNL     1      15.711  30.529  73.371  1.00  0.00     0.171 C 
ENDROOT
BRANCH   1   2
ATOM      2  C   UNL     1      15.786  29.067  72.889  1.00  0.00     0.190 C 
BRANCH   2   3
ATOM      3  O   UNL     1      15.874  28.191  73.981  1.00  0.00    -0.394 OA
ATOM      4  H   UNL     1      14.943  28.022  74.285  1.00  0.00     0.210 HD
ENDBRANCH   2   3
ENDBRANCH   1   2
BRANCH   1   5
ATOM      5  C   UNL     1      17.040  31.319  73.171  1.00  0.00     0.181 C 
BRANCH   5   6
ATOM      6  C   UNL     1      17.239  32.481  74.185  1.00  0.00     0.209 C 
BRANCH   6   7
ATOM      7  C   UNL     1      17.809  33.710  73.531  1.00  0.00     0.258 C 
ATOM      8  O   UNL     1      17.123  34.397  72.791  1.00  0.00    -0.300 OA
ENDBRANCH   6   7
BRANCH   6   9
ATOM      9  O   UNL     1      18.125  32.089  75.203  1.00  0.00    -0.383 OA
ATOM     10  H   UNL     1      18.102  31.096  75.246  1.00  0.00     0.211 HD
ENDBRANCH   6   9
ENDBRANCH   5   6
BRANCH   5  11
ATOM     11  O   UNL     1      18.125  30.426  73.248  1.00  0.00    -0.387 OA
ATOM     12  H   UNL     1      18.822  30.852  73.813  1.00  0.00     0.211 HD
ENDBRANCH   5  11
ENDBRANCH   1   5
BRANCH   1  13
ATOM     13  O   UNL     1      15.334  30.565  74.726  1.00  0.00    -0.388 OA
ATOM     14  H   UNL     1      16.164  30.648  75.265  1.00  0.00     0.211 HD
ENDBRANCH   1  13
TORSDOF 8
ENDMDL
MODEL 3
REMARK VINA RESULT:    -3.568      1.750      2.387
REMARK INTER + INTRA:          -5.322
REMARK INTER:                  -5.206
REMARK INTRA:                  -0.116
REMARK UNBOUND:                -0.502
REMARK SMILES O=C[C@H](O)[C@@H](O)[C@H](O)CO
REMARK SMILES IDX 7 1 9 2 10 3 5 5 3 6 2 7 1 8 4 9 6 11 8 13
REMARK H PARENT 10 4 4 10 6 12 8 14
REMARK Flexibility Score: inf
ROOT
ATOM      1  C   UNL     1       5.530  40.037  64.147  1.00  0.00     0.171 C 
ENDROOT
BRANCH   1   2
ATOM      2  C   UNL     1       6.676  41.069  64.114  1.00  0.00     0.190 C 
BRANCH   2   3
ATOM      3  O   UNL     1       7.642  40.702  63.165  1.00  0.00    -0.394 OA
ATOM      4  H   UNL     1       7.856  41.521  62.647  1.00  0.00     0.210 HD
ENDBRANCH   2   3
ENDBRANCH   1   2
BRANCH   1   5
ATOM      5  C   UNL     1       5.091  39.640  65.589  1.00  0.00     0.181 C 
BRANCH   5   6
ATOM      6  C   UNL     1       3.750  40.287  66.038  1.00  0.00     0.209 C 
BRANCH   6   7
ATOM      7  C   UNL     1       3.135  41.125  64.951  1.00  0.00     0.258 C 
ATOM      8  O   UNL     1       1.964  40.976  64.637  1.00  0.00    -0.300 OA
ENDBRANCH   6   7
BRANCH   6   9
ATOM      9  O   UNL     1       3.964  41.119  67.151  1.00  0.00    -0.383 OA
ATOM     10  H   UNL     1       3.632  42.024  66.910  1.00  0.00     0.211 HD
ENDBRANCH   6   9
ENDBRANCH   5   6
BRANCH   5  11
ATOM     11  O   UNL     1       4.998  38.238  65.674  1.00  0.00    -0.387 OA
ATOM     12  H   UNL     1       4.602  38.019  66.559  1.00  0.00     0.211 HD
ENDBRANCH   5  11
ENDBRANCH   1   5
BRANCH   1  13
ATOM     13  O   UNL     1       5.904  38.887  63.426  1.00  0.00    -0.388 OA
ATOM     14  H   UNL     1       5.858  38.116  64.051  1.00  0.00     0.211 HD
ENDBRANCH   1  13
TORSDOF 8
ENDMDL
MODEL 4
REMARK VINA RESULT:    -3.195      1.443      2.198
REMARK INTER + INTRA:          -4.818
REMARK INTER:                  -4.729
REMARK INTRA:                  -0.089
REMARK UNBOUND:                -0.502
REMARK SMILES O=C[C@H](O)[C@@H](O)[C@H](O)CO
REMARK SMILES IDX 7 1 9 2 10 3 5 5 3 6 2 7 1 8 4 9 6 11 8 13
REMARK H PARENT 10 4 4 10 6 12 8 14
REMARK Flexibility Score: inf
ROOT
ATOM      1  C   UNL     1       4.793  40.168  65.665  1.00  0.00     0.171 C 
ENDROOT
BRANCH   1   2
ATOM      2  C   UNL     1       4.288  38.914  66.405  1.00  0.00     0.190 C 
BRANCH   2   3
ATOM      3  O   UNL     1       4.757  37.749  65.779  1.00  0.00    -0.394 OA
ATOM      4  H   UNL     1       4.104  37.529  65.063  1.00  0.00     0.210 HD
ENDBRANCH   2   3
ENDBRANCH   1   2
BRANCH   1   5
ATOM      5  C   UNL     1       4.624  40.088  64.117  1.00  0.00     0.181 C 
BRANCH   5   6
ATOM      6  C   UNL     1       3.591  41.101  63.545  1.00  0.00     0.209 C 
BRANCH   6   7
ATOM      7  C   UNL     1       2.290  41.069  64.299  1.00  0.00     0.258 C 
ATOM      8  O   UNL     1       1.224  41.070  63.703  1.00  0.00    -0.300 OA
ENDBRANCH   6   7
BRANCH   6   9
ATOM      9  O   UNL     1       3.314  40.802  62.200  1.00  0.00    -0.383 OA
ATOM     10  H   UNL     1       2.327  40.736  62.110  1.00  0.00     0.211 HD
ENDBRANCH   6   9
ENDBRANCH   5   6
BRANCH   5  11
ATOM     11  O   UNL     1       5.876  40.284  63.505  1.00  0.00    -0.387 OA
ATOM     12  H   UNL     1       5.752  40.153  62.527  1.00  0.00     0.211 HD
ENDBRANCH   5  11
ENDBRANCH   1   5
BRANCH   1  13
ATOM     13  O   UNL     1       6.143  40.400  65.987  1.00  0.00    -0.388 OA
ATOM     14  H   UNL     1       6.584  39.514  66.075  1.00  0.00     0.211 HD
ENDBRANCH   1  13
TORSDOF 8
ENDMDL
MODEL 5
REMARK VINA RESULT:    -3.161     16.747     18.350
REMARK INTER + INTRA:          -4.772
REMARK INTER:                  -4.707
REMARK INTRA:                  -0.065
REMARK UNBOUND:                -0.502
REMARK SMILES O=C[C@H](O)[C@@H](O)[C@H](O)CO
REMARK SMILES IDX 7 1 9 2 10 3 5 5 3 6 2 7 1 8 4 9 6 11 8 13
REMARK H PARENT 10 4 4 10 6 12 8 14
REMARK Flexibility Score: inf
ROOT
ATOM      1  C   UNL     1      17.800  33.474  73.664  1.00  0.00     0.171 C 
ENDROOT
BRANCH   1   2
ATOM      2  C   UNL     1      16.985  34.223  72.590  1.00  0.00     0.190 C 
BRANCH   2   3
ATOM      3  O   UNL     1      17.335  35.581  72.565  1.00  0.00    -0.394 OA
ATOM      4  H   UNL     1      18.324  35.621  72.640  1.00  0.00     0.210 HD
ENDBRANCH   2   3
ENDBRANCH   1   2
BRANCH   1   5
ATOM      5  C   UNL     1      17.075  32.216  74.230  1.00  0.00     0.181 C 
BRANCH   5   6
ATOM      6  C   UNL     1      16.859  31.089  73.179  1.00  0.00     0.209 C 
BRANCH   6   7
ATOM      7  C   UNL     1      15.677  30.221  73.516  1.00  0.00     0.258 C 
ATOM      8  O   UNL     1      15.422  29.231  72.850  1.00  0.00    -0.300 OA
ENDBRANCH   6   7
BRANCH   6   9
ATOM      9  O   UNL     1      17.993  30.262  73.116  1.00  0.00    -0.383 OA
ATOM     10  H   UNL     1      17.755  29.477  72.555  1.00  0.00     0.211 HD
ENDBRANCH   6   9
ENDBRANCH   5   6
BRANCH   5  11
ATOM     11  O   UNL     1      17.805  31.715  75.325  1.00  0.00    -0.387 OA
ATOM     12  H   UNL     1      18.025  32.485  75.913  1.00  0.00     0.211 HD
ENDBRANCH   5  11
ENDBRANCH   1   5
BRANCH   1  13
ATOM     13  O   UNL     1      18.125  34.352  74.714  1.00  0.00    -0.388 OA
ATOM     14  H   UNL     1      17.520  35.137  74.644  1.00  0.00     0.211 HD
ENDBRANCH   1  13
TORSDOF 8
ENDMDL
MODEL 6
REMARK VINA RESULT:    -3.002     16.631     18.176
REMARK INTER + INTRA:          -4.557
REMARK INTER:                  -4.087
REMARK INTRA:                  -0.470
REMARK UNBOUND:                -0.502
REMARK SMILES O=C[C@H](O)[C@@H](O)[C@H](O)CO
REMARK SMILES IDX 7 1 9 2 10 3 5 5 3 6 2 7 1 8 4 9 6 11 8 13
REMARK H PARENT 10 4 4 10 6 12 8 14
REMARK Flexibility Score: inf
ROOT
ATOM      1  C   UNL     1      17.345  31.577  73.454  1.00  0.00     0.171 C 
ENDROOT
BRANCH   1   2
ATOM      2  C   UNL     1      17.936  32.362  74.642  1.00  0.00     0.190 C 
BRANCH   2   3
ATOM      3  O   UNL     1      17.364  33.640  74.723  1.00  0.00    -0.394 OA
ATOM      4  H   UNL     1      18.108  34.291  74.626  1.00  0.00     0.210 HD
ENDBRANCH   2   3
ENDBRANCH   1   2
BRANCH   1   5
ATOM      5  C   UNL     1      15.854  31.170  73.657  1.00  0.00     0.181 C 
BRANCH   5   6
ATOM      6  C   UNL     1      15.474  29.821  72.981  1.00  0.00     0.209 C 
BRANCH   6   7
ATOM      7  C   UNL     1      14.007  29.744  72.658  1.00  0.00     0.258 C 
ATOM      8  O   UNL     1      13.601  30.017  71.540  1.00  0.00    -0.300 OA
ENDBRANCH   6   7
BRANCH   6   9
ATOM      9  O   UNL     1      15.781  28.748  73.836  1.00  0.00    -0.383 OA
ATOM     10  H   UNL     1      15.711  29.085  74.768  1.00  0.00     0.211 HD
ENDBRANCH   6   9
ENDBRANCH   5   6
BRANCH   5  11
ATOM     11  O   UNL     1      15.575  31.109  75.035  1.00  0.00    -0.387 OA
ATOM     12  H   UNL     1      15.070  31.931  75.273  1.00  0.00     0.211 HD
ENDBRANCH   5  11
ENDBRANCH   1   5
BRANCH   1  13
ATOM     13  O   UNL     1      18.124  30.433  73.204  1.00  0.00    -0.388 OA
ATOM     14  H   UNL     1      19.064  30.655  73.437  1.00  0.00     0.211 HD
ENDBRANCH   1  13
TORSDOF 8
ENDMDL
MODEL 7
REMARK VINA RESULT:    -2.795     17.797     18.711
REMARK INTER + INTRA:          -4.277
REMARK INTER:                  -4.029
REMARK INTRA:                  -0.249
REMARK UNBOUND:                -0.502
REMARK SMILES O=C[C@H](O)[C@@H](O)[C@H](O)CO
REMARK SMILES IDX 7 1 9 2 10 3 5 5 3 6 2 7 1 8 4 9 6 11 8 13
REMARK H PARENT 10 4 4 10 6 12 8 14
REMARK Flexibility Score: inf
ROOT
ATOM      1  C   UNL     1      17.597  31.678  73.663  1.00  0.00     0.171 C 
ENDROOT
BRANCH   1   2
ATOM      2  C   UNL     1      17.736  33.135  73.177  1.00  0.00     0.190 C 
BRANCH   2   3
ATOM      3  O   UNL     1      16.994  34.000  73.994  1.00  0.00    -0.394 OA
ATOM      4  H   UNL     1      16.682  34.742  73.412  1.00  0.00     0.210 HD
ENDBRANCH   2   3
ENDBRANCH   1   2
BRANCH   1   5
ATOM      5  C   UNL     1      16.131  31.150  73.636  1.00  0.00     0.181 C 
BRANCH   5   6
ATOM      6  C   UNL     1      16.012  29.645  73.260  1.00  0.00     0.209 C 
BRANCH   6   7
ATOM      7  C   UNL     1      17.338  29.055  72.864  1.00  0.00     0.258 C 
ATOM      8  O   UNL     1      17.393  27.993  72.264  1.00  0.00    -0.300 OA
ENDBRANCH   6   7
BRANCH   6   9
ATOM      9  O   UNL     1      15.131  29.486  72.176  1.00  0.00    -0.383 OA
ATOM     10  H   UNL     1      15.686  29.365  71.361  1.00  0.00     0.211 HD
ENDBRANCH   6   9
ENDBRANCH   5   6
BRANCH   5  11
ATOM     11  O   UNL     1      15.534  31.378  74.890  1.00  0.00    -0.387 OA
ATOM     12  H   UNL     1      14.799  32.034  74.755  1.00  0.00     0.211 HD
ENDBRANCH   5  11
ENDBRANCH   1   5
BRANCH   1  13
ATOM     13  O   UNL     1      18.125  31.557  74.962  1.00  0.00    -0.388 OA
ATOM     14  H   UNL     1      17.696  30.768  75.386  1.00  0.00     0.211 HD
ENDBRANCH   1  13
TORSDOF 8
ENDMDL
MODEL 8
REMARK VINA RESULT:    -2.789      2.292      4.141
REMARK INTER + INTRA:          -4.268
REMARK INTER:                  -3.908
REMARK INTRA:                  -0.361
REMARK UNBOUND:                -0.502
REMARK SMILES O=C[C@H](O)[C@@H](O)[C@H](O)CO
REMARK SMILES IDX 7 1 9 2 10 3 5 5 3 6 2 7 1 8 4 9 6 11 8 13
REMARK H PARENT 10 4 4 10 6 12 8 14
REMARK Flexibility Score: inf
ROOT
ATOM      1  C   UNL     1       3.958  40.065  65.614  1.00  0.00     0.171 C 
ENDROOT
BRANCH   1   2
ATOM      2  C   UNL     1       3.755  38.584  65.993  1.00  0.00     0.190 C 
BRANCH   2   3
ATOM      3  O   UNL     1       4.976  37.894  65.958  1.00  0.00    -0.394 OA
ATOM      4  H   UNL     1       5.533  38.339  65.266  1.00  0.00     0.210 HD
ENDBRANCH   2   3
ENDBRANCH   1   2
BRANCH   1   5
ATOM      5  C   UNL     1       4.961  40.274  64.439  1.00  0.00     0.181 C 
BRANCH   5   6
ATOM      6  C   UNL     1       6.272  41.003  64.855  1.00  0.00     0.209 C 
BRANCH   6   7
ATOM      7  C   UNL     1       7.238  41.125  63.708  1.00  0.00     0.258 C 
ATOM      8  O   UNL     1       7.534  40.149  63.036  1.00  0.00    -0.300 OA
ENDBRANCH   6   7
BRANCH   6   9
ATOM      9  O   UNL     1       6.915  40.293  65.883  1.00  0.00    -0.383 OA
ATOM     10  H   UNL     1       7.211  40.957  66.559  1.00  0.00     0.211 HD
ENDBRANCH   6   9
ENDBRANCH   5   6
BRANCH   5  11
ATOM     11  O   UNL     1       5.269  39.026  63.866  1.00  0.00    -0.387 OA
ATOM     12  H   UNL     1       5.317  39.154  62.882  1.00  0.00     0.211 HD
ENDBRANCH   5  11
ENDBRANCH   1   5
BRANCH   1  13
ATOM     13  O   UNL     1       4.384  40.791  66.741  1.00  0.00    -0.388 OA
ATOM     14  H   UNL     1       3.974  40.368  67.541  1.00  0.00     0.211 HD
ENDBRANCH   1  13
TORSDOF 8
ENDMDL
