MODEL 1
REMARK VINA RESULT:    -6.089      0.000      0.000
REMARK INTER + INTRA:          -9.036
REMARK INTER:                  -8.046
REMARK INTRA:                  -0.989
REMARK UNBOUND:                -0.989
REMARK SMILES CC[C@H](C=C[C@@H](C)[C@@H]1CC[C@@H]2[C@H]3CC=C4C[C@@H](O)CC[C@]4(C)[C@@H]3CC[C@@]21C)C(C)C
REMARK SMILES IDX 6 1 7 2 5 3 4 4 3 5 2 6 1 7 28 8 29 9 30 10 8 11 9 12 26 13
REMARK SMILES IDX 10 14 11 15 25 16 27 17 12 18 24 19 23 20 13 21 21 22 14 23
REMARK SMILES IDX 15 24 20 25 22 26 16 27 19 28 17 29 18 30
REMARK H PARENT 18 31
REMARK Flexibility Score: inf
ROOT
ATOM      1  C   UNL     1      -1.714  -9.840 -38.709  1.00  0.00     0.012 C 
ATOM      2  C   UNL     1      -0.449  -8.969 -38.798  1.00  0.00     0.012 C 
ENDROOT
BRANCH   1   3
ATOM      3  C   UNL     1      -1.532 -10.860 -37.603  1.00  0.00    -0.028 C 
ATOM      4  C   UNL     1      -1.226 -10.490 -36.348  1.00  0.00    -0.027 C 
BRANCH   4   5
ATOM      5  C   UNL     1      -1.046 -11.495 -35.222  1.00  0.00     0.014 C 
BRANCH   5   6
ATOM      6  C   UNL     1      -1.799 -11.029 -33.948  1.00  0.00     0.004 C 
ATOM      7  C   UNL     1      -1.000 -11.270 -32.664  1.00  0.00     0.004 C 
ENDBRANCH   5   6
BRANCH   5   8
ATOM      8  C   UNL     1      -1.462 -12.932 -35.675  1.00  0.00    -0.011 C 
ATOM      9  C   UNL     1      -0.430 -13.981 -35.220  1.00  0.00     0.008 C 
ATOM     10  C   UNL     1      -2.848 -13.332 -35.137  1.00  0.00     0.008 C 
ENDBRANCH   5   8
ENDBRANCH   4   5
ENDBRANCH   1   3
BRANCH   1  11
ATOM     11  C   UNL     1      -2.177 -10.560 -40.025  1.00  0.00     0.002 C 
ATOM     12  C   UNL     1      -1.096 -10.901 -41.057  1.00  0.00     0.005 C 
ATOM     13  C   UNL     1      -3.361  -9.981 -40.857  1.00  0.00    -0.026 C 
ATOM     14  C   UNL     1      -1.851 -11.170 -42.365  1.00  0.00     0.005 C 
ATOM     15  C   UNL     1      -3.350 -10.951 -42.068  1.00  0.00    -0.001 C 
ATOM     16  C   UNL     1      -3.111  -8.496 -41.315  1.00  0.00     0.007 C 
ATOM     17  C   UNL     1      -4.676 -10.105 -40.044  1.00  0.00     0.012 C 
ATOM     18  C   UNL     1      -4.162 -10.518 -43.333  1.00  0.00     0.000 C 
ATOM     19  C   UNL     1      -3.496  -8.149 -42.769  1.00  0.00     0.005 C 
ATOM     20  C   UNL     1      -4.615  -9.046 -43.308  1.00  0.00     0.003 C 
ATOM     21  C   UNL     1      -5.418 -11.380 -43.536  1.00  0.00     0.031 C 
ATOM     22  C   UNL     1      -5.206  -8.597 -44.702  1.00  0.00    -0.008 C 
ATOM     23  C   UNL     1      -6.171 -10.952 -44.770  1.00  0.00    -0.027 C 
ATOM     24  C   UNL     1      -6.086  -9.709 -45.306  1.00  0.00    -0.065 C 
ATOM     25  C   UNL     1      -4.064  -8.278 -45.735  1.00  0.00     0.014 C 
ATOM     26  C   UNL     1      -6.092  -7.324 -44.462  1.00  0.00     0.016 C 
ATOM     27  C   UNL     1      -6.716  -9.475 -46.670  1.00  0.00     0.063 C 
ATOM     28  C   UNL     1      -4.412  -8.548 -47.221  1.00  0.00     0.033 C 
ATOM     29  C   UNL     1      -5.916  -8.477 -47.536  1.00  0.00     0.118 C 
BRANCH  29  30
ATOM     30  O   UNL     1      -6.400  -7.171 -47.362  1.00  0.00    -0.393 OA
ATOM     31  H   UNL     1      -6.675  -7.089 -46.411  1.00  0.00     0.210 HD
ENDBRANCH  29  30
ENDBRANCH   1  11
TORSDOF 6
ENDMDL
MODEL 2
REMARK VINA RESULT:    -5.923     11.555     13.509
REMARK INTER + INTRA:          -8.817
REMARK INTER:                  -8.261
REMARK INTRA:                  -0.555
REMARK UNBOUND:                -0.989
REMARK SMILES CC[C@H](C=C[C@@H](C)[C@@H]1CC[C@@H]2[C@H]3CC=C4C[C@@H](O)CC[C@]4(C)[C@@H]3CC[C@@]21C)C(C)C
REMARK SMILES IDX 6 1 7 2 5 3 4 4 3 5 2 6 1 7 28 8 29 9 30 10 8 11 9 12 26 13
REMARK SMILES IDX 10 14 11 15 25 16 27 17 12 18 24 19 23 20 13 21 21 22 14 23
REMARK SMILES IDX 15 24 20 25 22 26 16 27 19 28 17 29 18 30
REMARK H PARENT 18 31
REMARK Flexibility Score: inf
ROOT
ATOM      1  C   UNL     1      -0.178 -18.979 -40.966  1.00  0.00     0.012 C 
ATOM      2  C   UNL     1      -1.439 -18.598 -41.762  1.00  0.00     0.012 C 
ENDROOT
BRANCH   1   3
ATOM      3  C   UNL     1       0.951 -18.047 -41.357  1.00  0.00    -0.028 C 
ATOM      4  C   UNL     1       1.556 -17.256 -40.454  1.00  0.00    -0.027 C 
BRANCH   4   5
ATOM      5  C   UNL     1       2.694 -16.320 -40.822  1.00  0.00     0.014 C 
BRANCH   5   6
ATOM      6  C   UNL     1       2.440 -14.901 -40.248  1.00  0.00     0.004 C 
ATOM      7  C   UNL     1       1.102 -14.787 -39.513  1.00  0.00     0.004 C 
ENDBRANCH   5   6
BRANCH   5   8
ATOM      8  C   UNL     1       4.075 -16.907 -40.384  1.00  0.00    -0.011 C 
ATOM      9  C   UNL     1       3.965 -17.645 -39.036  1.00  0.00     0.008 C 
ATOM     10  C   UNL     1       4.655 -17.873 -41.433  1.00  0.00     0.008 C 
ENDBRANCH   5   8
ENDBRANCH   4   5
ENDBRANCH   1   3
BRANCH   1  11
ATOM     11  C   UNL     1       0.304 -20.470 -41.068  1.00  0.00     0.002 C 
ATOM     12  C   UNL     1       1.808 -20.712 -41.230  1.00  0.00     0.005 C 
ATOM     13  C   UNL     1      -0.374 -21.442 -42.080  1.00  0.00    -0.026 C 
ATOM     14  C   UNL     1       1.936 -22.156 -41.733  1.00  0.00     0.005 C 
ATOM     15  C   UNL     1       0.502 -22.707 -41.878  1.00  0.00    -0.001 C 
ATOM     16  C   UNL     1      -0.293 -20.925 -43.564  1.00  0.00     0.007 C 
ATOM     17  C   UNL     1      -1.843 -21.697 -41.652  1.00  0.00     0.012 C 
ATOM     18  C   UNL     1       0.390 -23.830 -42.962  1.00  0.00     0.000 C 
ATOM     19  C   UNL     1       0.064 -21.972 -44.640  1.00  0.00     0.005 C 
ATOM     20  C   UNL     1      -0.353 -23.391 -44.238  1.00  0.00     0.003 C 
ATOM     21  C   UNL     1      -0.322 -25.081 -42.425  1.00  0.00     0.031 C 
ATOM     22  C   UNL     1      -0.220 -24.467 -45.385  1.00  0.00    -0.008 C 
ATOM     23  C   UNL     1      -0.401 -26.151 -43.484  1.00  0.00    -0.027 C 
ATOM     24  C   UNL     1      -0.355 -25.893 -44.814  1.00  0.00    -0.065 C 
ATOM     25  C   UNL     1       1.174 -24.373 -46.106  1.00  0.00     0.014 C 
ATOM     26  C   UNL     1      -1.381 -24.221 -46.413  1.00  0.00     0.016 C 
ATOM     27  C   UNL     1      -0.218 -27.072 -45.766  1.00  0.00     0.063 C 
ATOM     28  C   UNL     1       1.729 -25.705 -46.670  1.00  0.00     0.033 C 
ATOM     29  C   UNL     1       0.644 -26.744 -47.005  1.00  0.00     0.118 C 
BRANCH  29  30
ATOM     30  O   UNL     1      -0.161 -26.297 -48.065  1.00  0.00    -0.393 OA
ATOM     31  H   UNL     1      -1.078 -26.640 -47.897  1.00  0.00     0.210 HD
ENDBRANCH  29  30
ENDBRANCH   1  11
TORSDOF 6
ENDMDL
MODEL 3
REMARK VINA RESULT:    -5.803      2.116      3.781
REMARK INTER + INTRA:          -8.658
REMARK INTER:                  -7.350
REMARK INTRA:                  -1.308
REMARK UNBOUND:                -0.989
REMARK SMILES CC[C@H](C=C[C@@H](C)[C@@H]1CC[C@@H]2[C@H]3CC=C4C[C@@H](O)CC[C@]4(C)[C@@H]3CC[C@@]21C)C(C)C
REMARK SMILES IDX 6 1 7 2 5 3 4 4 3 5 2 6 1 7 28 8 29 9 30 10 8 11 9 12 26 13
REMARK SMILES IDX 10 14 11 15 25 16 27 17 12 18 24 19 23 20 13 21 21 22 14 23
REMARK SMILES IDX 15 24 20 25 22 26 16 27 19 28 17 29 18 30
REMARK H PARENT 18 31
REMARK Flexibility Score: inf
ROOT
ATOM      1  C   UNL     1      -2.048 -11.753 -39.918  1.00  0.00     0.012 C 
ATOM      2  C   UNL     1      -2.078 -13.285 -39.778  1.00  0.00     0.012 C 
ENDROOT
BRANCH   1   3
ATOM      3  C   UNL     1      -1.222 -11.171 -38.789  1.00  0.00    -0.028 C 
ATOM      4  C   UNL     1      -1.329  -9.881 -38.430  1.00  0.00    -0.027 C 
BRANCH   4   5
ATOM      5  C   UNL     1      -0.516  -9.278 -37.297  1.00  0.00     0.014 C 
BRANCH   5   6
ATOM      6  C   UNL     1      -0.391  -7.742 -37.471  1.00  0.00     0.004 C 
ATOM      7  C   UNL     1      -1.163  -7.216 -38.685  1.00  0.00     0.004 C 
ENDBRANCH   5   6
BRANCH   5   8
ATOM      8  C   UNL     1      -1.103  -9.679 -35.904  1.00  0.00    -0.011 C 
ATOM      9  C   UNL     1      -0.075 -10.468 -35.071  1.00  0.00     0.008 C 
ATOM     10  C   UNL     1      -1.565  -8.454 -35.094  1.00  0.00     0.008 C 
ENDBRANCH   5   8
ENDBRANCH   4   5
ENDBRANCH   1   3
BRANCH   1  11
ATOM     11  C   UNL     1      -3.433 -11.018 -39.997  1.00  0.00     0.002 C 
ATOM     12  C   UNL     1      -4.629 -11.700 -39.323  1.00  0.00     0.005 C 
ATOM     13  C   UNL     1      -3.974 -10.517 -41.369  1.00  0.00    -0.026 C 
ATOM     14  C   UNL     1      -5.871 -11.024 -39.916  1.00  0.00     0.005 C 
ATOM     15  C   UNL     1      -5.367  -9.985 -40.940  1.00  0.00    -0.001 C 
ATOM     16  C   UNL     1      -4.108 -11.674 -42.427  1.00  0.00     0.007 C 
ATOM     17  C   UNL     1      -3.070  -9.373 -41.898  1.00  0.00     0.012 C 
ATOM     18  C   UNL     1      -6.403  -9.705 -42.079  1.00  0.00     0.000 C 
ATOM     19  C   UNL     1      -5.394 -11.682 -43.282  1.00  0.00     0.005 C 
ATOM     20  C   UNL     1      -5.995 -10.282 -43.448  1.00  0.00     0.003 C 
ATOM     21  C   UNL     1      -6.655  -8.202 -42.273  1.00  0.00     0.031 C 
ATOM     22  C   UNL     1      -7.175 -10.191 -44.492  1.00  0.00    -0.008 C 
ATOM     23  C   UNL     1      -7.668  -7.962 -43.364  1.00  0.00    -0.027 C 
ATOM     24  C   UNL     1      -7.914  -8.844 -44.364  1.00  0.00    -0.065 C 
ATOM     25  C   UNL     1      -8.230 -11.336 -44.270  1.00  0.00     0.014 C 
ATOM     26  C   UNL     1      -6.556 -10.295 -45.931  1.00  0.00     0.016 C 
ATOM     27  C   UNL     1      -9.111  -8.584 -45.267  1.00  0.00     0.063 C 
ATOM     28  C   UNL     1      -9.690 -10.984 -44.652  1.00  0.00     0.033 C 
ATOM     29  C   UNL     1      -9.811  -9.884 -45.720  1.00  0.00     0.118 C 
BRANCH  29  30
ATOM     30  O   UNL     1      -9.293 -10.324 -46.948  1.00  0.00    -0.393 OA
ATOM     31  H   UNL     1      -8.328 -10.089 -46.956  1.00  0.00     0.210 HD
ENDBRANCH  29  30
ENDBRANCH   1  11
TORSDOF 6
ENDMDL
MODEL 4
REMARK VINA RESULT:    -5.719      4.032      9.387
REMARK INTER + INTRA:          -8.547
REMARK INTER:                  -7.902
REMARK INTRA:                  -0.645
REMARK UNBOUND:                -0.989
REMARK SMILES CC[C@H](C=C[C@@H](C)[C@@H]1CC[C@@H]2[C@H]3CC=C4C[C@@H](O)CC[C@]4(C)[C@@H]3CC[C@@]21C)C(C)C
REMARK SMILES IDX 6 1 7 2 5 3 4 4 3 5 2 6 1 7 28 8 29 9 30 10 8 11 9 12 26 13
REMARK SMILES IDX 10 14 11 15 25 16 27 17 12 18 24 19 23 20 13 21 21 22 14 23
REMARK SMILES IDX 15 24 20 25 22 26 16 27 19 28 17 29 18 30
REMARK H PARENT 18 31
REMARK Flexibility Score: inf
ROOT
ATOM      1  C   UNL     1      -2.545 -10.694 -41.738  1.00  0.00     0.012 C 
ATOM      2  C   UNL     1      -3.482 -10.451 -42.934  1.00  0.00     0.012 C 
ENDROOT
BRANCH   1   3
ATOM      3  C   UNL     1      -1.240 -11.275 -42.245  1.00  0.00    -0.028 C 
ATOM      4  C   UNL     1      -0.119 -10.537 -42.309  1.00  0.00    -0.027 C 
BRANCH   4   5
ATOM      5  C   UNL     1       1.201 -11.100 -42.808  1.00  0.00     0.014 C 
BRANCH   5   6
ATOM      6  C   UNL     1       1.885 -10.106 -43.784  1.00  0.00     0.004 C 
ATOM      7  C   UNL     1       1.235  -8.719 -43.773  1.00  0.00     0.004 C 
ENDBRANCH   5   6
BRANCH   5   8
ATOM      8  C   UNL     1       2.129 -11.507 -41.617  1.00  0.00    -0.011 C 
ATOM      9  C   UNL     1       2.250 -13.038 -41.502  1.00  0.00     0.008 C 
ATOM     10  C   UNL     1       3.539 -10.905 -41.747  1.00  0.00     0.008 C 
ENDBRANCH   5   8
ENDBRANCH   4   5
ENDBRANCH   1   3
BRANCH   1  11
ATOM     11  C   UNL     1      -3.101 -11.579 -40.566  1.00  0.00     0.002 C 
ATOM     12  C   UNL     1      -4.417 -11.138 -39.917  1.00  0.00     0.005 C 
ATOM     13  C   UNL     1      -2.174 -11.971 -39.377  1.00  0.00    -0.026 C 
ATOM     14  C   UNL     1      -4.481 -11.884 -38.579  1.00  0.00     0.005 C 
ATOM     15  C   UNL     1      -3.187 -12.720 -38.471  1.00  0.00    -0.001 C 
ATOM     16  C   UNL     1      -1.570 -10.718 -38.640  1.00  0.00     0.007 C 
ATOM     17  C   UNL     1      -1.056 -12.921 -39.880  1.00  0.00     0.012 C 
ATOM     18  C   UNL     1      -2.757 -12.983 -36.990  1.00  0.00     0.000 C 
ATOM     19  C   UNL     1      -1.558 -10.765 -37.098  1.00  0.00     0.005 C 
ATOM     20  C   UNL     1      -1.506 -12.197 -36.555  1.00  0.00     0.003 C 
ATOM     21  C   UNL     1      -2.477 -14.471 -36.727  1.00  0.00     0.031 C 
ATOM     22  C   UNL     1      -1.264 -12.305 -34.999  1.00  0.00    -0.008 C 
ATOM     23  C   UNL     1      -2.081 -14.698 -35.290  1.00  0.00    -0.027 C 
ATOM     24  C   UNL     1      -1.538 -13.738 -34.502  1.00  0.00    -0.065 C 
ATOM     25  C   UNL     1      -2.211 -11.335 -34.201  1.00  0.00     0.014 C 
ATOM     26  C   UNL     1       0.239 -11.949 -34.719  1.00  0.00     0.016 C 
ATOM     27  C   UNL     1      -1.394 -14.031 -33.016  1.00  0.00     0.063 C 
ATOM     28  C   UNL     1      -2.622 -11.814 -32.786  1.00  0.00     0.033 C 
ATOM     29  C   UNL     1      -1.618 -12.782 -32.135  1.00  0.00     0.118 C 
BRANCH  29  30
ATOM     30  O   UNL     1      -0.400 -12.134 -31.875  1.00  0.00    -0.393 OA
ATOM     31  H   UNL     1      -0.243 -12.193 -30.896  1.00  0.00     0.210 HD
ENDBRANCH  29  30
ENDBRANCH   1  11
TORSDOF 6
ENDMDL
MODEL 5
REMARK VINA RESULT:    -5.715     10.633     13.792
REMARK INTER + INTRA:          -8.542
REMARK INTER:                  -7.223
REMARK INTRA:                  -1.319
REMARK UNBOUND:                -0.989
REMARK SMILES CC[C@H](C=C[C@@H](C)[C@@H]1CC[C@@H]2[C@H]3CC=C4C[C@@H](O)CC[C@]4(C)[C@@H]3CC[C@@]21C)C(C)C
REMARK SMILES IDX 6 1 7 2 5 3 4 4 3 5 2 6 1 7 28 8 29 9 30 10 8 11 9 12 26 13
REMARK SMILES IDX 10 14 11 15 25 16 27 17 12 18 24 19 23 20 13 21 21 22 14 23
REMARK SMILES IDX 15 24 20 25 22 26 16 27 19 28 17 29 18 30
REMARK H PARENT 18 31
REMARK Flexibility Score: inf
ROOT
ATOM      1  C   UNL     1      -0.942 -23.466 -42.915  1.00  0.00     0.012 C 
ATOM      2  C   UNL     1      -1.433 -24.474 -41.862  1.00  0.00     0.012 C 
ENDROOT
BRANCH   1   3
ATOM      3  C   UNL     1      -0.614 -24.209 -44.194  1.00  0.00    -0.028 C 
ATOM      4  C   UNL     1       0.342 -23.778 -45.034  1.00  0.00    -0.027 C 
BRANCH   4   5
ATOM      5  C   UNL     1       0.691 -24.511 -46.318  1.00  0.00     0.014 C 
BRANCH   5   6
ATOM      6  C   UNL     1       2.212 -24.812 -46.378  1.00  0.00     0.004 C 
ATOM      7  C   UNL     1       2.879 -24.783 -45.000  1.00  0.00     0.004 C 
ENDBRANCH   5   6
BRANCH   5   8
ATOM      8  C   UNL     1      -0.183 -25.795 -46.492  1.00  0.00    -0.011 C 
ATOM      9  C   UNL     1      -1.420 -25.514 -47.366  1.00  0.00     0.008 C 
ATOM     10  C   UNL     1       0.611 -26.958 -47.113  1.00  0.00     0.008 C 
ENDBRANCH   5   8
ENDBRANCH   4   5
ENDBRANCH   1   3
BRANCH   1  11
ATOM     11  C   UNL     1       0.265 -22.545 -42.511  1.00  0.00     0.002 C 
ATOM     12  C   UNL     1       1.120 -22.991 -41.319  1.00  0.00     0.005 C 
ATOM     13  C   UNL     1       0.044 -21.017 -42.301  1.00  0.00    -0.026 C 
ATOM     14  C   UNL     1       1.901 -21.743 -40.889  1.00  0.00     0.005 C 
ATOM     15  C   UNL     1       1.459 -20.597 -41.823  1.00  0.00    -0.001 C 
ATOM     16  C   UNL     1      -1.042 -20.706 -41.206  1.00  0.00     0.007 C 
ATOM     17  C   UNL     1      -0.316 -20.353 -43.655  1.00  0.00     0.012 C 
ATOM     18  C   UNL     1       1.595 -19.187 -41.158  1.00  0.00     0.000 C 
ATOM     19  C   UNL     1      -0.712 -19.575 -40.209  1.00  0.00     0.005 C 
ATOM     20  C   UNL     1       0.246 -18.535 -40.799  1.00  0.00     0.003 C 
ATOM     21  C   UNL     1       2.357 -18.197 -42.053  1.00  0.00     0.031 C 
ATOM     22  C   UNL     1       0.443 -17.243 -39.915  1.00  0.00    -0.008 C 
ATOM     23  C   UNL     1       2.487 -16.854 -41.381  1.00  0.00    -0.027 C 
ATOM     24  C   UNL     1       1.639 -16.412 -40.420  1.00  0.00    -0.065 C 
ATOM     25  C   UNL     1       0.719 -17.610 -38.411  1.00  0.00     0.014 C 
ATOM     26  C   UNL     1      -0.861 -16.376 -40.031  1.00  0.00     0.016 C 
ATOM     27  C   UNL     1       2.010 -15.142 -39.669  1.00  0.00     0.063 C 
ATOM     28  C   UNL     1       1.613 -16.613 -37.631  1.00  0.00     0.033 C 
ATOM     29  C   UNL     1       1.583 -15.178 -38.185  1.00  0.00     0.118 C 
BRANCH  29  30
ATOM     30  O   UNL     1       0.310 -14.609 -38.022  1.00  0.00    -0.393 OA
ATOM     31  H   UNL     1      -0.133 -15.098 -37.279  1.00  0.00     0.210 HD
ENDBRANCH  29  30
ENDBRANCH   1  11
TORSDOF 6
ENDMDL
MODEL 6
REMARK VINA RESULT:    -5.703     11.501     13.388
REMARK INTER + INTRA:          -8.526
REMARK INTER:                  -7.346
REMARK INTRA:                  -1.180
REMARK UNBOUND:                -0.989
REMARK SMILES CC[C@H](C=C[C@@H](C)[C@@H]1CC[C@@H]2[C@H]3CC=C4C[C@@H](O)CC[C@]4(C)[C@@H]3CC[C@@]21C)C(C)C
REMARK SMILES IDX 6 1 7 2 5 3 4 4 3 5 2 6 1 7 28 8 29 9 30 10 8 11 9 12 26 13
REMARK SMILES IDX 10 14 11 15 25 16 27 17 12 18 24 19 23 20 13 21 21 22 14 23
REMARK SMILES IDX 15 24 20 25 22 26 16 27 19 28 17 29 18 30
REMARK H PARENT 18 31
REMARK Flexibility Score: inf
ROOT
ATOM      1  C   UNL     1       0.304 -18.921 -41.176  1.00  0.00     0.012 C 
ATOM      2  C   UNL     1       1.407 -17.876 -41.414  1.00  0.00     0.012 C 
ENDROOT
BRANCH   1   3
ATOM      3  C   UNL     1      -0.353 -18.649 -39.838  1.00  0.00    -0.028 C 
ATOM      4  C   UNL     1      -1.592 -18.135 -39.754  1.00  0.00    -0.027 C 
BRANCH   4   5
ATOM      5  C   UNL     1      -2.272 -17.860 -38.424  1.00  0.00     0.014 C 
BRANCH   5   6
ATOM      6  C   UNL     1      -2.706 -16.374 -38.329  1.00  0.00     0.004 C 
ATOM      7  C   UNL     1      -2.019 -15.486 -39.371  1.00  0.00     0.004 C 
ENDBRANCH   5   6
BRANCH   5   8
ATOM      8  C   UNL     1      -3.458 -18.849 -38.179  1.00  0.00    -0.011 C 
ATOM      9  C   UNL     1      -4.032 -19.373 -39.509  1.00  0.00     0.008 C 
ATOM     10  C   UNL     1      -3.044 -20.050 -37.310  1.00  0.00     0.008 C 
ENDBRANCH   5   8
ENDBRANCH   4   5
ENDBRANCH   1   3
BRANCH   1  11
ATOM     11  C   UNL     1       0.724 -20.432 -41.265  1.00  0.00     0.002 C 
ATOM     12  C   UNL     1       2.207 -20.735 -41.505  1.00  0.00     0.005 C 
ATOM     13  C   UNL     1      -0.046 -21.402 -42.211  1.00  0.00    -0.026 C 
ATOM     14  C   UNL     1       2.252 -22.194 -41.977  1.00  0.00     0.005 C 
ATOM     15  C   UNL     1       0.793 -22.693 -42.025  1.00  0.00    -0.001 C 
ATOM     16  C   UNL     1      -0.032 -20.924 -43.711  1.00  0.00     0.007 C 
ATOM     17  C   UNL     1      -1.497 -21.589 -41.695  1.00  0.00     0.012 C 
ATOM     18  C   UNL     1       0.577 -23.837 -43.072  1.00  0.00     0.000 C 
ATOM     19  C   UNL     1       0.224 -22.010 -44.777  1.00  0.00     0.005 C 
ATOM     20  C   UNL     1      -0.221 -23.402 -44.315  1.00  0.00     0.003 C 
ATOM     21  C   UNL     1      -0.148 -25.047 -42.463  1.00  0.00     0.031 C 
ATOM     22  C   UNL     1      -0.194 -24.510 -45.439  1.00  0.00    -0.008 C 
ATOM     23  C   UNL     1      -0.327 -26.138 -43.487  1.00  0.00    -0.027 C 
ATOM     24  C   UNL     1      -0.348 -25.915 -44.824  1.00  0.00    -0.065 C 
ATOM     25  C   UNL     1       1.159 -24.486 -46.240  1.00  0.00     0.014 C 
ATOM     26  C   UNL     1      -1.402 -24.244 -46.406  1.00  0.00     0.016 C 
ATOM     27  C   UNL     1      -0.310 -27.121 -45.751  1.00  0.00     0.063 C 
ATOM     28  C   UNL     1       1.631 -25.852 -46.799  1.00  0.00     0.033 C 
ATOM     29  C   UNL     1       0.491 -26.856 -47.045  1.00  0.00     0.118 C 
BRANCH  29  30
ATOM     30  O   UNL     1      -0.357 -26.405 -48.069  1.00  0.00    -0.393 OA
ATOM     31  H   UNL     1       0.214 -25.933 -48.730  1.00  0.00     0.210 HD
ENDBRANCH  29  30
ENDBRANCH   1  11
TORSDOF 6
ENDMDL
MODEL 7
REMARK VINA RESULT:    -5.646     11.217     13.146
REMARK INTER + INTRA:          -8.451
REMARK INTER:                  -7.385
REMARK INTRA:                  -1.066
REMARK UNBOUND:                -0.989
REMARK SMILES CC[C@H](C=C[C@@H](C)[C@@H]1CC[C@@H]2[C@H]3CC=C4C[C@@H](O)CC[C@]4(C)[C@@H]3CC[C@@]21C)C(C)C
REMARK SMILES IDX 6 1 7 2 5 3 4 4 3 5 2 6 1 7 28 8 29 9 30 10 8 11 9 12 26 13
REMARK SMILES IDX 10 14 11 15 25 16 27 17 12 18 24 19 23 20 13 21 21 22 14 23
REMARK SMILES IDX 15 24 20 25 22 26 16 27 19 28 17 29 18 30
REMARK H PARENT 18 31
REMARK Flexibility Score: inf
ROOT
ATOM      1  C   UNL     1       0.280 -18.909 -41.069  1.00  0.00     0.012 C 
ATOM      2  C   UNL     1       1.276 -17.885 -41.640  1.00  0.00     0.012 C 
ENDROOT
BRANCH   1   3
ATOM      3  C   UNL     1      -0.023 -18.551 -39.628  1.00  0.00    -0.028 C 
ATOM      4  C   UNL     1       0.576 -17.513 -39.019  1.00  0.00    -0.027 C 
BRANCH   4   5
ATOM      5  C   UNL     1       0.283 -17.132 -37.578  1.00  0.00     0.014 C 
BRANCH   5   6
ATOM      6  C   UNL     1       1.496 -17.464 -36.669  1.00  0.00     0.004 C 
ATOM      7  C   UNL     1       1.875 -16.308 -35.739  1.00  0.00     0.004 C 
ENDBRANCH   5   6
BRANCH   5   8
ATOM      8  C   UNL     1      -0.160 -15.637 -37.467  1.00  0.00    -0.011 C 
ATOM      9  C   UNL     1       0.042 -14.894 -38.801  1.00  0.00     0.008 C 
ATOM     10  C   UNL     1      -1.632 -15.498 -37.038  1.00  0.00     0.008 C 
ENDBRANCH   5   8
ENDBRANCH   4   5
ENDBRANCH   1   3
BRANCH   1  11
ATOM     11  C   UNL     1       0.681 -20.424 -41.168  1.00  0.00     0.002 C 
ATOM     12  C   UNL     1       2.163 -20.745 -41.386  1.00  0.00     0.005 C 
ATOM     13  C   UNL     1      -0.086 -21.373 -42.138  1.00  0.00    -0.026 C 
ATOM     14  C   UNL     1       2.197 -22.199 -41.873  1.00  0.00     0.005 C 
ATOM     15  C   UNL     1       0.732 -22.678 -41.953  1.00  0.00    -0.001 C 
ATOM     16  C   UNL     1      -0.039 -20.879 -43.631  1.00  0.00     0.007 C 
ATOM     17  C   UNL     1      -1.547 -21.546 -41.648  1.00  0.00     0.012 C 
ATOM     18  C   UNL     1       0.520 -23.807 -43.015  1.00  0.00     0.000 C 
ATOM     19  C   UNL     1       0.221 -21.956 -44.706  1.00  0.00     0.005 C 
ATOM     20  C   UNL     1      -0.251 -23.347 -44.267  1.00  0.00     0.003 C 
ATOM     21  C   UNL     1      -0.233 -25.013 -42.433  1.00  0.00     0.031 C 
ATOM     22  C   UNL     1      -0.220 -24.442 -45.403  1.00  0.00    -0.008 C 
ATOM     23  C   UNL     1      -0.408 -26.091 -43.473  1.00  0.00    -0.027 C 
ATOM     24  C   UNL     1      -0.403 -25.852 -44.807  1.00  0.00    -0.065 C 
ATOM     25  C   UNL     1       1.147 -24.428 -46.180  1.00  0.00     0.014 C 
ATOM     26  C   UNL     1      -1.407 -24.149 -46.388  1.00  0.00     0.016 C 
ATOM     27  C   UNL     1      -0.365 -27.048 -45.747  1.00  0.00     0.063 C 
ATOM     28  C   UNL     1       1.610 -25.794 -46.747  1.00  0.00     0.033 C 
ATOM     29  C   UNL     1       0.461 -26.780 -47.024  1.00  0.00     0.118 C 
BRANCH  29  30
ATOM     30  O   UNL     1      -0.362 -26.305 -48.057  1.00  0.00    -0.393 OA
ATOM     31  H   UNL     1      -0.628 -25.380 -47.814  1.00  0.00     0.210 HD
ENDBRANCH  29  30
ENDBRANCH   1  11
TORSDOF 6
ENDMDL
MODEL 8
REMARK VINA RESULT:    -5.631     11.488     13.477
REMARK INTER + INTRA:          -8.431
REMARK INTER:                  -6.900
REMARK INTRA:                  -1.531
REMARK UNBOUND:                -0.989
REMARK SMILES CC[C@H](C=C[C@@H](C)[C@@H]1CC[C@@H]2[C@H]3CC=C4C[C@@H](O)CC[C@]4(C)[C@@H]3CC[C@@]21C)C(C)C
REMARK SMILES IDX 6 1 7 2 5 3 4 4 3 5 2 6 1 7 28 8 29 9 30 10 8 11 9 12 26 13
REMARK SMILES IDX 10 14 11 15 25 16 27 17 12 18 24 19 23 20 13 21 21 22 14 23
REMARK SMILES IDX 15 24 20 25 22 26 16 27 19 28 17 29 18 30
REMARK H PARENT 18 31
REMARK Flexibility Score: inf
ROOT
ATOM      1  C   UNL     1       0.090 -18.878 -41.135  1.00  0.00     0.012 C 
ATOM      2  C   UNL     1       1.110 -17.828 -41.609  1.00  0.00     0.012 C 
ENDROOT
BRANCH   1   3
ATOM      3  C   UNL     1      -0.347 -18.539 -39.725  1.00  0.00    -0.028 C 
ATOM      4  C   UNL     1      -0.470 -19.487 -38.779  1.00  0.00    -0.027 C 
BRANCH   4   5
ATOM      5  C   UNL     1      -0.900 -19.169 -37.357  1.00  0.00     0.014 C 
BRANCH   5   6
ATOM      6  C   UNL     1      -2.246 -19.866 -37.025  1.00  0.00     0.004 C 
ATOM      7  C   UNL     1      -2.578 -21.008 -37.989  1.00  0.00     0.004 C 
ENDBRANCH   5   6
BRANCH   5   8
ATOM      8  C   UNL     1       0.228 -19.522 -36.333  1.00  0.00    -0.011 C 
ATOM      9  C   UNL     1       1.297 -20.428 -36.971  1.00  0.00     0.008 C 
ATOM     10  C   UNL     1       0.913 -18.265 -35.768  1.00  0.00     0.008 C 
ENDBRANCH   5   8
ENDBRANCH   4   5
ENDBRANCH   1   3
BRANCH   1  11
ATOM     11  C   UNL     1       0.531 -20.383 -41.209  1.00  0.00     0.002 C 
ATOM     12  C   UNL     1       2.024 -20.668 -41.408  1.00  0.00     0.005 C 
ATOM     13  C   UNL     1      -0.201 -21.365 -42.173  1.00  0.00    -0.026 C 
ATOM     14  C   UNL     1       2.101 -22.127 -41.874  1.00  0.00     0.005 C 
ATOM     15  C   UNL     1       0.649 -22.645 -41.962  1.00  0.00    -0.001 C 
ATOM     16  C   UNL     1      -0.152 -20.891 -43.673  1.00  0.00     0.007 C 
ATOM     17  C   UNL     1      -1.662 -21.570 -41.696  1.00  0.00     0.012 C 
ATOM     18  C   UNL     1       0.477 -23.794 -43.010  1.00  0.00     0.000 C 
ATOM     19  C   UNL     1       0.147 -21.975 -44.730  1.00  0.00     0.005 C 
ATOM     20  C   UNL     1      -0.292 -23.372 -44.276  1.00  0.00     0.003 C 
ATOM     21  C   UNL     1      -0.249 -25.012 -42.418  1.00  0.00     0.031 C 
ATOM     22  C   UNL     1      -0.221 -24.482 -45.396  1.00  0.00    -0.008 C 
ATOM     23  C   UNL     1      -0.386 -26.108 -43.444  1.00  0.00    -0.027 C 
ATOM     24  C   UNL     1      -0.374 -25.888 -44.782  1.00  0.00    -0.065 C 
ATOM     25  C   UNL     1       1.153 -24.442 -46.160  1.00  0.00     0.014 C 
ATOM     26  C   UNL     1      -1.406 -24.234 -46.396  1.00  0.00     0.016 C 
ATOM     27  C   UNL     1      -0.295 -27.095 -45.704  1.00  0.00     0.063 C 
ATOM     28  C   UNL     1       1.657 -25.803 -46.702  1.00  0.00     0.033 C 
ATOM     29  C   UNL     1       0.537 -26.823 -46.976  1.00  0.00     0.118 C 
BRANCH  29  30
ATOM     30  O   UNL     1      -0.288 -26.385 -48.024  1.00  0.00    -0.393 OA
ATOM     31  H   UNL     1      -0.486 -25.426 -47.856  1.00  0.00     0.210 HD
ENDBRANCH  29  30
ENDBRANCH   1  11
TORSDOF 6
ENDMDL
MODEL 9
REMARK VINA RESULT:    -5.629     10.982     13.818
REMARK INTER + INTRA:          -8.428
REMARK INTER:                  -7.311
REMARK INTRA:                  -1.118
REMARK UNBOUND:                -0.989
REMARK SMILES CC[C@H](C=C[C@@H](C)[C@@H]1CC[C@@H]2[C@H]3CC=C4C[C@@H](O)CC[C@]4(C)[C@@H]3CC[C@@]21C)C(C)C
REMARK SMILES IDX 6 1 7 2 5 3 4 4 3 5 2 6 1 7 28 8 29 9 30 10 8 11 9 12 26 13
REMARK SMILES IDX 10 14 11 15 25 16 27 17 12 18 24 19 23 20 13 21 21 22 14 23
REMARK SMILES IDX 15 24 20 25 22 26 16 27 19 28 17 29 18 30
REMARK H PARENT 18 31
REMARK Flexibility Score: inf
ROOT
ATOM      1  C   UNL     1      -0.363 -24.106 -42.872  1.00  0.00     0.012 C 
ATOM      2  C   UNL     1       1.052 -24.607 -43.211  1.00  0.00     0.012 C 
ENDROOT
BRANCH   1   3
ATOM      3  C   UNL     1      -1.377 -24.959 -43.606  1.00  0.00    -0.028 C 
ATOM      4  C   UNL     1      -1.042 -25.667 -44.699  1.00  0.00    -0.027 C 
BRANCH   4   5
ATOM      5  C   UNL     1      -2.041 -26.533 -45.447  1.00  0.00     0.014 C 
BRANCH   5   6
ATOM      6  C   UNL     1      -3.366 -26.654 -44.648  1.00  0.00     0.004 C 
ATOM      7  C   UNL     1      -4.602 -26.350 -45.498  1.00  0.00     0.004 C 
ENDBRANCH   5   6
BRANCH   5   8
ATOM      8  C   UNL     1      -2.263 -26.012 -46.904  1.00  0.00    -0.011 C 
ATOM      9  C   UNL     1      -1.298 -24.859 -47.237  1.00  0.00     0.008 C 
ATOM     10  C   UNL     1      -2.089 -27.125 -47.952  1.00  0.00     0.008 C 
ENDBRANCH   5   8
ENDBRANCH   4   5
ENDBRANCH   1   3
BRANCH   1  11
ATOM     11  C   UNL     1      -0.660 -22.586 -43.129  1.00  0.00     0.002 C 
ATOM     12  C   UNL     1       0.143 -21.891 -44.234  1.00  0.00     0.005 C 
ATOM     13  C   UNL     1      -0.666 -21.579 -41.940  1.00  0.00    -0.026 C 
ATOM     14  C   UNL     1      -0.020 -20.388 -43.972  1.00  0.00     0.005 C 
ATOM     15  C   UNL     1      -0.889 -20.248 -42.705  1.00  0.00    -0.001 C 
ATOM     16  C   UNL     1       0.696 -21.562 -41.153  1.00  0.00     0.007 C 
ATOM     17  C   UNL     1      -1.856 -21.897 -40.997  1.00  0.00     0.012 C 
ATOM     18  C   UNL     1      -0.610 -18.922 -41.921  1.00  0.00     0.000 C 
ATOM     19  C   UNL     1       1.246 -20.175 -40.756  1.00  0.00     0.005 C 
ATOM     20  C   UNL     1       0.136 -19.131 -40.590  1.00  0.00     0.003 C 
ATOM     21  C   UNL     1      -1.904 -18.156 -41.605  1.00  0.00     0.031 C 
ATOM     22  C   UNL     1       0.608 -17.760 -39.968  1.00  0.00    -0.008 C 
ATOM     23  C   UNL     1      -1.604 -16.877 -40.865  1.00  0.00    -0.027 C 
ATOM     24  C   UNL     1      -0.482 -16.682 -40.129  1.00  0.00    -0.065 C 
ATOM     25  C   UNL     1       1.911 -17.227 -40.670  1.00  0.00     0.014 C 
ATOM     26  C   UNL     1       0.872 -17.990 -38.438  1.00  0.00     0.016 C 
ATOM     27  C   UNL     1      -0.196 -15.278 -39.621  1.00  0.00     0.063 C 
ATOM     28  C   UNL     1       2.062 -15.686 -40.721  1.00  0.00     0.033 C 
ATOM     29  C   UNL     1       1.312 -14.945 -39.600  1.00  0.00     0.118 C 
BRANCH  29  30
ATOM     30  O   UNL     1       1.869 -15.246 -38.346  1.00  0.00    -0.393 OA
ATOM     31  H   UNL     1       1.682 -14.472 -37.753  1.00  0.00     0.210 HD
ENDBRANCH  29  30
ENDBRANCH   1  11
TORSDOF 6
ENDMDL
