MODEL 1
REMARK VINA RESULT:    -4.021      0.000      0.000
REMARK INTER + INTRA:          -5.241
REMARK INTER:                  -4.961
REMARK INTRA:                  -0.279
REMARK UNBOUND:                -0.279
REMARK SMILES C=CC[C@@H](C)C(=O)CC
REMARK SMILES IDX 4 1 5 2 6 3 7 4 8 5 9 6 3 7 2 8 1 9
REMARK H PARENT
REMARK Flexibility Score: inf
ROOT
ATOM      1  C   UNL     1     100.133 134.867 125.886  1.00  0.00     0.057 C 
ATOM      2  C   UNL     1      98.885 135.520 125.285  1.00  0.00     0.016 C 
ENDROOT
BRANCH   1   3
ATOM      3  C   UNL     1     100.390 133.530 125.219  1.00  0.00     0.135 C 
ATOM      4  O   UNL     1      99.642 133.143 124.332  1.00  0.00    -0.299 OA
BRANCH   3   5
ATOM      5  C   UNL     1     101.544 132.657 125.640  1.00  0.00     0.072 C 
ATOM      6  C   UNL     1     101.081 131.557 126.590  1.00  0.00     0.012 C 
ENDBRANCH   3   5
ENDBRANCH   1   3
BRANCH   1   7
ATOM      7  C   UNL     1     101.351 135.803 125.749  1.00  0.00     0.038 C 
BRANCH   7   8
ATOM      8  C   UNL     1     101.250 136.695 124.539  1.00  0.00    -0.034 C 
ATOM      9  C   UNL     1     101.830 136.374 123.378  1.00  0.00     0.004 C 
ENDBRANCH   7   8
ENDBRANCH   1   7
TORSDOF 4
ENDMDL
MODEL 2
REMARK VINA RESULT:    -3.856      1.519      3.948
REMARK INTER + INTRA:          -5.037
REMARK INTER:                  -4.814
REMARK INTRA:                  -0.223
REMARK UNBOUND:                -0.279
REMARK SMILES C=CC[C@@H](C)C(=O)CC
REMARK SMILES IDX 4 1 5 2 6 3 7 4 8 5 9 6 3 7 2 8 1 9
REMARK H PARENT
REMARK Flexibility Score: inf
ROOT
ATOM      1  C   UNL     1     100.220 134.898 125.228  1.00  0.00     0.057 C 
ATOM      2  C   UNL     1      98.829 135.540 125.264  1.00  0.00     0.016 C 
ENDROOT
BRANCH   1   3
ATOM      3  C   UNL     1     101.287 135.971 125.319  1.00  0.00     0.135 C 
ATOM      4  O   UNL     1     101.982 136.050 126.324  1.00  0.00    -0.299 OA
BRANCH   3   5
ATOM      5  C   UNL     1     101.501 136.955 124.199  1.00  0.00     0.072 C 
ATOM      6  C   UNL     1     101.835 136.237 122.896  1.00  0.00     0.012 C 
ENDBRANCH   3   5
ENDBRANCH   1   3
BRANCH   1   7
ATOM      7  C   UNL     1     100.367 133.865 126.365  1.00  0.00     0.038 C 
BRANCH   7   8
ATOM      8  C   UNL     1     101.095 132.625 125.915  1.00  0.00    -0.034 C 
ATOM      9  C   UNL     1     101.065 131.494 126.628  1.00  0.00     0.004 C 
ENDBRANCH   7   8
ENDBRANCH   1   7
TORSDOF 4
ENDMDL
MODEL 3
REMARK VINA RESULT:    -3.676     11.599     12.355
REMARK INTER + INTRA:          -4.815
REMARK INTER:                  -4.500
REMARK INTRA:                  -0.315
REMARK UNBOUND:                -0.279
REMARK SMILES C=CC[C@@H](C)C(=O)CC
REMARK SMILES IDX 4 1 5 2 6 3 7 4 8 5 9 6 3 7 2 8 1 9
REMARK H PARENT
REMARK Flexibility Score: inf
ROOT
ATOM      1  C   UNL     1      98.847 140.531 134.397  1.00  0.00     0.057 C 
ATOM      2  C   UNL     1     100.122 141.206 134.912  1.00  0.00     0.016 C 
ENDROOT
BRANCH   1   3
ATOM      3  C   UNL     1      98.069 139.941 135.557  1.00  0.00     0.135 C 
ATOM      4  O   UNL     1      98.382 140.229 136.704  1.00  0.00    -0.299 OA
BRANCH   3   5
ATOM      5  C   UNL     1      96.924 138.991 135.324  1.00  0.00     0.072 C 
ATOM      6  C   UNL     1      95.693 139.412 136.122  1.00  0.00     0.012 C 
ENDBRANCH   3   5
ENDBRANCH   1   3
BRANCH   1   7
ATOM      7  C   UNL     1      97.988 141.537 133.602  1.00  0.00     0.038 C 
BRANCH   7   8
ATOM      8  C   UNL     1      97.371 142.585 134.490  1.00  0.00    -0.034 C 
ATOM      9  C   UNL     1      96.676 143.611 133.989  1.00  0.00     0.004 C 
ENDBRANCH   7   8
ENDBRANCH   1   7
TORSDOF 4
ENDMDL
MODEL 4
REMARK VINA RESULT:    -3.621      1.772      4.168
REMARK INTER + INTRA:          -4.747
REMARK INTER:                  -4.558
REMARK INTRA:                  -0.189
REMARK UNBOUND:                -0.279
REMARK SMILES C=CC[C@@H](C)C(=O)CC
REMARK SMILES IDX 4 1 5 2 6 3 7 4 8 5 9 6 3 7 2 8 1 9
REMARK H PARENT
REMARK Flexibility Score: inf
ROOT
ATOM      1  C   UNL     1     100.709 133.306 125.459  1.00  0.00     0.057 C 
ATOM      2  C   UNL     1     102.213 133.206 125.184  1.00  0.00     0.016 C 
ENDROOT
BRANCH   1   3
ATOM      3  C   UNL     1     100.300 134.761 125.583  1.00  0.00     0.135 C 
ATOM      4  O   UNL     1      99.134 135.080 125.395  1.00  0.00    -0.299 OA
BRANCH   3   5
ATOM      5  C   UNL     1     101.309 135.828 125.918  1.00  0.00     0.072 C 
ATOM      6  C   UNL     1     101.361 136.894 124.828  1.00  0.00     0.012 C 
ENDBRANCH   3   5
ENDBRANCH   1   3
BRANCH   1   7
ATOM      7  C   UNL     1      99.909 132.593 124.349  1.00  0.00     0.038 C 
BRANCH   7   8
ATOM      8  C   UNL     1     100.212 131.119 124.286  1.00  0.00    -0.034 C 
ATOM      9  C   UNL     1      99.601 130.311 123.415  1.00  0.00     0.004 C 
ENDBRANCH   7   8
ENDBRANCH   1   7
TORSDOF 4
ENDMDL
MODEL 5
REMARK VINA RESULT:    -3.607      1.102      4.021
REMARK INTER + INTRA:          -4.729
REMARK INTER:                  -4.476
REMARK INTRA:                  -0.253
REMARK UNBOUND:                -0.279
REMARK SMILES C=CC[C@@H](C)C(=O)CC
REMARK SMILES IDX 4 1 5 2 6 3 7 4 8 5 9 6 3 7 2 8 1 9
REMARK H PARENT
REMARK Flexibility Score: inf
ROOT
ATOM      1  C   UNL     1     100.831 133.526 124.608  1.00  0.00     0.057 C 
ATOM      2  C   UNL     1      99.689 132.638 124.104  1.00  0.00     0.016 C 
ENDROOT
BRANCH   1   3
ATOM      3  C   UNL     1     100.267 134.771 125.263  1.00  0.00     0.135 C 
ATOM      4  O   UNL     1      99.055 134.917 125.341  1.00  0.00    -0.299 OA
BRANCH   3   5
ATOM      5  C   UNL     1     101.173 135.844 125.809  1.00  0.00     0.072 C 
ATOM      6  C   UNL     1     101.406 136.941 124.776  1.00  0.00     0.012 C 
ENDBRANCH   3   5
ENDBRANCH   1   3
BRANCH   1   7
ATOM      7  C   UNL     1     101.736 132.742 125.581  1.00  0.00     0.038 C 
BRANCH   7   8
ATOM      8  C   UNL     1     101.083 131.476 126.070  1.00  0.00    -0.034 C 
ATOM      9  C   UNL     1     100.938 131.216 127.372  1.00  0.00     0.004 C 
ENDBRANCH   7   8
ENDBRANCH   1   7
TORSDOF 4
ENDMDL
MODEL 6
REMARK VINA RESULT:    -3.500      1.735      2.646
REMARK INTER + INTRA:          -4.598
REMARK INTER:                  -4.382
REMARK INTRA:                  -0.216
REMARK UNBOUND:                -0.279
REMARK SMILES C=CC[C@@H](C)C(=O)CC
REMARK SMILES IDX 4 1 5 2 6 3 7 4 8 5 9 6 3 7 2 8 1 9
REMARK H PARENT
REMARK Flexibility Score: inf
ROOT
ATOM      1  C   UNL     1     101.123 132.898 125.673  1.00  0.00     0.057 C 
ATOM      2  C   UNL     1     101.073 131.822 126.762  1.00  0.00     0.016 C 
ENDROOT
BRANCH   1   3
ATOM      3  C   UNL     1     100.452 132.390 124.412  1.00  0.00     0.135 C 
ATOM      4  O   UNL     1     100.537 133.038 123.378  1.00  0.00    -0.299 OA
BRANCH   3   5
ATOM      5  C   UNL     1      99.666 131.106 124.411  1.00  0.00     0.072 C 
ATOM      6  C   UNL     1      99.766 130.404 123.060  1.00  0.00     0.012 C 
ENDBRANCH   3   5
ENDBRANCH   1   3
BRANCH   1   7
ATOM      7  C   UNL     1     100.465 134.201 126.171  1.00  0.00     0.038 C 
BRANCH   7   8
ATOM      8  C   UNL     1     101.371 135.394 126.010  1.00  0.00    -0.034 C 
ATOM      9  C   UNL     1     101.139 136.336 125.091  1.00  0.00     0.004 C 
ENDBRANCH   7   8
ENDBRANCH   1   7
TORSDOF 4
ENDMDL
MODEL 7
REMARK VINA RESULT:    -3.493     11.561     12.729
REMARK INTER + INTRA:          -4.590
REMARK INTER:                  -4.129
REMARK INTRA:                  -0.461
REMARK UNBOUND:                -0.279
REMARK SMILES C=CC[C@@H](C)C(=O)CC
REMARK SMILES IDX 4 1 5 2 6 3 7 4 8 5 9 6 3 7 2 8 1 9
REMARK H PARENT
REMARK Flexibility Score: inf
ROOT
ATOM      1  C   UNL     1      98.122 140.195 135.873  1.00  0.00     0.057 C 
ATOM      2  C   UNL     1      99.132 139.655 136.890  1.00  0.00     0.016 C 
ENDROOT
BRANCH   1   3
ATOM      3  C   UNL     1      98.852 140.822 134.702  1.00  0.00     0.135 C 
ATOM      4  O   UNL     1     100.075 140.800 134.669  1.00  0.00    -0.299 OA
BRANCH   3   5
ATOM      5  C   UNL     1      98.099 141.488 133.580  1.00  0.00     0.072 C 
ATOM      6  C   UNL     1      97.276 142.664 134.096  1.00  0.00     0.012 C 
ENDBRANCH   3   5
ENDBRANCH   1   3
BRANCH   1   7
ATOM      7  C   UNL     1      97.174 139.072 135.405  1.00  0.00     0.038 C 
BRANCH   7   8
ATOM      8  C   UNL     1      95.796 139.205 136.001  1.00  0.00    -0.034 C 
ATOM      9  C   UNL     1      95.291 140.392 136.348  1.00  0.00     0.004 C 
ENDBRANCH   7   8
ENDBRANCH   1   7
TORSDOF 4
ENDMDL
MODEL 8
REMARK VINA RESULT:    -3.455      1.851      2.989
REMARK INTER + INTRA:          -4.542
REMARK INTER:                  -4.085
REMARK INTRA:                  -0.457
REMARK UNBOUND:                -0.279
REMARK SMILES C=CC[C@@H](C)C(=O)CC
REMARK SMILES IDX 4 1 5 2 6 3 7 4 8 5 9 6 3 7 2 8 1 9
REMARK H PARENT
REMARK Flexibility Score: inf
ROOT
ATOM      1  C   UNL     1     101.381 135.527 123.198  1.00  0.00     0.057 C 
ATOM      2  C   UNL     1     102.248 136.275 122.180  1.00  0.00     0.016 C 
ENDROOT
BRANCH   1   3
ATOM      3  C   UNL     1     101.871 134.100 123.344  1.00  0.00     0.135 C 
ATOM      4  O   UNL     1     102.961 133.884 123.856  1.00  0.00    -0.299 OA
BRANCH   3   5
ATOM      5  C   UNL     1     101.045 132.938 122.857  1.00  0.00     0.072 C 
ATOM      6  C   UNL     1     100.217 132.342 123.990  1.00  0.00     0.012 C 
ENDBRANCH   3   5
ENDBRANCH   1   3
BRANCH   1   7
ATOM      7  C   UNL     1     101.386 136.262 124.554  1.00  0.00     0.038 C 
BRANCH   7   8
ATOM      8  C   UNL     1     100.316 135.749 125.483  1.00  0.00    -0.034 C 
ATOM      9  C   UNL     1      99.023 135.762 125.142  1.00  0.00     0.004 C 
ENDBRANCH   7   8
ENDBRANCH   1   7
TORSDOF 4
ENDMDL
MODEL 9
REMARK VINA RESULT:    -3.401      1.463      4.615
REMARK INTER + INTRA:          -4.475
REMARK INTER:                  -4.343
REMARK INTRA:                  -0.132
REMARK UNBOUND:                -0.279
REMARK SMILES C=CC[C@@H](C)C(=O)CC
REMARK SMILES IDX 4 1 5 2 6 3 7 4 8 5 9 6 3 7 2 8 1 9
REMARK H PARENT
REMARK Flexibility Score: inf
ROOT
ATOM      1  C   UNL     1     101.660 132.538 125.936  1.00  0.00     0.057 C 
ATOM      2  C   UNL     1     102.749 132.007 124.997  1.00  0.00     0.016 C 
ENDROOT
BRANCH   1   3
ATOM      3  C   UNL     1     100.800 133.553 125.208  1.00  0.00     0.135 C 
ATOM      4  O   UNL     1     100.418 133.317 124.070  1.00  0.00    -0.299 OA
BRANCH   3   5
ATOM      5  C   UNL     1     100.418 134.857 125.857  1.00  0.00     0.072 C 
ATOM      6  C   UNL     1      99.117 135.398 125.272  1.00  0.00     0.012 C 
ENDBRANCH   3   5
ENDBRANCH   1   3
BRANCH   1   7
ATOM      7  C   UNL     1     100.808 131.375 126.486  1.00  0.00     0.038 C 
BRANCH   7   8
ATOM      8  C   UNL     1     101.234 130.964 127.872  1.00  0.00    -0.034 C 
ATOM      9  C   UNL     1     100.345 130.614 128.806  1.00  0.00     0.004 C 
ENDBRANCH   7   8
ENDBRANCH   1   7
TORSDOF 4
ENDMDL
