MODEL 1
REMARK VINA RESULT:    -6.389      0.000      0.000
REMARK INTER + INTRA:          -8.015
REMARK INTER:                  -7.697
REMARK INTRA:                  -0.319
REMARK UNBOUND:                -0.319
REMARK SMILES O=c1c(O)c(-c2ccc(O)c(O)c2)oc2cc(O)cc(O)c12
REMARK SMILES IDX 5 1 3 2 2 3 1 4 22 5 20 6 19 7 17 8 16 9 15 10 14 11 6 12
REMARK SMILES IDX 7 13 8 14 9 15 13 16 11 17 10 18 12 20 4 22 21 24 18 26
REMARK H PARENT 10 19 12 21 4 23 21 25 18 27
REMARK Flexibility Score: inf
ROOT
ATOM      1  C   UNL     1      -2.540 -40.251 -34.205  1.00  0.00     0.180 A 
ATOM      2  C   UNL     1      -2.396 -40.131 -32.812  1.00  0.00     0.208 A 
ATOM      3  C   UNL     1      -3.338 -40.750 -31.975  1.00  0.00     0.238 A 
ATOM      4  O   UNL     1      -3.174 -40.686 -30.729  1.00  0.00    -0.285 OA
ATOM      5  C   UNL     1      -4.421 -41.466 -32.541  1.00  0.00     0.111 A 
ATOM      6  C   UNL     1      -5.456 -42.098 -31.788  1.00  0.00     0.134 A 
ATOM      7  C   UNL     1      -6.405 -42.890 -32.448  1.00  0.00     0.093 A 
ATOM      8  C   UNL     1      -6.393 -43.018 -33.839  1.00  0.00     0.123 A 
ATOM      9  C   UNL     1      -5.422 -42.356 -34.588  1.00  0.00     0.094 A 
ATOM     10  C   UNL     1      -4.441 -41.590 -33.955  1.00  0.00     0.146 A 
ATOM     11  O   UNL     1      -3.528 -40.984 -34.704  1.00  0.00    -0.452 OA
ENDROOT
BRANCH   1  12
ATOM     12  C   UNL     1      -1.602 -39.606 -35.152  1.00  0.00     0.025 A 
ATOM     13  C   UNL     1      -0.407 -40.234 -35.541  1.00  0.00     0.016 A 
ATOM     14  C   UNL     1       0.473 -39.596 -36.416  1.00  0.00     0.051 A 
ATOM     15  C   UNL     1       0.189 -38.318 -36.909  1.00  0.00     0.157 A 
ATOM     16  C   UNL     1      -1.878 -38.315 -35.629  1.00  0.00     0.062 A 
ATOM     17  C   UNL     1      -1.001 -37.666 -36.507  1.00  0.00     0.158 A 
BRANCH  15  18
ATOM     18  O   UNL     1       1.109 -37.736 -37.785  1.00  0.00    -0.504 OA
ATOM     19  H   UNL     1       1.422 -36.779 -37.721  1.00  0.00     0.293 HD
ENDBRANCH  15  18
BRANCH  17  20
ATOM     20  O   UNL     1      -1.348 -36.389 -36.949  1.00  0.00    -0.504 OA
ATOM     21  H   UNL     1      -1.736 -36.192 -37.861  1.00  0.00     0.293 HD
ENDBRANCH  17  20
ENDBRANCH   1  12
BRANCH   2  22
ATOM     22  O   UNL     1      -1.308 -39.439 -32.274  1.00  0.00    -0.502 OA
ATOM     23  H   UNL     1      -0.386 -39.851 -32.193  1.00  0.00     0.293 HD
ENDBRANCH   2  22
BRANCH   6  24
ATOM     24  O   UNL     1      -5.612 -41.960 -30.406  1.00  0.00    -0.507 OA
ATOM     25  H   UNL     1      -5.318 -41.156 -29.873  1.00  0.00     0.293 HD
ENDBRANCH   6  24
BRANCH   8  26
ATOM     26  O   UNL     1      -7.350 -43.794 -34.489  1.00  0.00    -0.508 OA
ATOM     27  H   UNL     1      -7.265 -44.030 -35.471  1.00  0.00     0.293 HD
ENDBRANCH   8  26
TORSDOF 6
ENDMDL
MODEL 2
REMARK VINA RESULT:    -6.133      1.842      7.131
REMARK INTER + INTRA:          -7.707
REMARK INTER:                  -7.674
REMARK INTRA:                  -0.033
REMARK UNBOUND:                -0.319
REMARK SMILES O=c1c(O)c(-c2ccc(O)c(O)c2)oc2cc(O)cc(O)c12
REMARK SMILES IDX 5 1 3 2 2 3 1 4 22 5 20 6 19 7 17 8 16 9 15 10 14 11 6 12
REMARK SMILES IDX 7 13 8 14 9 15 13 16 11 17 10 18 12 20 4 22 21 24 18 26
REMARK H PARENT 10 19 12 21 4 23 21 25 18 27
REMARK Flexibility Score: inf
ROOT
ATOM      1  C   UNL     1      -2.727 -40.278 -34.271  1.00  0.00     0.180 A 
ATOM      2  C   UNL     1      -2.894 -39.433 -35.382  1.00  0.00     0.208 A 
ATOM      3  C   UNL     1      -1.851 -38.561 -35.737  1.00  0.00     0.238 A 
ATOM      4  O   UNL     1      -1.984 -37.847 -36.764  1.00  0.00    -0.285 OA
ATOM      5  C   UNL     1      -0.664 -38.533 -34.966  1.00  0.00     0.111 A 
ATOM      6  C   UNL     1       0.439 -37.660 -35.210  1.00  0.00     0.134 A 
ATOM      7  C   UNL     1       1.616 -37.810 -34.465  1.00  0.00     0.093 A 
ATOM      8  C   UNL     1       1.704 -38.756 -33.441  1.00  0.00     0.123 A 
ATOM      9  C   UNL     1       0.611 -39.573 -33.156  1.00  0.00     0.094 A 
ATOM     10  C   UNL     1      -0.562 -39.471 -33.907  1.00  0.00     0.146 A 
ATOM     11  O   UNL     1      -1.576 -40.275 -33.609  1.00  0.00    -0.452 OA
ENDROOT
BRANCH   1  12
ATOM     12  C   UNL     1      -3.790 -41.206 -33.821  1.00  0.00     0.025 A 
ATOM     13  C   UNL     1      -4.370 -42.135 -34.700  1.00  0.00     0.016 A 
ATOM     14  C   UNL     1      -5.387 -42.983 -34.259  1.00  0.00     0.051 A 
ATOM     15  C   UNL     1      -5.854 -42.914 -32.942  1.00  0.00     0.157 A 
ATOM     16  C   UNL     1      -4.271 -41.121 -32.506  1.00  0.00     0.062 A 
ATOM     17  C   UNL     1      -5.292 -41.967 -32.054  1.00  0.00     0.158 A 
BRANCH  15  18
ATOM     18  O   UNL     1      -6.871 -43.794 -32.563  1.00  0.00    -0.504 OA
ATOM     19  H   UNL     1      -7.814 -43.506 -32.346  1.00  0.00     0.293 HD
ENDBRANCH  15  18
BRANCH  17  20
ATOM     20  O   UNL     1      -5.711 -41.833 -30.729  1.00  0.00    -0.504 OA
ATOM     21  H   UNL     1      -6.106 -42.585 -30.182  1.00  0.00     0.293 HD
ENDBRANCH  17  20
ENDBRANCH   1  12
BRANCH   2  22
ATOM     22  O   UNL     1      -4.065 -39.493 -36.142  1.00  0.00    -0.502 OA
ATOM     23  H   UNL     1      -4.068 -39.371 -37.148  1.00  0.00     0.293 HD
ENDBRANCH   2  22
BRANCH   6  24
ATOM     24  O   UNL     1       0.422 -36.622 -36.147  1.00  0.00    -0.507 OA
ATOM     25  H   UNL     1       0.346 -35.643 -35.917  1.00  0.00     0.293 HD
ENDBRANCH   6  24
BRANCH   8  26
ATOM     26  O   UNL     1       2.873 -38.888 -32.694  1.00  0.00    -0.508 OA
ATOM     27  H   UNL     1       3.030 -39.687 -32.091  1.00  0.00     0.293 HD
ENDBRANCH   8  26
TORSDOF 6
ENDMDL
MODEL 3
REMARK VINA RESULT:    -6.074      1.492      6.802
REMARK INTER + INTRA:          -7.636
REMARK INTER:                  -7.909
REMARK INTRA:                   0.273
REMARK UNBOUND:                -0.319
REMARK SMILES O=c1c(O)c(-c2ccc(O)c(O)c2)oc2cc(O)cc(O)c12
REMARK SMILES IDX 5 1 3 2 2 3 1 4 22 5 20 6 19 7 17 8 16 9 15 10 14 11 6 12
REMARK SMILES IDX 7 13 8 14 9 15 13 16 11 17 10 18 12 20 4 22 21 24 18 26
REMARK H PARENT 10 19 12 21 4 23 21 25 18 27
REMARK Flexibility Score: inf
ROOT
ATOM      1  C   UNL     1      -3.005 -40.257 -34.016  1.00  0.00     0.180 A 
ATOM      2  C   UNL     1      -2.889 -38.986 -33.428  1.00  0.00     0.208 A 
ATOM      3  C   UNL     1      -1.855 -38.134 -33.848  1.00  0.00     0.238 A 
ATOM      4  O   UNL     1      -1.790 -36.976 -33.357  1.00  0.00    -0.285 OA
ATOM      5  C   UNL     1      -0.940 -38.570 -34.836  1.00  0.00     0.111 A 
ATOM      6  C   UNL     1       0.169 -37.805 -35.307  1.00  0.00     0.134 A 
ATOM      7  C   UNL     1       0.931 -38.282 -36.381  1.00  0.00     0.093 A 
ATOM      8  C   UNL     1       0.663 -39.527 -36.957  1.00  0.00     0.123 A 
ATOM      9  C   UNL     1      -0.381 -40.307 -36.465  1.00  0.00     0.094 A 
ATOM     10  C   UNL     1      -1.181 -39.841 -35.419  1.00  0.00     0.146 A 
ATOM     11  O   UNL     1      -2.171 -40.612 -34.987  1.00  0.00    -0.452 OA
ENDROOT
BRANCH   1  12
ATOM     12  C   UNL     1      -4.053 -41.221 -33.608  1.00  0.00     0.025 A 
ATOM     13  C   UNL     1      -4.648 -42.091 -34.536  1.00  0.00     0.016 A 
ATOM     14  C   UNL     1      -5.651 -42.974 -34.132  1.00  0.00     0.051 A 
ATOM     15  C   UNL     1      -6.090 -42.998 -32.804  1.00  0.00     0.157 A 
ATOM     16  C   UNL     1      -4.506 -41.229 -32.280  1.00  0.00     0.062 A 
ATOM     17  C   UNL     1      -5.513 -42.111 -31.866  1.00  0.00     0.158 A 
BRANCH  15  18
ATOM     18  O   UNL     1      -7.094 -43.909 -32.465  1.00  0.00    -0.504 OA
ATOM     19  H   UNL     1      -7.495 -43.988 -31.542  1.00  0.00     0.293 HD
ENDBRANCH  15  18
BRANCH  17  20
ATOM     20  O   UNL     1      -5.904 -42.070 -30.526  1.00  0.00    -0.504 OA
ATOM     21  H   UNL     1      -6.539 -42.732 -30.102  1.00  0.00     0.293 HD
ENDBRANCH  17  20
ENDBRANCH   1  12
BRANCH   2  22
ATOM     22  O   UNL     1      -3.816 -38.567 -32.469  1.00  0.00    -0.502 OA
ATOM     23  H   UNL     1      -3.801 -37.637 -32.067  1.00  0.00     0.293 HD
ENDBRANCH   2  22
BRANCH   6  24
ATOM     24  O   UNL     1       0.579 -36.593 -34.742  1.00  0.00    -0.507 OA
ATOM     25  H   UNL     1       0.031 -36.048 -34.094  1.00  0.00     0.293 HD
ENDBRANCH   6  24
BRANCH   8  26
ATOM     26  O   UNL     1       1.436 -40.001 -38.014  1.00  0.00    -0.508 OA
ATOM     27  H   UNL     1       1.379 -40.965 -38.323  1.00  0.00     0.293 HD
ENDBRANCH   8  26
TORSDOF 6
ENDMDL
MODEL 4
REMARK VINA RESULT:    -5.875      1.632      3.381
REMARK INTER + INTRA:          -7.396
REMARK INTER:                  -7.075
REMARK INTRA:                  -0.321
REMARK UNBOUND:                -0.319
REMARK SMILES O=c1c(O)c(-c2ccc(O)c(O)c2)oc2cc(O)cc(O)c12
REMARK SMILES IDX 5 1 3 2 2 3 1 4 22 5 20 6 19 7 17 8 16 9 15 10 14 11 6 12
REMARK SMILES IDX 7 13 8 14 9 15 13 16 11 17 10 18 12 20 4 22 21 24 18 26
REMARK H PARENT 10 19 12 21 4 23 21 25 18 27
REMARK Flexibility Score: inf
ROOT
ATOM      1  C   UNL     1      -2.295 -39.687 -34.197  1.00  0.00     0.180 A 
ATOM      2  C   UNL     1      -3.598 -40.067 -34.562  1.00  0.00     0.208 A 
ATOM      3  C   UNL     1      -4.409 -40.713 -33.615  1.00  0.00     0.238 A 
ATOM      4  O   UNL     1      -5.593 -41.002 -33.930  1.00  0.00    -0.285 OA
ATOM      5  C   UNL     1      -3.902 -40.985 -32.321  1.00  0.00     0.111 A 
ATOM      6  C   UNL     1      -4.622 -41.669 -31.296  1.00  0.00     0.134 A 
ATOM      7  C   UNL     1      -4.070 -41.767 -30.013  1.00  0.00     0.093 A 
ATOM      8  C   UNL     1      -2.797 -41.263 -29.736  1.00  0.00     0.123 A 
ATOM      9  C   UNL     1      -2.062 -40.645 -30.745  1.00  0.00     0.094 A 
ATOM     10  C   UNL     1      -2.601 -40.500 -32.026  1.00  0.00     0.146 A 
ATOM     11  O   UNL     1      -1.871 -39.897 -32.956  1.00  0.00    -0.452 OA
ENDROOT
BRANCH   1  12
ATOM     12  C   UNL     1      -1.373 -39.026 -35.148  1.00  0.00     0.025 A 
ATOM     13  C   UNL     1      -1.367 -37.631 -35.312  1.00  0.00     0.016 A 
ATOM     14  C   UNL     1      -0.505 -37.033 -36.232  1.00  0.00     0.051 A 
ATOM     15  C   UNL     1       0.357 -37.809 -37.014  1.00  0.00     0.157 A 
ATOM     16  C   UNL     1      -0.524 -39.808 -35.946  1.00  0.00     0.062 A 
ATOM     17  C   UNL     1       0.344 -39.217 -36.872  1.00  0.00     0.158 A 
BRANCH  15  18
ATOM     18  O   UNL     1       1.198 -37.148 -37.912  1.00  0.00    -0.504 OA
ATOM     19  H   UNL     1       2.110 -36.789 -37.672  1.00  0.00     0.293 HD
ENDBRANCH  15  18
BRANCH  17  20
ATOM     20  O   UNL     1       1.168 -40.058 -37.623  1.00  0.00    -0.504 OA
ATOM     21  H   UNL     1       2.169 -39.944 -37.704  1.00  0.00     0.293 HD
ENDBRANCH  17  20
ENDBRANCH   1  12
BRANCH   2  22
ATOM     22  O   UNL     1      -4.087 -39.770 -35.837  1.00  0.00    -0.502 OA
ATOM     23  H   UNL     1      -4.799 -40.329 -36.291  1.00  0.00     0.293 HD
ENDBRANCH   2  22
BRANCH   6  24
ATOM     24  O   UNL     1      -5.860 -42.289 -31.492  1.00  0.00    -0.507 OA
ATOM     25  H   UNL     1      -6.691 -41.821 -31.820  1.00  0.00     0.293 HD
ENDBRANCH   6  24
BRANCH   8  26
ATOM     26  O   UNL     1      -2.249 -41.378 -28.460  1.00  0.00    -0.508 OA
ATOM     27  H   UNL     1      -2.648 -41.999 -27.765  1.00  0.00     0.293 HD
ENDBRANCH   8  26
TORSDOF 6
ENDMDL
MODEL 5
REMARK VINA RESULT:    -5.872      4.653      5.910
REMARK INTER + INTRA:          -7.393
REMARK INTER:                  -7.069
REMARK INTRA:                  -0.323
REMARK UNBOUND:                -0.319
REMARK SMILES O=c1c(O)c(-c2ccc(O)c(O)c2)oc2cc(O)cc(O)c12
REMARK SMILES IDX 5 1 3 2 2 3 1 4 22 5 20 6 19 7 17 8 16 9 15 10 14 11 6 12
REMARK SMILES IDX 7 13 8 14 9 15 13 16 11 17 10 18 12 20 4 22 21 24 18 26
REMARK H PARENT 10 19 12 21 4 23 21 25 18 27
REMARK Flexibility Score: inf
ROOT
ATOM      1  C   UNL     1      -5.604 -38.748 -31.819  1.00  0.00     0.180 A 
ATOM      2  C   UNL     1      -5.496 -38.976 -30.436  1.00  0.00     0.208 A 
ATOM      3  C   UNL     1      -6.296 -38.227 -29.558  1.00  0.00     0.238 A 
ATOM      4  O   UNL     1      -6.235 -38.474 -28.325  1.00  0.00    -0.285 OA
ATOM      5  C   UNL     1      -7.182 -37.249 -30.072  1.00  0.00     0.111 A 
ATOM      6  C   UNL     1      -8.009 -36.405 -29.272  1.00  0.00     0.134 A 
ATOM      7  C   UNL     1      -8.942 -35.565 -29.892  1.00  0.00     0.093 A 
ATOM      8  C   UNL     1      -9.031 -35.491 -31.284  1.00  0.00     0.123 A 
ATOM      9  C   UNL     1      -8.186 -36.267 -32.075  1.00  0.00     0.094 A 
ATOM     10  C   UNL     1      -7.271 -37.142 -31.484  1.00  0.00     0.146 A 
ATOM     11  O   UNL     1      -6.491 -37.871 -32.274  1.00  0.00    -0.452 OA
ENDROOT
BRANCH   1  12
ATOM     12  C   UNL     1      -4.776 -39.480 -32.804  1.00  0.00     0.025 A 
ATOM     13  C   UNL     1      -3.565 -38.951 -33.279  1.00  0.00     0.016 A 
ATOM     14  C   UNL     1      -2.813 -39.648 -34.226  1.00  0.00     0.051 A 
ATOM     15  C   UNL     1      -3.258 -40.876 -34.728  1.00  0.00     0.157 A 
ATOM     16  C   UNL     1      -5.235 -40.701 -33.322  1.00  0.00     0.062 A 
ATOM     17  C   UNL     1      -4.488 -41.408 -34.273  1.00  0.00     0.158 A 
BRANCH  15  18
ATOM     18  O   UNL     1      -2.457 -41.525 -35.670  1.00  0.00    -0.504 OA
ATOM     19  H   UNL     1      -1.525 -41.227 -35.920  1.00  0.00     0.293 HD
ENDBRANCH  15  18
BRANCH  17  20
ATOM     20  O   UNL     1      -5.001 -42.622 -34.734  1.00  0.00    -0.504 OA
ATOM     21  H   UNL     1      -4.868 -42.973 -35.672  1.00  0.00     0.293 HD
ENDBRANCH  17  20
ENDBRANCH   1  12
BRANCH   2  22
ATOM     22  O   UNL     1      -4.632 -39.962 -29.951  1.00  0.00    -0.502 OA
ATOM     23  H   UNL     1      -4.174 -39.889 -29.050  1.00  0.00     0.293 HD
ENDBRANCH   2  22
BRANCH   6  24
ATOM     24  O   UNL     1      -7.937 -36.335 -27.877  1.00  0.00    -0.507 OA
ATOM     25  H   UNL     1      -7.081 -36.364 -27.345  1.00  0.00     0.293 HD
ENDBRANCH   6  24
BRANCH   8  26
ATOM     26  O   UNL     1      -9.951 -34.640 -31.893  1.00  0.00    -0.508 OA
ATOM     27  H   UNL     1      -9.655 -33.815 -32.403  1.00  0.00     0.293 HD
ENDBRANCH   8  26
TORSDOF 6
ENDMDL
MODEL 6
REMARK VINA RESULT:    -5.809      5.003      6.138
REMARK INTER + INTRA:          -7.316
REMARK INTER:                  -7.053
REMARK INTRA:                  -0.264
REMARK UNBOUND:                -0.319
REMARK SMILES O=c1c(O)c(-c2ccc(O)c(O)c2)oc2cc(O)cc(O)c12
REMARK SMILES IDX 5 1 3 2 2 3 1 4 22 5 20 6 19 7 17 8 16 9 15 10 14 11 6 12
REMARK SMILES IDX 7 13 8 14 9 15 13 16 11 17 10 18 12 20 4 22 21 24 18 26
REMARK H PARENT 10 19 12 21 4 23 21 25 18 27
REMARK Flexibility Score: inf
ROOT
ATOM      1  C   UNL     1      -6.045 -37.538 -31.576  1.00  0.00     0.180 A 
ATOM      2  C   UNL     1      -5.762 -37.893 -30.245  1.00  0.00     0.208 A 
ATOM      3  C   UNL     1      -5.312 -39.194 -29.969  1.00  0.00     0.238 A 
ATOM      4  O   UNL     1      -5.007 -39.490 -28.784  1.00  0.00    -0.285 OA
ATOM      5  C   UNL     1      -5.166 -40.128 -31.023  1.00  0.00     0.111 A 
ATOM      6  C   UNL     1      -4.756 -41.485 -30.853  1.00  0.00     0.134 A 
ATOM      7  C   UNL     1      -4.521 -42.281 -31.981  1.00  0.00     0.093 A 
ATOM      8  C   UNL     1      -4.744 -41.790 -33.269  1.00  0.00     0.123 A 
ATOM      9  C   UNL     1      -5.201 -40.485 -33.443  1.00  0.00     0.094 A 
ATOM     10  C   UNL     1      -5.409 -39.655 -32.339  1.00  0.00     0.146 A 
ATOM     11  O   UNL     1      -5.836 -38.416 -32.550  1.00  0.00    -0.452 OA
ENDROOT
BRANCH   1  12
ATOM     12  C   UNL     1      -6.548 -36.194 -31.942  1.00  0.00     0.025 A 
ATOM     13  C   UNL     1      -5.698 -35.076 -31.962  1.00  0.00     0.016 A 
ATOM     14  C   UNL     1      -6.200 -33.815 -32.287  1.00  0.00     0.051 A 
ATOM     15  C   UNL     1      -7.556 -33.640 -32.585  1.00  0.00     0.157 A 
ATOM     16  C   UNL     1      -7.912 -36.018 -32.220  1.00  0.00     0.062 A 
ATOM     17  C   UNL     1      -8.425 -34.756 -32.547  1.00  0.00     0.158 A 
BRANCH  15  18
ATOM     18  O   UNL     1      -7.994 -32.353 -32.907  1.00  0.00    -0.504 OA
ATOM     19  H   UNL     1      -8.586 -32.139 -33.696  1.00  0.00     0.293 HD
ENDBRANCH  15  18
BRANCH  17  20
ATOM     20  O   UNL     1      -9.790 -34.659 -32.823  1.00  0.00    -0.504 OA
ATOM     21  H   UNL     1     -10.180 -34.672 -33.755  1.00  0.00     0.293 HD
ENDBRANCH  17  20
ENDBRANCH   1  12
BRANCH   2  22
ATOM     22  O   UNL     1      -5.891 -36.950 -29.222  1.00  0.00    -0.502 OA
ATOM     23  H   UNL     1      -5.294 -36.134 -29.155  1.00  0.00     0.293 HD
ENDBRANCH   2  22
BRANCH   6  24
ATOM     24  O   UNL     1      -4.594 -42.101 -29.609  1.00  0.00    -0.507 OA
ATOM     25  H   UNL     1      -4.371 -41.617 -28.753  1.00  0.00     0.293 HD
ENDBRANCH   6  24
BRANCH   8  26
ATOM     26  O   UNL     1      -4.522 -42.594 -34.385  1.00  0.00    -0.508 OA
ATOM     27  H   UNL     1      -4.631 -42.237 -35.327  1.00  0.00     0.293 HD
ENDBRANCH   8  26
TORSDOF 6
ENDMDL
MODEL 7
REMARK VINA RESULT:    -5.683      5.045      7.130
REMARK INTER + INTRA:          -7.165
REMARK INTER:                  -6.912
REMARK INTRA:                  -0.252
REMARK UNBOUND:                -0.319
REMARK SMILES O=c1c(O)c(-c2ccc(O)c(O)c2)oc2cc(O)cc(O)c12
REMARK SMILES IDX 5 1 3 2 2 3 1 4 22 5 20 6 19 7 17 8 16 9 15 10 14 11 6 12
REMARK SMILES IDX 7 13 8 14 9 15 13 16 11 17 10 18 12 20 4 22 21 24 18 26
REMARK H PARENT 10 19 12 21 4 23 21 25 18 27
REMARK Flexibility Score: inf
ROOT
ATOM      1  C   UNL     1      -5.405 -38.155 -31.930  1.00  0.00     0.180 A 
ATOM      2  C   UNL     1      -4.358 -37.247 -31.696  1.00  0.00     0.208 A 
ATOM      3  C   UNL     1      -4.651 -35.875 -31.623  1.00  0.00     0.238 A 
ATOM      4  O   UNL     1      -3.719 -35.072 -31.359  1.00  0.00    -0.285 OA
ATOM      5  C   UNL     1      -5.983 -35.429 -31.801  1.00  0.00     0.111 A 
ATOM      6  C   UNL     1      -6.387 -34.060 -31.787  1.00  0.00     0.134 A 
ATOM      7  C   UNL     1      -7.750 -33.742 -31.843  1.00  0.00     0.093 A 
ATOM      8  C   UNL     1      -8.717 -34.740 -31.978  1.00  0.00     0.123 A 
ATOM      9  C   UNL     1      -8.329 -36.076 -32.052  1.00  0.00     0.094 A 
ATOM     10  C   UNL     1      -6.979 -36.426 -31.962  1.00  0.00     0.146 A 
ATOM     11  O   UNL     1      -6.653 -37.711 -32.027  1.00  0.00    -0.452 OA
ENDROOT
BRANCH   1  12
ATOM     12  C   UNL     1      -5.171 -39.613 -32.045  1.00  0.00     0.025 A 
ATOM     13  C   UNL     1      -5.245 -40.270 -33.284  1.00  0.00     0.016 A 
ATOM     14  C   UNL     1      -5.044 -41.649 -33.364  1.00  0.00     0.051 A 
ATOM     15  C   UNL     1      -4.779 -42.400 -32.214  1.00  0.00     0.157 A 
ATOM     16  C   UNL     1      -4.926 -40.368 -30.888  1.00  0.00     0.062 A 
ATOM     17  C   UNL     1      -4.723 -41.752 -30.958  1.00  0.00     0.158 A 
BRANCH  15  18
ATOM     18  O   UNL     1      -4.583 -43.776 -32.363  1.00  0.00    -0.504 OA
ATOM     19  H   UNL     1      -3.980 -44.327 -31.771  1.00  0.00     0.293 HD
ENDBRANCH  15  18
BRANCH  17  20
ATOM     20  O   UNL     1      -4.473 -42.435 -29.767  1.00  0.00    -0.504 OA
ATOM     21  H   UNL     1      -4.453 -41.997 -28.856  1.00  0.00     0.293 HD
ENDBRANCH  17  20
ENDBRANCH   1  12
BRANCH   2  22
ATOM     22  O   UNL     1      -3.054 -37.710 -31.501  1.00  0.00    -0.502 OA
ATOM     23  H   UNL     1      -2.259 -37.086 -31.430  1.00  0.00     0.293 HD
ENDBRANCH   2  22
BRANCH   6  24
ATOM     24  O   UNL     1      -5.496 -32.983 -31.748  1.00  0.00    -0.507 OA
ATOM     25  H   UNL     1      -5.024 -32.659 -30.918  1.00  0.00     0.293 HD
ENDBRANCH   6  24
BRANCH   8  26
ATOM     26  O   UNL     1     -10.070 -34.414 -32.049  1.00  0.00    -0.508 OA
ATOM     27  H   UNL     1     -10.451 -33.896 -32.832  1.00  0.00     0.293 HD
ENDBRANCH   8  26
TORSDOF 6
ENDMDL
MODEL 8
REMARK VINA RESULT:    -5.498      1.743      7.198
REMARK INTER + INTRA:          -6.942
REMARK INTER:                  -6.956
REMARK INTRA:                   0.014
REMARK UNBOUND:                -0.319
REMARK SMILES O=c1c(O)c(-c2ccc(O)c(O)c2)oc2cc(O)cc(O)c12
REMARK SMILES IDX 5 1 3 2 2 3 1 4 22 5 20 6 19 7 17 8 16 9 15 10 14 11 6 12
REMARK SMILES IDX 7 13 8 14 9 15 13 16 11 17 10 18 12 20 4 22 21 24 18 26
REMARK H PARENT 10 19 12 21 4 23 21 25 18 27
REMARK Flexibility Score: inf
ROOT
ATOM      1  C   UNL     1      -2.459 -40.158 -34.479  1.00  0.00     0.180 A 
ATOM      2  C   UNL     1      -2.691 -39.316 -35.580  1.00  0.00     0.208 A 
ATOM      3  C   UNL     1      -1.600 -38.665 -36.181  1.00  0.00     0.238 A 
ATOM      4  O   UNL     1      -1.806 -37.955 -37.200  1.00  0.00    -0.285 OA
ATOM      5  C   UNL     1      -0.296 -38.851 -35.662  1.00  0.00     0.111 A 
ATOM      6  C   UNL     1       0.876 -38.210 -36.167  1.00  0.00     0.134 A 
ATOM      7  C   UNL     1       2.131 -38.570 -35.661  1.00  0.00     0.093 A 
ATOM      8  C   UNL     1       2.251 -39.498 -34.624  1.00  0.00     0.123 A 
ATOM      9  C   UNL     1       1.108 -40.086 -34.085  1.00  0.00     0.094 A 
ATOM     10  C   UNL     1      -0.155 -39.774 -34.594  1.00  0.00     0.146 A 
ATOM     11  O   UNL     1      -1.217 -40.364 -34.058  1.00  0.00    -0.452 OA
ENDROOT
BRANCH   1  12
ATOM     12  C   UNL     1      -3.560 -40.858 -33.779  1.00  0.00     0.025 A 
ATOM     13  C   UNL     1      -3.694 -40.797 -32.382  1.00  0.00     0.016 A 
ATOM     14  C   UNL     1      -4.726 -41.484 -31.742  1.00  0.00     0.051 A 
ATOM     15  C   UNL     1      -5.634 -42.255 -32.476  1.00  0.00     0.157 A 
ATOM     16  C   UNL     1      -4.458 -41.646 -34.515  1.00  0.00     0.062 A 
ATOM     17  C   UNL     1      -5.496 -42.340 -33.881  1.00  0.00     0.158 A 
BRANCH  15  18
ATOM     18  O   UNL     1      -6.647 -42.914 -31.775  1.00  0.00    -0.504 OA
ATOM     19  H   UNL     1      -7.298 -42.454 -31.156  1.00  0.00     0.293 HD
ENDBRANCH  15  18
BRANCH  17  20
ATOM     20  O   UNL     1      -6.358 -43.095 -34.679  1.00  0.00    -0.504 OA
ATOM     21  H   UNL     1      -6.056 -43.657 -35.463  1.00  0.00     0.293 HD
ENDBRANCH  17  20
ENDBRANCH   1  12
BRANCH   2  22
ATOM     22  O   UNL     1      -3.983 -39.162 -36.090  1.00  0.00    -0.502 OA
ATOM     23  H   UNL     1      -4.161 -38.838 -37.033  1.00  0.00     0.293 HD
ENDBRANCH   2  22
BRANCH   6  24
ATOM     24  O   UNL     1       0.859 -37.203 -37.137  1.00  0.00    -0.507 OA
ATOM     25  H   UNL     1       0.834 -37.365 -38.132  1.00  0.00     0.293 HD
ENDBRANCH   6  24
BRANCH   8  26
ATOM     26  O   UNL     1       3.503 -39.838 -34.116  1.00  0.00    -0.508 OA
ATOM     27  H   UNL     1       3.888 -40.768 -34.233  1.00  0.00     0.293 HD
ENDBRANCH   8  26
TORSDOF 6
ENDMDL
MODEL 9
REMARK VINA RESULT:    -5.490      2.008      7.090
REMARK INTER + INTRA:          -6.932
REMARK INTER:                  -7.238
REMARK INTRA:                   0.306
REMARK UNBOUND:                -0.319
REMARK SMILES O=c1c(O)c(-c2ccc(O)c(O)c2)oc2cc(O)cc(O)c12
REMARK SMILES IDX 5 1 3 2 2 3 1 4 22 5 20 6 19 7 17 8 16 9 15 10 14 11 6 12
REMARK SMILES IDX 7 13 8 14 9 15 13 16 11 17 10 18 12 20 4 22 21 24 18 26
REMARK H PARENT 10 19 12 21 4 23 21 25 18 27
REMARK Flexibility Score: inf
ROOT
ATOM      1  C   UNL     1      -2.948 -40.054 -34.118  1.00  0.00     0.180 A 
ATOM      2  C   UNL     1      -2.124 -40.229 -35.243  1.00  0.00     0.208 A 
ATOM      3  C   UNL     1      -1.213 -39.216 -35.583  1.00  0.00     0.238 A 
ATOM      4  O   UNL     1      -0.440 -39.401 -36.559  1.00  0.00    -0.285 OA
ATOM      5  C   UNL     1      -1.149 -38.035 -34.805  1.00  0.00     0.111 A 
ATOM      6  C   UNL     1      -0.292 -36.927 -35.081  1.00  0.00     0.134 A 
ATOM      7  C   UNL     1      -0.218 -35.867 -34.170  1.00  0.00     0.093 A 
ATOM      8  C   UNL     1      -1.019 -35.844 -33.025  1.00  0.00     0.123 A 
ATOM      9  C   UNL     1      -1.902 -36.893 -32.776  1.00  0.00     0.094 A 
ATOM     10  C   UNL     1      -1.971 -37.981 -33.649  1.00  0.00     0.146 A 
ATOM     11  O   UNL     1      -2.819 -38.964 -33.370  1.00  0.00    -0.452 OA
ENDROOT
BRANCH   1  12
ATOM     12  C   UNL     1      -3.951 -41.065 -33.711  1.00  0.00     0.025 A 
ATOM     13  C   UNL     1      -4.499 -41.966 -34.639  1.00  0.00     0.016 A 
ATOM     14  C   UNL     1      -5.460 -42.895 -34.236  1.00  0.00     0.051 A 
ATOM     15  C   UNL     1      -5.902 -42.937 -32.910  1.00  0.00     0.157 A 
ATOM     16  C   UNL     1      -4.408 -41.092 -32.385  1.00  0.00     0.062 A 
ATOM     17  C   UNL     1      -5.372 -42.020 -31.972  1.00  0.00     0.158 A 
BRANCH  15  18
ATOM     18  O   UNL     1      -6.862 -43.894 -32.571  1.00  0.00    -0.504 OA
ATOM     19  H   UNL     1      -7.696 -44.072 -33.111  1.00  0.00     0.293 HD
ENDBRANCH  15  18
BRANCH  17  20
ATOM     20  O   UNL     1      -5.770 -41.995 -30.634  1.00  0.00    -0.504 OA
ATOM     21  H   UNL     1      -5.867 -42.820 -30.057  1.00  0.00     0.293 HD
ENDBRANCH  17  20
ENDBRANCH   1  12
BRANCH   2  22
ATOM     22  O   UNL     1      -2.188 -41.411 -35.985  1.00  0.00    -0.502 OA
ATOM     23  H   UNL     1      -1.362 -41.943 -36.233  1.00  0.00     0.293 HD
ENDBRANCH   2  22
BRANCH   6  24
ATOM     24  O   UNL     1       0.480 -36.808 -36.241  1.00  0.00    -0.507 OA
ATOM     25  H   UNL     1       1.003 -37.560 -36.662  1.00  0.00     0.293 HD
ENDBRANCH   6  24
BRANCH   8  26
ATOM     26  O   UNL     1      -0.951 -34.777 -32.131  1.00  0.00    -0.508 OA
ATOM     27  H   UNL     1      -0.199 -34.099 -32.172  1.00  0.00     0.293 HD
ENDBRANCH   8  26
TORSDOF 6
ENDMDL
