MODEL 1
REMARK VINA RESULT:    42.227      0.000      0.000
REMARK INTER + INTRA:          61.907
REMARK INTER:                  61.975
REMARK INTRA:                  -0.069
REMARK UNBOUND:                -0.069
REMARK SMILES Cc1cc2c(C(C)C)c(O)c(O)c(C=O)c2c(O)c1-c1c(C)cc2c(C(C)C)c(O)c(O)c(C=O)c2c1O
REMARK SMILES IDX 1 1 2 2 3 3 4 4 16 5 13 6 11 7 9 8 5 9 17 10 19 11 20 12
REMARK SMILES IDX 37 13 21 14 36 15 23 16 22 17 24 18 33 19 25 20 31 21 29 22
REMARK SMILES IDX 38 23 34 25 35 26 26 27 27 28 28 29 32 30 30 32 18 34 6 36
REMARK SMILES IDX 7 37 8 38 14 39 15 40 10 41 12 43
REMARK H PARENT 38 24 32 31 30 33 18 35 10 42 12 44
REMARK Flexibility Score: inf
ROOT
ATOM      1  C   UNL     1       4.011 -33.903  20.996  1.00  0.00     0.045 C 
ATOM      2  C   UNL     1       4.386 -35.183  21.703  1.00  0.00    -0.039 A 
ATOM      3  C   UNL     1       4.772 -35.135  23.041  1.00  0.00     0.013 A 
ATOM      4  C   UNL     1       5.171 -36.286  23.750  1.00  0.00    -0.006 A 
ATOM      5  C   UNL     1       5.112 -37.551  23.087  1.00  0.00     0.039 A 
ATOM      6  C   UNL     1       5.507 -38.721  23.798  1.00  0.00     0.072 A 
ATOM      7  C   UNL     1       5.750 -38.647  25.179  1.00  0.00     0.169 A 
ATOM      8  C   UNL     1       5.739 -37.416  25.842  1.00  0.00     0.162 A 
ATOM      9  C   UNL     1       5.601 -36.208  25.113  1.00  0.00     0.008 A 
ATOM     10  C   UNL     1       4.617 -37.610  21.749  1.00  0.00     0.132 A 
ATOM     11  C   UNL     1       4.290 -36.426  21.055  1.00  0.00     0.031 A 
ENDROOT
BRANCH  11  12
ATOM     12  C   UNL     1       3.811 -36.492  19.649  1.00  0.00     0.031 A 
ATOM     13  C   UNL     1       2.481 -36.877  19.370  1.00  0.00     0.132 A 
ATOM     14  C   UNL     1       4.694 -36.197  18.598  1.00  0.00    -0.039 A 
ATOM     15  C   UNL     1       2.011 -36.937  18.022  1.00  0.00     0.039 A 
ATOM     16  C   UNL     1       4.240 -36.258  17.280  1.00  0.00     0.013 A 
ATOM     17  C   UNL     1       6.125 -35.800  18.872  1.00  0.00     0.045 C 
ATOM     18  C   UNL     1       2.901 -36.575  16.964  1.00  0.00    -0.006 A 
ATOM     19  C   UNL     1       0.695 -37.384  17.691  1.00  0.00     0.072 A 
ATOM     20  C   UNL     1       2.447 -36.575  15.609  1.00  0.00     0.008 A 
ATOM     21  C   UNL     1       0.320 -37.528  16.340  1.00  0.00     0.169 A 
ATOM     22  C   UNL     1       1.199 -37.166  15.316  1.00  0.00     0.162 A 
BRANCH  13  23
ATOM     23  O   UNL     1       1.636 -37.214  20.433  1.00  0.00    -0.507 OA
ATOM     24  H   UNL     1       1.669 -38.096  20.927  1.00  0.00     0.293 HD
ENDBRANCH  13  23
BRANCH  19  25
ATOM     25  C   UNL     1      -0.300 -37.723  18.729  1.00  0.00     0.264 C 
ATOM     26  O   UNL     1      -1.270 -36.954  18.961  1.00  0.00    -0.298 OA
ENDBRANCH  19  25
BRANCH  20  27
ATOM     27  C   UNL     1       3.287 -35.968  14.470  1.00  0.00     0.017 C 
ATOM     28  C   UNL     1       3.946 -34.659  14.915  1.00  0.00     0.012 C 
ATOM     29  C   UNL     1       4.324 -36.940  13.875  1.00  0.00     0.012 C 
ENDBRANCH  20  27
BRANCH  21  30
ATOM     30  O   UNL     1      -0.948 -38.003  15.977  1.00  0.00    -0.504 OA
ATOM     31  H   UNL     1      -1.190 -38.324  15.049  1.00  0.00     0.293 HD
ENDBRANCH  21  30
BRANCH  22  32
ATOM     32  O   UNL     1       0.830 -37.393  13.988  1.00  0.00    -0.504 OA
ATOM     33  H   UNL     1       1.499 -37.597  13.254  1.00  0.00     0.293 HD
ENDBRANCH  22  32
ENDBRANCH  11  12
BRANCH  10  34
ATOM     34  O   UNL     1       4.409 -38.846  21.127  1.00  0.00    -0.507 OA
ATOM     35  H   UNL     1       4.307 -38.966  20.126  1.00  0.00     0.293 HD
ENDBRANCH  10  34
BRANCH   9  36
ATOM     36  C   UNL     1       5.989 -34.891  25.813  1.00  0.00     0.017 C 
ATOM     37  C   UNL     1       5.119 -34.606  27.046  1.00  0.00     0.012 C 
ATOM     38  C   UNL     1       6.110 -33.675  24.871  1.00  0.00     0.012 C 
ENDBRANCH   9  36
BRANCH   6  39
ATOM     39  C   UNL     1       5.746 -40.020  23.119  1.00  0.00     0.264 C 
ATOM     40  O   UNL     1       5.161 -41.070  23.492  1.00  0.00    -0.298 OA
ENDBRANCH   6  39
BRANCH   8  41
ATOM     41  O   UNL     1       5.876 -37.431  27.234  1.00  0.00    -0.504 OA
ATOM     42  H   UNL     1       6.683 -37.803  27.719  1.00  0.00     0.293 HD
ENDBRANCH   8  41
BRANCH   7  43
ATOM     43  O   UNL     1       6.031 -39.815  25.895  1.00  0.00    -0.504 OA
ATOM     44  H   UNL     1       6.466 -40.628  25.476  1.00  0.00     0.293 HD
ENDBRANCH   7  43
TORSDOF 11
ENDMDL
MODEL 2
REMARK VINA RESULT:    43.695      1.118      1.383
REMARK INTER + INTRA:          64.062
REMARK INTER:                  63.978
REMARK INTRA:                   0.084
REMARK UNBOUND:                -0.069
REMARK SMILES Cc1cc2c(C(C)C)c(O)c(O)c(C=O)c2c(O)c1-c1c(C)cc2c(C(C)C)c(O)c(O)c(C=O)c2c1O
REMARK SMILES IDX 1 1 2 2 3 3 4 4 16 5 13 6 11 7 9 8 5 9 17 10 19 11 20 12
REMARK SMILES IDX 37 13 21 14 36 15 23 16 22 17 24 18 33 19 25 20 31 21 29 22
REMARK SMILES IDX 38 23 34 25 35 26 26 27 27 28 28 29 32 30 30 32 18 34 6 36
REMARK SMILES IDX 7 37 8 38 14 39 15 40 10 41 12 43
REMARK H PARENT 38 24 32 31 30 33 18 35 10 42 12 44
REMARK Flexibility Score: inf
ROOT
ATOM      1  C   UNL     1       3.766 -34.835  21.838  1.00  0.00     0.045 C 
ATOM      2  C   UNL     1       4.180 -36.238  22.215  1.00  0.00    -0.039 A 
ATOM      3  C   UNL     1       4.470 -36.528  23.548  1.00  0.00     0.013 A 
ATOM      4  C   UNL     1       4.899 -37.805  23.962  1.00  0.00    -0.006 A 
ATOM      5  C   UNL     1       4.974 -38.849  22.989  1.00  0.00     0.039 A 
ATOM      6  C   UNL     1       5.400 -40.145  23.400  1.00  0.00     0.072 A 
ATOM      7  C   UNL     1       5.542 -40.429  24.769  1.00  0.00     0.169 A 
ATOM      8  C   UNL     1       5.398 -39.421  25.726  1.00  0.00     0.162 A 
ATOM      9  C   UNL     1       5.227 -38.071  25.330  1.00  0.00     0.008 A 
ATOM     10  C   UNL     1       4.578 -38.574  21.645  1.00  0.00     0.132 A 
ATOM     11  C   UNL     1       4.217 -37.266  21.260  1.00  0.00     0.031 A 
ENDROOT
BRANCH  11  12
ATOM     12  C   UNL     1       3.842 -36.979  19.849  1.00  0.00     0.031 A 
ATOM     13  C   UNL     1       2.578 -37.373  19.358  1.00  0.00     0.132 A 
ATOM     14  C   UNL     1       4.760 -36.340  19.001  1.00  0.00    -0.039 A 
ATOM     15  C   UNL     1       2.207 -37.095  18.006  1.00  0.00     0.039 A 
ATOM     16  C   UNL     1       4.404 -36.071  17.679  1.00  0.00     0.013 A 
ATOM     17  C   UNL     1       6.124 -35.926  19.501  1.00  0.00     0.045 C 
ATOM     18  C   UNL     1       3.126 -36.390  17.169  1.00  0.00    -0.006 A 
ATOM     19  C   UNL     1       0.966 -37.533  17.449  1.00  0.00     0.072 A 
ATOM     20  C   UNL     1       2.766 -36.052  15.828  1.00  0.00     0.008 A 
ATOM     21  C   UNL     1       0.698 -37.328  16.080  1.00  0.00     0.169 A 
ATOM     22  C   UNL     1       1.605 -36.632  15.275  1.00  0.00     0.162 A 
BRANCH  13  23
ATOM     23  O   UNL     1       1.701 -38.053  20.211  1.00  0.00    -0.507 OA
ATOM     24  H   UNL     1       1.705 -39.055  20.348  1.00  0.00     0.293 HD
ENDBRANCH  13  23
BRANCH  19  25
ATOM     25  C   UNL     1      -0.058 -38.219  18.263  1.00  0.00     0.264 C 
ATOM     26  O   UNL     1      -0.238 -39.460  18.151  1.00  0.00    -0.298 OA
ENDBRANCH  19  25
BRANCH  20  27
ATOM     27  C   UNL     1       3.617 -35.093  14.975  1.00  0.00     0.017 C 
ATOM     28  C   UNL     1       4.451 -34.165  15.864  1.00  0.00     0.012 C 
ATOM     29  C   UNL     1       4.498 -35.804  13.930  1.00  0.00     0.012 C 
ENDBRANCH  20  27
BRANCH  21  30
ATOM     30  O   UNL     1      -0.489 -37.779  15.489  1.00  0.00    -0.504 OA
ATOM     31  H   UNL     1      -0.603 -38.691  15.068  1.00  0.00     0.293 HD
ENDBRANCH  21  30
BRANCH  22  32
ATOM     32  O   UNL     1       1.349 -36.513  13.907  1.00  0.00    -0.504 OA
ATOM     33  H   UNL     1       1.288 -37.309  13.284  1.00  0.00     0.293 HD
ENDBRANCH  22  32
ENDBRANCH  11  12
BRANCH  10  34
ATOM     34  O   UNL     1       4.500 -39.609  20.706  1.00  0.00    -0.507 OA
ATOM     35  H   UNL     1       4.444 -39.462  19.706  1.00  0.00     0.293 HD
ENDBRANCH  10  34
BRANCH   9  36
ATOM     36  C   UNL     1       5.473 -36.970  26.380  1.00  0.00     0.017 C 
ATOM     37  C   UNL     1       4.226 -36.685  27.230  1.00  0.00     0.012 C 
ATOM     38  C   UNL     1       6.125 -35.687  25.824  1.00  0.00     0.012 C 
ENDBRANCH   9  36
BRANCH   6  39
ATOM     39  C   UNL     1       5.777 -41.203  22.429  1.00  0.00     0.264 C 
ATOM     40  O   UNL     1       5.978 -42.389  22.799  1.00  0.00    -0.298 OA
ENDBRANCH   6  39
BRANCH   8  41
ATOM     41  O   UNL     1       5.440 -39.799  27.073  1.00  0.00    -0.504 OA
ATOM     42  H   UNL     1       4.647 -40.167  27.582  1.00  0.00     0.293 HD
ENDBRANCH   8  41
BRANCH   7  43
ATOM     43  O   UNL     1       5.854 -41.730  25.175  1.00  0.00    -0.504 OA
ATOM     44  H   UNL     1       6.650 -41.949  25.763  1.00  0.00     0.293 HD
ENDBRANCH   7  43
TORSDOF 11
ENDMDL
MODEL 3
REMARK VINA RESULT:    45.025      0.638      8.875
REMARK INTER + INTRA:          66.014
REMARK INTER:                  65.186
REMARK INTRA:                   0.828
REMARK UNBOUND:                -0.069
REMARK SMILES Cc1cc2c(C(C)C)c(O)c(O)c(C=O)c2c(O)c1-c1c(C)cc2c(C(C)C)c(O)c(O)c(C=O)c2c1O
REMARK SMILES IDX 1 1 2 2 3 3 4 4 16 5 13 6 11 7 9 8 5 9 17 10 19 11 20 12
REMARK SMILES IDX 37 13 21 14 36 15 23 16 22 17 24 18 33 19 25 20 31 21 29 22
REMARK SMILES IDX 38 23 34 25 35 26 26 27 27 28 28 29 32 30 30 32 18 34 6 36
REMARK SMILES IDX 7 37 8 38 14 39 15 40 10 41 12 43
REMARK H PARENT 38 24 32 31 30 33 18 35 10 42 12 44
REMARK Flexibility Score: inf
ROOT
ATOM      1  C   UNL     1       6.050 -36.342  18.791  1.00  0.00     0.045 C 
ATOM      2  C   UNL     1       4.577 -36.596  18.573  1.00  0.00    -0.039 A 
ATOM      3  C   UNL     1       4.115 -36.866  17.285  1.00  0.00     0.013 A 
ATOM      4  C   UNL     1       2.750 -37.074  17.005  1.00  0.00    -0.006 A 
ATOM      5  C   UNL     1       1.822 -37.072  18.092  1.00  0.00     0.039 A 
ATOM      6  C   UNL     1       0.440 -37.288  17.818  1.00  0.00     0.072 A 
ATOM      7  C   UNL     1       0.040 -37.696  16.535  1.00  0.00     0.169 A 
ATOM      8  C   UNL     1       0.963 -37.766  15.488  1.00  0.00     0.162 A 
ATOM      9  C   UNL     1       2.293 -37.311  15.669  1.00  0.00     0.008 A 
ATOM     10  C   UNL     1       2.312 -36.898  19.422  1.00  0.00     0.132 A 
ATOM     11  C   UNL     1       3.677 -36.629  19.651  1.00  0.00     0.031 A 
ENDROOT
BRANCH  11  12
ATOM     12  C   UNL     1       4.174 -36.411  21.035  1.00  0.00     0.031 A 
ATOM     13  C   UNL     1       4.491 -37.516  21.856  1.00  0.00     0.132 A 
ATOM     14  C   UNL     1       4.301 -35.105  21.533  1.00  0.00    -0.039 A 
ATOM     15  C   UNL     1       4.975 -37.316  23.186  1.00  0.00     0.039 A 
ATOM     16  C   UNL     1       4.768 -34.905  22.832  1.00  0.00     0.013 A 
ATOM     17  C   UNL     1       3.951 -33.910  20.678  1.00  0.00     0.045 C 
ATOM     18  C   UNL     1       5.158 -35.980  23.661  1.00  0.00    -0.006 A 
ATOM     19  C   UNL     1       5.244 -38.404  24.072  1.00  0.00     0.072 A 
ATOM     20  C   UNL     1       5.688 -35.746  24.967  1.00  0.00     0.008 A 
ATOM     21  C   UNL     1       5.615 -38.147  25.408  1.00  0.00     0.169 A 
ATOM     22  C   UNL     1       5.794 -36.836  25.857  1.00  0.00     0.162 A 
BRANCH  13  23
ATOM     23  O   UNL     1       4.308 -38.809  21.353  1.00  0.00    -0.507 OA
ATOM     24  H   UNL     1       3.422 -39.172  21.027  1.00  0.00     0.293 HD
ENDBRANCH  13  23
BRANCH  19  25
ATOM     25  C   UNL     1       5.132 -39.811  23.640  1.00  0.00     0.264 C 
ATOM     26  O   UNL     1       5.863 -40.258  22.718  1.00  0.00    -0.298 OA
ENDBRANCH  19  25
BRANCH  20  27
ATOM     27  C   UNL     1       6.125 -34.343  25.427  1.00  0.00     0.017 C 
ATOM     28  C   UNL     1       5.803 -33.293  24.358  1.00  0.00     0.012 C 
ATOM     29  C   UNL     1       5.558 -33.933  26.800  1.00  0.00     0.012 C 
ENDBRANCH  20  27
BRANCH  21  30
ATOM     30  O   UNL     1       5.847 -39.187  26.318  1.00  0.00    -0.504 OA
ATOM     31  H   UNL     1       6.295 -39.067  27.216  1.00  0.00     0.293 HD
ENDBRANCH  21  30
BRANCH  22  32
ATOM     32  O   UNL     1       6.084 -36.609  27.204  1.00  0.00    -0.504 OA
ATOM     33  H   UNL     1       5.568 -35.954  27.780  1.00  0.00     0.293 HD
ENDBRANCH  22  32
ENDBRANCH  11  12
BRANCH  10  34
ATOM     34  O   UNL     1       1.450 -37.039  20.515  1.00  0.00    -0.507 OA
ATOM     35  H   UNL     1       1.595 -36.589  21.411  1.00  0.00     0.293 HD
ENDBRANCH  10  34
BRANCH   9  36
ATOM     36  C   UNL     1       3.143 -37.035  14.413  1.00  0.00     0.017 C 
ATOM     37  C   UNL     1       4.093 -38.195  14.083  1.00  0.00     0.012 C 
ATOM     38  C   UNL     1       3.847 -35.662  14.404  1.00  0.00     0.012 C 
ENDBRANCH   9  36
BRANCH   6  39
ATOM     39  C   UNL     1      -0.619 -37.027  18.826  1.00  0.00     0.264 C 
ATOM     40  O   UNL     1      -1.738 -36.557  18.491  1.00  0.00    -0.298 OA
ENDBRANCH   6  39
BRANCH   8  41
ATOM     41  O   UNL     1       0.518 -38.289  14.268  1.00  0.00    -0.504 OA
ATOM     42  H   UNL     1      -0.213 -37.871  13.707  1.00  0.00     0.293 HD
ENDBRANCH   8  41
BRANCH   7  43
ATOM     43  O   UNL     1      -1.301 -38.013  16.298  1.00  0.00    -0.504 OA
ATOM     44  H   UNL     1      -2.070 -37.460  16.655  1.00  0.00     0.293 HD
ENDBRANCH   7  43
TORSDOF 11
ENDMDL
