MODEL 1
REMARK VINA RESULT:    -3.999      0.000      0.000
REMARK INTER + INTRA:          -7.964
REMARK INTER:                  -6.336
REMARK INTRA:                  -1.628
REMARK UNBOUND:                -1.628
REMARK SMILES CCCCCCCCCCCC(=O)[O-]
REMARK SMILES IDX 7 1 8 2 9 3 10 4 11 5 12 6 13 7 14 8 6 9 5 10 4 11 3 12 2 13
REMARK SMILES IDX 1 14
REMARK H PARENT
REMARK Flexibility Score: inf
ROOT
ATOM      1  C   UNL     1     -37.399  17.932 -28.276  1.00  0.00     0.000 C 
ENDROOT
BRANCH   1   2
ATOM      2  C   UNL     1     -36.201  18.823 -27.922  1.00  0.00     0.000 C 
BRANCH   2   3
ATOM      3  C   UNL     1     -35.330  19.090 -29.159  1.00  0.00     0.000 C 
BRANCH   3   4
ATOM      4  C   UNL     1     -35.063  20.589 -29.389  1.00  0.00     0.006 C 
BRANCH   4   5
ATOM      5  C   UNL     1     -35.528  21.498 -28.240  1.00  0.00     0.053 C 
BRANCH   5   6
ATOM      6  C   UNL     1     -35.765  22.904 -28.697  1.00  0.00     0.041 C 
ATOM      7  O   UNL     1     -36.025  23.143 -29.906  1.00  0.00    -0.550 OA
ATOM      8  O   UNL     1     -35.733  23.948 -27.781  1.00  0.00    -0.550 OA
ENDBRANCH   5   6
ENDBRANCH   4   5
ENDBRANCH   3   4
ENDBRANCH   2   3
ENDBRANCH   1   2
BRANCH   1   9
ATOM      9  C   UNL     1     -37.498  17.719 -29.791  1.00  0.00     0.000 C 
BRANCH   9  10
ATOM     10  C   UNL     1     -38.727  18.433 -30.368  1.00  0.00    -0.000 C 
BRANCH  10  11
ATOM     11  C   UNL     1     -38.311  19.533 -31.354  1.00  0.00    -0.000 C 
BRANCH  11  12
ATOM     12  C   UNL     1     -38.656  20.948 -30.854  1.00  0.00    -0.000 C 
BRANCH  12  13
ATOM     13  C   UNL     1     -39.072  21.028 -29.375  1.00  0.00    -0.003 C 
ATOM     14  C   UNL     1     -39.397  22.450 -28.920  1.00  0.00     0.004 C 
ENDBRANCH  12  13
ENDBRANCH  11  12
ENDBRANCH  10  11
ENDBRANCH   9  10
ENDBRANCH   1   9
TORSDOF 10
ENDMDL
MODEL 2
REMARK VINA RESULT:    -3.983      0.983      1.901
REMARK INTER + INTRA:          -7.940
REMARK INTER:                  -6.385
REMARK INTRA:                  -1.555
REMARK UNBOUND:                -1.628
REMARK SMILES CCCCCCCCCCCC(=O)[O-]
REMARK SMILES IDX 7 1 8 2 9 3 10 4 11 5 12 6 13 7 14 8 6 9 5 10 4 11 3 12 2 13
REMARK SMILES IDX 1 14
REMARK H PARENT
REMARK Flexibility Score: inf
ROOT
ATOM      1  C   UNL     1     -36.729  17.750 -29.941  1.00  0.00     0.000 C 
ENDROOT
BRANCH   1   2
ATOM      2  C   UNL     1     -35.258  18.184 -29.935  1.00  0.00     0.000 C 
BRANCH   2   3
ATOM      3  C   UNL     1     -35.113  19.644 -30.390  1.00  0.00     0.000 C 
BRANCH   3   4
ATOM      4  C   UNL     1     -34.690  20.585 -29.247  1.00  0.00     0.006 C 
BRANCH   4   5
ATOM      5  C   UNL     1     -35.860  21.267 -28.521  1.00  0.00     0.053 C 
BRANCH   5   6
ATOM      6  C   UNL     1     -35.951  22.726 -28.847  1.00  0.00     0.041 C 
ATOM      7  O   UNL     1     -35.924  23.584 -27.925  1.00  0.00    -0.550 OA
ATOM      8  O   UNL     1     -36.030  23.140 -30.170  1.00  0.00    -0.550 OA
ENDBRANCH   5   6
ENDBRANCH   4   5
ENDBRANCH   3   4
ENDBRANCH   2   3
ENDBRANCH   1   2
BRANCH   1   9
ATOM      9  C   UNL     1     -37.239  17.509 -28.515  1.00  0.00     0.000 C 
BRANCH   9  10
ATOM     10  C   UNL     1     -38.196  18.625 -28.077  1.00  0.00    -0.000 C 
BRANCH  10  11
ATOM     11  C   UNL     1     -39.116  19.044 -29.232  1.00  0.00    -0.000 C 
BRANCH  11  12
ATOM     12  C   UNL     1     -39.498  20.535 -29.184  1.00  0.00    -0.000 C 
BRANCH  12  13
ATOM     13  C   UNL     1     -39.056  21.354 -30.410  1.00  0.00    -0.003 C 
ATOM     14  C   UNL     1     -38.471  20.492 -31.527  1.00  0.00     0.004 C 
ENDBRANCH  12  13
ENDBRANCH  11  12
ENDBRANCH  10  11
ENDBRANCH   9  10
ENDBRANCH   1   9
TORSDOF 10
ENDMDL
MODEL 3
REMARK VINA RESULT:    -3.970      1.938      3.812
REMARK INTER + INTRA:          -7.920
REMARK INTER:                  -6.441
REMARK INTRA:                  -1.479
REMARK UNBOUND:                -1.628
REMARK SMILES CCCCCCCCCCCC(=O)[O-]
REMARK SMILES IDX 7 1 8 2 9 3 10 4 11 5 12 6 13 7 14 8 6 9 5 10 4 11 3 12 2 13
REMARK SMILES IDX 1 14
REMARK H PARENT
REMARK Flexibility Score: inf
ROOT
ATOM      1  C   UNL     1     -37.271  17.489 -28.514  1.00  0.00     0.000 C 
ENDROOT
BRANCH   1   2
ATOM      2  C   UNL     1     -38.025  18.715 -27.985  1.00  0.00     0.000 C 
BRANCH   2   3
ATOM      3  C   UNL     1     -39.250  19.026 -28.858  1.00  0.00     0.000 C 
BRANCH   3   4
ATOM      4  C   UNL     1     -39.334  20.510 -29.262  1.00  0.00     0.006 C 
BRANCH   4   5
ATOM      5  C   UNL     1     -37.971  21.183 -29.487  1.00  0.00     0.053 C 
BRANCH   5   6
ATOM      6  C   UNL     1     -37.573  21.176 -30.931  1.00  0.00     0.041 C 
ATOM      7  O   UNL     1     -38.257  20.537 -31.774  1.00  0.00    -0.550 OA
ATOM      8  O   UNL     1     -36.467  21.903 -31.351  1.00  0.00    -0.550 OA
ENDBRANCH   5   6
ENDBRANCH   4   5
ENDBRANCH   3   4
ENDBRANCH   2   3
ENDBRANCH   1   2
BRANCH   1   9
ATOM      9  C   UNL     1     -37.009  17.611 -30.020  1.00  0.00     0.000 C 
BRANCH   9  10
ATOM     10  C   UNL     1     -35.514  17.464 -30.333  1.00  0.00    -0.000 C 
BRANCH  10  11
ATOM     11  C   UNL     1     -34.824  18.835 -30.372  1.00  0.00    -0.000 C 
BRANCH  11  12
ATOM     12  C   UNL     1     -33.929  19.091 -29.145  1.00  0.00    -0.000 C 
BRANCH  12  13
ATOM     13  C   UNL     1     -34.532  20.038 -28.092  1.00  0.00    -0.003 C 
ATOM     14  C   UNL     1     -34.569  19.429 -26.691  1.00  0.00     0.004 C 
ENDBRANCH  12  13
ENDBRANCH  11  12
ENDBRANCH  10  11
ENDBRANCH   9  10
ENDBRANCH   1   9
TORSDOF 10
ENDMDL
MODEL 4
REMARK VINA RESULT:    -3.970      2.264      3.998
REMARK INTER + INTRA:          -7.918
REMARK INTER:                  -6.429
REMARK INTRA:                  -1.490
REMARK UNBOUND:                -1.628
REMARK SMILES CCCCCCCCCCCC(=O)[O-]
REMARK SMILES IDX 7 1 8 2 9 3 10 4 11 5 12 6 13 7 14 8 6 9 5 10 4 11 3 12 2 13
REMARK SMILES IDX 1 14
REMARK H PARENT
REMARK Flexibility Score: inf
ROOT
ATOM      1  C   UNL     1     -38.100  19.912 -31.481  1.00  0.00     0.000 C 
ENDROOT
BRANCH   1   2
ATOM      2  C   UNL     1     -36.731  20.474 -31.077  1.00  0.00     0.000 C 
BRANCH   2   3
ATOM      3  C   UNL     1     -36.869  21.880 -30.474  1.00  0.00     0.000 C 
BRANCH   3   4
ATOM      4  C   UNL     1     -37.365  21.859 -29.017  1.00  0.00     0.006 C 
BRANCH   4   5
ATOM      5  C   UNL     1     -38.678  22.623 -28.783  1.00  0.00     0.053 C 
BRANCH   5   6
ATOM      6  C   UNL     1     -39.876  21.813 -29.172  1.00  0.00     0.041 C 
ATOM      7  O   UNL     1     -40.055  20.668 -28.678  1.00  0.00    -0.550 OA
ATOM      8  O   UNL     1     -40.814  22.337 -30.053  1.00  0.00    -0.550 OA
ENDBRANCH   5   6
ENDBRANCH   4   5
ENDBRANCH   3   4
ENDBRANCH   2   3
ENDBRANCH   1   2
BRANCH   1   9
ATOM      9  C   UNL     1     -38.386  18.587 -30.764  1.00  0.00     0.000 C 
BRANCH   9  10
ATOM     10  C   UNL     1     -37.218  18.191 -29.852  1.00  0.00    -0.000 C 
BRANCH  10  11
ATOM     11  C   UNL     1     -37.663  18.127 -28.385  1.00  0.00    -0.000 C 
BRANCH  11  12
ATOM     12  C   UNL     1     -36.563  18.571 -27.403  1.00  0.00    -0.000 C 
BRANCH  12  13
ATOM     13  C   UNL     1     -35.236  18.982 -28.064  1.00  0.00    -0.003 C 
ATOM     14  C   UNL     1     -34.557  20.158 -27.362  1.00  0.00     0.004 C 
ENDBRANCH  12  13
ENDBRANCH  11  12
ENDBRANCH  10  11
ENDBRANCH   9  10
ENDBRANCH   1   9
TORSDOF 10
ENDMDL
MODEL 5
REMARK VINA RESULT:    -3.916      1.256      3.371
REMARK INTER + INTRA:          -7.833
REMARK INTER:                  -6.205
REMARK INTRA:                  -1.628
REMARK UNBOUND:                -1.628
REMARK SMILES CCCCCCCCCCCC(=O)[O-]
REMARK SMILES IDX 7 1 8 2 9 3 10 4 11 5 12 6 13 7 14 8 6 9 5 10 4 11 3 12 2 13
REMARK SMILES IDX 1 14
REMARK H PARENT
REMARK Flexibility Score: inf
ROOT
ATOM      1  C   UNL     1     -38.878  21.138 -30.829  1.00  0.00     0.000 C 
ENDROOT
BRANCH   1   2
ATOM      2  C   UNL     1     -37.582  20.628 -31.471  1.00  0.00     0.000 C 
BRANCH   2   3
ATOM      3  C   UNL     1     -36.418  21.594 -31.202  1.00  0.00     0.000 C 
BRANCH   3   4
ATOM      4  C   UNL     1     -35.312  20.969 -30.333  1.00  0.00     0.006 C 
BRANCH   4   5
ATOM      5  C   UNL     1     -35.354  21.389 -28.855  1.00  0.00     0.053 C 
BRANCH   5   6
ATOM      6  C   UNL     1     -35.662  22.845 -28.693  1.00  0.00     0.041 C 
ATOM      7  O   UNL     1     -36.747  23.209 -28.166  1.00  0.00    -0.550 OA
ATOM      8  O   UNL     1     -34.737  23.801 -29.093  1.00  0.00    -0.550 OA
ENDBRANCH   5   6
ENDBRANCH   4   5
ENDBRANCH   3   4
ENDBRANCH   2   3
ENDBRANCH   1   2
BRANCH   1   9
ATOM      9  C   UNL     1     -38.965  20.721 -29.356  1.00  0.00     0.000 C 
BRANCH   9  10
ATOM     10  C   UNL     1     -39.193  19.210 -29.224  1.00  0.00    -0.000 C 
BRANCH  10  11
ATOM     11  C   UNL     1     -38.406  18.638 -28.037  1.00  0.00    -0.000 C 
BRANCH  11  12
ATOM     12  C   UNL     1     -37.006  18.132 -28.434  1.00  0.00    -0.000 C 
BRANCH  12  13
ATOM     13  C   UNL     1     -36.935  17.436 -29.804  1.00  0.00    -0.003 C 
ATOM     14  C   UNL     1     -35.510  17.323 -30.345  1.00  0.00     0.004 C 
ENDBRANCH  12  13
ENDBRANCH  11  12
ENDBRANCH  10  11
ENDBRANCH   9  10
ENDBRANCH   1   9
TORSDOF 10
ENDMDL
MODEL 6
REMARK VINA RESULT:    -3.908      2.343      4.013
REMARK INTER + INTRA:          -7.821
REMARK INTER:                  -6.583
REMARK INTRA:                  -1.238
REMARK UNBOUND:                -1.628
REMARK SMILES CCCCCCCCCCCC(=O)[O-]
REMARK SMILES IDX 7 1 8 2 9 3 10 4 11 5 12 6 13 7 14 8 6 9 5 10 4 11 3 12 2 13
REMARK SMILES IDX 1 14
REMARK H PARENT
REMARK Flexibility Score: inf
ROOT
ATOM      1  C   UNL     1     -35.408  18.474 -29.067  1.00  0.00     0.000 C 
ENDROOT
BRANCH   1   2
ATOM      2  C   UNL     1     -36.408  19.222 -28.176  1.00  0.00     0.000 C 
BRANCH   2   3
ATOM      3  C   UNL     1     -37.617  18.336 -27.841  1.00  0.00     0.000 C 
BRANCH   3   4
ATOM      4  C   UNL     1     -38.932  18.871 -28.436  1.00  0.00     0.006 C 
BRANCH   4   5
ATOM      5  C   UNL     1     -38.748  19.973 -29.492  1.00  0.00     0.053 C 
BRANCH   5   6
ATOM      6  C   UNL     1     -38.625  19.411 -30.875  1.00  0.00     0.041 C 
ATOM      7  O   UNL     1     -38.331  20.164 -31.841  1.00  0.00    -0.550 OA
ATOM      8  O   UNL     1     -38.800  18.050 -31.091  1.00  0.00    -0.550 OA
ENDBRANCH   5   6
ENDBRANCH   4   5
ENDBRANCH   3   4
ENDBRANCH   2   3
ENDBRANCH   1   2
BRANCH   1   9
ATOM      9  C   UNL     1     -35.037  19.307 -30.299  1.00  0.00     0.000 C 
BRANCH   9  10
ATOM     10  C   UNL     1     -34.762  20.766 -29.915  1.00  0.00    -0.000 C 
BRANCH  10  11
ATOM     11  C   UNL     1     -35.367  21.729 -30.947  1.00  0.00    -0.000 C 
BRANCH  11  12
ATOM     12  C   UNL     1     -35.965  22.996 -30.306  1.00  0.00    -0.000 C 
BRANCH  12  13
ATOM     13  C   UNL     1     -36.501  22.806 -28.876  1.00  0.00    -0.003 C 
ATOM     14  C   UNL     1     -35.752  23.645 -27.841  1.00  0.00     0.004 C 
ENDBRANCH  12  13
ENDBRANCH  11  12
ENDBRANCH  10  11
ENDBRANCH   9  10
ENDBRANCH   1   9
TORSDOF 10
ENDMDL
MODEL 7
REMARK VINA RESULT:    -3.814      2.236      4.345
REMARK INTER + INTRA:          -7.672
REMARK INTER:                  -6.580
REMARK INTRA:                  -1.092
REMARK UNBOUND:                -1.628
REMARK SMILES CCCCCCCCCCCC(=O)[O-]
REMARK SMILES IDX 7 1 8 2 9 3 10 4 11 5 12 6 13 7 14 8 6 9 5 10 4 11 3 12 2 13
REMARK SMILES IDX 1 14
REMARK H PARENT
REMARK Flexibility Score: inf
ROOT
ATOM      1  C   UNL     1     -38.367  20.675 -31.043  1.00  0.00     0.000 C 
ENDROOT
BRANCH   1   2
ATOM      2  C   UNL     1     -38.382  19.142 -31.073  1.00  0.00     0.000 C 
BRANCH   2   3
ATOM      3  C   UNL     1     -39.077  18.573 -29.826  1.00  0.00     0.000 C 
BRANCH   3   4
ATOM      4  C   UNL     1     -38.544  19.182 -28.516  1.00  0.00     0.006 C 
BRANCH   4   5
ATOM      5  C   UNL     1     -37.609  18.256 -27.722  1.00  0.00     0.053 C 
BRANCH   5   6
ATOM      6  C   UNL     1     -36.179  18.692 -27.810  1.00  0.00     0.041 C 
ATOM      7  O   UNL     1     -35.543  18.995 -26.765  1.00  0.00    -0.550 OA
ATOM      8  O   UNL     1     -35.538  18.731 -29.041  1.00  0.00    -0.550 OA
ENDBRANCH   5   6
ENDBRANCH   4   5
ENDBRANCH   3   4
ENDBRANCH   2   3
ENDBRANCH   1   2
BRANCH   1   9
ATOM      9  C   UNL     1     -37.186  21.231 -31.848  1.00  0.00     0.000 C 
BRANCH   9  10
ATOM     10  C   UNL     1     -36.154  21.892 -30.926  1.00  0.00    -0.000 C 
BRANCH  10  11
ATOM     11  C   UNL     1     -36.827  22.467 -29.671  1.00  0.00    -0.000 C 
BRANCH  11  12
ATOM     12  C   UNL     1     -35.968  22.307 -28.403  1.00  0.00    -0.000 C 
BRANCH  12  13
ATOM     13  C   UNL     1     -35.644  23.621 -27.672  1.00  0.00    -0.003 C 
ATOM     14  C   UNL     1     -34.491  24.394 -28.313  1.00  0.00     0.004 C 
ENDBRANCH  12  13
ENDBRANCH  11  12
ENDBRANCH  10  11
ENDBRANCH   9  10
ENDBRANCH   1   9
TORSDOF 10
ENDMDL
MODEL 8
REMARK VINA RESULT:    -3.775      1.851      3.685
REMARK INTER + INTRA:          -7.611
REMARK INTER:                  -6.229
REMARK INTRA:                  -1.382
REMARK UNBOUND:                -1.628
REMARK SMILES CCCCCCCCCCCC(=O)[O-]
REMARK SMILES IDX 7 1 8 2 9 3 10 4 11 5 12 6 13 7 14 8 6 9 5 10 4 11 3 12 2 13
REMARK SMILES IDX 1 14
REMARK H PARENT
REMARK Flexibility Score: inf
ROOT
ATOM      1  C   UNL     1     -36.244  18.652 -27.141  1.00  0.00     0.000 C 
ENDROOT
BRANCH   1   2
ATOM      2  C   UNL     1     -37.287  17.906 -27.982  1.00  0.00     0.000 C 
BRANCH   2   3
ATOM      3  C   UNL     1     -38.587  18.718 -28.093  1.00  0.00     0.000 C 
BRANCH   3   4
ATOM      4  C   UNL     1     -39.014  18.962 -29.552  1.00  0.00     0.006 C 
BRANCH   4   5
ATOM      5  C   UNL     1     -38.370  20.197 -30.202  1.00  0.00     0.053 C 
BRANCH   5   6
ATOM      6  C   UNL     1     -38.737  21.463 -29.491  1.00  0.00     0.041 C 
ATOM      7  O   UNL     1     -39.929  21.869 -29.494  1.00  0.00    -0.550 OA
ATOM      8  O   UNL     1     -37.769  22.176 -28.795  1.00  0.00    -0.550 OA
ENDBRANCH   5   6
ENDBRANCH   4   5
ENDBRANCH   3   4
ENDBRANCH   2   3
ENDBRANCH   1   2
BRANCH   1   9
ATOM      9  C   UNL     1     -35.234  19.380 -28.036  1.00  0.00     0.000 C 
BRANCH   9  10
ATOM     10  C   UNL     1     -35.049  18.645 -29.369  1.00  0.00    -0.000 C 
BRANCH  10  11
ATOM     11  C   UNL     1     -34.619  19.616 -30.478  1.00  0.00    -0.000 C 
BRANCH  11  12
ATOM     12  C   UNL     1     -34.648  21.089 -30.029  1.00  0.00    -0.000 C 
BRANCH  12  13
ATOM     13  C   UNL     1     -34.585  22.115 -31.175  1.00  0.00    -0.003 C 
ATOM     14  C   UNL     1     -35.812  22.071 -32.085  1.00  0.00     0.004 C 
ENDBRANCH  12  13
ENDBRANCH  11  12
ENDBRANCH  10  11
ENDBRANCH   9  10
ENDBRANCH   1   9
TORSDOF 10
ENDMDL
MODEL 9
REMARK VINA RESULT:    -3.688      2.734      5.053
REMARK INTER + INTRA:          -7.472
REMARK INTER:                  -6.109
REMARK INTRA:                  -1.363
REMARK UNBOUND:                -1.628
REMARK SMILES CCCCCCCCCCCC(=O)[O-]
REMARK SMILES IDX 7 1 8 2 9 3 10 4 11 5 12 6 13 7 14 8 6 9 5 10 4 11 3 12 2 13
REMARK SMILES IDX 1 14
REMARK H PARENT
REMARK Flexibility Score: inf
ROOT
ATOM      1  C   UNL     1     -37.638  22.321 -28.883  1.00  0.00     0.000 C 
ENDROOT
BRANCH   1   2
ATOM      2  C   UNL     1     -38.392  21.273 -29.711  1.00  0.00     0.000 C 
BRANCH   2   3
ATOM      3  C   UNL     1     -39.489  20.596 -28.875  1.00  0.00     0.000 C 
BRANCH   3   4
ATOM      4  C   UNL     1     -39.370  19.061 -28.866  1.00  0.00     0.006 C 
BRANCH   4   5
ATOM      5  C   UNL     1     -38.343  18.499 -29.862  1.00  0.00     0.053 C 
BRANCH   5   6
ATOM      6  C   UNL     1     -37.429  17.500 -29.223  1.00  0.00     0.041 C 
ATOM      7  O   UNL     1     -37.250  17.510 -27.977  1.00  0.00    -0.550 OA
ATOM      8  O   UNL     1     -36.801  16.534 -30.000  1.00  0.00    -0.550 OA
ENDBRANCH   5   6
ENDBRANCH   4   5
ENDBRANCH   3   4
ENDBRANCH   2   3
ENDBRANCH   1   2
BRANCH   1   9
ATOM      9  C   UNL     1     -36.348  22.758 -29.588  1.00  0.00     0.000 C 
BRANCH   9  10
ATOM     10  C   UNL     1     -36.142  21.977 -30.892  1.00  0.00    -0.000 C 
BRANCH  10  11
ATOM     11  C   UNL     1     -34.801  21.230 -30.879  1.00  0.00    -0.000 C 
BRANCH  11  12
ATOM     12  C   UNL     1     -34.926  19.781 -30.375  1.00  0.00    -0.000 C 
BRANCH  12  13
ATOM     13  C   UNL     1     -34.107  19.463 -29.111  1.00  0.00    -0.003 C 
ATOM     14  C   UNL     1     -34.811  19.883 -27.821  1.00  0.00     0.004 C 
ENDBRANCH  12  13
ENDBRANCH  11  12
ENDBRANCH  10  11
ENDBRANCH   9  10
ENDBRANCH   1   9
TORSDOF 10
ENDMDL
