MODEL 1
REMARK VINA RESULT:    -7.446      0.000      0.000
REMARK INTER + INTRA:          -9.031
REMARK INTER:                  -8.752
REMARK INTRA:                  -0.279
REMARK UNBOUND:                -0.279
REMARK SMILES O=c1c(O)c(-c2ccc(O)c(O)c2)oc2cc(O)ccc12
REMARK SMILES IDX 5 1 3 2 2 3 1 4 21 5 15 6 14 7 16 8 17 9 19 10 20 11 6 12
REMARK SMILES IDX 7 13 8 14 9 15 13 16 11 17 10 18 12 20 4 22 18 24
REMARK H PARENT 10 19 12 21 4 23 18 25
REMARK Flexibility Score: inf
ROOT
ATOM      1  C   UNL     1     -12.730  -5.288 -29.212  1.00  0.00     0.180 A 
ATOM      2  C   UNL     1     -12.988  -4.684 -27.964  1.00  0.00     0.208 A 
ATOM      3  C   UNL     1     -11.965  -4.652 -27.004  1.00  0.00     0.235 A 
ATOM      4  O   UNL     1     -12.175  -4.127 -25.875  1.00  0.00    -0.285 OA
ATOM      5  C   UNL     1     -10.711  -5.201 -27.313  1.00  0.00     0.069 A 
ATOM      6  C   UNL     1     -10.525  -5.766 -28.593  1.00  0.00     0.142 A 
ATOM      7  O   UNL     1     -11.521  -5.784 -29.470  1.00  0.00    -0.452 OA
ATOM      8  C   UNL     1      -9.286  -6.314 -28.941  1.00  0.00     0.094 A 
ATOM      9  C   UNL     1      -8.226  -6.306 -28.024  1.00  0.00     0.119 A 
ATOM     10  C   UNL     1      -8.409  -5.748 -26.755  1.00  0.00     0.047 A 
ATOM     11  C   UNL     1      -9.643  -5.196 -26.397  1.00  0.00     0.020 A 
ENDROOT
BRANCH   1  12
ATOM     12  C   UNL     1     -13.761  -5.379 -30.270  1.00  0.00     0.025 A 
ATOM     13  C   UNL     1     -14.441  -6.582 -30.529  1.00  0.00     0.016 A 
ATOM     14  C   UNL     1     -15.393  -6.650 -31.549  1.00  0.00     0.051 A 
ATOM     15  C   UNL     1     -15.672  -5.523 -32.333  1.00  0.00     0.157 A 
ATOM     16  C   UNL     1     -14.030  -4.257 -31.073  1.00  0.00     0.062 A 
ATOM     17  C   UNL     1     -14.983  -4.322 -32.094  1.00  0.00     0.158 A 
BRANCH  15  18
ATOM     18  O   UNL     1     -16.624  -5.594 -33.349  1.00  0.00    -0.504 OA
ATOM     19  H   UNL     1     -16.745  -6.432 -33.905  1.00  0.00     0.293 HD
ENDBRANCH  15  18
BRANCH  17  20
ATOM     20  O   UNL     1     -15.231  -3.184 -32.862  1.00  0.00    -0.504 OA
ATOM     21  H   UNL     1     -14.706  -2.977 -33.703  1.00  0.00     0.293 HD
ENDBRANCH  17  20
ENDBRANCH   1  12
BRANCH   2  22
ATOM     22  O   UNL     1     -14.232  -4.102 -27.703  1.00  0.00    -0.502 OA
ATOM     23  H   UNL     1     -14.324  -3.151 -27.367  1.00  0.00     0.293 HD
ENDBRANCH   2  22
BRANCH   9  24
ATOM     24  O   UNL     1      -6.990  -6.849 -28.364  1.00  0.00    -0.508 OA
ATOM     25  H   UNL     1      -6.901  -7.552 -29.088  1.00  0.00     0.293 HD
ENDBRANCH   9  24
TORSDOF 5
ENDMDL
MODEL 2
REMARK VINA RESULT:    -6.888      3.460      5.583
REMARK INTER + INTRA:          -8.375
REMARK INTER:                  -8.051
REMARK INTRA:                  -0.324
REMARK UNBOUND:                -0.279
REMARK SMILES O=c1c(O)c(-c2ccc(O)c(O)c2)oc2cc(O)ccc12
REMARK SMILES IDX 5 1 3 2 2 3 1 4 21 5 15 6 14 7 16 8 17 9 19 10 20 11 6 12
REMARK SMILES IDX 7 13 8 14 9 15 13 16 11 17 10 18 12 20 4 22 18 24
REMARK H PARENT 10 19 12 21 4 23 18 25
REMARK Flexibility Score: inf
ROOT
ATOM      1  C   UNL     1      -9.215  -7.257 -30.323  1.00  0.00     0.180 A 
ATOM      2  C   UNL     1      -8.578  -6.448 -31.287  1.00  0.00     0.208 A 
ATOM      3  C   UNL     1      -7.325  -6.844 -31.780  1.00  0.00     0.235 A 
ATOM      4  O   UNL     1      -6.730  -6.131 -32.635  1.00  0.00    -0.285 OA
ATOM      5  C   UNL     1      -6.748  -8.038 -31.320  1.00  0.00     0.069 A 
ATOM      6  C   UNL     1      -7.459  -8.803 -30.372  1.00  0.00     0.142 A 
ATOM      7  O   UNL     1      -8.639  -8.390 -29.924  1.00  0.00    -0.452 OA
ATOM      8  C   UNL     1      -6.921 -10.004 -29.897  1.00  0.00     0.094 A 
ATOM      9  C   UNL     1      -5.675 -10.450 -30.357  1.00  0.00     0.119 A 
ATOM     10  C   UNL     1      -4.967  -9.692 -31.295  1.00  0.00     0.047 A 
ATOM     11  C   UNL     1      -5.497  -8.491 -31.777  1.00  0.00     0.020 A 
ENDROOT
BRANCH   1  12
ATOM     12  C   UNL     1     -10.529  -6.901 -29.740  1.00  0.00     0.025 A 
ATOM     13  C   UNL     1     -10.626  -6.103 -28.586  1.00  0.00     0.016 A 
ATOM     14  C   UNL     1     -11.875  -5.799 -28.042  1.00  0.00     0.051 A 
ATOM     15  C   UNL     1     -13.044  -6.296 -28.631  1.00  0.00     0.157 A 
ATOM     16  C   UNL     1     -11.703  -7.414 -30.316  1.00  0.00     0.062 A 
ATOM     17  C   UNL     1     -12.956  -7.110 -29.772  1.00  0.00     0.158 A 
BRANCH  15  18
ATOM     18  O   UNL     1     -14.291  -5.990 -28.085  1.00  0.00    -0.504 OA
ATOM     19  H   UNL     1     -15.045  -5.631 -28.656  1.00  0.00     0.293 HD
ENDBRANCH  15  18
BRANCH  17  20
ATOM     20  O   UNL     1     -14.100  -7.628 -30.379  1.00  0.00    -0.504 OA
ATOM     21  H   UNL     1     -14.418  -8.575 -30.209  1.00  0.00     0.293 HD
ENDBRANCH  17  20
ENDBRANCH   1  12
BRANCH   2  22
ATOM     22  O   UNL     1      -9.201  -5.291 -31.762  1.00  0.00    -0.502 OA
ATOM     23  H   UNL     1      -9.103  -4.396 -31.300  1.00  0.00     0.293 HD
ENDBRANCH   2  22
BRANCH   9  24
ATOM     24  O   UNL     1      -5.132 -11.645 -29.889  1.00  0.00    -0.508 OA
ATOM     25  H   UNL     1      -5.435 -12.542 -30.251  1.00  0.00     0.293 HD
ENDBRANCH   9  24
TORSDOF 5
ENDMDL
MODEL 3
REMARK VINA RESULT:    -6.681      3.540      5.599
REMARK INTER + INTRA:          -8.132
REMARK INTER:                  -7.941
REMARK INTRA:                  -0.190
REMARK UNBOUND:                -0.279
REMARK SMILES O=c1c(O)c(-c2ccc(O)c(O)c2)oc2cc(O)ccc12
REMARK SMILES IDX 5 1 3 2 2 3 1 4 21 5 15 6 14 7 16 8 17 9 19 10 20 11 6 12
REMARK SMILES IDX 7 13 8 14 9 15 13 16 11 17 10 18 12 20 4 22 18 24
REMARK H PARENT 10 19 12 21 4 23 18 25
REMARK Flexibility Score: inf
ROOT
ATOM      1  C   UNL     1      -9.194  -7.482 -30.519  1.00  0.00     0.180 A 
ATOM      2  C   UNL     1      -8.484  -6.692 -31.447  1.00  0.00     0.208 A 
ATOM      3  C   UNL     1      -7.198  -7.098 -31.836  1.00  0.00     0.235 A 
ATOM      4  O   UNL     1      -6.538  -6.402 -32.656  1.00  0.00    -0.285 OA
ATOM      5  C   UNL     1      -6.660  -8.284 -31.311  1.00  0.00     0.069 A 
ATOM      6  C   UNL     1      -7.444  -9.031 -30.405  1.00  0.00     0.142 A 
ATOM      7  O   UNL     1      -8.653  -8.608 -30.056  1.00  0.00    -0.452 OA
ATOM      8  C   UNL     1      -6.945 -10.223 -29.869  1.00  0.00     0.094 A 
ATOM      9  C   UNL     1      -5.669 -10.679 -30.225  1.00  0.00     0.119 A 
ATOM     10  C   UNL     1      -4.891  -9.940 -31.121  1.00  0.00     0.047 A 
ATOM     11  C   UNL     1      -5.379  -8.748 -31.664  1.00  0.00     0.020 A 
ENDROOT
BRANCH   1  12
ATOM     12  C   UNL     1     -10.547  -7.113 -30.045  1.00  0.00     0.025 A 
ATOM     13  C   UNL     1     -11.681  -7.857 -30.416  1.00  0.00     0.016 A 
ATOM     14  C   UNL     1     -12.950  -7.476 -29.975  1.00  0.00     0.051 A 
ATOM     15  C   UNL     1     -13.109  -6.342 -29.169  1.00  0.00     0.157 A 
ATOM     16  C   UNL     1     -10.713  -5.965 -29.253  1.00  0.00     0.062 A 
ATOM     17  C   UNL     1     -11.984  -5.581 -28.809  1.00  0.00     0.158 A 
BRANCH  15  18
ATOM     18  O   UNL     1     -14.378  -5.965 -28.729  1.00  0.00    -0.504 OA
ATOM     19  H   UNL     1     -15.064  -5.576 -29.363  1.00  0.00     0.293 HD
ENDBRANCH  15  18
BRANCH  17  20
ATOM     20  O   UNL     1     -12.108  -4.442 -28.014  1.00  0.00    -0.504 OA
ATOM     21  H   UNL     1     -12.450  -3.563 -28.384  1.00  0.00     0.293 HD
ENDBRANCH  17  20
ENDBRANCH   1  12
BRANCH   2  22
ATOM     22  O   UNL     1      -9.066  -5.543 -31.990  1.00  0.00    -0.502 OA
ATOM     23  H   UNL     1      -9.668  -5.575 -32.803  1.00  0.00     0.293 HD
ENDBRANCH   2  22
BRANCH   9  24
ATOM     24  O   UNL     1      -5.167 -11.865 -29.695  1.00  0.00    -0.508 OA
ATOM     25  H   UNL     1      -5.605 -12.319 -28.902  1.00  0.00     0.293 HD
ENDBRANCH   9  24
TORSDOF 5
ENDMDL
MODEL 4
REMARK VINA RESULT:    -6.597      2.975      6.699
REMARK INTER + INTRA:          -8.033
REMARK INTER:                  -7.713
REMARK INTRA:                  -0.320
REMARK UNBOUND:                -0.279
REMARK SMILES O=c1c(O)c(-c2ccc(O)c(O)c2)oc2cc(O)ccc12
REMARK SMILES IDX 5 1 3 2 2 3 1 4 21 5 15 6 14 7 16 8 17 9 19 10 20 11 6 12
REMARK SMILES IDX 7 13 8 14 9 15 13 16 11 17 10 18 12 20 4 22 18 24
REMARK H PARENT 10 19 12 21 4 23 18 25
REMARK Flexibility Score: inf
ROOT
ATOM      1  C   UNL     1      -9.229  -6.448 -30.063  1.00  0.00     0.180 A 
ATOM      2  C   UNL     1      -9.056  -5.913 -28.770  1.00  0.00     0.208 A 
ATOM      3  C   UNL     1     -10.192  -5.616 -28.003  1.00  0.00     0.235 A 
ATOM      4  O   UNL     1     -10.063  -5.126 -26.846  1.00  0.00    -0.285 OA
ATOM      5  C   UNL     1     -11.468  -5.876 -28.529  1.00  0.00     0.069 A 
ATOM      6  C   UNL     1     -11.557  -6.434 -29.822  1.00  0.00     0.142 A 
ATOM      7  O   UNL     1     -10.457  -6.692 -30.519  1.00  0.00    -0.452 OA
ATOM      8  C   UNL     1     -12.810  -6.715 -30.377  1.00  0.00     0.094 A 
ATOM      9  C   UNL     1     -13.979  -6.444 -29.655  1.00  0.00     0.119 A 
ATOM     10  C   UNL     1     -13.893  -5.889 -28.374  1.00  0.00     0.047 A 
ATOM     11  C   UNL     1     -12.646  -5.605 -27.809  1.00  0.00     0.020 A 
ENDROOT
BRANCH   1  12
ATOM     12  C   UNL     1      -8.082  -6.771 -30.942  1.00  0.00     0.025 A 
ATOM     13  C   UNL     1      -7.498  -5.797 -31.771  1.00  0.00     0.016 A 
ATOM     14  C   UNL     1      -6.432  -6.131 -32.609  1.00  0.00     0.051 A 
ATOM     15  C   UNL     1      -5.941  -7.442 -32.641  1.00  0.00     0.157 A 
ATOM     16  C   UNL     1      -7.600  -8.089 -30.993  1.00  0.00     0.062 A 
ATOM     17  C   UNL     1      -6.531  -8.426 -31.831  1.00  0.00     0.158 A 
BRANCH  15  18
ATOM     18  O   UNL     1      -4.875  -7.772 -33.479  1.00  0.00    -0.504 OA
ATOM     19  H   UNL     1      -4.822  -7.427 -34.429  1.00  0.00     0.293 HD
ENDBRANCH  15  18
BRANCH  17  20
ATOM     20  O   UNL     1      -6.071  -9.743 -31.845  1.00  0.00    -0.504 OA
ATOM     21  H   UNL     1      -6.567 -10.491 -31.375  1.00  0.00     0.293 HD
ENDBRANCH  17  20
ENDBRANCH   1  12
BRANCH   2  22
ATOM     22  O   UNL     1      -7.772  -5.712 -28.253  1.00  0.00    -0.502 OA
ATOM     23  H   UNL     1      -7.472  -6.121 -27.377  1.00  0.00     0.293 HD
ENDBRANCH   2  22
BRANCH   9  24
ATOM     24  O   UNL     1     -15.231  -6.721 -30.200  1.00  0.00    -0.508 OA
ATOM     25  H   UNL     1     -16.058  -6.789 -29.620  1.00  0.00     0.293 HD
ENDBRANCH   9  24
TORSDOF 5
ENDMDL
MODEL 5
REMARK VINA RESULT:    -6.578      3.084      6.658
REMARK INTER + INTRA:          -8.011
REMARK INTER:                  -7.777
REMARK INTRA:                  -0.233
REMARK UNBOUND:                -0.279
REMARK SMILES O=c1c(O)c(-c2ccc(O)c(O)c2)oc2cc(O)ccc12
REMARK SMILES IDX 5 1 3 2 2 3 1 4 21 5 15 6 14 7 16 8 17 9 19 10 20 11 6 12
REMARK SMILES IDX 7 13 8 14 9 15 13 16 11 17 10 18 12 20 4 22 18 24
REMARK H PARENT 10 19 12 21 4 23 18 25
REMARK Flexibility Score: inf
ROOT
ATOM      1  C   UNL     1      -8.678  -6.511 -29.967  1.00  0.00     0.180 A 
ATOM      2  C   UNL     1      -8.282  -6.081 -28.683  1.00  0.00     0.208 A 
ATOM      3  C   UNL     1      -9.256  -5.573 -27.810  1.00  0.00     0.235 A 
ATOM      4  O   UNL     1      -8.925  -5.172 -26.660  1.00  0.00    -0.285 OA
ATOM      5  C   UNL     1     -10.596  -5.524 -28.224  1.00  0.00     0.069 A 
ATOM      6  C   UNL     1     -10.915  -5.995 -29.516  1.00  0.00     0.142 A 
ATOM      7  O   UNL     1      -9.962  -6.460 -30.315  1.00  0.00    -0.452 OA
ATOM      8  C   UNL     1     -12.241  -5.971 -29.961  1.00  0.00     0.094 A 
ATOM      9  C   UNL     1     -13.257  -5.480 -29.130  1.00  0.00     0.119 A 
ATOM     10  C   UNL     1     -12.942  -5.010 -27.850  1.00  0.00     0.047 A 
ATOM     11  C   UNL     1     -11.621  -5.031 -27.395  1.00  0.00     0.020 A 
ENDROOT
BRANCH   1  12
ATOM     12  C   UNL     1      -7.709  -7.041 -30.953  1.00  0.00     0.025 A 
ATOM     13  C   UNL     1      -7.643  -8.414 -31.249  1.00  0.00     0.016 A 
ATOM     14  C   UNL     1      -6.705  -8.894 -32.165  1.00  0.00     0.051 A 
ATOM     15  C   UNL     1      -5.811  -8.015 -32.789  1.00  0.00     0.157 A 
ATOM     16  C   UNL     1      -6.797  -6.166 -31.566  1.00  0.00     0.062 A 
ATOM     17  C   UNL     1      -5.856  -6.645 -32.485  1.00  0.00     0.158 A 
BRANCH  15  18
ATOM     18  O   UNL     1      -4.876  -8.498 -33.705  1.00  0.00    -0.504 OA
ATOM     19  H   UNL     1      -5.082  -8.549 -34.695  1.00  0.00     0.293 HD
ENDBRANCH  15  18
BRANCH  17  20
ATOM     20  O   UNL     1      -4.975  -5.743 -33.083  1.00  0.00    -0.504 OA
ATOM     21  H   UNL     1      -4.982  -4.755 -32.859  1.00  0.00     0.293 HD
ENDBRANCH  17  20
ENDBRANCH   1  12
BRANCH   2  22
ATOM     22  O   UNL     1      -6.948  -6.188 -28.281  1.00  0.00    -0.502 OA
ATOM     23  H   UNL     1      -6.639  -6.882 -27.612  1.00  0.00     0.293 HD
ENDBRANCH   2  22
BRANCH   9  24
ATOM     24  O   UNL     1     -14.579  -5.452 -29.565  1.00  0.00    -0.508 OA
ATOM     25  H   UNL     1     -15.128  -4.601 -29.540  1.00  0.00     0.293 HD
ENDBRANCH   9  24
TORSDOF 5
ENDMDL
MODEL 6
REMARK VINA RESULT:    -6.453      3.196      4.951
REMARK INTER + INTRA:          -7.864
REMARK INTER:                  -7.546
REMARK INTRA:                  -0.318
REMARK UNBOUND:                -0.279
REMARK SMILES O=c1c(O)c(-c2ccc(O)c(O)c2)oc2cc(O)ccc12
REMARK SMILES IDX 5 1 3 2 2 3 1 4 21 5 15 6 14 7 16 8 17 9 19 10 20 11 6 12
REMARK SMILES IDX 7 13 8 14 9 15 13 16 11 17 10 18 12 20 4 22 18 24
REMARK H PARENT 10 19 12 21 4 23 18 25
REMARK Flexibility Score: inf
ROOT
ATOM      1  C   UNL     1      -9.810  -6.498 -27.924  1.00  0.00     0.180 A 
ATOM      2  C   UNL     1      -8.626  -6.048 -27.306  1.00  0.00     0.208 A 
ATOM      3  C   UNL     1      -7.392  -6.382 -27.885  1.00  0.00     0.235 A 
ATOM      4  O   UNL     1      -6.317  -6.001 -27.344  1.00  0.00    -0.285 OA
ATOM      5  C   UNL     1      -7.366  -7.134 -29.070  1.00  0.00     0.069 A 
ATOM      6  C   UNL     1      -8.597  -7.527 -29.640  1.00  0.00     0.142 A 
ATOM      7  O   UNL     1      -9.743  -7.198 -29.055  1.00  0.00    -0.452 OA
ATOM      8  C   UNL     1      -8.612  -8.269 -30.825  1.00  0.00     0.094 A 
ATOM      9  C   UNL     1      -7.410  -8.628 -31.450  1.00  0.00     0.119 A 
ATOM     10  C   UNL     1      -6.190  -8.242 -30.886  1.00  0.00     0.047 A 
ATOM     11  C   UNL     1      -6.163  -7.498 -29.702  1.00  0.00     0.020 A 
ENDROOT
BRANCH   1  12
ATOM     12  C   UNL     1     -11.150  -6.204 -27.366  1.00  0.00     0.025 A 
ATOM     13  C   UNL     1     -11.722  -7.014 -26.369  1.00  0.00     0.016 A 
ATOM     14  C   UNL     1     -12.997  -6.730 -25.875  1.00  0.00     0.051 A 
ATOM     15  C   UNL     1     -13.725  -5.643 -26.376  1.00  0.00     0.157 A 
ATOM     16  C   UNL     1     -11.892  -5.127 -27.880  1.00  0.00     0.062 A 
ATOM     17  C   UNL     1     -13.169  -4.840 -27.386  1.00  0.00     0.158 A 
BRANCH  15  18
ATOM     18  O   UNL     1     -14.997  -5.362 -25.879  1.00  0.00    -0.504 OA
ATOM     19  H   UNL     1     -15.293  -5.687 -24.967  1.00  0.00     0.293 HD
ENDBRANCH  15  18
BRANCH  17  20
ATOM     20  O   UNL     1     -13.870  -3.755 -27.912  1.00  0.00    -0.504 OA
ATOM     21  H   UNL     1     -13.739  -2.812 -27.567  1.00  0.00     0.293 HD
ENDBRANCH  17  20
ENDBRANCH   1  12
BRANCH   2  22
ATOM     22  O   UNL     1      -8.684  -5.258 -26.154  1.00  0.00    -0.502 OA
ATOM     23  H   UNL     1      -9.531  -5.160 -25.609  1.00  0.00     0.293 HD
ENDBRANCH   2  22
BRANCH   9  24
ATOM     24  O   UNL     1      -7.418  -9.367 -32.631  1.00  0.00    -0.508 OA
ATOM     25  H   UNL     1      -7.402 -10.380 -32.622  1.00  0.00     0.293 HD
ENDBRANCH   9  24
TORSDOF 5
ENDMDL
MODEL 7
REMARK VINA RESULT:    -6.408      2.728      5.234
REMARK INTER + INTRA:          -7.811
REMARK INTER:                  -7.762
REMARK INTRA:                  -0.049
REMARK UNBOUND:                -0.279
REMARK SMILES O=c1c(O)c(-c2ccc(O)c(O)c2)oc2cc(O)ccc12
REMARK SMILES IDX 5 1 3 2 2 3 1 4 21 5 15 6 14 7 16 8 17 9 19 10 20 11 6 12
REMARK SMILES IDX 7 13 8 14 9 15 13 16 11 17 10 18 12 20 4 22 18 24
REMARK H PARENT 10 19 12 21 4 23 18 25
REMARK Flexibility Score: inf
ROOT
ATOM      1  C   UNL     1      -9.438  -6.893 -28.748  1.00  0.00     0.180 A 
ATOM      2  C   UNL     1      -8.593  -7.492 -27.791  1.00  0.00     0.208 A 
ATOM      3  C   UNL     1      -7.443  -8.164 -28.231  1.00  0.00     0.235 A 
ATOM      4  O   UNL     1      -6.677  -8.719 -27.394  1.00  0.00    -0.285 OA
ATOM      5  C   UNL     1      -7.151  -8.208 -29.603  1.00  0.00     0.069 A 
ATOM      6  C   UNL     1      -8.034  -7.563 -30.496  1.00  0.00     0.142 A 
ATOM      7  O   UNL     1      -9.117  -6.945 -30.039  1.00  0.00    -0.452 OA
ATOM      8  C   UNL     1      -7.772  -7.576 -31.870  1.00  0.00     0.094 A 
ATOM      9  C   UNL     1      -6.635  -8.228 -32.366  1.00  0.00     0.119 A 
ATOM     10  C   UNL     1      -5.760  -8.870 -31.484  1.00  0.00     0.047 A 
ATOM     11  C   UNL     1      -6.012  -8.862 -30.108  1.00  0.00     0.020 A 
ENDROOT
BRANCH   1  12
ATOM     12  C   UNL     1     -10.679  -6.181 -28.366  1.00  0.00     0.025 A 
ATOM     13  C   UNL     1     -10.662  -5.129 -27.433  1.00  0.00     0.016 A 
ATOM     14  C   UNL     1     -11.849  -4.488 -27.072  1.00  0.00     0.051 A 
ATOM     15  C   UNL     1     -13.070  -4.895 -27.624  1.00  0.00     0.157 A 
ATOM     16  C   UNL     1     -11.908  -6.599 -28.902  1.00  0.00     0.062 A 
ATOM     17  C   UNL     1     -13.098  -5.958 -28.542  1.00  0.00     0.158 A 
BRANCH  15  18
ATOM     18  O   UNL     1     -14.253  -4.251 -27.261  1.00  0.00    -0.504 OA
ATOM     19  H   UNL     1     -14.608  -3.460 -27.785  1.00  0.00     0.293 HD
ENDBRANCH  15  18
BRANCH  17  20
ATOM     20  O   UNL     1     -14.299  -6.393 -29.105  1.00  0.00    -0.504 OA
ATOM     21  H   UNL     1     -14.657  -6.007 -29.970  1.00  0.00     0.293 HD
ENDBRANCH  17  20
ENDBRANCH   1  12
BRANCH   2  22
ATOM     22  O   UNL     1      -8.883  -7.390 -26.427  1.00  0.00    -0.502 OA
ATOM     23  H   UNL     1      -8.193  -7.095 -25.748  1.00  0.00     0.293 HD
ENDBRANCH   2  22
BRANCH   9  24
ATOM     24  O   UNL     1      -6.367  -8.246 -33.733  1.00  0.00    -0.508 OA
ATOM     25  H   UNL     1      -7.092  -8.445 -34.412  1.00  0.00     0.293 HD
ENDBRANCH   9  24
TORSDOF 5
ENDMDL
MODEL 8
REMARK VINA RESULT:    -6.275      3.163      5.200
REMARK INTER + INTRA:          -7.655
REMARK INTER:                  -7.392
REMARK INTRA:                  -0.262
REMARK UNBOUND:                -0.279
REMARK SMILES O=c1c(O)c(-c2ccc(O)c(O)c2)oc2cc(O)ccc12
REMARK SMILES IDX 5 1 3 2 2 3 1 4 21 5 15 6 14 7 16 8 17 9 19 10 20 11 6 12
REMARK SMILES IDX 7 13 8 14 9 15 13 16 11 17 10 18 12 20 4 22 18 24
REMARK H PARENT 10 19 12 21 4 23 18 25
REMARK Flexibility Score: inf
ROOT
ATOM      1  C   UNL     1      -9.969  -6.788 -30.220  1.00  0.00     0.180 A 
ATOM      2  C   UNL     1      -9.939  -8.197 -30.258  1.00  0.00     0.208 A 
ATOM      3  C   UNL     1      -8.878  -8.833 -30.918  1.00  0.00     0.235 A 
ATOM      4  O   UNL     1      -8.834 -10.094 -30.975  1.00  0.00    -0.285 OA
ATOM      5  C   UNL     1      -7.866  -8.058 -31.506  1.00  0.00     0.069 A 
ATOM      6  C   UNL     1      -7.956  -6.653 -31.405  1.00  0.00     0.142 A 
ATOM      7  O   UNL     1      -8.982  -6.089 -30.778  1.00  0.00    -0.452 OA
ATOM      8  C   UNL     1      -6.962  -5.846 -31.969  1.00  0.00     0.094 A 
ATOM      9  C   UNL     1      -5.876  -6.427 -32.638  1.00  0.00     0.119 A 
ATOM     10  C   UNL     1      -5.786  -7.819 -32.741  1.00  0.00     0.047 A 
ATOM     11  C   UNL     1      -6.773  -8.634 -32.179  1.00  0.00     0.020 A 
ENDROOT
BRANCH   1  12
ATOM     12  C   UNL     1     -11.064  -6.041 -29.559  1.00  0.00     0.025 A 
ATOM     13  C   UNL     1     -10.896  -5.473 -28.283  1.00  0.00     0.016 A 
ATOM     14  C   UNL     1     -11.950  -4.794 -27.669  1.00  0.00     0.051 A 
ATOM     15  C   UNL     1     -13.190  -4.681 -28.312  1.00  0.00     0.157 A 
ATOM     16  C   UNL     1     -12.315  -5.943 -30.190  1.00  0.00     0.062 A 
ATOM     17  C   UNL     1     -13.372  -5.262 -29.578  1.00  0.00     0.158 A 
BRANCH  15  18
ATOM     18  O   UNL     1     -14.240  -4.000 -27.696  1.00  0.00    -0.504 OA
ATOM     19  H   UNL     1     -14.751  -4.404 -26.921  1.00  0.00     0.293 HD
ENDBRANCH  15  18
BRANCH  17  20
ATOM     20  O   UNL     1     -14.596  -5.175 -30.242  1.00  0.00    -0.504 OA
ATOM     21  H   UNL     1     -15.329  -4.545 -29.937  1.00  0.00     0.293 HD
ENDBRANCH  17  20
ENDBRANCH   1  12
BRANCH   2  22
ATOM     22  O   UNL     1     -10.935  -8.943 -29.620  1.00  0.00    -0.502 OA
ATOM     23  H   UNL     1     -10.868  -9.214 -28.647  1.00  0.00     0.293 HD
ENDBRANCH   2  22
BRANCH   9  24
ATOM     24  O   UNL     1      -4.882  -5.631 -33.202  1.00  0.00    -0.508 OA
ATOM     25  H   UNL     1      -5.104  -4.762 -33.673  1.00  0.00     0.293 HD
ENDBRANCH   9  24
TORSDOF 5
ENDMDL
MODEL 9
REMARK VINA RESULT:    -6.031      3.257      4.911
REMARK INTER + INTRA:          -7.368
REMARK INTER:                  -7.235
REMARK INTRA:                  -0.133
REMARK UNBOUND:                -0.279
REMARK SMILES O=c1c(O)c(-c2ccc(O)c(O)c2)oc2cc(O)ccc12
REMARK SMILES IDX 5 1 3 2 2 3 1 4 21 5 15 6 14 7 16 8 17 9 19 10 20 11 6 12
REMARK SMILES IDX 7 13 8 14 9 15 13 16 11 17 10 18 12 20 4 22 18 24
REMARK H PARENT 10 19 12 21 4 23 18 25
REMARK Flexibility Score: inf
ROOT
ATOM      1  C   UNL     1      -9.468  -7.626 -29.884  1.00  0.00     0.180 A 
ATOM      2  C   UNL     1      -8.721  -7.611 -28.689  1.00  0.00     0.208 A 
ATOM      3  C   UNL     1      -7.360  -7.950 -28.738  1.00  0.00     0.235 A 
ATOM      4  O   UNL     1      -6.673  -7.955 -27.679  1.00  0.00    -0.285 OA
ATOM      5  C   UNL     1      -6.774  -8.277 -29.971  1.00  0.00     0.069 A 
ATOM      6  C   UNL     1      -7.584  -8.247 -31.126  1.00  0.00     0.142 A 
ATOM      7  O   UNL     1      -8.870  -7.928 -31.036  1.00  0.00    -0.452 OA
ATOM      8  C   UNL     1      -7.034  -8.556 -32.374  1.00  0.00     0.094 A 
ATOM      9  C   UNL     1      -5.679  -8.899 -32.483  1.00  0.00     0.119 A 
ATOM     10  C   UNL     1      -4.875  -8.931 -31.340  1.00  0.00     0.047 A 
ATOM     11  C   UNL     1      -5.415  -8.622 -30.087  1.00  0.00     0.020 A 
ENDROOT
BRANCH   1  12
ATOM     12  C   UNL     1     -10.912  -7.298 -29.915  1.00  0.00     0.025 A 
ATOM     13  C   UNL     1     -11.868  -8.239 -30.337  1.00  0.00     0.016 A 
ATOM     14  C   UNL     1     -13.222  -7.898 -30.379  1.00  0.00     0.051 A 
ATOM     15  C   UNL     1     -13.640  -6.612 -30.014  1.00  0.00     0.157 A 
ATOM     16  C   UNL     1     -11.334  -6.003 -29.569  1.00  0.00     0.062 A 
ATOM     17  C   UNL     1     -12.690  -5.660 -29.610  1.00  0.00     0.158 A 
BRANCH  15  18
ATOM     18  O   UNL     1     -14.994  -6.276 -30.056  1.00  0.00    -0.504 OA
ATOM     19  H   UNL     1     -15.308  -5.392 -30.435  1.00  0.00     0.293 HD
ENDBRANCH  15  18
BRANCH  17  20
ATOM     20  O   UNL     1     -13.073  -4.368 -29.247  1.00  0.00    -0.504 OA
ATOM     21  H   UNL     1     -14.012  -4.022 -29.403  1.00  0.00     0.293 HD
ENDBRANCH  17  20
ENDBRANCH   1  12
BRANCH   2  22
ATOM     22  O   UNL     1      -9.321  -7.233 -27.484  1.00  0.00    -0.502 OA
ATOM     23  H   UNL     1      -9.645  -6.289 -27.314  1.00  0.00     0.293 HD
ENDBRANCH   2  22
BRANCH   9  24
ATOM     24  O   UNL     1      -5.124  -9.208 -33.723  1.00  0.00    -0.508 OA
ATOM     25  H   UNL     1      -4.410  -9.920 -33.820  1.00  0.00     0.293 HD
ENDBRANCH   9  24
TORSDOF 5
ENDMDL
