MODEL 1
REMARK VINA RESULT:    -2.560      0.000      0.000
REMARK INTER + INTRA:          -4.199
REMARK INTER:                  -4.655
REMARK INTRA:                   0.456
REMARK UNBOUND:                 0.456
REMARK SMILES CCCCCCCCCCCCCC[C@H](C)C(=O)[O-]
REMARK SMILES IDX 9 1 10 2 11 3 12 4 13 5 14 6 15 7 16 8 17 9 18 10 19 11 8 12
REMARK SMILES IDX 7 13 6 14 5 15 4 16 3 17 2 18 1 19
REMARK H PARENT
REMARK Flexibility Score: inf
ROOT
ATOM      1  C   UNL     1       4.951 -35.788  20.308  1.00  0.00     0.000 C 
ENDROOT
BRANCH   1   2
ATOM      2  C   UNL     1       4.212 -36.853  19.478  1.00  0.00     0.000 C 
BRANCH   2   3
ATOM      3  C   UNL     1       2.784 -37.125  19.989  1.00  0.00     0.000 C 
BRANCH   3   4
ATOM      4  C   UNL     1       1.926 -38.028  19.083  1.00  0.00     0.000 C 
BRANCH   4   5
ATOM      5  C   UNL     1       1.203 -37.248  17.971  1.00  0.00     0.001 C 
BRANCH   5   6
ATOM      6  C   UNL     1       1.802 -37.527  16.573  1.00  0.00     0.009 C 
BRANCH   6   7
ATOM      7  C   UNL     1       3.091 -36.735  16.249  1.00  0.00     0.032 C 
ATOM      8  C   UNL     1       2.923 -35.227  16.483  1.00  0.00     0.014 C 
BRANCH   7   9
ATOM      9  C   UNL     1       3.595 -37.043  14.860  1.00  0.00     0.044 C 
ATOM     10  O   UNL     1       3.592 -36.139  13.980  1.00  0.00    -0.550 OA
ATOM     11  O   UNL     1       4.101 -38.304  14.542  1.00  0.00    -0.550 OA
ENDBRANCH   7   9
ENDBRANCH   6   7
ENDBRANCH   5   6
ENDBRANCH   4   5
ENDBRANCH   3   4
ENDBRANCH   2   3
ENDBRANCH   1   2
BRANCH   1  12
ATOM     12  C   UNL     1       4.211 -35.418  21.607  1.00  0.00     0.000 C 
BRANCH  12  13
ATOM     13  C   UNL     1       5.087 -35.371  22.873  1.00  0.00    -0.000 C 
BRANCH  13  14
ATOM     14  C   UNL     1       4.946 -36.625  23.751  1.00  0.00    -0.000 C 
BRANCH  14  15
ATOM     15  C   UNL     1       5.124 -36.275  25.236  1.00  0.00    -0.000 C 
BRANCH  15  16
ATOM     16  C   UNL     1       4.868 -37.472  26.165  1.00  0.00    -0.000 C 
BRANCH  16  17
ATOM     17  C   UNL     1       4.226 -38.663  25.435  1.00  0.00    -0.000 C 
BRANCH  17  18
ATOM     18  C   UNL     1       5.122 -39.221  24.319  1.00  0.00    -0.003 C 
ATOM     19  C   UNL     1       4.410 -39.298  22.967  1.00  0.00     0.004 C 
ENDBRANCH  17  18
ENDBRANCH  16  17
ENDBRANCH  15  16
ENDBRANCH  14  15
ENDBRANCH  13  14
ENDBRANCH  12  13
ENDBRANCH   1  12
TORSDOF 14
ENDMDL
MODEL 2
REMARK VINA RESULT:    -2.408      3.679      8.033
REMARK INTER + INTRA:          -3.922
REMARK INTER:                  -5.733
REMARK INTRA:                   1.811
REMARK UNBOUND:                 0.456
REMARK SMILES CCCCCCCCCCCCCC[C@H](C)C(=O)[O-]
REMARK SMILES IDX 9 1 10 2 11 3 12 4 13 5 14 6 15 7 16 8 17 9 18 10 19 11 8 12
REMARK SMILES IDX 7 13 6 14 5 15 4 16 3 17 2 18 1 19
REMARK H PARENT
REMARK Flexibility Score: inf
ROOT
ATOM      1  C   UNL     1       2.684 -37.711  19.532  1.00  0.00     0.000 C 
ENDROOT
BRANCH   1   2
ATOM      2  C   UNL     1       3.860 -37.332  18.616  1.00  0.00     0.000 C 
BRANCH   2   3
ATOM      3  C   UNL     1       4.594 -36.058  19.080  1.00  0.00     0.000 C 
BRANCH   3   4
ATOM      4  C   UNL     1       5.125 -36.099  20.525  1.00  0.00     0.000 C 
BRANCH   4   5
ATOM      5  C   UNL     1       4.345 -35.174  21.476  1.00  0.00     0.001 C 
BRANCH   5   6
ATOM      6  C   UNL     1       4.420 -35.646  22.946  1.00  0.00     0.009 C 
BRANCH   6   7
ATOM      7  C   UNL     1       5.117 -37.011  23.156  1.00  0.00     0.032 C 
ATOM      8  C   UNL     1       4.553 -38.102  22.235  1.00  0.00     0.014 C 
BRANCH   7   9
ATOM      9  C   UNL     1       5.097 -37.426  24.607  1.00  0.00     0.044 C 
ATOM     10  O   UNL     1       5.125 -38.651  24.908  1.00  0.00    -0.550 OA
ATOM     11  O   UNL     1       5.087 -36.472  25.627  1.00  0.00    -0.550 OA
ENDBRANCH   7   9
ENDBRANCH   6   7
ENDBRANCH   5   6
ENDBRANCH   4   5
ENDBRANCH   3   4
ENDBRANCH   2   3
ENDBRANCH   1   2
BRANCH   1  12
ATOM     12  C   UNL     1       1.410 -38.087  18.751  1.00  0.00     0.000 C 
BRANCH  12  13
ATOM     13  C   UNL     1       1.065 -37.161  17.570  1.00  0.00    -0.000 C 
BRANCH  13  14
ATOM     14  C   UNL     1       2.308 -36.602  16.860  1.00  0.00    -0.000 C 
BRANCH  14  15
ATOM     15  C   UNL     1       1.906 -35.673  15.704  1.00  0.00    -0.000 C 
BRANCH  15  16
ATOM     16  C   UNL     1       2.660 -35.982  14.400  1.00  0.00    -0.000 C 
BRANCH  16  17
ATOM     17  C   UNL     1       3.947 -36.788  14.637  1.00  0.00    -0.000 C 
BRANCH  17  18
ATOM     18  C   UNL     1       3.706 -38.305  14.602  1.00  0.00    -0.003 C 
ATOM     19  C   UNL     1       4.926 -39.090  14.114  1.00  0.00     0.004 C 
ENDBRANCH  17  18
ENDBRANCH  16  17
ENDBRANCH  15  16
ENDBRANCH  14  15
ENDBRANCH  13  14
ENDBRANCH  12  13
ENDBRANCH   1  12
TORSDOF 14
ENDMDL
MODEL 3
REMARK VINA RESULT:    -1.865      0.994      2.068
REMARK INTER + INTRA:          -2.936
REMARK INTER:                  -2.112
REMARK INTRA:                  -0.824
REMARK UNBOUND:                 0.456
REMARK SMILES CCCCCCCCCCCCCC[C@H](C)C(=O)[O-]
REMARK SMILES IDX 9 1 10 2 11 3 12 4 13 5 14 6 15 7 16 8 17 9 18 10 19 11 8 12
REMARK SMILES IDX 7 13 6 14 5 15 4 16 3 17 2 18 1 19
REMARK H PARENT
REMARK Flexibility Score: inf
ROOT
ATOM      1  C   UNL     1       3.387 -37.828  20.714  1.00  0.00     0.000 C 
ENDROOT
BRANCH   1   2
ATOM      2  C   UNL     1       2.359 -38.269  19.658  1.00  0.00     0.000 C 
BRANCH   2   3
ATOM      3  C   UNL     1       1.711 -37.081  18.920  1.00  0.00     0.000 C 
BRANCH   3   4
ATOM      4  C   UNL     1       0.942 -37.449  17.637  1.00  0.00     0.000 C 
BRANCH   4   5
ATOM      5  C   UNL     1       0.711 -36.242  16.711  1.00  0.00     0.001 C 
BRANCH   5   6
ATOM      6  C   UNL     1       1.842 -36.074  15.671  1.00  0.00     0.009 C 
BRANCH   6   7
ATOM      7  C   UNL     1       3.157 -36.815  16.016  1.00  0.00     0.032 C 
ATOM      8  C   UNL     1       4.087 -35.972  16.898  1.00  0.00     0.014 C 
BRANCH   7   9
ATOM      9  C   UNL     1       3.851 -37.316  14.773  1.00  0.00     0.044 C 
ATOM     10  O   UNL     1       4.195 -36.499  13.876  1.00  0.00    -0.550 OA
ATOM     11  O   UNL     1       4.156 -38.670  14.616  1.00  0.00    -0.550 OA
ENDBRANCH   7   9
ENDBRANCH   6   7
ENDBRANCH   5   6
ENDBRANCH   4   5
ENDBRANCH   3   4
ENDBRANCH   2   3
ENDBRANCH   1   2
BRANCH   1  12
ATOM     12  C   UNL     1       4.596 -37.091  20.106  1.00  0.00     0.000 C 
BRANCH  12  13
ATOM     13  C   UNL     1       4.804 -35.648  20.602  1.00  0.00    -0.000 C 
BRANCH  13  14
ATOM     14  C   UNL     1       3.998 -35.324  21.870  1.00  0.00    -0.000 C 
BRANCH  14  15
ATOM     15  C   UNL     1       4.902 -34.713  22.952  1.00  0.00    -0.000 C 
BRANCH  15  16
ATOM     16  C   UNL     1       5.125 -35.656  24.146  1.00  0.00    -0.000 C 
BRANCH  16  17
ATOM     17  C   UNL     1       4.895 -37.132  23.786  1.00  0.00    -0.000 C 
BRANCH  17  18
ATOM     18  C   UNL     1       4.998 -38.059  25.007  1.00  0.00    -0.003 C 
ATOM     19  C   UNL     1       4.844 -37.312  26.334  1.00  0.00     0.004 C 
ENDBRANCH  17  18
ENDBRANCH  16  17
ENDBRANCH  15  16
ENDBRANCH  14  15
ENDBRANCH  13  14
ENDBRANCH  12  13
ENDBRANCH   1  12
TORSDOF 14
ENDMDL
MODEL 4
REMARK VINA RESULT:    -1.370      4.107      8.253
REMARK INTER + INTRA:          -2.036
REMARK INTER:                  -1.876
REMARK INTRA:                  -0.160
REMARK UNBOUND:                 0.456
REMARK SMILES CCCCCCCCCCCCCC[C@H](C)C(=O)[O-]
REMARK SMILES IDX 9 1 10 2 11 3 12 4 13 5 14 6 15 7 16 8 17 9 18 10 19 11 8 12
REMARK SMILES IDX 7 13 6 14 5 15 4 16 3 17 2 18 1 19
REMARK H PARENT
REMARK Flexibility Score: inf
ROOT
ATOM      1  C   UNL     1       4.306 -37.138  19.642  1.00  0.00     0.000 C 
ENDROOT
BRANCH   1   2
ATOM      2  C   UNL     1       4.556 -35.677  19.228  1.00  0.00     0.000 C 
BRANCH   2   3
ATOM      3  C   UNL     1       4.715 -34.732  20.435  1.00  0.00     0.000 C 
BRANCH   3   4
ATOM      4  C   UNL     1       4.166 -35.275  21.768  1.00  0.00     0.000 C 
BRANCH   4   5
ATOM      5  C   UNL     1       5.125 -36.265  22.452  1.00  0.00     0.001 C 
BRANCH   5   6
ATOM      6  C   UNL     1       5.037 -36.198  23.994  1.00  0.00     0.009 C 
BRANCH   6   7
ATOM      7  C   UNL     1       5.125 -37.568  24.709  1.00  0.00     0.032 C 
ATOM      8  C   UNL     1       4.422 -38.682  23.922  1.00  0.00     0.014 C 
BRANCH   7   9
ATOM      9  C   UNL     1       4.633 -37.480  26.133  1.00  0.00     0.044 C 
ATOM     10  O   UNL     1       4.960 -38.371  26.964  1.00  0.00    -0.550 OA
ATOM     11  O   UNL     1       3.850 -36.405  26.558  1.00  0.00    -0.550 OA
ENDBRANCH   7   9
ENDBRANCH   6   7
ENDBRANCH   5   6
ENDBRANCH   4   5
ENDBRANCH   3   4
ENDBRANCH   2   3
ENDBRANCH   1   2
BRANCH   1  12
ATOM     12  C   UNL     1       2.869 -37.383  20.142  1.00  0.00     0.000 C 
BRANCH  12  13
ATOM     13  C   UNL     1       1.950 -38.131  19.158  1.00  0.00    -0.000 C 
BRANCH  13  14
ATOM     14  C   UNL     1       0.928 -37.210  18.471  1.00  0.00    -0.000 C 
BRANCH  14  15
ATOM     15  C   UNL     1       1.523 -36.588  17.198  1.00  0.00    -0.000 C 
BRANCH  15  16
ATOM     16  C   UNL     1       2.407 -37.569  16.411  1.00  0.00    -0.000 C 
BRANCH  16  17
ATOM     17  C   UNL     1       3.717 -36.928  15.926  1.00  0.00    -0.000 C 
BRANCH  17  18
ATOM     18  C   UNL     1       3.705 -36.634  14.418  1.00  0.00    -0.003 C 
ATOM     19  C   UNL     1       2.376 -36.048  13.938  1.00  0.00     0.004 C 
ENDBRANCH  17  18
ENDBRANCH  16  17
ENDBRANCH  15  16
ENDBRANCH  14  15
ENDBRANCH  13  14
ENDBRANCH  12  13
ENDBRANCH   1  12
TORSDOF 14
ENDMDL
MODEL 5
REMARK VINA RESULT:    -0.776      1.091      3.002
REMARK INTER + INTRA:          -0.956
REMARK INTER:                  -3.659
REMARK INTRA:                   2.704
REMARK UNBOUND:                 0.456
REMARK SMILES CCCCCCCCCCCCCC[C@H](C)C(=O)[O-]
REMARK SMILES IDX 9 1 10 2 11 3 12 4 13 5 14 6 15 7 16 8 17 9 18 10 19 11 8 12
REMARK SMILES IDX 7 13 6 14 5 15 4 16 3 17 2 18 1 19
REMARK H PARENT
REMARK Flexibility Score: inf
ROOT
ATOM      1  C   UNL     1       3.850 -37.864  20.858  1.00  0.00     0.000 C 
ENDROOT
BRANCH   1   2
ATOM      2  C   UNL     1       4.615 -37.180  19.711  1.00  0.00     0.000 C 
BRANCH   2   3
ATOM      3  C   UNL     1       5.095 -35.761  20.075  1.00  0.00     0.000 C 
BRANCH   3   4
ATOM      4  C   UNL     1       5.005 -34.728  18.936  1.00  0.00     0.000 C 
BRANCH   4   5
ATOM      5  C   UNL     1       4.853 -35.376  17.550  1.00  0.00     0.001 C 
BRANCH   5   6
ATOM      6  C   UNL     1       3.485 -35.065  16.902  1.00  0.00     0.009 C 
BRANCH   6   7
ATOM      7  C   UNL     1       2.772 -36.285  16.271  1.00  0.00     0.032 C 
ATOM      8  C   UNL     1       2.614 -37.445  17.264  1.00  0.00     0.014 C 
BRANCH   7   9
ATOM      9  C   UNL     1       3.446 -36.720  14.993  1.00  0.00     0.044 C 
ATOM     10  O   UNL     1       3.708 -37.939  14.806  1.00  0.00    -0.550 OA
ATOM     11  O   UNL     1       3.751 -35.795  13.991  1.00  0.00    -0.550 OA
ENDBRANCH   7   9
ENDBRANCH   6   7
ENDBRANCH   5   6
ENDBRANCH   4   5
ENDBRANCH   3   4
ENDBRANCH   2   3
ENDBRANCH   1   2
BRANCH   1  12
ATOM     12  C   UNL     1       4.600 -37.802  22.202  1.00  0.00     0.000 C 
BRANCH  12  13
ATOM     13  C   UNL     1       5.110 -39.154  22.735  1.00  0.00    -0.000 C 
BRANCH  13  14
ATOM     14  C   UNL     1       4.913 -39.318  24.250  1.00  0.00    -0.000 C 
BRANCH  14  15
ATOM     15  C   UNL     1       5.092 -37.975  24.973  1.00  0.00    -0.000 C 
BRANCH  15  16
ATOM     16  C   UNL     1       5.116 -36.777  24.010  1.00  0.00    -0.000 C 
BRANCH  16  17
ATOM     17  C   UNL     1       5.125 -35.427  24.744  1.00  0.00    -0.000 C 
BRANCH  17  18
ATOM     18  C   UNL     1       4.770 -34.252  23.819  1.00  0.00    -0.003 C 
ATOM     19  C   UNL     1       4.566 -34.682  22.364  1.00  0.00     0.004 C 
ENDBRANCH  17  18
ENDBRANCH  16  17
ENDBRANCH  15  16
ENDBRANCH  14  15
ENDBRANCH  13  14
ENDBRANCH  12  13
ENDBRANCH   1  12
TORSDOF 14
ENDMDL
MODEL 6
REMARK VINA RESULT:    -0.547      1.168      2.713
REMARK INTER + INTRA:          -0.539
REMARK INTER:                  -1.498
REMARK INTRA:                   0.959
REMARK UNBOUND:                 0.456
REMARK SMILES CCCCCCCCCCCCCC[C@H](C)C(=O)[O-]
REMARK SMILES IDX 9 1 10 2 11 3 12 4 13 5 14 6 15 7 16 8 17 9 18 10 19 11 8 12
REMARK SMILES IDX 7 13 6 14 5 15 4 16 3 17 2 18 1 19
REMARK H PARENT
REMARK Flexibility Score: inf
ROOT
ATOM      1  C   UNL     1       5.118 -34.556  22.673  1.00  0.00     0.000 C 
ENDROOT
BRANCH   1   2
ATOM      2  C   UNL     1       3.898 -34.376  21.753  1.00  0.00     0.000 C 
BRANCH   2   3
ATOM      3  C   UNL     1       4.262 -34.443  20.257  1.00  0.00     0.000 C 
BRANCH   3   4
ATOM      4  C   UNL     1       4.676 -35.836  19.746  1.00  0.00     0.000 C 
BRANCH   4   5
ATOM      5  C   UNL     1       4.972 -35.857  18.236  1.00  0.00     0.001 C 
BRANCH   5   6
ATOM      6  C   UNL     1       3.811 -35.270  17.402  1.00  0.00     0.009 C 
BRANCH   6   7
ATOM      7  C   UNL     1       2.752 -36.303  16.946  1.00  0.00     0.032 C 
ATOM      8  C   UNL     1       2.647 -37.494  17.909  1.00  0.00     0.014 C 
BRANCH   7   9
ATOM      9  C   UNL     1       2.986 -36.743  15.521  1.00  0.00     0.044 C 
ATOM     10  O   UNL     1       3.806 -37.671  15.280  1.00  0.00    -0.550 OA
ATOM     11  O   UNL     1       2.279 -36.164  14.465  1.00  0.00    -0.550 OA
ENDBRANCH   7   9
ENDBRANCH   6   7
ENDBRANCH   5   6
ENDBRANCH   4   5
ENDBRANCH   3   4
ENDBRANCH   2   3
ENDBRANCH   1   2
BRANCH   1  12
ATOM     12  C   UNL     1       5.098 -35.890  23.444  1.00  0.00     0.000 C 
BRANCH  12  13
ATOM     13  C   UNL     1       4.914 -35.766  24.969  1.00  0.00    -0.000 C 
BRANCH  13  14
ATOM     14  C   UNL     1       4.611 -37.110  25.650  1.00  0.00    -0.000 C 
BRANCH  14  15
ATOM     15  C   UNL     1       5.108 -38.283  24.792  1.00  0.00    -0.000 C 
BRANCH  15  16
ATOM     16  C   UNL     1       4.183 -38.584  23.601  1.00  0.00    -0.000 C 
BRANCH  16  17
ATOM     17  C   UNL     1       4.859 -39.458  22.533  1.00  0.00    -0.000 C 
BRANCH  17  18
ATOM     18  C   UNL     1       4.980 -38.743  21.178  1.00  0.00    -0.003 C 
ATOM     19  C   UNL     1       3.642 -38.198  20.672  1.00  0.00     0.004 C 
ENDBRANCH  17  18
ENDBRANCH  16  17
ENDBRANCH  15  16
ENDBRANCH  14  15
ENDBRANCH  13  14
ENDBRANCH  12  13
ENDBRANCH   1  12
TORSDOF 14
ENDMDL
MODEL 7
REMARK VINA RESULT:    -0.484      1.746      3.243
REMARK INTER + INTRA:          -0.424
REMARK INTER:                  -0.630
REMARK INTRA:                   0.206
REMARK UNBOUND:                 0.456
REMARK SMILES CCCCCCCCCCCCCC[C@H](C)C(=O)[O-]
REMARK SMILES IDX 9 1 10 2 11 3 12 4 13 5 14 6 15 7 16 8 17 9 18 10 19 11 8 12
REMARK SMILES IDX 7 13 6 14 5 15 4 16 3 17 2 18 1 19
REMARK H PARENT
REMARK Flexibility Score: inf
ROOT
ATOM      1  C   UNL     1       4.746 -37.651  22.082  1.00  0.00     0.000 C 
ENDROOT
BRANCH   1   2
ATOM      2  C   UNL     1       4.139 -37.066  20.795  1.00  0.00     0.000 C 
BRANCH   2   3
ATOM      3  C   UNL     1       4.382 -35.550  20.655  1.00  0.00     0.000 C 
BRANCH   3   4
ATOM      4  C   UNL     1       4.984 -35.105  19.309  1.00  0.00     0.000 C 
BRANCH   4   5
ATOM      5  C   UNL     1       4.868 -36.181  18.216  1.00  0.00     0.001 C 
BRANCH   5   6
ATOM      6  C   UNL     1       4.025 -35.705  17.010  1.00  0.00     0.009 C 
BRANCH   6   7
ATOM      7  C   UNL     1       3.044 -36.761  16.447  1.00  0.00     0.032 C 
ATOM      8  C   UNL     1       3.128 -36.879  14.919  1.00  0.00     0.014 C 
BRANCH   7   9
ATOM      9  C   UNL     1       1.632 -36.513  16.921  1.00  0.00     0.044 C 
ATOM     10  O   UNL     1       1.172 -37.176  17.890  1.00  0.00    -0.550 OA
ATOM     11  O   UNL     1       0.838 -35.530  16.327  1.00  0.00    -0.550 OA
ENDBRANCH   7   9
ENDBRANCH   6   7
ENDBRANCH   5   6
ENDBRANCH   4   5
ENDBRANCH   3   4
ENDBRANCH   2   3
ENDBRANCH   1   2
BRANCH   1  12
ATOM     12  C   UNL     1       4.817 -39.190  22.067  1.00  0.00     0.000 C 
BRANCH  12  13
ATOM     13  C   UNL     1       4.852 -39.861  23.453  1.00  0.00    -0.000 C 
BRANCH  13  14
ATOM     14  C   UNL     1       5.123 -38.869  24.596  1.00  0.00    -0.000 C 
BRANCH  14  15
ATOM     15  C   UNL     1       3.813 -38.449  25.277  1.00  0.00    -0.000 C 
BRANCH  15  16
ATOM     16  C   UNL     1       4.040 -37.551  26.505  1.00  0.00    -0.000 C 
BRANCH  16  17
ATOM     17  C   UNL     1       4.844 -36.284  26.171  1.00  0.00    -0.000 C 
BRANCH  17  18
ATOM     18  C   UNL     1       5.125 -36.145  24.667  1.00  0.00    -0.003 C 
ATOM     19  C   UNL     1       4.980 -34.706  24.166  1.00  0.00     0.004 C 
ENDBRANCH  17  18
ENDBRANCH  16  17
ENDBRANCH  15  16
ENDBRANCH  14  15
ENDBRANCH  13  14
ENDBRANCH  12  13
ENDBRANCH   1  12
TORSDOF 14
ENDMDL
