MODEL 1
REMARK VINA RESULT:    -2.568      0.000      0.000
REMARK INTER + INTRA:          -3.457
REMARK INTER:                  -3.244
REMARK INTRA:                  -0.212
REMARK UNBOUND:                -0.212
REMARK SMILES CSCC[C@@H]([NH3+])C(=O)[O-]
REMARK SMILES IDX 4 1 5 2 6 3 7 7 8 8 9 9 3 10 2 11 1 12
REMARK H PARENT 6 4 6 5 6 6
REMARK Flexibility Score: inf
ROOT
ATOM      1  C   UNL     1      15.520   9.489  28.045  1.00  0.00     0.082 C 
ENDROOT
BRANCH   1   2
ATOM      2  C   UNL     1      15.767  10.730  28.930  1.00  0.00     0.228 C 
BRANCH   2   3
ATOM      3  N   UNL     1      15.843  10.377  30.355  1.00  0.00    -0.350 N 
ATOM      4  H   UNL     1      16.169  11.192  30.924  1.00  0.00     0.345 HD
ATOM      5  H   UNL     1      16.498   9.574  30.493  1.00  0.00     0.345 HD
ATOM      6  H   UNL     1      14.902  10.077  30.698  1.00  0.00     0.345 HD
ENDBRANCH   2   3
BRANCH   2   7
ATOM      7  C   UNL     1      17.035  11.417  28.498  1.00  0.00     0.099 C 
ATOM      8  O   UNL     1      18.138  10.814  28.552  1.00  0.00    -0.544 OA
ATOM      9  O   UNL     1      16.988  12.718  28.013  1.00  0.00    -0.544 OA
ENDBRANCH   2   7
ENDBRANCH   1   2
BRANCH   1  10
ATOM     10  C   UNL     1      14.393   9.704  27.028  1.00  0.00     0.076 C 
BRANCH  10  11
ATOM     11  S   UNL     1      13.329  11.101  27.536  1.00  0.00    -0.165 SA
ATOM     12  C   UNL     1      13.715  12.164  26.107  1.00  0.00     0.085 C 
ENDBRANCH  10  11
ENDBRANCH   1  10
TORSDOF 5
ENDMDL
MODEL 2
REMARK VINA RESULT:    -2.555      2.111      2.315
REMARK INTER + INTRA:          -3.439
REMARK INTER:                  -3.350
REMARK INTRA:                  -0.089
REMARK UNBOUND:                -0.212
REMARK SMILES CSCC[C@@H]([NH3+])C(=O)[O-]
REMARK SMILES IDX 4 1 5 2 6 3 7 7 8 8 9 9 3 10 2 11 1 12
REMARK H PARENT 6 4 6 5 6 6
REMARK Flexibility Score: inf
ROOT
ATOM      1  C   UNL     1      13.976  10.257  27.424  1.00  0.00     0.082 C 
ENDROOT
BRANCH   1   2
ATOM      2  C   UNL     1      14.837  10.841  28.566  1.00  0.00     0.228 C 
BRANCH   2   3
ATOM      3  N   UNL     1      14.009  11.326  29.680  1.00  0.00    -0.350 N 
ATOM      4  H   UNL     1      14.481  12.116  30.177  1.00  0.00     0.345 HD
ATOM      5  H   UNL     1      13.826  10.551  30.356  1.00  0.00     0.345 HD
ATOM      6  H   UNL     1      13.084  11.654  29.319  1.00  0.00     0.345 HD
ENDBRANCH   2   3
BRANCH   2   7
ATOM      7  C   UNL     1      15.806   9.798  29.055  1.00  0.00     0.099 C 
ATOM      8  O   UNL     1      16.299   8.960  28.256  1.00  0.00    -0.544 OA
ATOM      9  O   UNL     1      16.179   9.771  30.394  1.00  0.00    -0.544 OA
ENDBRANCH   2   7
ENDBRANCH   1   2
BRANCH   1  10
ATOM     10  C   UNL     1      13.155  11.328  26.697  1.00  0.00     0.076 C 
BRANCH  10  11
ATOM     11  S   UNL     1      14.233  12.695  26.142  1.00  0.00    -0.165 SA
ATOM     12  C   UNL     1      14.013  12.401  24.357  1.00  0.00     0.085 C 
ENDBRANCH  10  11
ENDBRANCH   1  10
TORSDOF 5
ENDMDL
MODEL 3
REMARK VINA RESULT:    -2.506     19.797     20.501
REMARK INTER + INTRA:          -3.378
REMARK INTER:                  -3.309
REMARK INTRA:                  -0.069
REMARK UNBOUND:                -0.212
REMARK SMILES CSCC[C@@H]([NH3+])C(=O)[O-]
REMARK SMILES IDX 4 1 5 2 6 3 7 7 8 8 9 9 3 10 2 11 1 12
REMARK H PARENT 6 4 6 5 6 6
REMARK Flexibility Score: inf
ROOT
ATOM      1  C   UNL     1      17.801  -6.175  15.402  1.00  0.00     0.082 C 
ENDROOT
BRANCH   1   2
ATOM      2  C   UNL     1      18.152  -6.312  16.900  1.00  0.00     0.228 C 
BRANCH   2   3
ATOM      3  N   UNL     1      19.605  -6.334  17.120  1.00  0.00    -0.350 N 
ATOM      4  H   UNL     1      19.984  -5.362  17.202  1.00  0.00     0.345 HD
ATOM      5  H   UNL     1      20.082  -6.825  16.329  1.00  0.00     0.345 HD
ATOM      6  H   UNL     1      19.825  -6.861  17.995  1.00  0.00     0.345 HD
ENDBRANCH   2   3
BRANCH   2   7
ATOM      7  C   UNL     1      17.528  -5.180  17.672  1.00  0.00     0.099 C 
ATOM      8  O   UNL     1      18.112  -4.068  17.760  1.00  0.00    -0.544 OA
ATOM      9  O   UNL     1      16.288  -5.352  18.275  1.00  0.00    -0.544 OA
ENDBRANCH   2   7
ENDBRANCH   1   2
BRANCH   1  10
ATOM     10  C   UNL     1      18.915  -5.500  14.593  1.00  0.00     0.076 C 
BRANCH  10  11
ATOM     11  S   UNL     1      18.249  -4.814  13.035  1.00  0.00    -0.165 SA
ATOM     12  C   UNL     1      18.578  -3.067  13.440  1.00  0.00     0.085 C 
ENDBRANCH  10  11
ENDBRANCH   1  10
TORSDOF 5
ENDMDL
MODEL 4
REMARK VINA RESULT:    -2.487      2.125      2.355
REMARK INTER + INTRA:          -3.354
REMARK INTER:                  -3.268
REMARK INTRA:                  -0.085
REMARK UNBOUND:                -0.212
REMARK SMILES CSCC[C@@H]([NH3+])C(=O)[O-]
REMARK SMILES IDX 4 1 5 2 6 3 7 7 8 8 9 9 3 10 2 11 1 12
REMARK H PARENT 6 4 6 5 6 6
REMARK Flexibility Score: inf
ROOT
ATOM      1  C   UNL     1      13.836  10.512  27.672  1.00  0.00     0.082 C 
ENDROOT
BRANCH   1   2
ATOM      2  C   UNL     1      14.750  11.032  28.803  1.00  0.00     0.228 C 
BRANCH   2   3
ATOM      3  N   UNL     1      13.976  11.461  29.976  1.00  0.00    -0.350 N 
ATOM      4  H   UNL     1      13.870  10.676  30.659  1.00  0.00     0.345 HD
ATOM      5  H   UNL     1      13.030  11.794  29.682  1.00  0.00     0.345 HD
ATOM      6  H   UNL     1      14.458  12.261  30.448  1.00  0.00     0.345 HD
ENDBRANCH   2   3
BRANCH   2   7
ATOM      7  C   UNL     1      15.734   9.961  29.193  1.00  0.00     0.099 C 
ATOM      8  O   UNL     1      16.124   9.857  30.386  1.00  0.00    -0.544 OA
ATOM      9  O   UNL     1      16.200   9.066  28.239  1.00  0.00    -0.544 OA
ENDBRANCH   2   7
ENDBRANCH   1   2
BRANCH   1  10
ATOM     10  C   UNL     1      12.999  11.624  27.030  1.00  0.00     0.076 C 
BRANCH  10  11
ATOM     11  S   UNL     1      14.082  12.946  26.380  1.00  0.00    -0.165 SA
ATOM     12  C   UNL     1      13.834  12.548  24.618  1.00  0.00     0.085 C 
ENDBRANCH  10  11
ENDBRANCH   1  10
TORSDOF 5
ENDMDL
MODEL 5
REMARK VINA RESULT:    -2.406      3.403      4.438
REMARK INTER + INTRA:          -3.251
REMARK INTER:                  -3.184
REMARK INTRA:                  -0.068
REMARK UNBOUND:                -0.212
REMARK SMILES CSCC[C@@H]([NH3+])C(=O)[O-]
REMARK SMILES IDX 4 1 5 2 6 3 7 7 8 8 9 9 3 10 2 11 1 12
REMARK H PARENT 6 4 6 5 6 6
REMARK Flexibility Score: inf
ROOT
ATOM      1  C   UNL     1      15.953  10.953  30.146  1.00  0.00     0.082 C 
ENDROOT
BRANCH   1   2
ATOM      2  C   UNL     1      14.832  10.763  29.101  1.00  0.00     0.228 C 
BRANCH   2   3
ATOM      3  N   UNL     1      14.488  12.028  28.435  1.00  0.00    -0.350 N 
ATOM      4  H   UNL     1      14.750  11.998  27.422  1.00  0.00     0.345 HD
ATOM      5  H   UNL     1      14.982  12.825  28.897  1.00  0.00     0.345 HD
ATOM      6  H   UNL     1      13.461  12.205  28.516  1.00  0.00     0.345 HD
ENDBRANCH   2   3
BRANCH   2   7
ATOM      7  C   UNL     1      15.256   9.739  28.083  1.00  0.00     0.099 C 
ATOM      8  O   UNL     1      16.308   9.068  28.252  1.00  0.00    -0.544 OA
ATOM      9  O   UNL     1      14.473   9.513  26.958  1.00  0.00    -0.544 OA
ENDBRANCH   2   7
ENDBRANCH   1   2
BRANCH   1  10
ATOM     10  C   UNL     1      15.496  10.620  31.571  1.00  0.00     0.076 C 
BRANCH  10  11
ATOM     11  S   UNL     1      16.923  10.137  32.606  1.00  0.00    -0.165 SA
ATOM     12  C   UNL     1      16.255   8.518  33.111  1.00  0.00     0.085 C 
ENDBRANCH  10  11
ENDBRANCH   1  10
TORSDOF 5
ENDMDL
MODEL 6
REMARK VINA RESULT:    -2.391      2.841      3.809
REMARK INTER + INTRA:          -3.233
REMARK INTER:                  -2.972
REMARK INTRA:                  -0.261
REMARK UNBOUND:                -0.212
REMARK SMILES CSCC[C@@H]([NH3+])C(=O)[O-]
REMARK SMILES IDX 4 1 5 2 6 3 7 7 8 8 9 9 3 10 2 11 1 12
REMARK H PARENT 6 4 6 5 6 6
REMARK Flexibility Score: inf
ROOT
ATOM      1  C   UNL     1      15.163  10.829  30.054  1.00  0.00     0.082 C 
ENDROOT
BRANCH   1   2
ATOM      2  C   UNL     1      14.479  10.736  28.672  1.00  0.00     0.228 C 
BRANCH   2   3
ATOM      3  N   UNL     1      14.572  12.002  27.931  1.00  0.00    -0.350 N 
ATOM      4  H   UNL     1      13.811  12.072  27.216  1.00  0.00     0.345 HD
ATOM      5  H   UNL     1      15.501  12.073  27.456  1.00  0.00     0.345 HD
ATOM      6  H   UNL     1      14.494  12.808  28.592  1.00  0.00     0.345 HD
ENDBRANCH   2   3
BRANCH   2   7
ATOM      7  C   UNL     1      15.098   9.620  27.873  1.00  0.00     0.099 C 
ATOM      8  O   UNL     1      14.541   9.200  26.825  1.00  0.00    -0.544 OA
ATOM      9  O   UNL     1      16.304   9.062  28.280  1.00  0.00    -0.544 OA
ENDBRANCH   2   7
ENDBRANCH   1   2
BRANCH   1  10
ATOM     10  C   UNL     1      15.984  12.114  30.220  1.00  0.00     0.076 C 
BRANCH  10  11
ATOM     11  S   UNL     1      17.762  11.721  30.383  1.00  0.00    -0.165 SA
ATOM     12  C   UNL     1      18.177  11.985  28.628  1.00  0.00     0.085 C 
ENDBRANCH  10  11
ENDBRANCH   1  10
TORSDOF 5
ENDMDL
MODEL 7
REMARK VINA RESULT:    -2.382      3.218      4.274
REMARK INTER + INTRA:          -3.220
REMARK INTER:                  -3.152
REMARK INTRA:                  -0.068
REMARK UNBOUND:                -0.212
REMARK SMILES CSCC[C@@H]([NH3+])C(=O)[O-]
REMARK SMILES IDX 4 1 5 2 6 3 7 7 8 8 9 9 3 10 2 11 1 12
REMARK H PARENT 6 4 6 5 6 6
REMARK Flexibility Score: inf
ROOT
ATOM      1  C   UNL     1      17.427  11.434  28.651  1.00  0.00     0.082 C 
ENDROOT
BRANCH   1   2
ATOM      2  C   UNL     1      15.903  11.244  28.484  1.00  0.00     0.228 C 
BRANCH   2   3
ATOM      3  N   UNL     1      15.338  12.200  27.521  1.00  0.00    -0.350 N 
ATOM      4  H   UNL     1      15.465  11.860  26.540  1.00  0.00     0.345 HD
ATOM      5  H   UNL     1      15.799  13.132  27.626  1.00  0.00     0.345 HD
ATOM      6  H   UNL     1      14.318  12.331  27.707  1.00  0.00     0.345 HD
ENDBRANCH   2   3
BRANCH   2   7
ATOM      7  C   UNL     1      15.613   9.833  28.045  1.00  0.00     0.099 C 
ATOM      8  O   UNL     1      16.357   8.886  28.410  1.00  0.00    -0.544 OA
ATOM      9  O   UNL     1      14.504   9.568  27.252  1.00  0.00    -0.544 OA
ENDBRANCH   2   7
ENDBRANCH   1   2
BRANCH   1  10
ATOM     10  C   UNL     1      17.896  12.836  28.247  1.00  0.00     0.076 C 
BRANCH  10  11
ATOM     11  S   UNL     1      19.720  12.943  28.304  1.00  0.00    -0.165 SA
ATOM     12  C   UNL     1      19.995  11.224  28.843  1.00  0.00     0.085 C 
ENDBRANCH  10  11
ENDBRANCH   1  10
TORSDOF 5
ENDMDL
MODEL 8
REMARK VINA RESULT:    -2.287      2.965      4.139
REMARK INTER + INTRA:          -3.101
REMARK INTER:                  -2.937
REMARK INTRA:                  -0.163
REMARK UNBOUND:                -0.212
REMARK SMILES CSCC[C@@H]([NH3+])C(=O)[O-]
REMARK SMILES IDX 4 1 5 2 6 3 7 7 8 8 9 9 3 10 2 11 1 12
REMARK H PARENT 6 4 6 5 6 6
REMARK Flexibility Score: inf
ROOT
ATOM      1  C   UNL     1      15.684  10.816  30.828  1.00  0.00     0.082 C 
ENDROOT
BRANCH   1   2
ATOM      2  C   UNL     1      15.593  10.334  29.363  1.00  0.00     0.228 C 
BRANCH   2   3
ATOM      3  N   UNL     1      14.259  10.572  28.793  1.00  0.00    -0.350 N 
ATOM      4  H   UNL     1      13.531  10.593  29.545  1.00  0.00     0.345 HD
ATOM      5  H   UNL     1      14.023   9.824  28.103  1.00  0.00     0.345 HD
ATOM      6  H   UNL     1      14.248  11.485  28.283  1.00  0.00     0.345 HD
ENDBRANCH   2   3
BRANCH   2   7
ATOM      7  C   UNL     1      16.642  11.026  28.534  1.00  0.00     0.099 C 
ATOM      8  O   UNL     1      16.386  12.118  27.963  1.00  0.00    -0.544 OA
ATOM      9  O   UNL     1      17.910  10.469  28.415  1.00  0.00    -0.544 OA
ENDBRANCH   2   7
ENDBRANCH   1   2
BRANCH   1  10
ATOM     10  C   UNL     1      16.266   9.752  31.765  1.00  0.00     0.076 C 
BRANCH  10  11
ATOM     11  S   UNL     1      17.327  10.528  33.035  1.00  0.00    -0.165 SA
ATOM     12  C   UNL     1      18.367  11.466  31.868  1.00  0.00     0.085 C 
ENDBRANCH  10  11
ENDBRANCH   1  10
TORSDOF 5
ENDMDL
MODEL 9
REMARK VINA RESULT:    -2.180      1.668      2.420
REMARK INTER + INTRA:          -2.966
REMARK INTER:                  -2.892
REMARK INTRA:                  -0.074
REMARK UNBOUND:                -0.212
REMARK SMILES CSCC[C@@H]([NH3+])C(=O)[O-]
REMARK SMILES IDX 4 1 5 2 6 3 7 7 8 8 9 9 3 10 2 11 1 12
REMARK H PARENT 6 4 6 5 6 6
REMARK Flexibility Score: inf
ROOT
ATOM      1  C   UNL     1      16.720  11.376  28.372  1.00  0.00     0.082 C 
ENDROOT
BRANCH   1   2
ATOM      2  C   UNL     1      17.803  11.969  29.299  1.00  0.00     0.228 C 
BRANCH   2   3
ATOM      3  N   UNL     1      17.728  11.406  30.655  1.00  0.00    -0.350 N 
ATOM      4  H   UNL     1      17.733  10.360  30.624  1.00  0.00     0.345 HD
ATOM      5  H   UNL     1      16.859  11.734  31.134  1.00  0.00     0.345 HD
ATOM      6  H   UNL     1      18.543  11.734  31.223  1.00  0.00     0.345 HD
ENDBRANCH   2   3
BRANCH   2   7
ATOM      7  C   UNL     1      19.166  11.722  28.710  1.00  0.00     0.099 C 
ATOM      8  O   UNL     1      19.885  12.686  28.337  1.00  0.00    -0.544 OA
ATOM      9  O   UNL     1      19.648  10.423  28.595  1.00  0.00    -0.544 OA
ENDBRANCH   2   7
ENDBRANCH   1   2
BRANCH   1  10
ATOM     10  C   UNL     1      15.707  10.507  29.127  1.00  0.00     0.076 C 
BRANCH  10  11
ATOM     11  S   UNL     1      14.000  11.049  28.762  1.00  0.00    -0.165 SA
ATOM     12  C   UNL     1      13.922  10.322  27.092  1.00  0.00     0.085 C 
ENDBRANCH  10  11
ENDBRANCH   1  10
TORSDOF 5
ENDMDL
