MODEL 1
REMARK VINA RESULT:    -5.027      0.000      0.000
REMARK INTER + INTRA:          -5.321
REMARK INTER:                  -5.321
REMARK INTRA:                   0.000
REMARK UNBOUND:                 0.000
REMARK SMILES Cc1cc(O)c(C)c(C)c1O
REMARK SMILES IDX 1 1 2 2 3 3 4 4 6 5 8 6 10 7 9 8 7 9 11 10 5 12
REMARK H PARENT 11 11 5 13
REMARK Flexibility Score: inf
ROOT
ATOM      1  C   UNL     1     -34.952  90.685   6.621  1.00  0.00     0.048 C 
ATOM      2  C   UNL     1     -34.130  91.924   6.849  1.00  0.00    -0.005 A 
ATOM      3  C   UNL     1     -32.739  91.856   6.714  1.00  0.00     0.053 A 
ATOM      4  C   UNL     1     -31.938  92.976   6.926  1.00  0.00     0.119 A 
ATOM      5  C   UNL     1     -32.522  94.207   7.308  1.00  0.00    -0.003 A 
ATOM      6  C   UNL     1     -33.939  94.306   7.386  1.00  0.00    -0.002 A 
ATOM      7  C   UNL     1     -34.735  93.155   7.182  1.00  0.00     0.121 A 
ATOM      8  C   UNL     1     -34.606  95.623   7.712  1.00  0.00     0.049 C 
ATOM      9  C   UNL     1     -31.627  95.392   7.593  1.00  0.00     0.049 C 
ENDROOT
BRANCH   7  10
ATOM     10  O   UNL     1     -36.125  93.254   7.315  1.00  0.00    -0.507 OA
ATOM     11  H   UNL     1     -36.611  94.127   7.471  1.00  0.00     0.293 HD
ENDBRANCH   7  10
BRANCH   4  12
ATOM     12  O   UNL     1     -30.560  92.830   6.741  1.00  0.00    -0.508 OA
ATOM     13  H   UNL     1     -29.893  92.792   7.501  1.00  0.00     0.293 HD
ENDBRANCH   4  12
TORSDOF 2
ENDMDL
MODEL 2
REMARK VINA RESULT:    -4.995     17.498     19.267
REMARK INTER + INTRA:          -5.287
REMARK INTER:                  -5.287
REMARK INTRA:                   0.000
REMARK UNBOUND:                 0.000
REMARK SMILES Cc1cc(O)c(C)c(C)c1O
REMARK SMILES IDX 1 1 2 2 3 3 4 4 6 5 8 6 10 7 9 8 7 9 11 10 5 12
REMARK H PARENT 11 11 5 13
REMARK Flexibility Score: inf
ROOT
ATOM      1  C   UNL     1     -18.935  98.537  -6.014  1.00  0.00     0.048 C 
ATOM      2  C   UNL     1     -18.993  97.217  -5.293  1.00  0.00    -0.005 A 
ATOM      3  C   UNL     1     -20.221  96.560  -5.169  1.00  0.00     0.053 A 
ATOM      4  C   UNL     1     -20.324  95.342  -4.501  1.00  0.00     0.119 A 
ATOM      5  C   UNL     1     -19.179  94.756  -3.911  1.00  0.00    -0.003 A 
ATOM      6  C   UNL     1     -17.913  95.380  -4.086  1.00  0.00    -0.002 A 
ATOM      7  C   UNL     1     -17.831  96.624  -4.754  1.00  0.00     0.121 A 
ATOM      8  C   UNL     1     -16.654  94.745  -3.541  1.00  0.00     0.049 C 
ATOM      9  C   UNL     1     -19.326  93.464  -3.138  1.00  0.00     0.049 C 
ENDROOT
BRANCH   7  10
ATOM     10  O   UNL     1     -16.587  97.255  -4.872  1.00  0.00    -0.507 OA
ATOM     11  H   UNL     1     -16.201  97.571  -5.752  1.00  0.00     0.293 HD
ENDBRANCH   7  10
BRANCH   4  12
ATOM     12  O   UNL     1     -21.583  94.737  -4.447  1.00  0.00    -0.508 OA
ATOM     13  H   UNL     1     -22.446  95.220  -4.659  1.00  0.00     0.293 HD
ENDBRANCH   4  12
TORSDOF 2
ENDMDL
MODEL 3
REMARK VINA RESULT:    -4.991     17.739     19.387
REMARK INTER + INTRA:          -5.282
REMARK INTER:                  -5.282
REMARK INTRA:                   0.000
REMARK UNBOUND:                 0.000
REMARK SMILES Cc1cc(O)c(C)c(C)c1O
REMARK SMILES IDX 1 1 2 2 3 3 4 4 6 5 8 6 10 7 9 8 7 9 11 10 5 12
REMARK H PARENT 11 11 5 13
REMARK Flexibility Score: inf
ROOT
ATOM      1  C   UNL     1     -16.023  94.429  -3.731  1.00  0.00     0.048 C 
ATOM      2  C   UNL     1     -17.342  95.036  -4.125  1.00  0.00    -0.005 A 
ATOM      3  C   UNL     1     -18.524  94.337  -3.858  1.00  0.00     0.053 A 
ATOM      4  C   UNL     1     -19.766  94.857  -4.215  1.00  0.00     0.119 A 
ATOM      5  C   UNL     1     -19.851  96.102  -4.882  1.00  0.00    -0.003 A 
ATOM      6  C   UNL     1     -18.663  96.852  -5.101  1.00  0.00    -0.002 A 
ATOM      7  C   UNL     1     -17.410  96.302  -4.745  1.00  0.00     0.121 A 
ATOM      8  C   UNL     1     -18.719  98.223  -5.737  1.00  0.00     0.049 C 
ATOM      9  C   UNL     1     -21.206  96.617  -5.314  1.00  0.00     0.049 C 
ENDROOT
BRANCH   7  10
ATOM     10  O   UNL     1     -16.244  97.028  -5.016  1.00  0.00    -0.507 OA
ATOM     11  H   UNL     1     -15.375  96.602  -5.310  1.00  0.00     0.293 HD
ENDBRANCH   7  10
BRANCH   4  12
ATOM     12  O   UNL     1     -20.899  94.108  -3.886  1.00  0.00    -0.508 OA
ATOM     13  H   UNL     1     -20.874  93.275  -3.312  1.00  0.00     0.293 HD
ENDBRANCH   4  12
TORSDOF 2
ENDMDL
MODEL 4
REMARK VINA RESULT:    -4.899     17.542     19.084
REMARK INTER + INTRA:          -5.185
REMARK INTER:                  -5.185
REMARK INTRA:                   0.000
REMARK UNBOUND:                 0.000
REMARK SMILES Cc1cc(O)c(C)c(C)c1O
REMARK SMILES IDX 1 1 2 2 3 3 4 4 6 5 8 6 10 7 9 8 7 9 11 10 5 12
REMARK H PARENT 11 11 5 13
REMARK Flexibility Score: inf
ROOT
ATOM      1  C   UNL     1     -17.386  96.011  -3.757  1.00  0.00     0.048 C 
ATOM      2  C   UNL     1     -18.517  96.628  -4.535  1.00  0.00    -0.005 A 
ATOM      3  C   UNL     1     -18.291  97.807  -5.252  1.00  0.00     0.053 A 
ATOM      4  C   UNL     1     -19.311  98.418  -5.977  1.00  0.00     0.119 A 
ATOM      5  C   UNL     1     -20.613  97.862  -5.980  1.00  0.00    -0.003 A 
ATOM      6  C   UNL     1     -20.841  96.630  -5.307  1.00  0.00    -0.002 A 
ATOM      7  C   UNL     1     -19.796  96.032  -4.564  1.00  0.00     0.121 A 
ATOM      8  C   UNL     1     -22.196  95.962  -5.353  1.00  0.00     0.049 C 
ATOM      9  C   UNL     1     -21.719  98.576  -6.724  1.00  0.00     0.049 C 
ENDROOT
BRANCH   7  10
ATOM     10  O   UNL     1     -20.049  94.848  -3.863  1.00  0.00    -0.507 OA
ATOM     11  H   UNL     1     -20.795  94.207  -4.097  1.00  0.00     0.293 HD
ENDBRANCH   7  10
BRANCH   4  12
ATOM     12  O   UNL     1     -18.994  99.576  -6.692  1.00  0.00    -0.508 OA
ATOM     13  H   UNL     1     -19.194 100.512  -6.361  1.00  0.00     0.293 HD
ENDBRANCH   4  12
TORSDOF 2
ENDMDL
MODEL 5
REMARK VINA RESULT:    -4.880     17.351     18.679
REMARK INTER + INTRA:          -5.165
REMARK INTER:                  -5.165
REMARK INTRA:                   0.000
REMARK UNBOUND:                 0.000
REMARK SMILES Cc1cc(O)c(C)c(C)c1O
REMARK SMILES IDX 1 1 2 2 3 3 4 4 6 5 8 6 10 7 9 8 7 9 11 10 5 12
REMARK H PARENT 11 11 5 13
REMARK Flexibility Score: inf
ROOT
ATOM      1  C   UNL     1     -19.495  93.419  -3.188  1.00  0.00     0.048 C 
ATOM      2  C   UNL     1     -19.327  94.724  -3.919  1.00  0.00    -0.005 A 
ATOM      3  C   UNL     1     -18.057  95.307  -3.993  1.00  0.00     0.053 A 
ATOM      4  C   UNL     1     -17.857  96.519  -4.649  1.00  0.00     0.119 A 
ATOM      5  C   UNL     1     -18.950  97.198  -5.238  1.00  0.00    -0.003 A 
ATOM      6  C   UNL     1     -20.233  96.586  -5.226  1.00  0.00    -0.002 A 
ATOM      7  C   UNL     1     -20.420  95.362  -4.542  1.00  0.00     0.121 A 
ATOM      8  C   UNL     1     -21.410  97.240  -5.914  1.00  0.00     0.049 C 
ATOM      9  C   UNL     1     -18.718  98.542  -5.892  1.00  0.00     0.049 C 
ENDROOT
BRANCH   7  10
ATOM     10  O   UNL     1     -21.700  94.797  -4.492  1.00  0.00    -0.507 OA
ATOM     11  H   UNL     1     -22.553  95.339  -4.528  1.00  0.00     0.293 HD
ENDBRANCH   7  10
BRANCH   4  12
ATOM     12  O   UNL     1     -16.552  97.018  -4.703  1.00  0.00    -0.508 OA
ATOM     13  H   UNL     1     -15.746  96.455  -4.942  1.00  0.00     0.293 HD
ENDBRANCH   4  12
TORSDOF 2
ENDMDL
MODEL 6
REMARK VINA RESULT:    -4.873      0.777      3.258
REMARK INTER + INTRA:          -5.158
REMARK INTER:                  -5.158
REMARK INTRA:                   0.000
REMARK UNBOUND:                 0.000
REMARK SMILES Cc1cc(O)c(C)c(C)c1O
REMARK SMILES IDX 1 1 2 2 3 3 4 4 6 5 8 6 10 7 9 8 7 9 11 10 5 12
REMARK H PARENT 11 11 5 13
REMARK Flexibility Score: inf
ROOT
ATOM      1  C   UNL     1     -31.766  91.197   6.157  1.00  0.00     0.048 C 
ATOM      2  C   UNL     1     -32.564  92.393   6.600  1.00  0.00    -0.005 A 
ATOM      3  C   UNL     1     -33.960  92.306   6.641  1.00  0.00     0.053 A 
ATOM      4  C   UNL     1     -34.739  93.391   7.035  1.00  0.00     0.119 A 
ATOM      5  C   UNL     1     -34.126  94.619   7.380  1.00  0.00    -0.003 A 
ATOM      6  C   UNL     1     -32.706  94.701   7.405  1.00  0.00    -0.002 A 
ATOM      7  C   UNL     1     -31.932  93.593   6.988  1.00  0.00     0.121 A 
ATOM      8  C   UNL     1     -32.011  95.969   7.845  1.00  0.00     0.049 C 
ATOM      9  C   UNL     1     -34.996  95.802   7.745  1.00  0.00     0.049 C 
ENDROOT
BRANCH   7  10
ATOM     10  O   UNL     1     -30.537  93.706   6.965  1.00  0.00    -0.507 OA
ATOM     11  H   UNL     1     -30.039  94.382   6.401  1.00  0.00     0.293 HD
ENDBRANCH   7  10
BRANCH   4  12
ATOM     12  O   UNL     1     -36.124  93.211   7.078  1.00  0.00    -0.508 OA
ATOM     13  H   UNL     1     -36.592  92.378   6.745  1.00  0.00     0.293 HD
ENDBRANCH   4  12
TORSDOF 2
ENDMDL
MODEL 7
REMARK VINA RESULT:    -4.863      0.640      4.367
REMARK INTER + INTRA:          -5.147
REMARK INTER:                  -5.147
REMARK INTRA:                   0.000
REMARK UNBOUND:                 0.000
REMARK SMILES Cc1cc(O)c(C)c(C)c1O
REMARK SMILES IDX 1 1 2 2 3 3 4 4 6 5 8 6 10 7 9 8 7 9 11 10 5 12
REMARK H PARENT 11 11 5 13
REMARK Flexibility Score: inf
ROOT
ATOM      1  C   UNL     1     -32.133  96.007   7.666  1.00  0.00     0.048 C 
ATOM      2  C   UNL     1     -32.736  94.664   7.355  1.00  0.00    -0.005 A 
ATOM      3  C   UNL     1     -34.127  94.520   7.368  1.00  0.00     0.053 A 
ATOM      4  C   UNL     1     -34.728  93.292   7.096  1.00  0.00     0.119 A 
ATOM      5  C   UNL     1     -33.932  92.155   6.823  1.00  0.00    -0.003 A 
ATOM      6  C   UNL     1     -32.519  92.302   6.744  1.00  0.00    -0.002 A 
ATOM      7  C   UNL     1     -31.926  93.552   7.037  1.00  0.00     0.121 A 
ATOM      8  C   UNL     1     -31.638  91.130   6.376  1.00  0.00     0.049 C 
ATOM      9  C   UNL     1     -34.604  90.820   6.592  1.00  0.00     0.049 C 
ENDROOT
BRANCH   7  10
ATOM     10  O   UNL     1     -30.532  93.670   7.009  1.00  0.00    -0.507 OA
ATOM     11  H   UNL     1     -30.042  94.550   7.100  1.00  0.00     0.293 HD
ENDBRANCH   7  10
BRANCH   4  12
ATOM     12  O   UNL     1     -36.125  93.241   7.099  1.00  0.00    -0.508 OA
ATOM     13  H   UNL     1     -36.676  92.918   6.315  1.00  0.00     0.293 HD
ENDBRANCH   4  12
TORSDOF 2
ENDMDL
MODEL 8
REMARK VINA RESULT:    -4.789     17.582     19.114
REMARK INTER + INTRA:          -5.069
REMARK INTER:                  -5.069
REMARK INTRA:                   0.000
REMARK UNBOUND:                 0.000
REMARK SMILES Cc1cc(O)c(C)c(C)c1O
REMARK SMILES IDX 1 1 2 2 3 3 4 4 6 5 8 6 10 7 9 8 7 9 11 10 5 12
REMARK H PARENT 11 11 5 13
REMARK Flexibility Score: inf
ROOT
ATOM      1  C   UNL     1     -20.795  98.649  -5.909  1.00  0.00     0.048 C 
ATOM      2  C   UNL     1     -19.907  97.540  -5.413  1.00  0.00    -0.005 A 
ATOM      3  C   UNL     1     -18.523  97.738  -5.372  1.00  0.00     0.053 A 
ATOM      4  C   UNL     1     -17.663  96.735  -4.931  1.00  0.00     0.119 A 
ATOM      5  C   UNL     1     -18.179  95.479  -4.536  1.00  0.00    -0.003 A 
ATOM      6  C   UNL     1     -19.588  95.285  -4.512  1.00  0.00    -0.002 A 
ATOM      7  C   UNL     1     -20.445  96.310  -4.977  1.00  0.00     0.121 A 
ATOM      8  C   UNL     1     -20.184  93.986  -4.020  1.00  0.00     0.049 C 
ATOM      9  C   UNL     1     -17.222  94.384  -4.119  1.00  0.00     0.049 C 
ENDROOT
BRANCH   7  10
ATOM     10  O   UNL     1     -21.826  96.087  -4.999  1.00  0.00    -0.507 OA
ATOM     11  H   UNL     1     -22.413  96.126  -4.176  1.00  0.00     0.293 HD
ENDBRANCH   7  10
BRANCH   4  12
ATOM     12  O   UNL     1     -16.296  97.026  -4.892  1.00  0.00    -0.508 OA
ATOM     13  H   UNL     1     -15.663  96.845  -5.660  1.00  0.00     0.293 HD
ENDBRANCH   4  12
TORSDOF 2
ENDMDL
