MODEL 1
REMARK VINA RESULT:    -4.865      0.000      0.000
REMARK INTER + INTRA:          -5.383
REMARK INTER:                  -5.291
REMARK INTRA:                  -0.091
REMARK UNBOUND:                -0.091
REMARK SMILES C=C(C)[C@H]1CC[C@H](C)[C@H](O)C1
REMARK SMILES IDX 8 1 7 2 6 3 5 4 4 5 11 6 9 7 10 8 2 10 1 11 3 12
REMARK H PARENT 10 9
REMARK Flexibility Score: inf
ROOT
ATOM      1  C   UNL     1     114.567 120.497 132.609  1.00  0.00     0.010 C 
ATOM      2  C   UNL     1     114.006 120.856 131.228  1.00  0.00     0.015 C 
ATOM      3  C   UNL     1     114.032 122.382 131.009  1.00  0.00     0.006 C 
ATOM      4  C   UNL     1     113.443 122.751 129.642  1.00  0.00     0.008 C 
ATOM      5  C   UNL     1     114.188 122.024 128.504  1.00  0.00     0.017 C 
ATOM      6  C   UNL     1     114.174 120.497 128.724  1.00  0.00     0.040 C 
ATOM      7  C   UNL     1     114.759 120.117 130.095  1.00  0.00     0.117 C 
ENDROOT
BRANCH   7   8
ATOM      8  O   UNL     1     116.130 120.429 130.117  1.00  0.00    -0.393 OA
ATOM      9  H   UNL     1     116.279 121.046 130.882  1.00  0.00     0.210 HD
ENDBRANCH   7   8
BRANCH   5  10
ATOM     10  C   UNL     1     113.618 122.395 127.141  1.00  0.00    -0.077 C 
ATOM     11  C   UNL     1     112.875 123.502 126.972  1.00  0.00     0.008 C 
ATOM     12  C   UNL     1     113.881 121.514 125.946  1.00  0.00     0.039 C 
ENDBRANCH   5  10
TORSDOF 2
ENDMDL
MODEL 2
REMARK VINA RESULT:    -4.795     14.247     15.854
REMARK INTER + INTRA:          -5.307
REMARK INTER:                  -5.218
REMARK INTRA:                  -0.089
REMARK UNBOUND:                -0.091
REMARK SMILES C=C(C)[C@H]1CC[C@H](C)[C@H](O)C1
REMARK SMILES IDX 8 1 7 2 6 3 5 4 4 5 11 6 9 7 10 8 2 10 1 11 3 12
REMARK H PARENT 10 9
REMARK Flexibility Score: inf
ROOT
ATOM      1  C   UNL     1     123.532 118.211 120.039  1.00  0.00     0.010 C 
ATOM      2  C   UNL     1     124.932 118.760 119.739  1.00  0.00     0.015 C 
ATOM      3  C   UNL     1     124.843 120.051 118.900  1.00  0.00     0.006 C 
ATOM      4  C   UNL     1     126.241 120.588 118.569  1.00  0.00     0.008 C 
ATOM      5  C   UNL     1     127.059 120.829 119.854  1.00  0.00     0.017 C 
ATOM      6  C   UNL     1     127.143 119.542 120.702  1.00  0.00     0.040 C 
ATOM      7  C   UNL     1     125.746 118.992 121.036  1.00  0.00     0.117 C 
ENDROOT
BRANCH   7   8
ATOM      8  O   UNL     1     125.083 119.894 121.888  1.00  0.00    -0.393 OA
ATOM      9  H   UNL     1     125.445 119.754 122.803  1.00  0.00     0.210 HD
ENDBRANCH   7   8
BRANCH   5  10
ATOM     10  C   UNL     1     128.445 121.376 119.536  1.00  0.00    -0.077 C 
ATOM     11  C   UNL     1     128.646 122.687 119.320  1.00  0.00     0.008 C 
ATOM     12  C   UNL     1     129.626 120.443 119.456  1.00  0.00     0.039 C 
ENDBRANCH   5  10
TORSDOF 2
ENDMDL
MODEL 3
REMARK VINA RESULT:    -4.756     10.965     11.596
REMARK INTER + INTRA:          -5.264
REMARK INTER:                  -5.171
REMARK INTRA:                  -0.093
REMARK UNBOUND:                -0.091
REMARK SMILES C=C(C)[C@H]1CC[C@H](C)[C@H](O)C1
REMARK SMILES IDX 8 1 7 2 6 3 5 4 4 5 11 6 9 7 10 8 2 10 1 11 3 12
REMARK H PARENT 10 9
REMARK Flexibility Score: inf
ROOT
ATOM      1  C   UNL     1     118.502 127.989 129.345  1.00  0.00     0.010 C 
ATOM      2  C   UNL     1     119.291 129.190 128.810  1.00  0.00     0.015 C 
ATOM      3  C   UNL     1     118.871 130.484 129.535  1.00  0.00     0.006 C 
ATOM      4  C   UNL     1     119.633 131.695 128.983  1.00  0.00     0.008 C 
ATOM      5  C   UNL     1     121.157 131.483 129.087  1.00  0.00     0.017 C 
ATOM      6  C   UNL     1     121.582 130.183 128.371  1.00  0.00     0.040 C 
ATOM      7  C   UNL     1     120.820 128.963 128.914  1.00  0.00     0.117 C 
ENDROOT
BRANCH   7   8
ATOM      8  O   UNL     1     121.202 128.733 130.248  1.00  0.00    -0.393 OA
ATOM      9  H   UNL     1     120.573 128.061 130.623  1.00  0.00     0.210 HD
ENDBRANCH   7   8
BRANCH   5  10
ATOM     10  C   UNL     1     121.923 132.687 128.553  1.00  0.00    -0.077 C 
ATOM     11  C   UNL     1     123.134 132.549 127.986  1.00  0.00     0.008 C 
ATOM     12  C   UNL     1     121.327 134.068 128.653  1.00  0.00     0.039 C 
ENDBRANCH   5  10
TORSDOF 2
ENDMDL
MODEL 4
REMARK VINA RESULT:    -4.730      1.470      4.562
REMARK INTER + INTRA:          -5.235
REMARK INTER:                  -5.143
REMARK INTRA:                  -0.092
REMARK UNBOUND:                -0.091
REMARK SMILES C=C(C)[C@H]1CC[C@H](C)[C@H](O)C1
REMARK SMILES IDX 8 1 7 2 6 3 5 4 4 5 11 6 9 7 10 8 2 10 1 11 3 12
REMARK H PARENT 10 9
REMARK Flexibility Score: inf
ROOT
ATOM      1  C   UNL     1     113.729 121.865 125.931  1.00  0.00     0.010 C 
ATOM      2  C   UNL     1     113.653 121.533 127.426  1.00  0.00     0.015 C 
ATOM      3  C   UNL     1     114.646 120.410 127.786  1.00  0.00     0.006 C 
ATOM      4  C   UNL     1     114.553 120.051 129.274  1.00  0.00     0.008 C 
ATOM      5  C   UNL     1     114.791 121.291 130.159  1.00  0.00     0.017 C 
ATOM      6  C   UNL     1     113.806 122.423 129.795  1.00  0.00     0.040 C 
ATOM      7  C   UNL     1     113.888 122.788 128.303  1.00  0.00     0.117 C 
ENDROOT
BRANCH   7   8
ATOM      8  O   UNL     1     115.144 123.360 128.034  1.00  0.00    -0.393 OA
ATOM      9  H   UNL     1     114.981 124.266 127.661  1.00  0.00     0.210 HD
ENDBRANCH   7   8
BRANCH   5  10
ATOM     10  C   UNL     1     114.713 120.942 131.639  1.00  0.00    -0.077 C 
ATOM     11  C   UNL     1     113.737 120.152 132.120  1.00  0.00     0.008 C 
ATOM     12  C   UNL     1     115.742 121.482 132.599  1.00  0.00     0.039 C 
ENDBRANCH   5  10
TORSDOF 2
ENDMDL
MODEL 5
REMARK VINA RESULT:    -4.674      1.651      2.438
REMARK INTER + INTRA:          -5.175
REMARK INTER:                  -5.082
REMARK INTRA:                  -0.093
REMARK UNBOUND:                -0.091
REMARK SMILES C=C(C)[C@H]1CC[C@H](C)[C@H](O)C1
REMARK SMILES IDX 8 1 7 2 6 3 5 4 4 5 11 6 9 7 10 8 2 10 1 11 3 12
REMARK H PARENT 10 9
REMARK Flexibility Score: inf
ROOT
ATOM      1  C   UNL     1     116.022 120.696 133.970  1.00  0.00     0.010 C 
ATOM      2  C   UNL     1     115.630 121.213 132.580  1.00  0.00     0.015 C 
ATOM      3  C   UNL     1     116.412 120.466 131.481  1.00  0.00     0.006 C 
ATOM      4  C   UNL     1     116.048 121.000 130.090  1.00  0.00     0.008 C 
ATOM      5  C   UNL     1     114.530 120.903 129.840  1.00  0.00     0.017 C 
ATOM      6  C   UNL     1     113.742 121.640 130.944  1.00  0.00     0.040 C 
ATOM      7  C   UNL     1     114.103 121.115 132.343  1.00  0.00     0.117 C 
ENDROOT
BRANCH   7   8
ATOM      8  O   UNL     1     113.660 119.786 132.469  1.00  0.00    -0.393 OA
ATOM      9  H   UNL     1     114.398 119.268 132.887  1.00  0.00     0.210 HD
ENDBRANCH   7   8
BRANCH   5  10
ATOM     10  C   UNL     1     114.160 121.419 128.455  1.00  0.00    -0.077 C 
ATOM     11  C   UNL     1     113.823 122.705 128.255  1.00  0.00     0.008 C 
ATOM     12  C   UNL     1     114.167 120.484 127.272  1.00  0.00     0.039 C 
ENDBRANCH   5  10
TORSDOF 2
ENDMDL
MODEL 6
REMARK VINA RESULT:    -4.634      1.600      2.324
REMARK INTER + INTRA:          -5.131
REMARK INTER:                  -5.038
REMARK INTRA:                  -0.093
REMARK UNBOUND:                -0.091
REMARK SMILES C=C(C)[C@H]1CC[C@H](C)[C@H](O)C1
REMARK SMILES IDX 8 1 7 2 6 3 5 4 4 5 11 6 9 7 10 8 2 10 1 11 3 12
REMARK H PARENT 10 9
REMARK Flexibility Score: inf
ROOT
ATOM      1  C   UNL     1     115.702 121.784 132.555  1.00  0.00     0.010 C 
ATOM      2  C   UNL     1     115.521 121.656 131.038  1.00  0.00     0.015 C 
ATOM      3  C   UNL     1     114.462 120.587 130.704  1.00  0.00     0.006 C 
ATOM      4  C   UNL     1     114.298 120.432 129.187  1.00  0.00     0.008 C 
ATOM      5  C   UNL     1     113.938 121.779 128.528  1.00  0.00     0.017 C 
ATOM      6  C   UNL     1     114.990 122.856 128.869  1.00  0.00     0.040 C 
ATOM      7  C   UNL     1     115.165 123.016 130.388  1.00  0.00     0.117 C 
ENDROOT
BRANCH   7   8
ATOM      8  O   UNL     1     113.982 123.541 130.939  1.00  0.00    -0.393 OA
ATOM      9  H   UNL     1     114.237 124.328 131.489  1.00  0.00     0.210 HD
ENDBRANCH   7   8
BRANCH   5  10
ATOM     10  C   UNL     1     113.761 121.632 127.023  1.00  0.00    -0.077 C 
ATOM     11  C   UNL     1     114.186 120.534 126.373  1.00  0.00     0.008 C 
ATOM     12  C   UNL     1     113.098 122.728 126.228  1.00  0.00     0.039 C 
ENDBRANCH   5  10
TORSDOF 2
ENDMDL
MODEL 7
REMARK VINA RESULT:    -4.603      1.573      2.097
REMARK INTER + INTRA:          -5.098
REMARK INTER:                  -5.005
REMARK INTRA:                  -0.093
REMARK UNBOUND:                -0.091
REMARK SMILES C=C(C)[C@H]1CC[C@H](C)[C@H](O)C1
REMARK SMILES IDX 8 1 7 2 6 3 5 4 4 5 11 6 9 7 10 8 2 10 1 11 3 12
REMARK H PARENT 10 9
REMARK Flexibility Score: inf
ROOT
ATOM      1  C   UNL     1     115.767 121.658 132.536  1.00  0.00     0.010 C 
ATOM      2  C   UNL     1     115.551 121.614 131.018  1.00  0.00     0.015 C 
ATOM      3  C   UNL     1     114.522 120.529 130.645  1.00  0.00     0.006 C 
ATOM      4  C   UNL     1     114.325 120.458 129.126  1.00  0.00     0.008 C 
ATOM      5  C   UNL     1     113.902 121.828 128.559  1.00  0.00     0.017 C 
ATOM      6  C   UNL     1     114.924 122.920 128.939  1.00  0.00     0.040 C 
ATOM      7  C   UNL     1     115.132 122.996 130.461  1.00  0.00     0.117 C 
ENDROOT
BRANCH   7   8
ATOM      8  O   UNL     1     113.945 123.444 131.070  1.00  0.00    -0.393 OA
ATOM      9  H   UNL     1     114.116 124.362 131.407  1.00  0.00     0.210 HD
ENDBRANCH   7   8
BRANCH   5  10
ATOM     10  C   UNL     1     113.691 121.764 127.051  1.00  0.00    -0.077 C 
ATOM     11  C   UNL     1     113.193 122.811 126.371  1.00  0.00     0.008 C 
ATOM     12  C   UNL     1     114.042 120.511 126.291  1.00  0.00     0.039 C 
ENDBRANCH   5  10
TORSDOF 2
ENDMDL
MODEL 8
REMARK VINA RESULT:    -4.550      2.444      4.060
REMARK INTER + INTRA:          -5.041
REMARK INTER:                  -4.952
REMARK INTRA:                  -0.089
REMARK UNBOUND:                -0.091
REMARK SMILES C=C(C)[C@H]1CC[C@H](C)[C@H](O)C1
REMARK SMILES IDX 8 1 7 2 6 3 5 4 4 5 11 6 9 7 10 8 2 10 1 11 3 12
REMARK H PARENT 10 9
REMARK Flexibility Score: inf
ROOT
ATOM      1  C   UNL     1     117.892 120.874 135.004  1.00  0.00     0.010 C 
ATOM      2  C   UNL     1     117.015 121.224 133.795  1.00  0.00     0.015 C 
ATOM      3  C   UNL     1     117.619 120.649 132.499  1.00  0.00     0.006 C 
ATOM      4  C   UNL     1     116.764 121.022 131.282  1.00  0.00     0.008 C 
ATOM      5  C   UNL     1     115.308 120.546 131.462  1.00  0.00     0.017 C 
ATOM      6  C   UNL     1     114.702 121.110 132.764  1.00  0.00     0.040 C 
ATOM      7  C   UNL     1     115.555 120.745 133.990  1.00  0.00     0.117 C 
ENDROOT
BRANCH   7   8
ATOM      8  O   UNL     1     115.506 119.354 134.193  1.00  0.00    -0.393 OA
ATOM      9  H   UNL     1     116.018 118.932 133.454  1.00  0.00     0.210 HD
ENDBRANCH   7   8
BRANCH   5  10
ATOM     10  C   UNL     1     114.454 120.901 130.251  1.00  0.00    -0.077 C 
ATOM     11  C   UNL     1     114.390 120.092 129.179  1.00  0.00     0.008 C 
ATOM     12  C   UNL     1     113.657 122.180 130.237  1.00  0.00     0.039 C 
ENDBRANCH   5  10
TORSDOF 2
ENDMDL
MODEL 9
REMARK VINA RESULT:    -4.532      1.216      4.419
REMARK INTER + INTRA:          -5.020
REMARK INTER:                  -4.931
REMARK INTRA:                  -0.090
REMARK UNBOUND:                -0.091
REMARK SMILES C=C(C)[C@H]1CC[C@H](C)[C@H](O)C1
REMARK SMILES IDX 8 1 7 2 6 3 5 4 4 5 11 6 9 7 10 8 2 10 1 11 3 12
REMARK H PARENT 10 9
REMARK Flexibility Score: inf
ROOT
ATOM      1  C   UNL     1     113.920 122.664 127.132  1.00  0.00     0.010 C 
ATOM      2  C   UNL     1     114.498 122.417 128.531  1.00  0.00     0.015 C 
ATOM      3  C   UNL     1     113.450 122.732 129.617  1.00  0.00     0.006 C 
ATOM      4  C   UNL     1     114.031 122.517 131.020  1.00  0.00     0.008 C 
ATOM      5  C   UNL     1     114.567 121.080 131.182  1.00  0.00     0.017 C 
ATOM      6  C   UNL     1     115.609 120.755 130.090  1.00  0.00     0.040 C 
ATOM      7  C   UNL     1     115.037 120.972 128.679  1.00  0.00     0.117 C 
ENDROOT
BRANCH   7   8
ATOM      8  O   UNL     1     114.020 120.030 128.440  1.00  0.00    -0.393 OA
ATOM      9  H   UNL     1     113.192 120.538 128.234  1.00  0.00     0.210 HD
ENDBRANCH   7   8
BRANCH   5  10
ATOM     10  C   UNL     1     115.134 120.853 132.577  1.00  0.00    -0.077 C 
ATOM     11  C   UNL     1     114.353 120.921 133.669  1.00  0.00     0.008 C 
ATOM     12  C   UNL     1     116.599 120.544 132.757  1.00  0.00     0.039 C 
ENDBRANCH   5  10
TORSDOF 2
ENDMDL
