MODEL 1
REMARK VINA RESULT:    -1.058      0.000      0.000
REMARK INTER + INTRA:          -5.084
REMARK INTER:                  -2.048
REMARK INTRA:                  -3.036
REMARK UNBOUND:                -3.036
REMARK SMILES CCCCCCCCCCCCCCCCCC(=O)[O-]
REMARK SMILES IDX 10 1 11 2 12 3 13 4 14 5 15 6 16 7 17 8 18 9 19 10 20 11
REMARK SMILES IDX 9 12 8 13 7 14 6 15 5 16 4 17 3 18 2 19 1 20
REMARK H PARENT
REMARK Flexibility Score: inf
ROOT
ATOM      1  C   UNL     1      27.299  -6.971  18.012  1.00  0.00     0.000 C 
ENDROOT
BRANCH   1   2
ATOM      2  C   UNL     1      28.805  -6.811  17.743  1.00  0.00     0.000 C 
BRANCH   2   3
ATOM      3  C   UNL     1      29.534  -6.075  18.878  1.00  0.00     0.000 C 
BRANCH   3   4
ATOM      4  C   UNL     1      30.811  -6.820  19.283  1.00  0.00     0.000 C 
BRANCH   4   5
ATOM      5  C   UNL     1      30.490  -8.013  20.194  1.00  0.00     0.000 C 
BRANCH   5   6
ATOM      6  C   UNL     1      29.606  -7.611  21.396  1.00  0.00     0.000 C 
BRANCH   6   7
ATOM      7  C   UNL     1      28.534  -8.660  21.745  1.00  0.00     0.006 C 
BRANCH   7   8
ATOM      8  C   UNL     1      28.565  -9.123  23.209  1.00  0.00     0.053 C 
BRANCH   8   9
ATOM      9  C   UNL     1      29.873  -9.761  23.565  1.00  0.00     0.041 C 
ATOM     10  O   UNL     1      30.611  -9.250  24.447  1.00  0.00    -0.550 OA
ATOM     11  O   UNL     1      30.276 -10.925  22.921  1.00  0.00    -0.550 OA
ENDBRANCH   8   9
ENDBRANCH   7   8
ENDBRANCH   6   7
ENDBRANCH   5   6
ENDBRANCH   4   5
ENDBRANCH   3   4
ENDBRANCH   2   3
ENDBRANCH   1   2
BRANCH   1  12
ATOM     12  C   UNL     1      26.769  -8.354  17.596  1.00  0.00     0.000 C 
BRANCH  12  13
ATOM     13  C   UNL     1      26.893  -9.404  18.715  1.00  0.00    -0.000 C 
BRANCH  13  14
ATOM     14  C   UNL     1      27.505 -10.750  18.284  1.00  0.00    -0.000 C 
BRANCH  14  15
ATOM     15  C   UNL     1      28.989 -10.880  18.653  1.00  0.00    -0.000 C 
BRANCH  15  16
ATOM     16  C   UNL     1      29.847 -11.124  17.406  1.00  0.00    -0.000 C 
BRANCH  16  17
ATOM     17  C   UNL     1      30.756  -9.923  17.119  1.00  0.00    -0.000 C 
BRANCH  17  18
ATOM     18  C   UNL     1      30.655  -9.494  15.651  1.00  0.00    -0.000 C 
BRANCH  18  19
ATOM     19  C   UNL     1      29.295  -9.879  15.058  1.00  0.00    -0.003 C 
ATOM     20  C   UNL     1      28.603  -8.670  14.435  1.00  0.00     0.004 C 
ENDBRANCH  18  19
ENDBRANCH  17  18
ENDBRANCH  16  17
ENDBRANCH  15  16
ENDBRANCH  14  15
ENDBRANCH  13  14
ENDBRANCH  12  13
ENDBRANCH   1  12
TORSDOF 16
ENDMDL
MODEL 2
REMARK VINA RESULT:    -1.029      1.523      3.066
REMARK INTER + INTRA:          -5.028
REMARK INTER:                  -2.355
REMARK INTRA:                  -2.673
REMARK UNBOUND:                -3.036
REMARK SMILES CCCCCCCCCCCCCCCCCC(=O)[O-]
REMARK SMILES IDX 10 1 11 2 12 3 13 4 14 5 15 6 16 7 17 8 18 9 19 10 20 11
REMARK SMILES IDX 9 12 8 13 7 14 6 15 5 16 4 17 3 18 2 19 1 20
REMARK H PARENT
REMARK Flexibility Score: inf
ROOT
ATOM      1  C   UNL     1      27.120  -8.530  18.012  1.00  0.00     0.000 C 
ENDROOT
BRANCH   1   2
ATOM      2  C   UNL     1      26.757  -9.849  18.716  1.00  0.00     0.000 C 
BRANCH   2   3
ATOM      3  C   UNL     1      26.811  -9.737  20.248  1.00  0.00     0.000 C 
BRANCH   3   4
ATOM      4  C   UNL     1      28.135  -9.115  20.706  1.00  0.00     0.000 C 
BRANCH   4   5
ATOM      5  C   UNL     1      29.142 -10.199  21.117  1.00  0.00     0.000 C 
BRANCH   5   6
ATOM      6  C   UNL     1      30.442  -9.601  21.697  1.00  0.00     0.000 C 
BRANCH   6   7
ATOM      7  C   UNL     1      31.125 -10.510  22.736  1.00  0.00     0.006 C 
BRANCH   7   8
ATOM      8  C   UNL     1      30.604 -10.323  24.169  1.00  0.00     0.053 C 
BRANCH   8   9
ATOM      9  C   UNL     1      30.232  -8.898  24.446  1.00  0.00     0.041 C 
ATOM     10  O   UNL     1      31.125  -8.030  24.622  1.00  0.00    -0.550 OA
ATOM     11  O   UNL     1      28.893  -8.529  24.507  1.00  0.00    -0.550 OA
ENDBRANCH   8   9
ENDBRANCH   7   8
ENDBRANCH   6   7
ENDBRANCH   5   6
ENDBRANCH   4   5
ENDBRANCH   3   4
ENDBRANCH   2   3
ENDBRANCH   1   2
BRANCH   1  12
ATOM     12  C   UNL     1      26.931  -8.604  16.488  1.00  0.00     0.000 C 
BRANCH  12  13
ATOM     13  C   UNL     1      28.028  -7.854  15.711  1.00  0.00    -0.000 C 
BRANCH  13  14
ATOM     14  C   UNL     1      28.811  -8.707  14.696  1.00  0.00    -0.000 C 
BRANCH  14  15
ATOM     15  C   UNL     1      28.848 -10.196  15.065  1.00  0.00    -0.000 C 
BRANCH  15  16
ATOM     16  C   UNL     1      30.178 -10.565  15.732  1.00  0.00    -0.000 C 
BRANCH  16  17
ATOM     17  C   UNL     1      30.000 -10.765  17.242  1.00  0.00    -0.000 C 
BRANCH  17  18
ATOM     18  C   UNL     1      31.030  -9.949  18.032  1.00  0.00    -0.000 C 
BRANCH  18  19
ATOM     19  C   UNL     1      31.122  -8.515  17.498  1.00  0.00    -0.003 C 
ATOM     20  C   UNL     1      30.692  -7.503  18.556  1.00  0.00     0.004 C 
ENDBRANCH  18  19
ENDBRANCH  17  18
ENDBRANCH  16  17
ENDBRANCH  15  16
ENDBRANCH  14  15
ENDBRANCH  13  14
ENDBRANCH  12  13
ENDBRANCH   1  12
TORSDOF 16
ENDMDL
MODEL 3
REMARK VINA RESULT:    -1.003      3.206      5.734
REMARK INTER + INTRA:          -4.978
REMARK INTER:                  -2.090
REMARK INTRA:                  -2.888
REMARK UNBOUND:                -3.036
REMARK SMILES CCCCCCCCCCCCCCCCCC(=O)[O-]
REMARK SMILES IDX 10 1 11 2 12 3 13 4 14 5 15 6 16 7 17 8 18 9 19 10 20 11
REMARK SMILES IDX 9 12 8 13 7 14 6 15 5 16 4 17 3 18 2 19 1 20
REMARK H PARENT
REMARK Flexibility Score: inf
ROOT
ATOM      1  C   UNL     1      27.345  -7.652  14.447  1.00  0.00     0.000 C 
ENDROOT
BRANCH   1   2
ATOM      2  C   UNL     1      28.126  -8.204  13.242  1.00  0.00     0.000 C 
BRANCH   2   3
ATOM      3  C   UNL     1      27.954  -9.721  13.070  1.00  0.00     0.000 C 
BRANCH   3   4
ATOM      4  C   UNL     1      29.117 -10.317  12.267  1.00  0.00     0.000 C 
BRANCH   4   5
ATOM      5  C   UNL     1      30.351 -10.528  13.154  1.00  0.00     0.000 C 
BRANCH   5   6
ATOM      6  C   UNL     1      29.987 -11.125  14.532  1.00  0.00     0.000 C 
BRANCH   6   7
ATOM      7  C   UNL     1      30.870 -10.600  15.679  1.00  0.00     0.006 C 
BRANCH   7   8
ATOM      8  C   UNL     1      30.366 -10.978  17.080  1.00  0.00     0.053 C 
BRANCH   8   9
ATOM      9  C   UNL     1      30.556  -9.861  18.062  1.00  0.00     0.041 C 
ATOM     10  O   UNL     1      31.120  -8.794  17.709  1.00  0.00    -0.550 OA
ATOM     11  O   UNL     1      30.105 -10.002  19.369  1.00  0.00    -0.550 OA
ENDBRANCH   8   9
ENDBRANCH   7   8
ENDBRANCH   6   7
ENDBRANCH   5   6
ENDBRANCH   4   5
ENDBRANCH   3   4
ENDBRANCH   2   3
ENDBRANCH   1   2
BRANCH   1  12
ATOM     12  C   UNL     1      28.042  -7.948  15.786  1.00  0.00     0.000 C 
BRANCH  12  13
ATOM     13  C   UNL     1      27.266  -8.955  16.655  1.00  0.00    -0.000 C 
BRANCH  13  14
ATOM     14  C   UNL     1      25.846  -8.514  17.056  1.00  0.00    -0.000 C 
BRANCH  14  15
ATOM     15  C   UNL     1      24.764  -9.515  16.630  1.00  0.00    -0.000 C 
BRANCH  15  16
ATOM     16  C   UNL     1      25.362 -10.645  15.784  1.00  0.00    -0.000 C 
BRANCH  16  17
ATOM     17  C   UNL     1      24.586 -10.822  14.473  1.00  0.00    -0.000 C 
BRANCH  17  18
ATOM     18  C   UNL     1      24.104  -9.472  13.931  1.00  0.00    -0.000 C 
BRANCH  18  19
ATOM     19  C   UNL     1      24.354  -9.363  12.423  1.00  0.00    -0.003 C 
ATOM     20  C   UNL     1      24.552  -7.910  12.000  1.00  0.00     0.004 C 
ENDBRANCH  18  19
ENDBRANCH  17  18
ENDBRANCH  16  17
ENDBRANCH  15  16
ENDBRANCH  14  15
ENDBRANCH  13  14
ENDBRANCH  12  13
ENDBRANCH   1  12
TORSDOF 16
ENDMDL
MODEL 4
REMARK VINA RESULT:    -0.977      4.510      7.117
REMARK INTER + INTRA:          -4.927
REMARK INTER:                  -1.928
REMARK INTRA:                  -2.999
REMARK UNBOUND:                -3.036
REMARK SMILES CCCCCCCCCCCCCCCCCC(=O)[O-]
REMARK SMILES IDX 10 1 11 2 12 3 13 4 14 5 15 6 16 7 17 8 18 9 19 10 20 11
REMARK SMILES IDX 9 12 8 13 7 14 6 15 5 16 4 17 3 18 2 19 1 20
REMARK H PARENT
REMARK Flexibility Score: inf
ROOT
ATOM      1  C   UNL     1      31.118  -8.793  15.344  1.00  0.00     0.000 C 
ENDROOT
BRANCH   1   2
ATOM      2  C   UNL     1      30.241  -8.003  14.357  1.00  0.00     0.000 C 
BRANCH   2   3
ATOM      3  C   UNL     1      29.983  -8.769  13.050  1.00  0.00     0.000 C 
BRANCH   3   4
ATOM      4  C   UNL     1      30.076 -10.283  13.274  1.00  0.00     0.000 C 
BRANCH   4   5
ATOM      5  C   UNL     1      28.718 -10.864  13.693  1.00  0.00     0.000 C 
BRANCH   5   6
ATOM      6  C   UNL     1      27.568 -10.383  12.780  1.00  0.00     0.000 C 
BRANCH   6   7
ATOM      7  C   UNL     1      26.375  -9.795  13.556  1.00  0.00     0.006 C 
BRANCH   7   8
ATOM      8  C   UNL     1      25.473 -10.851  14.212  1.00  0.00     0.053 C 
BRANCH   8   9
ATOM      9  C   UNL     1      24.177 -11.014  13.476  1.00  0.00     0.041 C 
ATOM     10  O   UNL     1      24.166 -11.115  12.222  1.00  0.00    -0.550 OA
ATOM     11  O   UNL     1      22.979 -11.055  14.180  1.00  0.00    -0.550 OA
ENDBRANCH   8   9
ENDBRANCH   7   8
ENDBRANCH   6   7
ENDBRANCH   5   6
ENDBRANCH   4   5
ENDBRANCH   3   4
ENDBRANCH   2   3
ENDBRANCH   1   2
BRANCH   1  12
ATOM     12  C   UNL     1      31.124  -8.175  16.753  1.00  0.00     0.000 C 
BRANCH  12  13
ATOM     13  C   UNL     1      30.930  -9.221  17.866  1.00  0.00    -0.000 C 
BRANCH  13  14
ATOM     14  C   UNL     1      30.310 -10.554  17.409  1.00  0.00    -0.000 C 
BRANCH  14  15
ATOM     15  C   UNL     1      28.974 -10.864  18.100  1.00  0.00    -0.000 C 
BRANCH  15  16
ATOM     16  C   UNL     1      27.790 -10.470  17.209  1.00  0.00    -0.000 C 
BRANCH  16  17
ATOM     17  C   UNL     1      27.160  -9.154  17.680  1.00  0.00    -0.000 C 
BRANCH  17  18
ATOM     18  C   UNL     1      27.334  -8.052  16.628  1.00  0.00    -0.000 C 
BRANCH  18  19
ATOM     19  C   UNL     1      27.890  -6.771  17.259  1.00  0.00    -0.003 C 
ATOM     20  C   UNL     1      28.066  -6.931  18.767  1.00  0.00     0.004 C 
ENDBRANCH  18  19
ENDBRANCH  17  18
ENDBRANCH  16  17
ENDBRANCH  15  16
ENDBRANCH  14  15
ENDBRANCH  13  14
ENDBRANCH  12  13
ENDBRANCH   1  12
TORSDOF 16
ENDMDL
MODEL 5
REMARK VINA RESULT:    -0.969      4.325      6.491
REMARK INTER + INTRA:          -4.912
REMARK INTER:                  -2.164
REMARK INTRA:                  -2.748
REMARK UNBOUND:                -3.036
REMARK SMILES CCCCCCCCCCCCCCCCCC(=O)[O-]
REMARK SMILES IDX 10 1 11 2 12 3 13 4 14 5 15 6 16 7 17 8 18 9 19 10 20 11
REMARK SMILES IDX 9 12 8 13 7 14 6 15 5 16 4 17 3 18 2 19 1 20
REMARK H PARENT
REMARK Flexibility Score: inf
ROOT
ATOM      1  C   UNL     1      29.405  -9.738  19.335  1.00  0.00     0.000 C 
ENDROOT
BRANCH   1   2
ATOM      2  C   UNL     1      28.535 -10.934  18.911  1.00  0.00     0.000 C 
BRANCH   2   3
ATOM      3  C   UNL     1      27.149 -10.507  18.402  1.00  0.00     0.000 C 
BRANCH   3   4
ATOM      4  C   UNL     1      27.146 -10.365  16.875  1.00  0.00     0.000 C 
BRANCH   4   5
ATOM      5  C   UNL     1      26.708  -8.956  16.452  1.00  0.00     0.000 C 
BRANCH   5   6
ATOM      6  C   UNL     1      27.777  -7.888  16.774  1.00  0.00     0.000 C 
BRANCH   6   7
ATOM      7  C   UNL     1      28.177  -7.034  15.557  1.00  0.00     0.006 C 
BRANCH   7   8
ATOM      8  C   UNL     1      27.218  -7.157  14.364  1.00  0.00     0.053 C 
BRANCH   8   9
ATOM      9  C   UNL     1      27.773  -6.508  13.132  1.00  0.00     0.041 C 
ATOM     10  O   UNL     1      27.877  -7.161  12.061  1.00  0.00    -0.550 OA
ATOM     11  O   UNL     1      28.174  -5.178  13.168  1.00  0.00    -0.550 OA
ENDBRANCH   8   9
ENDBRANCH   7   8
ENDBRANCH   6   7
ENDBRANCH   5   6
ENDBRANCH   4   5
ENDBRANCH   3   4
ENDBRANCH   2   3
ENDBRANCH   1   2
BRANCH   1  12
ATOM     12  C   UNL     1      30.615  -9.530  18.407  1.00  0.00     0.000 C 
BRANCH  12  13
ATOM     13  C   UNL     1      30.701 -10.586  17.290  1.00  0.00    -0.000 C 
BRANCH  13  14
ATOM     14  C   UNL     1      30.767 -10.021  15.860  1.00  0.00    -0.000 C 
BRANCH  14  15
ATOM     15  C   UNL     1      30.170 -10.969  14.811  1.00  0.00    -0.000 C 
BRANCH  15  16
ATOM     16  C   UNL     1      30.494 -10.492  13.390  1.00  0.00    -0.000 C 
BRANCH  16  17
ATOM     17  C   UNL     1      29.249 -10.536  12.496  1.00  0.00    -0.000 C 
BRANCH  17  18
ATOM     18  C   UNL     1      27.967 -10.478  13.335  1.00  0.00    -0.000 C 
BRANCH  18  19
ATOM     19  C   UNL     1      26.793 -11.125  12.591  1.00  0.00    -0.003 C 
ATOM     20  C   UNL     1      25.484 -10.933  13.352  1.00  0.00     0.004 C 
ENDBRANCH  18  19
ENDBRANCH  17  18
ENDBRANCH  16  17
ENDBRANCH  15  16
ENDBRANCH  14  15
ENDBRANCH  13  14
ENDBRANCH  12  13
ENDBRANCH   1  12
TORSDOF 16
ENDMDL
MODEL 6
REMARK VINA RESULT:    -0.933      4.477      7.020
REMARK INTER + INTRA:          -4.842
REMARK INTER:                  -1.926
REMARK INTRA:                  -2.916
REMARK UNBOUND:                -3.036
REMARK SMILES CCCCCCCCCCCCCCCCCC(=O)[O-]
REMARK SMILES IDX 10 1 11 2 12 3 13 4 14 5 15 6 16 7 17 8 18 9 19 10 20 11
REMARK SMILES IDX 9 12 8 13 7 14 6 15 5 16 4 17 3 18 2 19 1 20
REMARK H PARENT
REMARK Flexibility Score: inf
ROOT
ATOM      1  C   UNL     1      27.218  -8.828  19.151  1.00  0.00     0.000 C 
ENDROOT
BRANCH   1   2
ATOM      2  C   UNL     1      25.806  -9.338  18.815  1.00  0.00     0.000 C 
BRANCH   2   3
ATOM      3  C   UNL     1      25.814 -10.751  18.213  1.00  0.00     0.000 C 
BRANCH   3   4
ATOM      4  C   UNL     1      25.820 -10.694  16.681  1.00  0.00     0.000 C 
BRANCH   4   5
ATOM      5  C   UNL     1      24.547 -10.022  16.148  1.00  0.00     0.000 C 
BRANCH   5   6
ATOM      6  C   UNL     1      24.289 -10.351  14.661  1.00  0.00     0.000 C 
BRANCH   6   7
ATOM      7  C   UNL     1      25.554 -10.794  13.903  1.00  0.00     0.006 C 
BRANCH   7   8
ATOM      8  C   UNL     1      25.910  -9.903  12.705  1.00  0.00     0.053 C 
BRANCH   8   9
ATOM      9  C   UNL     1      26.604 -10.674  11.622  1.00  0.00     0.041 C 
ATOM     10  O   UNL     1      27.770 -11.111  11.800  1.00  0.00    -0.550 OA
ATOM     11  O   UNL     1      25.957 -10.912  10.415  1.00  0.00    -0.550 OA
ENDBRANCH   8   9
ENDBRANCH   7   8
ENDBRANCH   6   7
ENDBRANCH   5   6
ENDBRANCH   4   5
ENDBRANCH   3   4
ENDBRANCH   2   3
ENDBRANCH   1   2
BRANCH   1  12
ATOM     12  C   UNL     1      28.253  -9.963  19.227  1.00  0.00     0.000 C 
BRANCH  12  13
ATOM     13  C   UNL     1      29.704  -9.450  19.249  1.00  0.00    -0.000 C 
BRANCH  13  14
ATOM     14  C   UNL     1      30.613 -10.013  18.140  1.00  0.00    -0.000 C 
BRANCH  14  15
ATOM     15  C   UNL     1      29.938 -11.113  17.310  1.00  0.00    -0.000 C 
BRANCH  15  16
ATOM     16  C   UNL     1      30.240 -10.940  15.817  1.00  0.00    -0.000 C 
BRANCH  16  17
ATOM     17  C   UNL     1      29.020 -10.387  15.069  1.00  0.00    -0.000 C 
BRANCH  17  18
ATOM     18  C   UNL     1      29.180  -8.889  14.786  1.00  0.00    -0.000 C 
BRANCH  18  19
ATOM     19  C   UNL     1      28.410  -8.050  15.811  1.00  0.00    -0.003 C 
ATOM     20  C   UNL     1      27.127  -7.483  15.208  1.00  0.00     0.004 C 
ENDBRANCH  18  19
ENDBRANCH  17  18
ENDBRANCH  16  17
ENDBRANCH  15  16
ENDBRANCH  14  15
ENDBRANCH  13  14
ENDBRANCH  12  13
ENDBRANCH   1  12
TORSDOF 16
ENDMDL
MODEL 7
REMARK VINA RESULT:    -0.927      1.629      2.781
REMARK INTER + INTRA:          -4.831
REMARK INTER:                  -1.601
REMARK INTRA:                  -3.230
REMARK UNBOUND:                -3.036
REMARK SMILES CCCCCCCCCCCCCCCCCC(=O)[O-]
REMARK SMILES IDX 10 1 11 2 12 3 13 4 14 5 15 6 16 7 17 8 18 9 19 10 20 11
REMARK SMILES IDX 9 12 8 13 7 14 6 15 5 16 4 17 3 18 2 19 1 20
REMARK H PARENT
REMARK Flexibility Score: inf
ROOT
ATOM      1  C   UNL     1      26.198  -8.302  17.151  1.00  0.00     0.000 C 
ENDROOT
BRANCH   1   2
ATOM      2  C   UNL     1      26.364  -7.443  15.885  1.00  0.00     0.000 C 
BRANCH   2   3
ATOM      3  C   UNL     1      27.438  -6.356  16.044  1.00  0.00     0.000 C 
BRANCH   3   4
ATOM      4  C   UNL     1      26.988  -5.283  17.042  1.00  0.00     0.000 C 
BRANCH   4   5
ATOM      5  C   UNL     1      27.941  -5.212  18.244  1.00  0.00     0.000 C 
BRANCH   5   6
ATOM      6  C   UNL     1      29.279  -5.936  17.975  1.00  0.00     0.000 C 
BRANCH   6   7
ATOM      7  C   UNL     1      30.048  -6.298  19.259  1.00  0.00     0.006 C 
BRANCH   7   8
ATOM      8  C   UNL     1      29.345  -7.344  20.136  1.00  0.00     0.053 C 
BRANCH   8   9
ATOM      9  C   UNL     1      30.312  -8.077  21.016  1.00  0.00     0.041 C 
ATOM     10  O   UNL     1      30.969  -9.051  20.566  1.00  0.00    -0.550 OA
ATOM     11  O   UNL     1      30.489  -7.679  22.336  1.00  0.00    -0.550 OA
ENDBRANCH   8   9
ENDBRANCH   7   8
ENDBRANCH   6   7
ENDBRANCH   5   6
ENDBRANCH   4   5
ENDBRANCH   3   4
ENDBRANCH   2   3
ENDBRANCH   1   2
BRANCH   1  12
ATOM     12  C   UNL     1      25.895  -9.776  16.828  1.00  0.00     0.000 C 
BRANCH  12  13
ATOM     13  C   UNL     1      26.465 -10.748  17.877  1.00  0.00    -0.000 C 
BRANCH  13  14
ATOM     14  C   UNL     1      27.627 -10.193  18.720  1.00  0.00    -0.000 C 
BRANCH  14  15
ATOM     15  C   UNL     1      28.846 -11.125  18.751  1.00  0.00    -0.000 C 
BRANCH  15  16
ATOM     16  C   UNL     1      29.707 -10.946  17.495  1.00  0.00    -0.000 C 
BRANCH  16  17
ATOM     17  C   UNL     1      29.919  -9.460  17.179  1.00  0.00    -0.000 C 
BRANCH  17  18
ATOM     18  C   UNL     1      29.770  -9.189  15.677  1.00  0.00    -0.000 C 
BRANCH  18  19
ATOM     19  C   UNL     1      29.138 -10.388  14.962  1.00  0.00    -0.003 C 
ATOM     20  C   UNL     1      28.214  -9.934  13.835  1.00  0.00     0.004 C 
ENDBRANCH  18  19
ENDBRANCH  17  18
ENDBRANCH  16  17
ENDBRANCH  15  16
ENDBRANCH  14  15
ENDBRANCH  13  14
ENDBRANCH  12  13
ENDBRANCH   1  12
TORSDOF 16
ENDMDL
MODEL 8
REMARK VINA RESULT:    -0.924      1.551      3.390
REMARK INTER + INTRA:          -4.825
REMARK INTER:                  -1.822
REMARK INTRA:                  -3.002
REMARK UNBOUND:                -3.036
REMARK SMILES CCCCCCCCCCCCCCCCCC(=O)[O-]
REMARK SMILES IDX 10 1 11 2 12 3 13 4 14 5 15 6 16 7 17 8 18 9 19 10 20 11
REMARK SMILES IDX 9 12 8 13 7 14 6 15 5 16 4 17 3 18 2 19 1 20
REMARK H PARENT
REMARK Flexibility Score: inf
ROOT
ATOM      1  C   UNL     1      28.373  -6.587  17.756  1.00  0.00     0.000 C 
ENDROOT
BRANCH   1   2
ATOM      2  C   UNL     1      29.481  -6.522  18.822  1.00  0.00     0.000 C 
BRANCH   2   3
ATOM      3  C   UNL     1      28.925  -6.353  20.244  1.00  0.00     0.000 C 
BRANCH   3   4
ATOM      4  C   UNL     1      29.597  -7.331  21.215  1.00  0.00     0.000 C 
BRANCH   4   5
ATOM      5  C   UNL     1      30.870  -7.931  20.602  1.00  0.00     0.000 C 
BRANCH   5   6
ATOM      6  C   UNL     1      31.103  -9.392  21.047  1.00  0.00     0.000 C 
BRANCH   6   7
ATOM      7  C   UNL     1      29.854 -10.051  21.661  1.00  0.00     0.006 C 
BRANCH   7   8
ATOM      8  C   UNL     1      30.156 -10.990  22.839  1.00  0.00     0.053 C 
BRANCH   8   9
ATOM      9  C   UNL     1      30.381 -10.232  24.113  1.00  0.00     0.041 C 
ATOM     10  O   UNL     1      31.124 -10.705  25.011  1.00  0.00    -0.550 OA
ATOM     11  O   UNL     1      29.769  -8.999  24.305  1.00  0.00    -0.550 OA
ENDBRANCH   8   9
ENDBRANCH   7   8
ENDBRANCH   6   7
ENDBRANCH   5   6
ENDBRANCH   4   5
ENDBRANCH   3   4
ENDBRANCH   2   3
ENDBRANCH   1   2
BRANCH   1  12
ATOM     12  C   UNL     1      28.504  -7.819  16.843  1.00  0.00     0.000 C 
BRANCH  12  13
ATOM     13  C   UNL     1      29.636  -8.767  17.277  1.00  0.00    -0.000 C 
BRANCH  13  14
ATOM     14  C   UNL     1      29.174 -10.081  17.932  1.00  0.00    -0.000 C 
BRANCH  14  15
ATOM     15  C   UNL     1      27.681 -10.367  17.717  1.00  0.00    -0.000 C 
BRANCH  15  16
ATOM     16  C   UNL     1      26.975 -10.638  19.051  1.00  0.00    -0.000 C 
BRANCH  16  17
ATOM     17  C   UNL     1      26.814  -9.346  19.862  1.00  0.00    -0.000 C 
BRANCH  17  18
ATOM     18  C   UNL     1      25.391  -8.790  19.735  1.00  0.00    -0.000 C 
BRANCH  18  19
ATOM     19  C   UNL     1      25.405  -7.262  19.616  1.00  0.00    -0.003 C 
ATOM     20  C   UNL     1      23.988  -6.698  19.575  1.00  0.00     0.004 C 
ENDBRANCH  18  19
ENDBRANCH  17  18
ENDBRANCH  16  17
ENDBRANCH  15  16
ENDBRANCH  14  15
ENDBRANCH  13  14
ENDBRANCH  12  13
ENDBRANCH   1  12
TORSDOF 16
ENDMDL
MODEL 9
REMARK VINA RESULT:    -0.910      3.545      6.128
REMARK INTER + INTRA:          -4.798
REMARK INTER:                  -1.863
REMARK INTRA:                  -2.935
REMARK UNBOUND:                -3.036
REMARK SMILES CCCCCCCCCCCCCCCCCC(=O)[O-]
REMARK SMILES IDX 10 1 11 2 12 3 13 4 14 5 15 6 16 7 17 8 18 9 19 10 20 11
REMARK SMILES IDX 9 12 8 13 7 14 6 15 5 16 4 17 3 18 2 19 1 20
REMARK H PARENT
REMARK Flexibility Score: inf
ROOT
ATOM      1  C   UNL     1      28.099 -10.546  20.262  1.00  0.00     0.000 C 
ENDROOT
BRANCH   1   2
ATOM      2  C   UNL     1      26.984  -9.933  19.397  1.00  0.00     0.000 C 
BRANCH   2   3
ATOM      3  C   UNL     1      26.682 -10.767  18.142  1.00  0.00     0.000 C 
BRANCH   3   4
ATOM      4  C   UNL     1      26.507  -9.865  16.914  1.00  0.00     0.000 C 
BRANCH   4   5
ATOM      5  C   UNL     1      27.218  -8.518  17.112  1.00  0.00     0.000 C 
BRANCH   5   6
ATOM      6  C   UNL     1      27.346  -7.724  15.793  1.00  0.00     0.000 C 
BRANCH   6   7
ATOM      7  C   UNL     1      27.531  -8.620  14.554  1.00  0.00     0.006 C 
BRANCH   7   8
ATOM      8  C   UNL     1      28.968  -8.651  14.014  1.00  0.00     0.053 C 
BRANCH   8   9
ATOM      9  C   UNL     1      29.305  -9.976  13.399  1.00  0.00     0.041 C 
ATOM     10  O   UNL     1      30.294 -10.087  12.629  1.00  0.00    -0.550 OA
ATOM     11  O   UNL     1      28.525 -11.091  13.681  1.00  0.00    -0.550 OA
ENDBRANCH   8   9
ENDBRANCH   7   8
ENDBRANCH   6   7
ENDBRANCH   5   6
ENDBRANCH   4   5
ENDBRANCH   3   4
ENDBRANCH   2   3
ENDBRANCH   1   2
BRANCH   1  12
ATOM     12  C   UNL     1      29.006  -9.479  20.898  1.00  0.00     0.000 C 
BRANCH  12  13
ATOM     13  C   UNL     1      28.607  -8.044  20.508  1.00  0.00    -0.000 C 
BRANCH  13  14
ATOM     14  C   UNL     1      29.588  -6.947  20.959  1.00  0.00    -0.000 C 
BRANCH  14  15
ATOM     15  C   UNL     1      30.363  -6.318  19.793  1.00  0.00    -0.000 C 
BRANCH  15  16
ATOM     16  C   UNL     1      31.125  -7.387  18.999  1.00  0.00    -0.000 C 
BRANCH  16  17
ATOM     17  C   UNL     1      30.747  -7.344  17.514  1.00  0.00    -0.000 C 
BRANCH  17  18
ATOM     18  C   UNL     1      31.075  -8.673  16.823  1.00  0.00    -0.000 C 
BRANCH  18  19
ATOM     19  C   UNL     1      30.540  -9.860  17.632  1.00  0.00    -0.003 C 
ATOM     20  C   UNL     1      30.462 -11.121  16.775  1.00  0.00     0.004 C 
ENDBRANCH  18  19
ENDBRANCH  17  18
ENDBRANCH  16  17
ENDBRANCH  15  16
ENDBRANCH  14  15
ENDBRANCH  13  14
ENDBRANCH  12  13
ENDBRANCH   1  12
TORSDOF 16
ENDMDL
