MODEL 1
REMARK VINA RESULT:    -4.338      0.000      0.000
REMARK INTER + INTRA:          -5.135
REMARK INTER:                  -4.972
REMARK INTRA:                  -0.163
REMARK UNBOUND:                -0.163
REMARK SMILES COc1ccc(C=O)c(O)c1
REMARK SMILES IDX 3 1 11 2 9 3 6 4 5 5 4 6 2 7 1 8 10 9 7 11 8 12
REMARK H PARENT 10 10
REMARK Flexibility Score: inf
ROOT
ATOM      1  C   UNL     1     -32.357 -18.888 -30.552  1.00  0.00     0.122 A 
ATOM      2  C   UNL     1     -31.185 -18.879 -29.772  1.00  0.00     0.093 A 
ATOM      3  C   UNL     1     -29.921 -18.890 -30.383  1.00  0.00     0.129 A 
ATOM      4  C   UNL     1     -29.820 -18.911 -31.791  1.00  0.00     0.056 A 
ATOM      5  C   UNL     1     -30.995 -18.918 -32.560  1.00  0.00     0.019 A 
ATOM      6  C   UNL     1     -32.248 -18.907 -31.945  1.00  0.00     0.047 A 
ENDROOT
BRANCH   1   7
ATOM      7  O   UNL     1     -33.639 -18.877 -29.983  1.00  0.00    -0.497 OA
ATOM      8  C   UNL     1     -33.902 -18.983 -28.588  1.00  0.00     0.278 C 
ENDBRANCH   1   7
BRANCH   3   9
ATOM      9  O   UNL     1     -28.774 -18.882 -29.588  1.00  0.00    -0.507 OA
ATOM     10  H   UNL     1     -28.572 -19.631 -28.937  1.00  0.00     0.293 HD
ENDBRANCH   3   9
BRANCH   4  11
ATOM     11  C   UNL     1     -28.518 -18.923 -32.493  1.00  0.00     0.263 C 
ATOM     12  O   UNL     1     -27.427 -18.919 -31.865  1.00  0.00    -0.298 OA
ENDBRANCH   4  11
TORSDOF 3
ENDMDL
MODEL 2
REMARK VINA RESULT:    -4.160      2.770      4.140
REMARK INTER + INTRA:          -4.931
REMARK INTER:                  -4.878
REMARK INTRA:                  -0.053
REMARK UNBOUND:                -0.163
REMARK SMILES COc1ccc(C=O)c(O)c1
REMARK SMILES IDX 3 1 11 2 9 3 6 4 5 5 4 6 2 7 1 8 10 9 7 11 8 12
REMARK H PARENT 10 10
REMARK Flexibility Score: inf
ROOT
ATOM      1  C   UNL     1     -30.990 -21.227 -33.606  1.00  0.00     0.122 A 
ATOM      2  C   UNL     1     -29.959 -20.434 -34.141  1.00  0.00     0.093 A 
ATOM      3  C   UNL     1     -29.145 -19.657 -33.300  1.00  0.00     0.129 A 
ATOM      4  C   UNL     1     -29.361 -19.671 -31.905  1.00  0.00     0.056 A 
ATOM      5  C   UNL     1     -30.392 -20.467 -31.381  1.00  0.00     0.019 A 
ATOM      6  C   UNL     1     -31.196 -21.236 -32.224  1.00  0.00     0.047 A 
ENDROOT
BRANCH   1   7
ATOM      7  O   UNL     1     -31.825 -22.018 -34.409  1.00  0.00    -0.497 OA
ATOM      8  C   UNL     1     -31.650 -22.208 -35.810  1.00  0.00     0.278 C 
ENDBRANCH   1   7
BRANCH   3   9
ATOM      9  O   UNL     1     -28.130 -18.878 -33.856  1.00  0.00    -0.507 OA
ATOM     10  H   UNL     1     -27.638 -18.177 -33.314  1.00  0.00     0.293 HD
ENDBRANCH   3   9
BRANCH   4  11
ATOM     11  C   UNL     1     -28.539 -18.875 -30.968  1.00  0.00     0.263 C 
ATOM     12  O   UNL     1     -28.746 -18.891 -29.726  1.00  0.00    -0.298 OA
ENDBRANCH   4  11
TORSDOF 3
ENDMDL
MODEL 3
REMARK VINA RESULT:    -4.150      2.616      4.255
REMARK INTER + INTRA:          -4.919
REMARK INTER:                  -4.736
REMARK INTRA:                  -0.183
REMARK UNBOUND:                -0.163
REMARK SMILES COc1ccc(C=O)c(O)c1
REMARK SMILES IDX 3 1 11 2 9 3 6 4 5 5 4 6 2 7 1 8 10 9 7 11 8 12
REMARK H PARENT 10 10
REMARK Flexibility Score: inf
ROOT
ATOM      1  C   UNL     1     -31.134 -20.894 -33.148  1.00  0.00     0.122 A 
ATOM      2  C   UNL     1     -30.752 -21.500 -31.937  1.00  0.00     0.093 A 
ATOM      3  C   UNL     1     -30.995 -20.860 -30.710  1.00  0.00     0.129 A 
ATOM      4  C   UNL     1     -31.628 -19.598 -30.689  1.00  0.00     0.056 A 
ATOM      5  C   UNL     1     -32.005 -19.003 -31.903  1.00  0.00     0.019 A 
ATOM      6  C   UNL     1     -31.760 -19.645 -33.117  1.00  0.00     0.047 A 
ENDROOT
BRANCH   1   7
ATOM      7  O   UNL     1     -30.911 -21.497 -34.394  1.00  0.00    -0.497 OA
ATOM      8  C   UNL     1     -31.929 -22.084 -35.198  1.00  0.00     0.278 C 
ENDBRANCH   1   7
BRANCH   3   9
ATOM      9  O   UNL     1     -30.606 -21.482 -29.523  1.00  0.00    -0.507 OA
ATOM     10  H   UNL     1     -29.853 -21.117 -28.952  1.00  0.00     0.293 HD
ENDBRANCH   3   9
BRANCH   4  11
ATOM     11  C   UNL     1     -31.910 -18.875 -29.429  1.00  0.00     0.263 C 
ATOM     12  O   UNL     1     -32.797 -19.266 -28.625  1.00  0.00    -0.298 OA
ENDBRANCH   4  11
TORSDOF 3
ENDMDL
MODEL 4
REMARK VINA RESULT:    -4.000      2.759      3.644
REMARK INTER + INTRA:          -4.748
REMARK INTER:                  -4.560
REMARK INTRA:                  -0.187
REMARK UNBOUND:                -0.163
REMARK SMILES COc1ccc(C=O)c(O)c1
REMARK SMILES IDX 3 1 11 2 9 3 6 4 5 5 4 6 2 7 1 8 10 9 7 11 8 12
REMARK H PARENT 10 10
REMARK Flexibility Score: inf
ROOT
ATOM      1  C   UNL     1     -31.118 -21.456 -33.400  1.00  0.00     0.122 A 
ATOM      2  C   UNL     1     -31.156 -21.331 -31.999  1.00  0.00     0.093 A 
ATOM      3  C   UNL     1     -30.247 -20.495 -31.331  1.00  0.00     0.129 A 
ATOM      4  C   UNL     1     -29.285 -19.772 -32.069  1.00  0.00     0.056 A 
ATOM      5  C   UNL     1     -29.255 -19.902 -33.466  1.00  0.00     0.019 A 
ATOM      6  C   UNL     1     -30.163 -20.735 -34.122  1.00  0.00     0.047 A 
ENDROOT
BRANCH   1   7
ATOM      7  O   UNL     1     -32.006 -22.279 -34.107  1.00  0.00    -0.497 OA
ATOM      8  C   UNL     1     -32.588 -21.943 -35.363  1.00  0.00     0.278 C 
ENDBRANCH   1   7
BRANCH   3   9
ATOM      9  O   UNL     1     -30.306 -20.389 -29.941  1.00  0.00    -0.507 OA
ATOM     10  H   UNL     1     -30.346 -19.490 -29.476  1.00  0.00     0.293 HD
ENDBRANCH   3   9
BRANCH   4  11
ATOM     11  C   UNL     1     -28.300 -18.875 -31.422  1.00  0.00     0.263 C 
ATOM     12  O   UNL     1     -28.122 -18.876 -30.176  1.00  0.00    -0.298 OA
ENDBRANCH   4  11
TORSDOF 3
ENDMDL
MODEL 5
REMARK VINA RESULT:    -3.912      2.503      3.127
REMARK INTER + INTRA:          -4.647
REMARK INTER:                  -4.385
REMARK INTRA:                  -0.262
REMARK UNBOUND:                -0.163
REMARK SMILES COc1ccc(C=O)c(O)c1
REMARK SMILES IDX 3 1 11 2 9 3 6 4 5 5 4 6 2 7 1 8 10 9 7 11 8 12
REMARK H PARENT 10 10
REMARK Flexibility Score: inf
ROOT
ATOM      1  C   UNL     1     -31.835 -19.505 -30.240  1.00  0.00     0.122 A 
ATOM      2  C   UNL     1     -32.362 -19.004 -31.445  1.00  0.00     0.093 A 
ATOM      3  C   UNL     1     -31.915 -19.500 -32.681  1.00  0.00     0.129 A 
ATOM      4  C   UNL     1     -30.930 -20.511 -32.718  1.00  0.00     0.056 A 
ATOM      5  C   UNL     1     -30.412 -21.005 -31.511  1.00  0.00     0.019 A 
ATOM      6  C   UNL     1     -30.861 -20.506 -30.286  1.00  0.00     0.047 A 
ENDROOT
BRANCH   1   7
ATOM      7  O   UNL     1     -32.252 -19.039 -28.985  1.00  0.00    -0.497 OA
ATOM      8  C   UNL     1     -33.613 -18.875 -28.599  1.00  0.00     0.278 C 
ENDBRANCH   1   7
BRANCH   3   9
ATOM      9  O   UNL     1     -32.453 -18.985 -33.861  1.00  0.00    -0.507 OA
ATOM     10  H   UNL     1     -32.793 -18.033 -33.921  1.00  0.00     0.293 HD
ENDBRANCH   3   9
BRANCH   4  11
ATOM     11  C   UNL     1     -30.420 -21.073 -33.988  1.00  0.00     0.263 C 
ATOM     12  O   UNL     1     -31.196 -21.499 -34.883  1.00  0.00    -0.298 OA
ENDBRANCH   4  11
TORSDOF 3
ENDMDL
MODEL 6
REMARK VINA RESULT:    -3.129      6.938      8.428
REMARK INTER + INTRA:          -3.749
REMARK INTER:                  -3.487
REMARK INTRA:                  -0.262
REMARK UNBOUND:                -0.163
REMARK SMILES COc1ccc(C=O)c(O)c1
REMARK SMILES IDX 3 1 11 2 9 3 6 4 5 5 4 6 2 7 1 8 10 9 7 11 8 12
REMARK H PARENT 10 10
REMARK Flexibility Score: inf
ROOT
ATOM      1  C   UNL     1     -32.415 -23.472 -38.244  1.00  0.00     0.122 A 
ATOM      2  C   UNL     1     -32.444 -23.641 -36.847  1.00  0.00     0.093 A 
ATOM      3  C   UNL     1     -32.997 -22.651 -36.019  1.00  0.00     0.129 A 
ATOM      4  C   UNL     1     -33.529 -21.475 -36.589  1.00  0.00     0.056 A 
ATOM      5  C   UNL     1     -33.496 -21.316 -37.983  1.00  0.00     0.019 A 
ATOM      6  C   UNL     1     -32.945 -22.305 -38.800  1.00  0.00     0.047 A 
ENDROOT
BRANCH   1   7
ATOM      7  O   UNL     1     -31.873 -24.435 -39.108  1.00  0.00    -0.497 OA
ATOM      8  C   UNL     1     -32.253 -25.807 -39.124  1.00  0.00     0.278 C 
ENDBRANCH   1   7
BRANCH   3   9
ATOM      9  O   UNL     1     -33.013 -22.843 -34.637  1.00  0.00    -0.507 OA
ATOM     10  H   UNL     1     -33.234 -23.743 -34.226  1.00  0.00     0.293 HD
ENDBRANCH   3   9
BRANCH   4  11
ATOM     11  C   UNL     1     -34.125 -20.396 -35.769  1.00  0.00     0.263 C 
ATOM     12  O   UNL     1     -33.529 -19.919 -34.768  1.00  0.00    -0.298 OA
ENDBRANCH   4  11
TORSDOF 3
ENDMDL
MODEL 7
REMARK VINA RESULT:    -3.102      6.568      7.551
REMARK INTER + INTRA:          -3.719
REMARK INTER:                  -3.450
REMARK INTRA:                  -0.269
REMARK UNBOUND:                -0.163
REMARK SMILES COc1ccc(C=O)c(O)c1
REMARK SMILES IDX 3 1 11 2 9 3 6 4 5 5 4 6 2 7 1 8 10 9 7 11 8 12
REMARK H PARENT 10 10
REMARK Flexibility Score: inf
ROOT
ATOM      1  C   UNL     1     -33.504 -21.029 -35.798  1.00  0.00     0.122 A 
ATOM      2  C   UNL     1     -33.702 -21.308 -37.163  1.00  0.00     0.093 A 
ATOM      3  C   UNL     1     -33.060 -22.400 -37.769  1.00  0.00     0.129 A 
ATOM      4  C   UNL     1     -32.210 -23.229 -37.005  1.00  0.00     0.056 A 
ATOM      5  C   UNL     1     -32.021 -22.943 -35.644  1.00  0.00     0.019 A 
ATOM      6  C   UNL     1     -32.662 -21.855 -35.049  1.00  0.00     0.047 A 
ENDROOT
BRANCH   1   7
ATOM      7  O   UNL     1     -34.125 -19.950 -35.152  1.00  0.00    -0.497 OA
ATOM      8  C   UNL     1     -33.484 -19.104 -34.203  1.00  0.00     0.278 C 
ENDBRANCH   1   7
BRANCH   3   9
ATOM      9  O   UNL     1     -33.272 -22.654 -39.125  1.00  0.00    -0.507 OA
ATOM     10  H   UNL     1     -33.689 -23.518 -39.447  1.00  0.00     0.293 HD
ENDBRANCH   3   9
BRANCH   4  11
ATOM     11  C   UNL     1     -31.507 -24.393 -37.587  1.00  0.00     0.263 C 
ATOM     12  O   UNL     1     -32.080 -25.184 -38.382  1.00  0.00    -0.298 OA
ENDBRANCH   4  11
TORSDOF 3
ENDMDL
