MODEL 1
REMARK VINA RESULT:    -2.749      0.000      0.000
REMARK INTER + INTRA:          -3.646
REMARK INTER:                  -3.311
REMARK INTRA:                  -0.335
REMARK UNBOUND:                -0.335
REMARK SMILES O=c1c(O)c(-c2ccc(O)c(O)c2)oc2cc(O)cc(O)c12
REMARK SMILES IDX 5 1 3 2 2 3 1 4 22 5 20 6 19 7 17 8 16 9 15 10 14 11 6 12
REMARK SMILES IDX 7 13 8 14 9 15 13 16 11 17 10 18 12 20 4 22 21 24 18 26
REMARK H PARENT 10 19 12 21 4 23 21 25 18 27
REMARK Flexibility Score: inf
ROOT
ATOM      1  C   UNL     1       1.290  14.691  14.509  1.00  0.00     0.180 A 
ATOM      2  C   UNL     1       0.045  14.060  14.344  1.00  0.00     0.208 A 
ATOM      3  C   UNL     1      -0.015  12.844  13.645  1.00  0.00     0.238 A 
ATOM      4  O   UNL     1      -1.125  12.258  13.548  1.00  0.00    -0.285 OA
ATOM      5  C   UNL     1       1.166  12.282  13.105  1.00  0.00     0.111 A 
ATOM      6  C   UNL     1       1.215  11.075  12.345  1.00  0.00     0.134 A 
ATOM      7  C   UNL     1       2.456  10.544  11.972  1.00  0.00     0.093 A 
ATOM      8  C   UNL     1       3.644  11.208  12.275  1.00  0.00     0.123 A 
ATOM      9  C   UNL     1       3.604  12.420  12.966  1.00  0.00     0.094 A 
ATOM     10  C   UNL     1       2.384  12.955  13.383  1.00  0.00     0.146 A 
ATOM     11  O   UNL     1       2.390  14.105  14.049  1.00  0.00    -0.452 OA
ENDROOT
BRANCH   1  12
ATOM     12  C   UNL     1       1.432  15.986  15.213  1.00  0.00     0.025 A 
ATOM     13  C   UNL     1       1.310  17.207  14.527  1.00  0.00     0.016 A 
ATOM     14  C   UNL     1       1.471  18.418  15.207  1.00  0.00     0.051 A 
ATOM     15  C   UNL     1       1.769  18.426  16.576  1.00  0.00     0.157 A 
ATOM     16  C   UNL     1       1.752  16.000  16.580  1.00  0.00     0.062 A 
ATOM     17  C   UNL     1       1.914  17.209  17.264  1.00  0.00     0.158 A 
BRANCH  15  18
ATOM     18  O   UNL     1       1.927  19.635  17.252  1.00  0.00    -0.504 OA
ATOM     19  H   UNL     1       1.654  20.516  16.832  1.00  0.00     0.293 HD
ENDBRANCH  15  18
BRANCH  17  20
ATOM     20  O   UNL     1       2.218  17.184  18.625  1.00  0.00    -0.504 OA
ATOM     21  H   UNL     1       2.667  17.963  19.091  1.00  0.00     0.293 HD
ENDBRANCH  17  20
ENDBRANCH   1  12
BRANCH   2  22
ATOM     22  O   UNL     1      -1.106  14.621  14.904  1.00  0.00    -0.502 OA
ATOM     23  H   UNL     1      -1.074  15.259  15.690  1.00  0.00     0.293 HD
ENDBRANCH   2  22
BRANCH   6  24
ATOM     24  O   UNL     1       0.083  10.380  11.910  1.00  0.00    -0.507 OA
ATOM     25  H   UNL     1       0.071   9.407  11.646  1.00  0.00     0.293 HD
ENDBRANCH   6  24
BRANCH   8  26
ATOM     26  O   UNL     1       4.860  10.658  11.875  1.00  0.00    -0.508 OA
ATOM     27  H   UNL     1       5.463  11.131  11.212  1.00  0.00     0.293 HD
ENDBRANCH   8  26
TORSDOF 6
ENDMDL
MODEL 2
REMARK VINA RESULT:    -1.989      1.233      2.803
REMARK INTER + INTRA:          -2.731
REMARK INTER:                  -2.509
REMARK INTRA:                  -0.222
REMARK UNBOUND:                -0.335
REMARK SMILES O=c1c(O)c(-c2ccc(O)c(O)c2)oc2cc(O)cc(O)c12
REMARK SMILES IDX 5 1 3 2 2 3 1 4 22 5 20 6 19 7 17 8 16 9 15 10 14 11 6 12
REMARK SMILES IDX 7 13 8 14 9 15 13 16 11 17 10 18 12 20 4 22 21 24 18 26
REMARK H PARENT 10 19 12 21 4 23 21 25 18 27
REMARK Flexibility Score: inf
ROOT
ATOM      1  C   UNL     1       1.973  14.641  14.307  1.00  0.00     0.180 A 
ATOM      2  C   UNL     1       3.128  14.365  13.556  1.00  0.00     0.208 A 
ATOM      3  C   UNL     1       3.247  13.115  12.925  1.00  0.00     0.238 A 
ATOM      4  O   UNL     1       4.259  12.894  12.211  1.00  0.00    -0.285 OA
ATOM      5  C   UNL     1       2.218  12.153  13.068  1.00  0.00     0.111 A 
ATOM      6  C   UNL     1       2.253  10.841  12.506  1.00  0.00     0.134 A 
ATOM      7  C   UNL     1       1.123  10.020  12.601  1.00  0.00     0.093 A 
ATOM      8  C   UNL     1      -0.015  10.437  13.291  1.00  0.00     0.123 A 
ATOM      9  C   UNL     1      -0.037  11.694  13.895  1.00  0.00     0.094 A 
ATOM     10  C   UNL     1       1.061  12.550  13.786  1.00  0.00     0.146 A 
ATOM     11  O   UNL     1       0.996  13.744  14.366  1.00  0.00    -0.452 OA
ENDROOT
BRANCH   1  12
ATOM     12  C   UNL     1       1.785  15.926  15.020  1.00  0.00     0.025 A 
ATOM     13  C   UNL     1       1.556  17.123  14.320  1.00  0.00     0.016 A 
ATOM     14  C   UNL     1       1.405  18.328  15.013  1.00  0.00     0.051 A 
ATOM     15  C   UNL     1       1.494  18.356  16.411  1.00  0.00     0.157 A 
ATOM     16  C   UNL     1       1.894  15.963  16.419  1.00  0.00     0.062 A 
ATOM     17  C   UNL     1       1.744  17.167  17.117  1.00  0.00     0.158 A 
BRANCH  15  18
ATOM     18  O   UNL     1       1.341  19.559  17.099  1.00  0.00    -0.504 OA
ATOM     19  H   UNL     1       1.989  19.841  17.825  1.00  0.00     0.293 HD
ENDBRANCH  15  18
BRANCH  17  20
ATOM     20  O   UNL     1       1.845  17.162  18.507  1.00  0.00    -0.504 OA
ATOM     21  H   UNL     1       1.929  16.304  19.039  1.00  0.00     0.293 HD
ENDBRANCH  17  20
ENDBRANCH   1  12
BRANCH   2  22
ATOM     22  O   UNL     1       4.121  15.337  13.411  1.00  0.00    -0.502 OA
ATOM     23  H   UNL     1       3.987  16.299  13.696  1.00  0.00     0.293 HD
ENDBRANCH   2  22
BRANCH   6  24
ATOM     24  O   UNL     1       3.373  10.292  11.875  1.00  0.00    -0.507 OA
ATOM     25  H   UNL     1       3.966   9.580  12.274  1.00  0.00     0.293 HD
ENDBRANCH   6  24
BRANCH   8  26
ATOM     26  O   UNL     1      -1.115   9.587  13.378  1.00  0.00    -0.508 OA
ATOM     27  H   UNL     1      -1.619   9.286  12.552  1.00  0.00     0.293 HD
ENDBRANCH   8  26
TORSDOF 6
ENDMDL
MODEL 3
REMARK VINA RESULT:    -1.469      1.544      6.942
REMARK INTER + INTRA:          -2.105
REMARK INTER:                  -1.880
REMARK INTRA:                  -0.225
REMARK UNBOUND:                -0.335
REMARK SMILES O=c1c(O)c(-c2ccc(O)c(O)c2)oc2cc(O)cc(O)c12
REMARK SMILES IDX 5 1 3 2 2 3 1 4 22 5 20 6 19 7 17 8 16 9 15 10 14 11 6 12
REMARK SMILES IDX 7 13 8 14 9 15 13 16 11 17 10 18 12 20 4 22 21 24 18 26
REMARK H PARENT 10 19 12 21 4 23 21 25 18 27
REMARK Flexibility Score: inf
ROOT
ATOM      1  C   UNL     1       0.794  13.999  14.970  1.00  0.00     0.180 A 
ATOM      2  C   UNL     1       0.901  13.941  16.370  1.00  0.00     0.208 A 
ATOM      3  C   UNL     1       1.248  15.106  17.075  1.00  0.00     0.238 A 
ATOM      4  O   UNL     1       1.289  15.061  18.332  1.00  0.00    -0.285 OA
ATOM      5  C   UNL     1       1.500  16.307  16.370  1.00  0.00     0.111 A 
ATOM      6  C   UNL     1       1.897  17.535  16.978  1.00  0.00     0.134 A 
ATOM      7  C   UNL     1       1.991  18.695  16.197  1.00  0.00     0.093 A 
ATOM      8  C   UNL     1       1.766  18.656  14.822  1.00  0.00     0.123 A 
ATOM      9  C   UNL     1       1.435  17.448  14.207  1.00  0.00     0.094 A 
ATOM     10  C   UNL     1       1.298  16.283  14.965  1.00  0.00     0.146 A 
ATOM     11  O   UNL     1       0.971  15.156  14.344  1.00  0.00    -0.452 OA
ENDROOT
BRANCH   1  12
ATOM     12  C   UNL     1       0.457  12.808  14.156  1.00  0.00     0.025 A 
ATOM     13  C   UNL     1      -0.835  12.253  14.173  1.00  0.00     0.016 A 
ATOM     14  C   UNL     1      -1.125  11.115  13.416  1.00  0.00     0.051 A 
ATOM     15  C   UNL     1      -0.127  10.508  12.641  1.00  0.00     0.157 A 
ATOM     16  C   UNL     1       1.458  12.184  13.395  1.00  0.00     0.062 A 
ATOM     17  C   UNL     1       1.172  11.044  12.635  1.00  0.00     0.158 A 
BRANCH  15  18
ATOM     18  O   UNL     1      -0.420   9.374  11.885  1.00  0.00    -0.504 OA
ATOM     19  H   UNL     1       0.311   8.767  11.534  1.00  0.00     0.293 HD
ENDBRANCH  15  18
BRANCH  17  20
ATOM     20  O   UNL     1       2.188  10.460  11.881  1.00  0.00    -0.504 OA
ATOM     21  H   UNL     1       3.121  10.318  12.251  1.00  0.00     0.293 HD
ENDBRANCH  17  20
ENDBRANCH   1  12
BRANCH   2  22
ATOM     22  O   UNL     1       0.628  12.750  17.048  1.00  0.00    -0.502 OA
ATOM     23  H   UNL     1       0.769  11.840  16.628  1.00  0.00     0.293 HD
ENDBRANCH   2  22
BRANCH   6  24
ATOM     24  O   UNL     1       2.235  17.664  18.329  1.00  0.00    -0.507 OA
ATOM     25  H   UNL     1       3.178  17.693  18.686  1.00  0.00     0.293 HD
ENDBRANCH   6  24
BRANCH   8  26
ATOM     26  O   UNL     1       1.883  19.825  14.074  1.00  0.00    -0.508 OA
ATOM     27  H   UNL     1       1.758  19.826  13.068  1.00  0.00     0.293 HD
ENDBRANCH   8  26
TORSDOF 6
ENDMDL
MODEL 4
REMARK VINA RESULT:    -1.212      1.760      6.997
REMARK INTER + INTRA:          -1.795
REMARK INTER:                  -1.525
REMARK INTRA:                  -0.270
REMARK UNBOUND:                -0.335
REMARK SMILES O=c1c(O)c(-c2ccc(O)c(O)c2)oc2cc(O)cc(O)c12
REMARK SMILES IDX 5 1 3 2 2 3 1 4 22 5 20 6 19 7 17 8 16 9 15 10 14 11 6 12
REMARK SMILES IDX 7 13 8 14 9 15 13 16 11 17 10 18 12 20 4 22 21 24 18 26
REMARK H PARENT 10 19 12 21 4 23 21 25 18 27
REMARK Flexibility Score: inf
ROOT
ATOM      1  C   UNL     1       1.791  14.501  14.550  1.00  0.00     0.180 A 
ATOM      2  C   UNL     1       2.119  14.738  15.896  1.00  0.00     0.208 A 
ATOM      3  C   UNL     1       1.767  15.968  16.476  1.00  0.00     0.238 A 
ATOM      4  O   UNL     1       2.015  16.153  17.696  1.00  0.00    -0.285 OA
ATOM      5  C   UNL     1       1.109  16.951  15.699  1.00  0.00     0.111 A 
ATOM      6  C   UNL     1       0.743  18.247  16.173  1.00  0.00     0.134 A 
ATOM      7  C   UNL     1      -0.022  19.090  15.356  1.00  0.00     0.093 A 
ATOM      8  C   UNL     1      -0.377  18.711  14.062  1.00  0.00     0.123 A 
ATOM      9  C   UNL     1       0.027  17.470  13.568  1.00  0.00     0.094 A 
ATOM     10  C   UNL     1       0.759  16.593  14.371  1.00  0.00     0.146 A 
ATOM     11  O   UNL     1       1.115  15.417  13.867  1.00  0.00    -0.452 OA
ENDROOT
BRANCH   1  12
ATOM     12  C   UNL     1       2.150  13.240  13.862  1.00  0.00     0.025 A 
ATOM     13  C   UNL     1       3.205  13.187  12.935  1.00  0.00     0.016 A 
ATOM     14  C   UNL     1       3.510  11.991  12.279  1.00  0.00     0.051 A 
ATOM     15  C   UNL     1       2.757  10.836  12.529  1.00  0.00     0.157 A 
ATOM     16  C   UNL     1       1.386  12.085  14.093  1.00  0.00     0.062 A 
ATOM     17  C   UNL     1       1.688  10.885  13.439  1.00  0.00     0.158 A 
BRANCH  15  18
ATOM     18  O   UNL     1       3.066   9.644  11.875  1.00  0.00    -0.504 OA
ATOM     19  H   UNL     1       2.754   8.748  12.231  1.00  0.00     0.293 HD
ENDBRANCH  15  18
BRANCH  17  20
ATOM     20  O   UNL     1       0.916   9.755  13.704  1.00  0.00    -0.504 OA
ATOM     21  H   UNL     1       1.258   8.816  13.535  1.00  0.00     0.293 HD
ENDBRANCH  17  20
ENDBRANCH   1  12
BRANCH   2  22
ATOM     22  O   UNL     1       2.750  13.746  16.652  1.00  0.00    -0.502 OA
ATOM     23  H   UNL     1       2.789  12.779  16.355  1.00  0.00     0.293 HD
ENDBRANCH   2  22
BRANCH   6  24
ATOM     24  O   UNL     1       1.125  18.760  17.416  1.00  0.00    -0.507 OA
ATOM     25  H   UNL     1       1.968  19.287  17.586  1.00  0.00     0.293 HD
ENDBRANCH   6  24
BRANCH   8  26
ATOM     26  O   UNL     1      -1.125  19.581  13.273  1.00  0.00    -0.508 OA
ATOM     27  H   UNL     1      -1.343  19.366  12.306  1.00  0.00     0.293 HD
ENDBRANCH   8  26
TORSDOF 6
ENDMDL
MODEL 5
REMARK VINA RESULT:    -1.158      3.498      7.375
REMARK INTER + INTRA:          -1.729
REMARK INTER:                  -1.989
REMARK INTRA:                   0.260
REMARK UNBOUND:                -0.335
REMARK SMILES O=c1c(O)c(-c2ccc(O)c(O)c2)oc2cc(O)cc(O)c12
REMARK SMILES IDX 5 1 3 2 2 3 1 4 22 5 20 6 19 7 17 8 16 9 15 10 14 11 6 12
REMARK SMILES IDX 7 13 8 14 9 15 13 16 11 17 10 18 12 20 4 22 21 24 18 26
REMARK H PARENT 10 19 12 21 4 23 21 25 18 27
REMARK Flexibility Score: inf
ROOT
ATOM      1  C   UNL     1       3.231  11.139  12.360  1.00  0.00     0.180 A 
ATOM      2  C   UNL     1       1.846  11.332  12.220  1.00  0.00     0.208 A 
ATOM      3  C   UNL     1       1.350  12.640  12.089  1.00  0.00     0.238 A 
ATOM      4  O   UNL     1       0.115  12.802  11.910  1.00  0.00    -0.285 OA
ATOM      5  C   UNL     1       2.244  13.738  12.118  1.00  0.00     0.111 A 
ATOM      6  C   UNL     1       1.847  15.106  12.035  1.00  0.00     0.134 A 
ATOM      7  C   UNL     1       2.826  16.104  11.941  1.00  0.00     0.093 A 
ATOM      8  C   UNL     1       4.183  15.789  11.992  1.00  0.00     0.123 A 
ATOM      9  C   UNL     1       4.581  14.458  12.133  1.00  0.00     0.094 A 
ATOM     10  C   UNL     1       3.629  13.438  12.192  1.00  0.00     0.146 A 
ATOM     11  O   UNL     1       4.048  12.184  12.315  1.00  0.00    -0.452 OA
ENDROOT
BRANCH   1  12
ATOM     12  C   UNL     1       3.827   9.793  12.526  1.00  0.00     0.025 A 
ATOM     13  C   UNL     1       3.109   8.745  13.129  1.00  0.00     0.016 A 
ATOM     14  C   UNL     1       3.699   7.490  13.297  1.00  0.00     0.051 A 
ATOM     15  C   UNL     1       5.018   7.267  12.879  1.00  0.00     0.157 A 
ATOM     16  C   UNL     1       5.154   9.570  12.128  1.00  0.00     0.062 A 
ATOM     17  C   UNL     1       5.750   8.315  12.295  1.00  0.00     0.158 A 
BRANCH  15  18
ATOM     18  O   UNL     1       5.603   6.013  13.046  1.00  0.00    -0.504 OA
ATOM     19  H   UNL     1       6.577   5.848  12.821  1.00  0.00     0.293 HD
ENDBRANCH  15  18
BRANCH  17  20
ATOM     20  O   UNL     1       7.066   8.127  11.875  1.00  0.00    -0.504 OA
ATOM     21  H   UNL     1       7.295   7.610  11.035  1.00  0.00     0.293 HD
ENDBRANCH  17  20
ENDBRANCH   1  12
BRANCH   2  22
ATOM     22  O   UNL     1       0.984  10.233  12.172  1.00  0.00    -0.502 OA
ATOM     23  H   UNL     1       0.663   9.757  13.006  1.00  0.00     0.293 HD
ENDBRANCH   2  22
BRANCH   6  24
ATOM     24  O   UNL     1       0.518  15.537  12.069  1.00  0.00    -0.507 OA
ATOM     25  H   UNL     1      -0.245  15.088  11.585  1.00  0.00     0.293 HD
ENDBRANCH   6  24
BRANCH   8  26
ATOM     26  O   UNL     1       5.129  16.808  11.911  1.00  0.00    -0.508 OA
ATOM     27  H   UNL     1       6.112  16.608  11.771  1.00  0.00     0.293 HD
ENDBRANCH   8  26
TORSDOF 6
ENDMDL
MODEL 6
REMARK VINA RESULT:    -0.933      3.395      5.910
REMARK INTER + INTRA:          -1.459
REMARK INTER:                  -1.963
REMARK INTRA:                   0.504
REMARK UNBOUND:                -0.335
REMARK SMILES O=c1c(O)c(-c2ccc(O)c(O)c2)oc2cc(O)cc(O)c12
REMARK SMILES IDX 5 1 3 2 2 3 1 4 22 5 20 6 19 7 17 8 16 9 15 10 14 11 6 12
REMARK SMILES IDX 7 13 8 14 9 15 13 16 11 17 10 18 12 20 4 22 21 24 18 26
REMARK H PARENT 10 19 12 21 4 23 21 25 18 27
REMARK Flexibility Score: inf
ROOT
ATOM      1  C   UNL     1       0.733  14.703  16.301  1.00  0.00     0.180 A 
ATOM      2  C   UNL     1       1.876  14.293  15.594  1.00  0.00     0.208 A 
ATOM      3  C   UNL     1       2.254  15.001  14.442  1.00  0.00     0.238 A 
ATOM      4  O   UNL     1       3.308  14.662  13.844  1.00  0.00    -0.285 OA
ATOM      5  C   UNL     1       1.476  16.099  14.002  1.00  0.00     0.111 A 
ATOM      6  C   UNL     1       1.743  16.862  12.826  1.00  0.00     0.134 A 
ATOM      7  C   UNL     1       0.984  18.008  12.559  1.00  0.00     0.093 A 
ATOM      8  C   UNL     1      -0.073  18.380  13.388  1.00  0.00     0.123 A 
ATOM      9  C   UNL     1      -0.382  17.607  14.508  1.00  0.00     0.094 A 
ATOM     10  C   UNL     1       0.381  16.480  14.821  1.00  0.00     0.146 A 
ATOM     11  O   UNL     1       0.062  15.777  15.902  1.00  0.00    -0.452 OA
ENDROOT
BRANCH   1  12
ATOM     12  C   UNL     1       0.257  13.993  17.511  1.00  0.00     0.025 A 
ATOM     13  C   UNL     1      -0.708  14.561  18.360  1.00  0.00     0.016 A 
ATOM     14  C   UNL     1      -1.125  13.884  19.509  1.00  0.00     0.051 A 
ATOM     15  C   UNL     1      -0.574  12.637  19.834  1.00  0.00     0.157 A 
ATOM     16  C   UNL     1       0.821  12.753  17.852  1.00  0.00     0.062 A 
ATOM     17  C   UNL     1       0.406  12.071  19.002  1.00  0.00     0.158 A 
BRANCH  15  18
ATOM     18  O   UNL     1      -0.994  11.963  20.980  1.00  0.00    -0.504 OA
ATOM     19  H   UNL     1      -1.863  12.197  21.444  1.00  0.00     0.293 HD
ENDBRANCH  15  18
BRANCH  17  20
ATOM     20  O   UNL     1       0.979  10.835  19.301  1.00  0.00    -0.504 OA
ATOM     21  H   UNL     1       1.528  10.684  20.139  1.00  0.00     0.293 HD
ENDBRANCH  17  20
ENDBRANCH   1  12
BRANCH   2  22
ATOM     22  O   UNL     1       2.642  13.220  16.057  1.00  0.00    -0.502 OA
ATOM     23  H   UNL     1       2.836  13.074  17.040  1.00  0.00     0.293 HD
ENDBRANCH   2  22
BRANCH   6  24
ATOM     24  O   UNL     1       2.718  16.525  11.882  1.00  0.00    -0.507 OA
ATOM     25  H   UNL     1       3.321  15.718  11.941  1.00  0.00     0.293 HD
ENDBRANCH   6  24
BRANCH   8  26
ATOM     26  O   UNL     1      -0.818  19.517  13.084  1.00  0.00    -0.508 OA
ATOM     27  H   UNL     1      -0.753  20.360  13.644  1.00  0.00     0.293 HD
ENDBRANCH   8  26
TORSDOF 6
ENDMDL
MODEL 7
REMARK VINA RESULT:    -0.408      1.848      6.919
REMARK INTER + INTRA:          -0.826
REMARK INTER:                  -0.570
REMARK INTRA:                  -0.256
REMARK UNBOUND:                -0.335
REMARK SMILES O=c1c(O)c(-c2ccc(O)c(O)c2)oc2cc(O)cc(O)c12
REMARK SMILES IDX 5 1 3 2 2 3 1 4 22 5 20 6 19 7 17 8 16 9 15 10 14 11 6 12
REMARK SMILES IDX 7 13 8 14 9 15 13 16 11 17 10 18 12 20 4 22 21 24 18 26
REMARK H PARENT 10 19 12 21 4 23 21 25 18 27
REMARK Flexibility Score: inf
ROOT
ATOM      1  C   UNL     1       0.876  14.580  14.226  1.00  0.00     0.180 A 
ATOM      2  C   UNL     1       1.101  15.538  13.223  1.00  0.00     0.208 A 
ATOM      3  C   UNL     1       1.433  16.851  13.597  1.00  0.00     0.238 A 
ATOM      4  O   UNL     1       1.686  17.690  12.694  1.00  0.00    -0.285 OA
ATOM      5  C   UNL     1       1.519  17.192  14.968  1.00  0.00     0.111 A 
ATOM      6  C   UNL     1       1.808  18.500  15.460  1.00  0.00     0.134 A 
ATOM      7  C   UNL     1       1.998  18.695  16.834  1.00  0.00     0.093 A 
ATOM      8  C   UNL     1       1.845  17.644  17.738  1.00  0.00     0.123 A 
ATOM      9  C   UNL     1       1.503  16.374  17.272  1.00  0.00     0.094 A 
ATOM     10  C   UNL     1       1.344  16.141  15.905  1.00  0.00     0.146 A 
ATOM     11  O   UNL     1       1.029  14.915  15.501  1.00  0.00    -0.452 OA
ENDROOT
BRANCH   1  12
ATOM     12  C   UNL     1       0.498  13.183  13.911  1.00  0.00     0.025 A 
ATOM     13  C   UNL     1      -0.781  12.863  13.425  1.00  0.00     0.016 A 
ATOM     14  C   UNL     1      -1.124  11.535  13.157  1.00  0.00     0.051 A 
ATOM     15  C   UNL     1      -0.199  10.507  13.385  1.00  0.00     0.157 A 
ATOM     16  C   UNL     1       1.413  12.147  14.158  1.00  0.00     0.062 A 
ATOM     17  C   UNL     1       1.074  10.815  13.891  1.00  0.00     0.158 A 
BRANCH  15  18
ATOM     18  O   UNL     1      -0.544   9.183  13.115  1.00  0.00    -0.504 OA
ATOM     19  H   UNL     1       0.108   8.545  12.674  1.00  0.00     0.293 HD
ENDBRANCH  15  18
BRANCH  17  20
ATOM     20  O   UNL     1       2.014   9.815  14.136  1.00  0.00    -0.504 OA
ATOM     21  H   UNL     1       2.195   9.462  15.068  1.00  0.00     0.293 HD
ENDBRANCH  17  20
ENDBRANCH   1  12
BRANCH   2  22
ATOM     22  O   UNL     1       1.032  15.175  11.875  1.00  0.00    -0.502 OA
ATOM     23  H   UNL     1       0.160  15.158  11.360  1.00  0.00     0.293 HD
ENDBRANCH   2  22
BRANCH   6  24
ATOM     24  O   UNL     1       1.892  19.638  14.651  1.00  0.00    -0.507 OA
ATOM     25  H   UNL     1       2.712  19.918  14.136  1.00  0.00     0.293 HD
ENDBRANCH   6  24
BRANCH   8  26
ATOM     26  O   UNL     1       2.026  17.877  19.099  1.00  0.00    -0.508 OA
ATOM     27  H   UNL     1       2.951  17.918  19.512  1.00  0.00     0.293 HD
ENDBRANCH   8  26
TORSDOF 6
ENDMDL
