MODEL 1
REMARK VINA RESULT:    -6.871      0.000      0.000
REMARK INTER + INTRA:         -12.356
REMARK INTER:                 -10.486
REMARK INTRA:                  -1.870
REMARK UNBOUND:                -1.870
REMARK SMILES CC(=O)CCC=C(C)CCC=C(C)CCC=C(C)C
REMARK SMILES IDX 10 1 11 2 12 3 13 4 14 5 15 6 16 7 18 8 17 9 19 10 9 11 7 12
REMARK SMILES IDX 6 13 8 14 5 15 4 16 2 17 3 18 1 19
REMARK H PARENT
REMARK Flexibility Score: inf
ROOT
ATOM      1  C   UNL     1     -13.786 -35.735  36.503  1.00  0.00     0.032 C 
ENDROOT
BRANCH   1   2
ATOM      2  C   UNL     1     -14.017 -36.476  37.796  1.00  0.00    -0.028 C 
ATOM      3  C   UNL     1     -14.387 -35.890  38.958  1.00  0.00    -0.077 C 
ATOM      4  C   UNL     1     -14.697 -34.414  39.048  1.00  0.00     0.039 C 
BRANCH   3   5
ATOM      5  C   UNL     1     -14.570 -36.747  40.190  1.00  0.00     0.034 C 
BRANCH   5   6
ATOM      6  C   UNL     1     -13.216 -37.240  40.710  1.00  0.00     0.032 C 
BRANCH   6   7
ATOM      7  C   UNL     1     -13.334 -38.632  41.278  1.00  0.00    -0.028 C 
ATOM      8  C   UNL     1     -13.460 -41.086  41.249  1.00  0.00     0.039 C 
ATOM      9  C   UNL     1     -13.293 -39.765  40.543  1.00  0.00    -0.080 C 
ATOM     10  C   UNL     1     -13.066 -39.743  39.049  1.00  0.00     0.039 C 
ENDBRANCH   6   7
ENDBRANCH   5   6
ENDBRANCH   3   5
ENDBRANCH   1   2
BRANCH   1  11
ATOM     11  C   UNL     1     -12.412 -35.056  36.502  1.00  0.00     0.034 C 
BRANCH  11  12
ATOM     12  C   UNL     1     -11.322 -36.053  36.823  1.00  0.00    -0.077 C 
ATOM     13  C   UNL     1     -10.683 -35.968  38.012  1.00  0.00    -0.028 C 
ATOM     14  C   UNL     1     -11.006 -37.138  35.821  1.00  0.00     0.039 C 
BRANCH  13  15
ATOM     15  C   UNL     1      -9.569 -36.886  38.452  1.00  0.00     0.035 C 
BRANCH  15  16
ATOM     16  C   UNL     1     -10.080 -37.918  39.460  1.00  0.00     0.079 C 
BRANCH  16  17
ATOM     17  C   UNL     1      -9.208 -37.940  40.686  1.00  0.00     0.130 C 
ATOM     18  O   UNL     1      -8.062 -37.521  40.622  1.00  0.00    -0.300 OA
ATOM     19  C   UNL     1      -9.733 -38.477  41.982  1.00  0.00     0.087 C 
ENDBRANCH  16  17
ENDBRANCH  15  16
ENDBRANCH  13  15
ENDBRANCH  11  12
ENDBRANCH   1  11
TORSDOF 9
ENDMDL
MODEL 2
REMARK VINA RESULT:    -6.776      1.862      3.598
REMARK INTER + INTRA:         -12.211
REMARK INTER:                 -10.304
REMARK INTRA:                  -1.907
REMARK UNBOUND:                -1.870
REMARK SMILES CC(=O)CCC=C(C)CCC=C(C)CCC=C(C)C
REMARK SMILES IDX 10 1 11 2 12 3 13 4 14 5 15 6 16 7 18 8 17 9 19 10 9 11 7 12
REMARK SMILES IDX 6 13 8 14 5 15 4 16 2 17 3 18 1 19
REMARK H PARENT
REMARK Flexibility Score: inf
ROOT
ATOM      1  C   UNL     1     -14.613 -36.923  39.268  1.00  0.00     0.032 C 
ENDROOT
BRANCH   1   2
ATOM      2  C   UNL     1     -14.114 -37.240  40.656  1.00  0.00    -0.028 C 
ATOM      3  C   UNL     1     -12.832 -37.556  40.954  1.00  0.00    -0.077 C 
ATOM      4  C   UNL     1     -11.738 -37.530  39.913  1.00  0.00     0.039 C 
BRANCH   3   5
ATOM      5  C   UNL     1     -12.465 -37.870  42.386  1.00  0.00     0.034 C 
BRANCH   5   6
ATOM      6  C   UNL     1     -12.937 -39.276  42.768  1.00  0.00     0.032 C 
BRANCH   6   7
ATOM      7  C   UNL     1     -12.031 -40.325  42.176  1.00  0.00    -0.028 C 
ATOM      8  C   UNL     1     -11.395 -42.232  40.761  1.00  0.00     0.039 C 
ATOM      9  C   UNL     1     -12.406 -41.218  41.233  1.00  0.00    -0.080 C 
ATOM     10  C   UNL     1     -13.792 -41.212  40.631  1.00  0.00     0.039 C 
ENDBRANCH   6   7
ENDBRANCH   5   6
ENDBRANCH   3   5
ENDBRANCH   1   2
BRANCH   1  11
ATOM     11  C   UNL     1     -14.714 -35.409  39.057  1.00  0.00     0.034 C 
BRANCH  11  12
ATOM     12  C   UNL     1     -13.628 -34.925  38.122  1.00  0.00    -0.077 C 
ATOM     13  C   UNL     1     -13.204 -35.740  37.130  1.00  0.00    -0.028 C 
ATOM     14  C   UNL     1     -13.076 -33.531  38.304  1.00  0.00     0.039 C 
BRANCH  13  15
ATOM     15  C   UNL     1     -12.120 -35.390  36.141  1.00  0.00     0.035 C 
BRANCH  15  16
ATOM     16  C   UNL     1     -11.596 -36.646  35.438  1.00  0.00     0.079 C 
BRANCH  16  17
ATOM     17  C   UNL     1     -10.663 -37.409  36.339  1.00  0.00     0.130 C 
ATOM     18  O   UNL     1     -10.900 -38.577  36.607  1.00  0.00    -0.300 OA
ATOM     19  C   UNL     1      -9.451 -36.744  36.915  1.00  0.00     0.087 C 
ENDBRANCH  16  17
ENDBRANCH  15  16
ENDBRANCH  13  15
ENDBRANCH  11  12
ENDBRANCH   1  11
TORSDOF 9
ENDMDL
MODEL 3
REMARK VINA RESULT:    -6.718      2.033      5.122
REMARK INTER + INTRA:         -12.123
REMARK INTER:                 -10.144
REMARK INTRA:                  -1.980
REMARK UNBOUND:                -1.870
REMARK SMILES CC(=O)CCC=C(C)CCC=C(C)CCC=C(C)C
REMARK SMILES IDX 10 1 11 2 12 3 13 4 14 5 15 6 16 7 18 8 17 9 19 10 9 11 7 12
REMARK SMILES IDX 6 13 8 14 5 15 4 16 2 17 3 18 1 19
REMARK H PARENT
REMARK Flexibility Score: inf
ROOT
ATOM      1  C   UNL     1     -14.363 -36.969  40.778  1.00  0.00     0.032 C 
ENDROOT
BRANCH   1   2
ATOM      2  C   UNL     1     -14.249 -36.958  39.273  1.00  0.00    -0.028 C 
ATOM      3  C   UNL     1     -14.412 -35.858  38.502  1.00  0.00    -0.077 C 
ATOM      4  C   UNL     1     -14.639 -34.489  39.098  1.00  0.00     0.039 C 
BRANCH   3   5
ATOM      5  C   UNL     1     -14.288 -35.986  37.001  1.00  0.00     0.034 C 
BRANCH   5   6
ATOM      6  C   UNL     1     -13.064 -35.217  36.493  1.00  0.00     0.032 C 
BRANCH   6   7
ATOM      7  C   UNL     1     -11.988 -36.167  36.031  1.00  0.00    -0.028 C 
ATOM      8  C   UNL     1      -9.886 -37.435  36.144  1.00  0.00     0.039 C 
ATOM      9  C   UNL     1     -10.896 -36.496  36.754  1.00  0.00    -0.080 C 
ATOM     10  C   UNL     1     -10.671 -35.969  38.153  1.00  0.00     0.039 C 
ENDBRANCH   6   7
ENDBRANCH   5   6
ENDBRANCH   3   5
ENDBRANCH   1   2
BRANCH   1  11
ATOM     11  C   UNL     1     -13.035 -37.378  41.422  1.00  0.00     0.034 C 
BRANCH  11  12
ATOM     12  C   UNL     1     -12.636 -38.771  40.989  1.00  0.00    -0.077 C 
ATOM     13  C   UNL     1     -13.417 -39.818  41.341  1.00  0.00    -0.028 C 
ATOM     14  C   UNL     1     -11.396 -38.946  40.144  1.00  0.00     0.039 C 
BRANCH  13  15
ATOM     15  C   UNL     1     -13.129 -41.256  40.989  1.00  0.00     0.035 C 
BRANCH  15  16
ATOM     16  C   UNL     1     -13.996 -41.715  39.813  1.00  0.00     0.079 C 
BRANCH  16  17
ATOM     17  C   UNL     1     -13.187 -41.771  38.546  1.00  0.00     0.130 C 
ATOM     18  O   UNL     1     -12.423 -42.706  38.356  1.00  0.00    -0.300 OA
ATOM     19  C   UNL     1     -13.305 -40.686  37.521  1.00  0.00     0.087 C 
ENDBRANCH  16  17
ENDBRANCH  15  16
ENDBRANCH  13  15
ENDBRANCH  11  12
ENDBRANCH   1  11
TORSDOF 9
ENDMDL
MODEL 4
REMARK VINA RESULT:    -6.712      1.974      5.567
REMARK INTER + INTRA:         -12.113
REMARK INTER:                 -10.594
REMARK INTRA:                  -1.519
REMARK UNBOUND:                -1.870
REMARK SMILES CC(=O)CCC=C(C)CCC=C(C)CCC=C(C)C
REMARK SMILES IDX 10 1 11 2 12 3 13 4 14 5 15 6 16 7 18 8 17 9 19 10 9 11 7 12
REMARK SMILES IDX 6 13 8 14 5 15 4 16 2 17 3 18 1 19
REMARK H PARENT
REMARK Flexibility Score: inf
ROOT
ATOM      1  C   UNL     1     -13.835 -40.601  37.984  1.00  0.00     0.032 C 
ENDROOT
BRANCH   1   2
ATOM      2  C   UNL     1     -12.849 -39.483  37.749  1.00  0.00    -0.028 C 
ATOM      3  C   UNL     1     -12.173 -39.291  36.592  1.00  0.00    -0.077 C 
ATOM      4  C   UNL     1     -12.416 -40.145  35.370  1.00  0.00     0.039 C 
BRANCH   3   5
ATOM      5  C   UNL     1     -11.199 -38.140  36.492  1.00  0.00     0.034 C 
BRANCH   5   6
ATOM      6  C   UNL     1     -11.818 -36.976  35.712  1.00  0.00     0.032 C 
BRANCH   6   7
ATOM      7  C   UNL     1     -11.830 -35.719  36.544  1.00  0.00    -0.028 C 
ATOM      8  C   UNL     1     -12.781 -33.953  37.964  1.00  0.00     0.039 C 
ATOM      9  C   UNL     1     -12.913 -35.245  37.199  1.00  0.00    -0.080 C 
ATOM     10  C   UNL     1     -14.233 -35.980  37.200  1.00  0.00     0.039 C 
ENDBRANCH   6   7
ENDBRANCH   5   6
ENDBRANCH   3   5
ENDBRANCH   1   2
BRANCH   1  11
ATOM     11  C   UNL     1     -13.127 -41.849  38.520  1.00  0.00     0.034 C 
BRANCH  11  12
ATOM     12  C   UNL     1     -12.587 -41.601  39.911  1.00  0.00    -0.077 C 
ATOM     13  C   UNL     1     -13.241 -40.743  40.727  1.00  0.00    -0.028 C 
ATOM     14  C   UNL     1     -11.354 -42.349  40.360  1.00  0.00     0.039 C 
BRANCH  13  15
ATOM     15  C   UNL     1     -12.804 -40.394  42.128  1.00  0.00     0.035 C 
BRANCH  15  16
ATOM     16  C   UNL     1     -13.183 -38.952  42.475  1.00  0.00     0.079 C 
BRANCH  16  17
ATOM     17  C   UNL     1     -12.756 -38.013  41.379  1.00  0.00     0.130 C 
ATOM     18  O   UNL     1     -11.573 -37.920  41.088  1.00  0.00    -0.300 OA
ATOM     19  C   UNL     1     -13.769 -37.186  40.650  1.00  0.00     0.087 C 
ENDBRANCH  16  17
ENDBRANCH  15  16
ENDBRANCH  13  15
ENDBRANCH  11  12
ENDBRANCH   1  11
TORSDOF 9
ENDMDL
MODEL 5
REMARK VINA RESULT:    -6.703      1.632      2.958
REMARK INTER + INTRA:         -12.100
REMARK INTER:                 -10.098
REMARK INTRA:                  -2.002
REMARK UNBOUND:                -1.870
REMARK SMILES CC(=O)CCC=C(C)CCC=C(C)CCC=C(C)C
REMARK SMILES IDX 10 1 11 2 12 3 13 4 14 5 15 6 16 7 18 8 17 9 19 10 9 11 7 12
REMARK SMILES IDX 6 13 8 14 5 15 4 16 2 17 3 18 1 19
REMARK H PARENT
REMARK Flexibility Score: inf
ROOT
ATOM      1  C   UNL     1     -14.690 -35.933  39.164  1.00  0.00     0.032 C 
ENDROOT
BRANCH   1   2
ATOM      2  C   UNL     1     -13.943 -37.139  39.678  1.00  0.00    -0.028 C 
ATOM      3  C   UNL     1     -13.861 -37.490  40.982  1.00  0.00    -0.077 C 
ATOM      4  C   UNL     1     -14.603 -36.738  42.062  1.00  0.00     0.039 C 
BRANCH   3   5
ATOM      5  C   UNL     1     -13.065 -38.716  41.367  1.00  0.00     0.034 C 
BRANCH   5   6
ATOM      6  C   UNL     1     -12.103 -39.109  40.241  1.00  0.00     0.032 C 
BRANCH   6   7
ATOM      7  C   UNL     1     -12.313 -40.545  39.833  1.00  0.00    -0.028 C 
ATOM      8  C   UNL     1     -12.989 -42.411  38.384  1.00  0.00     0.039 C 
ATOM      9  C   UNL     1     -12.802 -40.936  38.636  1.00  0.00    -0.080 C 
ATOM     10  C   UNL     1     -13.143 -39.946  37.547  1.00  0.00     0.039 C 
ENDBRANCH   6   7
ENDBRANCH   5   6
ENDBRANCH   3   5
ENDBRANCH   1   2
BRANCH   1  11
ATOM     11  C   UNL     1     -14.665 -35.887  37.633  1.00  0.00     0.034 C 
BRANCH  11  12
ATOM     12  C   UNL     1     -13.259 -35.650  37.128  1.00  0.00    -0.077 C 
ATOM     13  C   UNL     1     -12.726 -36.518  36.238  1.00  0.00    -0.028 C 
ATOM     14  C   UNL     1     -12.507 -34.430  37.606  1.00  0.00     0.039 C 
BRANCH  13  15
ATOM     15  C   UNL     1     -11.334 -36.410  35.668  1.00  0.00     0.035 C 
BRANCH  15  16
ATOM     16  C   UNL     1     -10.416 -37.483  36.260  1.00  0.00     0.079 C 
BRANCH  16  17
ATOM     17  C   UNL     1      -9.437 -36.871  37.225  1.00  0.00     0.130 C 
ATOM     18  O   UNL     1      -8.338 -36.512  36.827  1.00  0.00    -0.300 OA
ATOM     19  C   UNL     1      -9.795 -36.707  38.670  1.00  0.00     0.087 C 
ENDBRANCH  16  17
ENDBRANCH  15  16
ENDBRANCH  13  15
ENDBRANCH  11  12
ENDBRANCH   1  11
TORSDOF 9
ENDMDL
MODEL 6
REMARK VINA RESULT:    -6.679      2.017      4.302
REMARK INTER + INTRA:         -12.063
REMARK INTER:                 -10.123
REMARK INTRA:                  -1.940
REMARK UNBOUND:                -1.870
REMARK SMILES CC(=O)CCC=C(C)CCC=C(C)CCC=C(C)C
REMARK SMILES IDX 10 1 11 2 12 3 13 4 14 5 15 6 16 7 18 8 17 9 19 10 9 11 7 12
REMARK SMILES IDX 6 13 8 14 5 15 4 16 2 17 3 18 1 19
REMARK H PARENT
REMARK Flexibility Score: inf
ROOT
ATOM      1  C   UNL     1      -9.864 -36.371  38.498  1.00  0.00     0.032 C 
ENDROOT
BRANCH   1   2
ATOM      2  C   UNL     1     -10.416 -37.512  39.315  1.00  0.00    -0.028 C 
ATOM      3  C   UNL     1      -9.770 -38.090  40.355  1.00  0.00    -0.077 C 
ATOM      4  C   UNL     1      -8.445 -37.573  40.862  1.00  0.00     0.039 C 
BRANCH   3   5
ATOM      5  C   UNL     1     -10.427 -39.241  41.082  1.00  0.00     0.034 C 
BRANCH   5   6
ATOM      6  C   UNL     1     -11.907 -39.345  40.701  1.00  0.00     0.032 C 
BRANCH   6   7
ATOM      7  C   UNL     1     -12.197 -40.665  40.032  1.00  0.00    -0.028 C 
ATOM      8  C   UNL     1     -13.028 -42.186  38.289  1.00  0.00     0.039 C 
ATOM      9  C   UNL     1     -12.768 -40.796  38.815  1.00  0.00    -0.080 C 
ATOM     10  C   UNL     1     -13.131 -39.600  37.966  1.00  0.00     0.039 C 
ENDBRANCH   6   7
ENDBRANCH   5   6
ENDBRANCH   3   5
ENDBRANCH   1   2
BRANCH   1  11
ATOM     11  C   UNL     1      -9.851 -36.724  37.007  1.00  0.00     0.034 C 
BRANCH  11  12
ATOM     12  C   UNL     1     -11.236 -36.593  36.414  1.00  0.00    -0.077 C 
ATOM     13  C   UNL     1     -12.096 -35.695  36.946  1.00  0.00    -0.028 C 
ATOM     14  C   UNL     1     -11.603 -37.443  35.221  1.00  0.00     0.039 C 
BRANCH  13  15
ATOM     15  C   UNL     1     -13.508 -35.474  36.463  1.00  0.00     0.035 C 
BRANCH  15  16
ATOM     16  C   UNL     1     -14.513 -36.191  37.368  1.00  0.00     0.079 C 
BRANCH  16  17
ATOM     17  C   UNL     1     -14.456 -35.639  38.767  1.00  0.00     0.130 C 
ATOM     18  O   UNL     1     -14.598 -34.439  38.951  1.00  0.00    -0.300 OA
ATOM     19  C   UNL     1     -14.219 -36.549  39.933  1.00  0.00     0.087 C 
ENDBRANCH  16  17
ENDBRANCH  15  16
ENDBRANCH  13  15
ENDBRANCH  11  12
ENDBRANCH   1  11
TORSDOF 9
ENDMDL
MODEL 7
REMARK VINA RESULT:    -6.648      2.102      4.805
REMARK INTER + INTRA:         -12.016
REMARK INTER:                 -10.106
REMARK INTRA:                  -1.910
REMARK UNBOUND:                -1.870
REMARK SMILES CC(=O)CCC=C(C)CCC=C(C)CCC=C(C)C
REMARK SMILES IDX 10 1 11 2 12 3 13 4 14 5 15 6 16 7 18 8 17 9 19 10 9 11 7 12
REMARK SMILES IDX 6 13 8 14 5 15 4 16 2 17 3 18 1 19
REMARK H PARENT
REMARK Flexibility Score: inf
ROOT
ATOM      1  C   UNL     1     -10.112 -38.243  41.246  1.00  0.00     0.032 C 
ENDROOT
BRANCH   1   2
ATOM      2  C   UNL     1     -10.750 -39.603  41.106  1.00  0.00    -0.028 C 
ATOM      3  C   UNL     1     -11.835 -40.015  41.802  1.00  0.00    -0.077 C 
ATOM      4  C   UNL     1     -12.580 -39.095  42.741  1.00  0.00     0.039 C 
BRANCH   3   5
ATOM      5  C   UNL     1     -12.366 -41.412  41.580  1.00  0.00     0.034 C 
BRANCH   5   6
ATOM      6  C   UNL     1     -13.756 -41.365  40.938  1.00  0.00     0.032 C 
BRANCH   6   7
ATOM      7  C   UNL     1     -13.705 -40.677  39.598  1.00  0.00    -0.028 C 
ATOM      8  C   UNL     1     -13.217 -40.417  37.203  1.00  0.00     0.039 C 
ATOM      9  C   UNL     1     -13.238 -41.244  38.464  1.00  0.00    -0.080 C 
ATOM     10  C   UNL     1     -12.759 -42.677  38.423  1.00  0.00     0.039 C 
ENDBRANCH   6   7
ENDBRANCH   5   6
ENDBRANCH   3   5
ENDBRANCH   1   2
BRANCH   1  11
ATOM     11  C   UNL     1      -9.765 -37.659  39.872  1.00  0.00     0.034 C 
BRANCH  11  12
ATOM     12  C   UNL     1     -10.999 -37.570  39.002  1.00  0.00    -0.077 C 
ATOM     13  C   UNL     1     -12.169 -37.179  39.558  1.00  0.00    -0.028 C 
ATOM     14  C   UNL     1     -10.878 -37.884  37.530  1.00  0.00     0.039 C 
BRANCH  13  15
ATOM     15  C   UNL     1     -13.474 -37.063  38.810  1.00  0.00     0.035 C 
BRANCH  15  16
ATOM     16  C   UNL     1     -13.952 -35.609  38.770  1.00  0.00     0.079 C 
BRANCH  16  17
ATOM     17  C   UNL     1     -13.201 -34.832  37.723  1.00  0.00     0.130 C 
ATOM     18  O   UNL     1     -12.696 -33.757  38.013  1.00  0.00    -0.300 OA
ATOM     19  C   UNL     1     -13.075 -35.362  36.328  1.00  0.00     0.087 C 
ENDBRANCH  16  17
ENDBRANCH  15  16
ENDBRANCH  13  15
ENDBRANCH  11  12
ENDBRANCH   1  11
TORSDOF 9
ENDMDL
MODEL 8
REMARK VINA RESULT:    -6.644      1.632      4.698
REMARK INTER + INTRA:         -12.010
REMARK INTER:                 -10.143
REMARK INTRA:                  -1.867
REMARK UNBOUND:                -1.870
REMARK SMILES CC(=O)CCC=C(C)CCC=C(C)CCC=C(C)C
REMARK SMILES IDX 10 1 11 2 12 3 13 4 14 5 15 6 16 7 18 8 17 9 19 10 9 11 7 12
REMARK SMILES IDX 6 13 8 14 5 15 4 16 2 17 3 18 1 19
REMARK H PARENT
REMARK Flexibility Score: inf
ROOT
ATOM      1  C   UNL     1      -9.609 -37.035  38.432  1.00  0.00     0.032 C 
ENDROOT
BRANCH   1   2
ATOM      2  C   UNL     1     -10.699 -36.059  38.066  1.00  0.00    -0.028 C 
ATOM      3  C   UNL     1     -11.322 -36.022  36.865  1.00  0.00    -0.077 C 
ATOM      4  C   UNL     1     -11.039 -37.040  35.785  1.00  0.00     0.039 C 
BRANCH   3   5
ATOM      5  C   UNL     1     -12.389 -34.980  36.620  1.00  0.00     0.034 C 
BRANCH   5   6
ATOM      6  C   UNL     1     -13.758 -35.642  36.438  1.00  0.00     0.032 C 
BRANCH   6   7
ATOM      7  C   UNL     1     -14.191 -36.335  37.705  1.00  0.00    -0.028 C 
ATOM      8  C   UNL     1     -14.963 -36.527  40.030  1.00  0.00     0.039 C 
ATOM      9  C   UNL     1     -14.592 -35.698  38.827  1.00  0.00    -0.080 C 
ATOM     10  C   UNL     1     -14.695 -34.192  38.900  1.00  0.00     0.039 C 
ENDBRANCH   6   7
ENDBRANCH   5   6
ENDBRANCH   3   5
ENDBRANCH   1   2
BRANCH   1  11
ATOM     11  C   UNL     1      -9.861 -37.641  39.816  1.00  0.00     0.034 C 
BRANCH  11  12
ATOM     12  C   UNL     1     -11.260 -38.208  39.905  1.00  0.00    -0.077 C 
ATOM     13  C   UNL     1     -11.719 -38.985  38.897  1.00  0.00    -0.028 C 
ATOM     14  C   UNL     1     -12.089 -37.920  41.135  1.00  0.00     0.039 C 
BRANCH  13  15
ATOM     15  C   UNL     1     -13.096 -39.600  38.851  1.00  0.00     0.035 C 
BRANCH  15  16
ATOM     16  C   UNL     1     -13.011 -41.128  38.818  1.00  0.00     0.079 C 
BRANCH  16  17
ATOM     17  C   UNL     1     -12.536 -41.663  40.141  1.00  0.00     0.130 C 
ATOM     18  O   UNL     1     -11.552 -42.387  40.185  1.00  0.00    -0.300 OA
ATOM     19  C   UNL     1     -13.266 -41.322  41.404  1.00  0.00     0.087 C 
ENDBRANCH  16  17
ENDBRANCH  15  16
ENDBRANCH  13  15
ENDBRANCH  11  12
ENDBRANCH   1  11
TORSDOF 9
ENDMDL
MODEL 9
REMARK VINA RESULT:    -6.602      2.222      5.034
REMARK INTER + INTRA:         -11.946
REMARK INTER:                 -10.362
REMARK INTRA:                  -1.583
REMARK UNBOUND:                -1.870
REMARK SMILES CC(=O)CCC=C(C)CCC=C(C)CCC=C(C)C
REMARK SMILES IDX 10 1 11 2 12 3 13 4 14 5 15 6 16 7 18 8 17 9 19 10 9 11 7 12
REMARK SMILES IDX 6 13 8 14 5 15 4 16 2 17 3 18 1 19
REMARK H PARENT
REMARK Flexibility Score: inf
ROOT
ATOM      1  C   UNL     1     -13.122 -41.608  37.889  1.00  0.00     0.032 C 
ENDROOT
BRANCH   1   2
ATOM      2  C   UNL     1     -13.375 -41.191  39.317  1.00  0.00    -0.028 C 
ATOM      3  C   UNL     1     -12.632 -41.595  40.374  1.00  0.00    -0.077 C 
ATOM      4  C   UNL     1     -11.398 -42.448  40.206  1.00  0.00     0.039 C 
BRANCH   3   5
ATOM      5  C   UNL     1     -13.003 -41.117  41.759  1.00  0.00     0.034 C 
BRANCH   5   6
ATOM      6  C   UNL     1     -13.078 -39.587  41.799  1.00  0.00     0.032 C 
BRANCH   6   7
ATOM      7  C   UNL     1     -11.954 -39.016  42.626  1.00  0.00    -0.028 C 
ATOM      8  C   UNL     1      -9.704 -38.143  43.092  1.00  0.00     0.039 C 
ATOM      9  C   UNL     1     -10.744 -38.670  42.135  1.00  0.00    -0.080 C 
ATOM     10  C   UNL     1     -10.414 -38.777  40.664  1.00  0.00     0.039 C 
ENDBRANCH   6   7
ENDBRANCH   5   6
ENDBRANCH   3   5
ENDBRANCH   1   2
BRANCH   1  11
ATOM     11  C   UNL     1     -13.521 -40.493  36.916  1.00  0.00     0.034 C 
BRANCH  11  12
ATOM     12  C   UNL     1     -12.920 -39.172  37.342  1.00  0.00    -0.077 C 
ATOM     13  C   UNL     1     -13.527 -38.458  38.318  1.00  0.00    -0.028 C 
ATOM     14  C   UNL     1     -11.640 -38.708  36.689  1.00  0.00     0.039 C 
BRANCH  13  15
ATOM     15  C   UNL     1     -13.044 -37.122  38.825  1.00  0.00     0.035 C 
BRANCH  15  16
ATOM     16  C   UNL     1     -14.007 -36.003  38.418  1.00  0.00     0.079 C 
BRANCH  16  17
ATOM     17  C   UNL     1     -13.255 -34.848  37.814  1.00  0.00     0.130 C 
ATOM     18  O   UNL     1     -13.313 -33.746  38.339  1.00  0.00    -0.300 OA
ATOM     19  C   UNL     1     -12.443 -35.039  36.570  1.00  0.00     0.087 C 
ENDBRANCH  16  17
ENDBRANCH  15  16
ENDBRANCH  13  15
ENDBRANCH  11  12
ENDBRANCH   1  11
TORSDOF 9
ENDMDL
