MODEL 1
REMARK VINA RESULT:     0.601      0.000      0.000
REMARK INTER + INTRA:           1.376
REMARK INTER:                   0.917
REMARK INTRA:                   0.459
REMARK UNBOUND:                 0.459
REMARK SMILES COc1cc(C=CCOC(=O)C=Cc2ccc(O)c(OC)c2)ccc1O
REMARK SMILES IDX 9 1 8 2 7 3 6 4 5 5 3 6 25 7 4 8 24 9 23 10 2 11 1 12 26 13
REMARK SMILES IDX 10 15 11 16 12 17 13 18 14 19 22 20 15 21 19 22 16 23 17 24
REMARK SMILES IDX 20 25 21 26 18 27
REMARK H PARENT 26 14 18 28
REMARK Flexibility Score: inf
ROOT
ATOM      1  O   UNL     1      24.677  74.073   9.074  1.00  0.00    -0.458 OA
ENDROOT
BRANCH   1   2
ATOM      2  C   UNL     1      25.804  74.836   9.502  1.00  0.00     0.261 C 
BRANCH   2   3
ATOM      3  C   UNL     1      26.877  74.799   8.458  1.00  0.00     0.015 C 
ATOM      4  C   UNL     1      27.017  73.728   7.667  1.00  0.00     0.007 C 
BRANCH   4   5
ATOM      5  C   UNL     1      28.034  73.609   6.593  1.00  0.00    -0.022 A 
ATOM      6  C   UNL     1      29.310  72.322   4.946  1.00  0.00     0.161 A 
ATOM      7  C   UNL     1      30.028  73.477   4.610  1.00  0.00     0.157 A 
ATOM      8  C   UNL     1      28.316  72.390   5.943  1.00  0.00     0.058 A 
ATOM      9  C   UNL     1      29.763  74.683   5.266  1.00  0.00     0.051 A 
ATOM     10  C   UNL     1      28.779  74.748   6.253  1.00  0.00     0.012 A 
BRANCH   6  11
ATOM     11  O   UNL     1      29.614  71.128   4.272  1.00  0.00    -0.493 OA
ATOM     12  C   UNL     1      29.454  69.826   4.826  1.00  0.00     0.278 C 
ENDBRANCH   6  11
BRANCH   7  13
ATOM     13  O   UNL     1      31.008  73.417   3.621  1.00  0.00    -0.504 OA
ATOM     14  H   UNL     1      31.610  72.608   3.521  1.00  0.00     0.293 HD
ENDBRANCH   7  13
ENDBRANCH   4   5
ENDBRANCH   2   3
ENDBRANCH   1   2
BRANCH   1  15
ATOM     15  C   UNL     1      23.356  74.396   9.414  1.00  0.00     0.331 C 
ATOM     16  O   UNL     1      22.630  75.046   8.615  1.00  0.00    -0.247 OA
BRANCH  15  17
ATOM     17  C   UNL     1      22.831  74.058  10.747  1.00  0.00     0.094 C 
ATOM     18  C   UNL     1      21.557  74.236  11.125  1.00  0.00     0.016 C 
BRANCH  18  19
ATOM     19  C   UNL     1      20.562  75.018  10.364  1.00  0.00    -0.021 A 
ATOM     20  C   UNL     1      20.492  76.408  10.536  1.00  0.00     0.058 A 
ATOM     21  C   UNL     1      19.757  74.401   9.395  1.00  0.00     0.012 A 
ATOM     22  C   UNL     1      19.586  77.177   9.779  1.00  0.00     0.161 A 
ATOM     23  C   UNL     1      18.875  75.161   8.625  1.00  0.00     0.051 A 
ATOM     24  C   UNL     1      18.776  76.544   8.824  1.00  0.00     0.157 A 
BRANCH  22  25
ATOM     25  O   UNL     1      19.463  78.566   9.943  1.00  0.00    -0.493 OA
ATOM     26  C   UNL     1      18.520  79.196  10.803  1.00  0.00     0.278 C 
ENDBRANCH  22  25
BRANCH  24  27
ATOM     27  O   UNL     1      17.877  77.299   8.074  1.00  0.00    -0.504 OA
ATOM     28  H   UNL     1      16.942  76.961   7.871  1.00  0.00     0.293 HD
ENDBRANCH  24  27
ENDBRANCH  18  19
ENDBRANCH  15  17
ENDBRANCH   1  15
TORSDOF 10
ENDMDL
MODEL 2
REMARK VINA RESULT:     2.186     10.036     16.929
REMARK INTER + INTRA:           3.795
REMARK INTER:                   3.483
REMARK INTRA:                   0.312
REMARK UNBOUND:                 0.459
REMARK SMILES COc1cc(C=CCOC(=O)C=Cc2ccc(O)c(OC)c2)ccc1O
REMARK SMILES IDX 9 1 8 2 7 3 6 4 5 5 3 6 25 7 4 8 24 9 23 10 2 11 1 12 26 13
REMARK SMILES IDX 10 15 11 16 12 17 13 18 14 19 22 20 15 21 19 22 16 23 17 24
REMARK SMILES IDX 20 25 21 26 18 27
REMARK H PARENT 26 14 18 28
REMARK Flexibility Score: inf
ROOT
ATOM      1  O   UNL     1      29.683  70.968  -3.522  1.00  0.00    -0.458 OA
ENDROOT
BRANCH   1   2
ATOM      2  C   UNL     1      29.175  72.055  -2.749  1.00  0.00     0.261 C 
BRANCH   2   3
ATOM      3  C   UNL     1      27.933  71.636  -2.025  1.00  0.00     0.015 C 
ATOM      4  C   UNL     1      27.034  72.550  -1.637  1.00  0.00     0.007 C 
BRANCH   4   5
ATOM      5  C   UNL     1      25.766  72.230  -0.936  1.00  0.00    -0.022 A 
ATOM      6  C   UNL     1      24.435  71.886   1.091  1.00  0.00     0.161 A 
ATOM      7  C   UNL     1      23.330  71.548   0.299  1.00  0.00     0.157 A 
ATOM      8  C   UNL     1      25.656  72.222   0.470  1.00  0.00     0.058 A 
ATOM      9  C   UNL     1      23.443  71.536  -1.095  1.00  0.00     0.051 A 
ATOM     10  C   UNL     1      24.652  71.868  -1.707  1.00  0.00     0.012 A 
BRANCH   6  11
ATOM     11  O   UNL     1      24.284  71.874   2.487  1.00  0.00    -0.493 OA
ATOM     12  C   UNL     1      25.211  71.285   3.394  1.00  0.00     0.278 C 
ENDBRANCH   6  11
BRANCH   7  13
ATOM     13  O   UNL     1      22.120  71.219   0.908  1.00  0.00    -0.504 OA
ATOM     14  H   UNL     1      21.370  70.775   0.392  1.00  0.00     0.293 HD
ENDBRANCH   7  13
ENDBRANCH   4   5
ENDBRANCH   2   3
ENDBRANCH   1   2
BRANCH   1  15
ATOM     15  C   UNL     1      30.726  71.104  -4.447  1.00  0.00     0.331 C 
ATOM     16  O   UNL     1      31.845  70.566  -4.233  1.00  0.00    -0.247 OA
BRANCH  15  17
ATOM     17  C   UNL     1      30.555  71.954  -5.637  1.00  0.00     0.094 C 
ATOM     18  C   UNL     1      30.887  71.586  -6.883  1.00  0.00     0.016 C 
BRANCH  18  19
ATOM     19  C   UNL     1      31.695  70.395  -7.214  1.00  0.00    -0.021 A 
ATOM     20  C   UNL     1      32.952  70.554  -7.814  1.00  0.00     0.058 A 
ATOM     21  C   UNL     1      31.264  69.113  -6.842  1.00  0.00     0.012 A 
ATOM     22  C   UNL     1      33.760  69.432  -8.087  1.00  0.00     0.161 A 
ATOM     23  C   UNL     1      32.070  68.001  -7.089  1.00  0.00     0.051 A 
ATOM     24  C   UNL     1      33.310  68.154  -7.724  1.00  0.00     0.157 A 
BRANCH  22  25
ATOM     25  O   UNL     1      35.012  69.546  -8.713  1.00  0.00    -0.493 OA
ATOM     26  C   UNL     1      35.598  70.776  -9.125  1.00  0.00     0.278 C 
ENDBRANCH  22  25
BRANCH  24  27
ATOM     27  O   UNL     1      34.103  67.041  -7.994  1.00  0.00    -0.504 OA
ATOM     28  H   UNL     1      34.366  66.795  -8.942  1.00  0.00     0.293 HD
ENDBRANCH  24  27
ENDBRANCH  18  19
ENDBRANCH  15  17
ENDBRANCH   1  15
TORSDOF 10
ENDMDL
MODEL 3
REMARK VINA RESULT:     2.314     10.289     17.314
REMARK INTER + INTRA:           3.991
REMARK INTER:                   3.515
REMARK INTRA:                   0.476
REMARK UNBOUND:                 0.459
REMARK SMILES COc1cc(C=CCOC(=O)C=Cc2ccc(O)c(OC)c2)ccc1O
REMARK SMILES IDX 9 1 8 2 7 3 6 4 5 5 3 6 25 7 4 8 24 9 23 10 2 11 1 12 26 13
REMARK SMILES IDX 10 15 11 16 12 17 13 18 14 19 22 20 15 21 19 22 16 23 17 24
REMARK SMILES IDX 20 25 21 26 18 27
REMARK H PARENT 26 14 18 28
REMARK Flexibility Score: inf
ROOT
ATOM      1  O   UNL     1      30.010  70.311  -3.482  1.00  0.00    -0.458 OA
ENDROOT
BRANCH   1   2
ATOM      2  C   UNL     1      29.370  71.535  -3.126  1.00  0.00     0.261 C 
BRANCH   2   3
ATOM      3  C   UNL     1      28.092  71.256  -2.397  1.00  0.00     0.015 C 
ATOM      4  C   UNL     1      27.332  72.264  -1.950  1.00  0.00     0.007 C 
BRANCH   4   5
ATOM      5  C   UNL     1      26.043  72.087  -1.239  1.00  0.00    -0.022 A 
ATOM      6  C   UNL     1      24.683  71.988   0.796  1.00  0.00     0.161 A 
ATOM      7  C   UNL     1      23.559  71.672   0.021  1.00  0.00     0.157 A 
ATOM      8  C   UNL     1      25.926  72.190   0.162  1.00  0.00     0.058 A 
ATOM      9  C   UNL     1      23.676  71.551  -1.368  1.00  0.00     0.051 A 
ATOM     10  C   UNL     1      24.908  71.751  -1.991  1.00  0.00     0.012 A 
BRANCH   6  11
ATOM     11  O   UNL     1      24.526  72.089   2.187  1.00  0.00    -0.493 OA
ATOM     12  C   UNL     1      25.122  71.206   3.133  1.00  0.00     0.278 C 
ENDBRANCH   6  11
BRANCH   7  13
ATOM     13  O   UNL     1      22.326  71.476   0.641  1.00  0.00    -0.504 OA
ATOM     14  H   UNL     1      21.640  70.834   0.264  1.00  0.00     0.293 HD
ENDBRANCH   7  13
ENDBRANCH   4   5
ENDBRANCH   2   3
ENDBRANCH   1   2
BRANCH   1  15
ATOM     15  C   UNL     1      30.613  70.092  -4.727  1.00  0.00     0.331 C 
ATOM     16  O   UNL     1      31.702  70.656  -5.019  1.00  0.00    -0.247 OA
BRANCH  15  17
ATOM     17  C   UNL     1      29.936  69.271  -5.744  1.00  0.00     0.094 C 
ATOM     18  C   UNL     1      30.514  68.837  -6.873  1.00  0.00     0.016 C 
BRANCH  18  19
ATOM     19  C   UNL     1      31.814  69.318  -7.383  1.00  0.00    -0.021 A 
ATOM     20  C   UNL     1      32.912  68.447  -7.416  1.00  0.00     0.058 A 
ATOM     21  C   UNL     1      31.936  70.605  -7.929  1.00  0.00     0.012 A 
ATOM     22  C   UNL     1      34.146  68.872  -7.949  1.00  0.00     0.161 A 
ATOM     23  C   UNL     1      33.148  71.023  -8.480  1.00  0.00     0.051 A 
ATOM     24  C   UNL     1      34.257  70.167  -8.478  1.00  0.00     0.157 A 
BRANCH  22  25
ATOM     25  O   UNL     1      35.277  68.041  -7.974  1.00  0.00    -0.493 OA
ATOM     26  C   UNL     1      35.355  66.808  -8.680  1.00  0.00     0.278 C 
ENDBRANCH  22  25
BRANCH  24  27
ATOM     27  O   UNL     1      35.475  70.594  -9.004  1.00  0.00    -0.504 OA
ATOM     28  H   UNL     1      35.818  70.248  -9.894  1.00  0.00     0.293 HD
ENDBRANCH  24  27
ENDBRANCH  18  19
ENDBRANCH  15  17
ENDBRANCH   1  15
TORSDOF 10
ENDMDL
MODEL 4
REMARK VINA RESULT:     2.525     10.571     17.563
REMARK INTER + INTRA:           4.313
REMARK INTER:                   3.799
REMARK INTRA:                   0.514
REMARK UNBOUND:                 0.459
REMARK SMILES COc1cc(C=CCOC(=O)C=Cc2ccc(O)c(OC)c2)ccc1O
REMARK SMILES IDX 9 1 8 2 7 3 6 4 5 5 3 6 25 7 4 8 24 9 23 10 2 11 1 12 26 13
REMARK SMILES IDX 10 15 11 16 12 17 13 18 14 19 22 20 15 21 19 22 16 23 17 24
REMARK SMILES IDX 20 25 21 26 18 27
REMARK H PARENT 26 14 18 28
REMARK Flexibility Score: inf
ROOT
ATOM      1  O   UNL     1      30.291  70.334  -3.623  1.00  0.00    -0.458 OA
ENDROOT
BRANCH   1   2
ATOM      2  C   UNL     1      29.638  71.562  -3.307  1.00  0.00     0.261 C 
BRANCH   2   3
ATOM      3  C   UNL     1      28.385  71.296  -2.533  1.00  0.00     0.015 C 
ATOM      4  C   UNL     1      27.703  72.305  -1.976  1.00  0.00     0.007 C 
BRANCH   4   5
ATOM      5  C   UNL     1      26.443  72.142  -1.211  1.00  0.00    -0.022 A 
ATOM      6  C   UNL     1      24.110  71.427  -0.999  1.00  0.00     0.161 A 
ATOM      7  C   UNL     1      24.080  71.937   0.306  1.00  0.00     0.157 A 
ATOM      8  C   UNL     1      25.294  71.536  -1.758  1.00  0.00     0.058 A 
ATOM      9  C   UNL     1      25.213  72.555   0.843  1.00  0.00     0.051 A 
ATOM     10  C   UNL     1      26.382  72.663   0.090  1.00  0.00     0.012 A 
BRANCH   6  11
ATOM     11  O   UNL     1      22.948  70.824  -1.507  1.00  0.00    -0.493 OA
ATOM     12  C   UNL     1      22.902  70.025  -2.685  1.00  0.00     0.278 C 
ENDBRANCH   6  11
BRANCH   7  13
ATOM     13  O   UNL     1      22.914  71.827   1.062  1.00  0.00    -0.504 OA
ATOM     14  H   UNL     1      22.610  72.572   1.677  1.00  0.00     0.293 HD
ENDBRANCH   7  13
ENDBRANCH   4   5
ENDBRANCH   2   3
ENDBRANCH   1   2
BRANCH   1  15
ATOM     15  C   UNL     1      30.903  70.084  -4.858  1.00  0.00     0.331 C 
ATOM     16  O   UNL     1      32.067  70.507  -5.094  1.00  0.00    -0.247 OA
BRANCH  15  17
ATOM     17  C   UNL     1      30.158  69.402  -5.930  1.00  0.00     0.094 C 
ATOM     18  C   UNL     1      30.696  69.010  -7.093  1.00  0.00     0.016 C 
BRANCH  18  19
ATOM     19  C   UNL     1      32.030  69.419  -7.575  1.00  0.00    -0.021 A 
ATOM     20  C   UNL     1      33.050  68.465  -7.691  1.00  0.00     0.058 A 
ATOM     21  C   UNL     1      32.260  70.732  -8.016  1.00  0.00     0.012 A 
ATOM     22  C   UNL     1      34.314  68.827  -8.200  1.00  0.00     0.161 A 
ATOM     23  C   UNL     1      33.501  71.090  -8.542  1.00  0.00     0.051 A 
ATOM     24  C   UNL     1      34.534  70.146  -8.622  1.00  0.00     0.157 A 
BRANCH  22  25
ATOM     25  O   UNL     1      35.370  67.907  -8.305  1.00  0.00    -0.493 OA
ATOM     26  C   UNL     1      35.221  66.552  -8.711  1.00  0.00     0.278 C 
ENDBRANCH  22  25
BRANCH  24  27
ATOM     27  O   UNL     1      35.781  70.511  -9.125  1.00  0.00    -0.504 OA
ATOM     28  H   UNL     1      36.331  69.873  -9.690  1.00  0.00     0.293 HD
ENDBRANCH  24  27
ENDBRANCH  18  19
ENDBRANCH  15  17
ENDBRANCH   1  15
TORSDOF 10
ENDMDL
MODEL 5
REMARK VINA RESULT:     3.486      9.911     13.386
REMARK INTER + INTRA:           5.780
REMARK INTER:                   3.850
REMARK INTRA:                   1.930
REMARK UNBOUND:                 0.459
REMARK SMILES COc1cc(C=CCOC(=O)C=Cc2ccc(O)c(OC)c2)ccc1O
REMARK SMILES IDX 9 1 8 2 7 3 6 4 5 5 3 6 25 7 4 8 24 9 23 10 2 11 1 12 26 13
REMARK SMILES IDX 10 15 11 16 12 17 13 18 14 19 22 20 15 21 19 22 16 23 17 24
REMARK SMILES IDX 20 25 21 26 18 27
REMARK H PARENT 26 14 18 28
REMARK Flexibility Score: inf
ROOT
ATOM      1  O   UNL     1      29.292  71.712  -2.950  1.00  0.00    -0.458 OA
ENDROOT
BRANCH   1   2
ATOM      2  C   UNL     1      29.480  70.430  -3.547  1.00  0.00     0.261 C 
BRANCH   2   3
ATOM      3  C   UNL     1      30.714  70.432  -4.395  1.00  0.00     0.015 C 
ATOM      4  C   UNL     1      30.727  69.799  -5.575  1.00  0.00     0.007 C 
BRANCH   4   5
ATOM      5  C   UNL     1      31.893  69.764  -6.492  1.00  0.00    -0.022 A 
ATOM      6  C   UNL     1      33.511  68.583  -7.901  1.00  0.00     0.161 A 
ATOM      7  C   UNL     1      34.151  69.800  -8.174  1.00  0.00     0.157 A 
ATOM      8  C   UNL     1      32.383  68.568  -7.054  1.00  0.00     0.058 A 
ATOM      9  C   UNL     1      33.677  70.985  -7.601  1.00  0.00     0.051 A 
ATOM     10  C   UNL     1      32.561  70.967  -6.763  1.00  0.00     0.012 A 
BRANCH   6  11
ATOM     11  O   UNL     1      34.025  67.415  -8.485  1.00  0.00    -0.493 OA
ATOM     12  C   UNL     1      35.389  67.011  -8.418  1.00  0.00     0.278 C 
ENDBRANCH   6  11
BRANCH   7  13
ATOM     13  O   UNL     1      35.262  69.822  -9.014  1.00  0.00    -0.504 OA
ATOM     14  H   UNL     1      35.403  70.564  -9.687  1.00  0.00     0.293 HD
ENDBRANCH   7  13
ENDBRANCH   4   5
ENDBRANCH   2   3
ENDBRANCH   1   2
BRANCH   1  15
ATOM     15  C   UNL     1      28.225  72.012  -2.092  1.00  0.00     0.331 C 
ATOM     16  O   UNL     1      27.237  71.236  -2.004  1.00  0.00    -0.247 OA
BRANCH  15  17
ATOM     17  C   UNL     1      28.206  73.285  -1.353  1.00  0.00     0.094 C 
ATOM     18  C   UNL     1      27.318  73.590  -0.396  1.00  0.00     0.016 C 
BRANCH  18  19
ATOM     19  C   UNL     1      26.092  72.815  -0.118  1.00  0.00    -0.021 A 
ATOM     20  C   UNL     1      25.230  72.478  -1.171  1.00  0.00     0.058 A 
ATOM     21  C   UNL     1      25.831  72.326   1.171  1.00  0.00     0.012 A 
ATOM     22  C   UNL     1      24.084  71.693  -0.933  1.00  0.00     0.161 A 
ATOM     23  C   UNL     1      24.711  71.529   1.408  1.00  0.00     0.051 A 
ATOM     24  C   UNL     1      23.828  71.224   0.364  1.00  0.00     0.157 A 
BRANCH  22  25
ATOM     25  O   UNL     1      23.181  71.358  -1.955  1.00  0.00    -0.493 OA
ATOM     26  C   UNL     1      23.243  70.162  -2.724  1.00  0.00     0.278 C 
ENDBRANCH  22  25
BRANCH  24  27
ATOM     27  O   UNL     1      22.696  70.449   0.606  1.00  0.00    -0.504 OA
ATOM     28  H   UNL     1      21.978  70.325  -0.100  1.00  0.00     0.293 HD
ENDBRANCH  24  27
ENDBRANCH  18  19
ENDBRANCH  15  17
ENDBRANCH   1  15
TORSDOF 10
ENDMDL
