MODEL 1
REMARK VINA RESULT:    -4.707      0.000      0.000
REMARK INTER + INTRA:          -8.925
REMARK INTER:                  -7.458
REMARK INTRA:                  -1.467
REMARK UNBOUND:                -1.467
REMARK SMILES CCCCCCCCCCCC(=O)[O-]
REMARK SMILES IDX 7 1 8 2 9 3 10 4 11 5 12 6 13 7 14 8 6 9 5 10 4 11 3 12 2 13
REMARK SMILES IDX 1 14
REMARK H PARENT
REMARK Flexibility Score: inf
ROOT
ATOM      1  C   UNL     1       4.541   7.651   9.830  1.00  0.00     0.000 C 
ENDROOT
BRANCH   1   2
ATOM      2  C   UNL     1       4.278   6.941  11.170  1.00  0.00     0.000 C 
BRANCH   2   3
ATOM      3  C   UNL     1       4.040   7.925  12.329  1.00  0.00     0.000 C 
BRANCH   3   4
ATOM      4  C   UNL     1       4.731   7.482  13.630  1.00  0.00     0.006 C 
BRANCH   4   5
ATOM      5  C   UNL     1       5.805   6.414  13.390  1.00  0.00     0.053 C 
BRANCH   5   6
ATOM      6  C   UNL     1       6.651   6.243  14.612  1.00  0.00     0.041 C 
ATOM      7  O   UNL     1       7.884   6.010  14.502  1.00  0.00    -0.550 OA
ATOM      8  O   UNL     1       6.088   6.388  15.874  1.00  0.00    -0.550 OA
ENDBRANCH   5   6
ENDBRANCH   4   5
ENDBRANCH   3   4
ENDBRANCH   2   3
ENDBRANCH   1   2
BRANCH   1   9
ATOM      9  C   UNL     1       5.177   9.048   9.951  1.00  0.00     0.000 C 
BRANCH   9  10
ATOM     10  C   UNL     1       6.681   9.052   9.646  1.00  0.00    -0.000 C 
BRANCH  10  11
ATOM     11  C   UNL     1       7.489   9.507  10.868  1.00  0.00    -0.000 C 
BRANCH  11  12
ATOM     12  C   UNL     1       8.213   8.324  11.522  1.00  0.00    -0.000 C 
BRANCH  12  13
ATOM     13  C   UNL     1       8.237   7.109  10.587  1.00  0.00    -0.003 C 
ATOM     14  C   UNL     1       9.134   6.005  11.139  1.00  0.00     0.004 C 
ENDBRANCH  12  13
ENDBRANCH  11  12
ENDBRANCH  10  11
ENDBRANCH   9  10
ENDBRANCH   1   9
TORSDOF 10
ENDMDL
MODEL 2
REMARK VINA RESULT:    -4.701      1.692      4.001
REMARK INTER + INTRA:          -8.916
REMARK INTER:                  -7.353
REMARK INTRA:                  -1.563
REMARK UNBOUND:                -1.467
REMARK SMILES CCCCCCCCCCCC(=O)[O-]
REMARK SMILES IDX 7 1 8 2 9 3 10 4 11 5 12 6 13 7 14 8 6 9 5 10 4 11 3 12 2 13
REMARK SMILES IDX 1 14
REMARK H PARENT
REMARK Flexibility Score: inf
ROOT
ATOM      1  C   UNL     1       4.820   8.939  10.148  1.00  0.00     0.000 C 
ENDROOT
BRANCH   1   2
ATOM      2  C   UNL     1       6.282   9.031   9.672  1.00  0.00     0.000 C 
BRANCH   2   3
ATOM      3  C   UNL     1       7.251   9.436  10.797  1.00  0.00     0.000 C 
BRANCH   3   4
ATOM      4  C   UNL     1       8.127   8.264  11.270  1.00  0.00     0.006 C 
BRANCH   4   5
ATOM      5  C   UNL     1       7.920   6.998  10.429  1.00  0.00     0.053 C 
BRANCH   5   6
ATOM      6  C   UNL     1       9.060   6.049  10.626  1.00  0.00     0.041 C 
ATOM      7  O   UNL     1       9.239   5.498  11.743  1.00  0.00    -0.550 OA
ATOM      8  O   UNL     1       9.895   5.735   9.561  1.00  0.00    -0.550 OA
ENDBRANCH   5   6
ENDBRANCH   4   5
ENDBRANCH   3   4
ENDBRANCH   2   3
ENDBRANCH   1   2
BRANCH   1   9
ATOM      9  C   UNL     1       4.207   7.528  10.087  1.00  0.00     0.000 C 
BRANCH   9  10
ATOM     10  C   UNL     1       4.307   6.772  11.419  1.00  0.00    -0.000 C 
BRANCH  10  11
ATOM     11  C   UNL     1       4.008   7.700  12.602  1.00  0.00    -0.000 C 
BRANCH  11  12
ATOM     12  C   UNL     1       5.161   7.695  13.612  1.00  0.00    -0.000 C 
BRANCH  12  13
ATOM     13  C   UNL     1       5.991   6.411  13.492  1.00  0.00    -0.003 C 
ATOM     14  C   UNL     1       7.132   6.395  14.506  1.00  0.00     0.004 C 
ENDBRANCH  12  13
ENDBRANCH  11  12
ENDBRANCH  10  11
ENDBRANCH   9  10
ENDBRANCH   1   9
TORSDOF 10
ENDMDL
MODEL 3
REMARK VINA RESULT:    -4.694      1.482      1.960
REMARK INTER + INTRA:          -8.905
REMARK INTER:                  -7.794
REMARK INTRA:                  -1.111
REMARK UNBOUND:                -1.467
REMARK SMILES CCCCCCCCCCCC(=O)[O-]
REMARK SMILES IDX 7 1 8 2 9 3 10 4 11 5 12 6 13 7 14 8 6 9 5 10 4 11 3 12 2 13
REMARK SMILES IDX 1 14
REMARK H PARENT
REMARK Flexibility Score: inf
ROOT
ATOM      1  C   UNL     1       3.955   6.766  11.146  1.00  0.00     0.000 C 
ENDROOT
BRANCH   1   2
ATOM      2  C   UNL     1       3.720   7.522  12.467  1.00  0.00     0.000 C 
BRANCH   2   3
ATOM      3  C   UNL     1       5.013   7.722  13.277  1.00  0.00     0.000 C 
BRANCH   3   4
ATOM      4  C   UNL     1       5.688   6.391  13.649  1.00  0.00     0.006 C 
BRANCH   4   5
ATOM      5  C   UNL     1       6.227   6.388  15.085  1.00  0.00     0.053 C 
BRANCH   5   6
ATOM      6  C   UNL     1       5.098   6.383  16.066  1.00  0.00     0.041 C 
ATOM      7  O   UNL     1       4.484   5.314  16.320  1.00  0.00    -0.550 OA
ATOM      8  O   UNL     1       4.754   7.550  16.737  1.00  0.00    -0.550 OA
ENDBRANCH   5   6
ENDBRANCH   4   5
ENDBRANCH   3   4
ENDBRANCH   2   3
ENDBRANCH   1   2
BRANCH   1   9
ATOM      9  C   UNL     1       4.089   7.663   9.902  1.00  0.00     0.000 C 
BRANCH   9  10
ATOM     10  C   UNL     1       5.542   8.046   9.591  1.00  0.00    -0.000 C 
BRANCH  10  11
ATOM     11  C   UNL     1       6.506   6.924   9.999  1.00  0.00    -0.000 C 
BRANCH  11  12
ATOM     12  C   UNL     1       7.751   7.492  10.690  1.00  0.00    -0.000 C 
BRANCH  12  13
ATOM     13  C   UNL     1       8.629   6.368  11.251  1.00  0.00    -0.003 C 
ATOM     14  C   UNL     1       9.375   5.641  10.136  1.00  0.00     0.004 C 
ENDBRANCH  12  13
ENDBRANCH  11  12
ENDBRANCH  10  11
ENDBRANCH   9  10
ENDBRANCH   1   9
TORSDOF 10
ENDMDL
MODEL 4
REMARK VINA RESULT:    -4.668      0.677      1.309
REMARK INTER + INTRA:          -8.863
REMARK INTER:                  -7.715
REMARK INTRA:                  -1.148
REMARK UNBOUND:                -1.467
REMARK SMILES CCCCCCCCCCCC(=O)[O-]
REMARK SMILES IDX 7 1 8 2 9 3 10 4 11 5 12 6 13 7 14 8 6 9 5 10 4 11 3 12 2 13
REMARK SMILES IDX 1 14
REMARK H PARENT
REMARK Flexibility Score: inf
ROOT
ATOM      1  C   UNL     1       4.234   7.480  10.065  1.00  0.00     0.000 C 
ENDROOT
BRANCH   1   2
ATOM      2  C   UNL     1       3.912   6.841  11.428  1.00  0.00     0.000 C 
BRANCH   2   3
ATOM      3  C   UNL     1       3.736   7.882  12.548  1.00  0.00     0.000 C 
BRANCH   3   4
ATOM      4  C   UNL     1       4.492   7.501  13.831  1.00  0.00     0.006 C 
BRANCH   4   5
ATOM      5  C   UNL     1       5.545   6.412  13.591  1.00  0.00     0.053 C 
BRANCH   5   6
ATOM      6  C   UNL     1       6.459   6.302  14.771  1.00  0.00     0.041 C 
ATOM      7  O   UNL     1       5.999   6.384  15.939  1.00  0.00    -0.550 OA
ATOM      8  O   UNL     1       7.814   6.060  14.580  1.00  0.00    -0.550 OA
ENDBRANCH   5   6
ENDBRANCH   4   5
ENDBRANCH   3   4
ENDBRANCH   2   3
ENDBRANCH   1   2
BRANCH   1   9
ATOM      9  C   UNL     1       5.723   7.454   9.673  1.00  0.00     0.000 C 
BRANCH   9  10
ATOM     10  C   UNL     1       6.504   8.665  10.204  1.00  0.00    -0.000 C 
BRANCH  10  11
ATOM     11  C   UNL     1       7.707   8.218  11.043  1.00  0.00    -0.000 C 
BRANCH  11  12
ATOM     12  C   UNL     1       7.810   6.689  11.089  1.00  0.00    -0.000 C 
BRANCH  12  13
ATOM     13  C   UNL     1       9.274   6.235  11.050  1.00  0.00    -0.003 C 
ATOM     14  C   UNL     1       9.613   5.579   9.715  1.00  0.00     0.004 C 
ENDBRANCH  12  13
ENDBRANCH  11  12
ENDBRANCH  10  11
ENDBRANCH   9  10
ENDBRANCH   1   9
TORSDOF 10
ENDMDL
MODEL 5
REMARK VINA RESULT:    -4.476      3.339      6.127
REMARK INTER + INTRA:          -8.560
REMARK INTER:                  -7.940
REMARK INTRA:                  -0.620
REMARK UNBOUND:                -1.467
REMARK SMILES CCCCCCCCCCCC(=O)[O-]
REMARK SMILES IDX 7 1 8 2 9 3 10 4 11 5 12 6 13 7 14 8 6 9 5 10 4 11 3 12 2 13
REMARK SMILES IDX 1 14
REMARK H PARENT
REMARK Flexibility Score: inf
ROOT
ATOM      1  C   UNL     1       7.583   6.009  13.984  1.00  0.00     0.000 C 
ENDROOT
BRANCH   1   2
ATOM      2  C   UNL     1       7.641   7.178  12.984  1.00  0.00     0.000 C 
BRANCH   2   3
ATOM      3  C   UNL     1       8.157   6.751  11.598  1.00  0.00     0.000 C 
BRANCH   3   4
ATOM      4  C   UNL     1       7.505   7.546  10.455  1.00  0.00     0.006 C 
BRANCH   4   5
ATOM      5  C   UNL     1       6.084   7.062  10.140  1.00  0.00     0.053 C 
BRANCH   5   6
ATOM      6  C   UNL     1       5.255   8.190   9.610  1.00  0.00     0.041 C 
ATOM      7  O   UNL     1       4.067   7.986   9.245  1.00  0.00    -0.550 OA
ATOM      8  O   UNL     1       5.778   9.476   9.564  1.00  0.00    -0.550 OA
ENDBRANCH   5   6
ENDBRANCH   4   5
ENDBRANCH   3   4
ENDBRANCH   2   3
ENDBRANCH   1   2
BRANCH   1   9
ATOM      9  C   UNL     1       6.177   5.687  14.523  1.00  0.00     0.000 C 
BRANCH   9  10
ATOM     10  C   UNL     1       5.263   6.918  14.591  1.00  0.00    -0.000 C 
BRANCH  10  11
ATOM     11  C   UNL     1       4.261   6.797  15.746  1.00  0.00    -0.000 C 
BRANCH  11  12
ATOM     12  C   UNL     1       4.897   6.103  16.956  1.00  0.00    -0.000 C 
BRANCH  12  13
ATOM     13  C   UNL     1       4.025   4.940  17.444  1.00  0.00    -0.003 C 
ATOM     14  C   UNL     1       2.615   5.414  17.788  1.00  0.00     0.004 C 
ENDBRANCH  12  13
ENDBRANCH  11  12
ENDBRANCH  10  11
ENDBRANCH   9  10
ENDBRANCH   1   9
TORSDOF 10
ENDMDL
MODEL 6
REMARK VINA RESULT:    -4.476      1.660      3.508
REMARK INTER + INTRA:          -8.559
REMARK INTER:                  -7.524
REMARK INTRA:                  -1.034
REMARK UNBOUND:                -1.467
REMARK SMILES CCCCCCCCCCCC(=O)[O-]
REMARK SMILES IDX 7 1 8 2 9 3 10 4 11 5 12 6 13 7 14 8 6 9 5 10 4 11 3 12 2 13
REMARK SMILES IDX 1 14
REMARK H PARENT
REMARK Flexibility Score: inf
ROOT
ATOM      1  C   UNL     1       8.341   6.382  12.089  1.00  0.00     0.000 C 
ENDROOT
BRANCH   1   2
ATOM      2  C   UNL     1       7.490   7.046  13.188  1.00  0.00     0.000 C 
BRANCH   2   3
ATOM      3  C   UNL     1       7.306   6.147  14.423  1.00  0.00     0.000 C 
BRANCH   3   4
ATOM      4  C   UNL     1       5.826   5.929  14.779  1.00  0.00     0.006 C 
BRANCH   4   5
ATOM      5  C   UNL     1       5.480   6.429  16.187  1.00  0.00     0.053 C 
BRANCH   5   6
ATOM      6  C   UNL     1       4.677   7.689  16.110  1.00  0.00     0.041 C 
ATOM      7  O   UNL     1       4.699   8.392  15.065  1.00  0.00    -0.550 OA
ATOM      8  O   UNL     1       3.866   8.063  17.175  1.00  0.00    -0.550 OA
ENDBRANCH   5   6
ENDBRANCH   4   5
ENDBRANCH   3   4
ENDBRANCH   2   3
ENDBRANCH   1   2
BRANCH   1   9
ATOM      9  C   UNL     1       8.161   6.979  10.681  1.00  0.00     0.000 C 
BRANCH   9  10
ATOM     10  C   UNL     1       7.748   8.457  10.704  1.00  0.00    -0.000 C 
BRANCH  10  11
ATOM     11  C   UNL     1       6.441   8.675   9.931  1.00  0.00    -0.000 C 
BRANCH  11  12
ATOM     12  C   UNL     1       5.713   7.346   9.693  1.00  0.00    -0.000 C 
BRANCH  12  13
ATOM     13  C   UNL     1       4.257   7.424  10.167  1.00  0.00    -0.003 C 
ATOM     14  C   UNL     1       4.083   6.753  11.526  1.00  0.00     0.004 C 
ENDBRANCH  12  13
ENDBRANCH  11  12
ENDBRANCH  10  11
ENDBRANCH   9  10
ENDBRANCH   1   9
TORSDOF 10
ENDMDL
MODEL 7
REMARK VINA RESULT:    -4.451      1.321      3.310
REMARK INTER + INTRA:          -8.520
REMARK INTER:                  -7.517
REMARK INTRA:                  -1.003
REMARK UNBOUND:                -1.467
REMARK SMILES CCCCCCCCCCCC(=O)[O-]
REMARK SMILES IDX 7 1 8 2 9 3 10 4 11 5 12 6 13 7 14 8 6 9 5 10 4 11 3 12 2 13
REMARK SMILES IDX 1 14
REMARK H PARENT
REMARK Flexibility Score: inf
ROOT
ATOM      1  C   UNL     1       7.862   8.946  11.104  1.00  0.00     0.000 C 
ENDROOT
BRANCH   1   2
ATOM      2  C   UNL     1       8.301   7.512  10.754  1.00  0.00     0.000 C 
BRANCH   2   3
ATOM      3  C   UNL     1       8.210   6.551  11.952  1.00  0.00     0.000 C 
BRANCH   3   4
ATOM      4  C   UNL     1       7.449   7.161  13.140  1.00  0.00     0.006 C 
BRANCH   4   5
ATOM      5  C   UNL     1       7.042   6.109  14.180  1.00  0.00     0.053 C 
BRANCH   5   6
ATOM      6  C   UNL     1       5.635   6.341  14.633  1.00  0.00     0.041 C 
ATOM      7  O   UNL     1       5.169   5.698  15.610  1.00  0.00    -0.550 OA
ATOM      8  O   UNL     1       4.852   7.304  14.007  1.00  0.00    -0.550 OA
ENDBRANCH   5   6
ENDBRANCH   4   5
ENDBRANCH   3   4
ENDBRANCH   2   3
ENDBRANCH   1   2
BRANCH   1   9
ATOM      9  C   UNL     1       7.851   9.928   9.918  1.00  0.00     0.000 C 
BRANCH   9  10
ATOM     10  C   UNL     1       6.525   9.920   9.144  1.00  0.00    -0.000 C 
BRANCH  10  11
ATOM     11  C   UNL     1       5.391   9.346  10.002  1.00  0.00    -0.000 C 
BRANCH  11  12
ATOM     12  C   UNL     1       4.834   8.056   9.389  1.00  0.00    -0.000 C 
BRANCH  12  13
ATOM     13  C   UNL     1       4.725   6.949  10.443  1.00  0.00    -0.003 C 
ATOM     14  C   UNL     1       3.290   6.802  10.942  1.00  0.00     0.004 C 
ENDBRANCH  12  13
ENDBRANCH  11  12
ENDBRANCH  10  11
ENDBRANCH   9  10
ENDBRANCH   1   9
TORSDOF 10
ENDMDL
MODEL 8
REMARK VINA RESULT:    -4.411      2.279      4.952
REMARK INTER + INTRA:          -8.456
REMARK INTER:                  -7.550
REMARK INTRA:                  -0.906
REMARK UNBOUND:                -1.467
REMARK SMILES CCCCCCCCCCCC(=O)[O-]
REMARK SMILES IDX 7 1 8 2 9 3 10 4 11 5 12 6 13 7 14 8 6 9 5 10 4 11 3 12 2 13
REMARK SMILES IDX 1 14
REMARK H PARENT
REMARK Flexibility Score: inf
ROOT
ATOM      1  C   UNL     1       3.652   7.495  12.380  1.00  0.00     0.000 C 
ENDROOT
BRANCH   1   2
ATOM      2  C   UNL     1       4.140   6.702  11.154  1.00  0.00     0.000 C 
BRANCH   2   3
ATOM      3  C   UNL     1       4.519   7.608   9.970  1.00  0.00     0.000 C 
BRANCH   3   4
ATOM      4  C   UNL     1       6.024   7.922   9.926  1.00  0.00     0.006 C 
BRANCH   4   5
ATOM      5  C   UNL     1       6.891   6.662  10.049  1.00  0.00     0.053 C 
BRANCH   5   6
ATOM      6  C   UNL     1       8.162   6.973  10.774  1.00  0.00     0.041 C 
ATOM      7  O   UNL     1       9.127   6.166  10.736  1.00  0.00    -0.550 OA
ATOM      8  O   UNL     1       8.298   8.178  11.453  1.00  0.00    -0.550 OA
ENDBRANCH   5   6
ENDBRANCH   4   5
ENDBRANCH   3   4
ENDBRANCH   2   3
ENDBRANCH   1   2
BRANCH   1   9
ATOM      9  C   UNL     1       4.658   7.575  13.543  1.00  0.00     0.000 C 
BRANCH   9  10
ATOM     10  C   UNL     1       5.676   6.427  13.535  1.00  0.00    -0.000 C 
BRANCH  10  11
ATOM     11  C   UNL     1       5.843   5.829  14.938  1.00  0.00    -0.000 C 
BRANCH  11  12
ATOM     12  C   UNL     1       4.755   6.344  15.888  1.00  0.00    -0.000 C 
BRANCH  12  13
ATOM     13  C   UNL     1       4.204   5.209  16.759  1.00  0.00    -0.003 C 
ATOM     14  C   UNL     1       2.748   5.462  17.140  1.00  0.00     0.004 C 
ENDBRANCH  12  13
ENDBRANCH  11  12
ENDBRANCH  10  11
ENDBRANCH   9  10
ENDBRANCH   1   9
TORSDOF 10
ENDMDL
MODEL 9
REMARK VINA RESULT:    -4.316      2.539      3.940
REMARK INTER + INTRA:          -8.306
REMARK INTER:                  -7.440
REMARK INTRA:                  -0.866
REMARK UNBOUND:                -1.467
REMARK SMILES CCCCCCCCCCCC(=O)[O-]
REMARK SMILES IDX 7 1 8 2 9 3 10 4 11 5 12 6 13 7 14 8 6 9 5 10 4 11 3 12 2 13
REMARK SMILES IDX 1 14
REMARK H PARENT
REMARK Flexibility Score: inf
ROOT
ATOM      1  C   UNL     1       5.122   6.937  13.355  1.00  0.00     0.000 C 
ENDROOT
BRANCH   1   2
ATOM      2  C   UNL     1       4.367   8.277  13.435  1.00  0.00     0.000 C 
BRANCH   2   3
ATOM      3  C   UNL     1       3.161   8.340  12.481  1.00  0.00     0.000 C 
BRANCH   3   4
ATOM      4  C   UNL     1       3.159   7.192  11.458  1.00  0.00     0.006 C 
BRANCH   4   5
ATOM      5  C   UNL     1       3.201   7.697  10.010  1.00  0.00     0.053 C 
BRANCH   5   6
ATOM      6  C   UNL     1       4.608   8.009   9.608  1.00  0.00     0.041 C 
ATOM      7  O   UNL     1       4.937   9.190   9.320  1.00  0.00    -0.550 OA
ATOM      8  O   UNL     1       5.568   7.005   9.597  1.00  0.00    -0.550 OA
ENDBRANCH   5   6
ENDBRANCH   4   5
ENDBRANCH   3   4
ENDBRANCH   2   3
ENDBRANCH   1   2
BRANCH   1   9
ATOM      9  C   UNL     1       6.510   6.936  14.020  1.00  0.00     0.000 C 
BRANCH   9  10
ATOM     10  C   UNL     1       7.651   6.677  13.027  1.00  0.00    -0.000 C 
BRANCH  10  11
ATOM     11  C   UNL     1       7.876   7.892  12.118  1.00  0.00    -0.000 C 
BRANCH  11  12
ATOM     12  C   UNL     1       8.631   7.495  10.845  1.00  0.00    -0.000 C 
BRANCH  12  13
ATOM     13  C   UNL     1       8.896   5.985  10.810  1.00  0.00    -0.003 C 
ATOM     14  C   UNL     1       9.807   5.611   9.644  1.00  0.00     0.004 C 
ENDBRANCH  12  13
ENDBRANCH  11  12
ENDBRANCH  10  11
ENDBRANCH   9  10
ENDBRANCH   1   9
TORSDOF 10
ENDMDL
