MODEL 1
REMARK VINA RESULT:    33.222      0.000      0.000
REMARK INTER + INTRA:          40.573
REMARK INTER:                  40.019
REMARK INTRA:                   0.554
REMARK UNBOUND:                 0.554
REMARK SMILES O=c1c(O)c(-c2ccc(O)cc2O)oc2cc(O)cc(O)c12
REMARK SMILES IDX 5 1 3 2 2 3 1 4 22 5 20 6 19 7 17 8 16 9 15 10 14 11 6 12
REMARK SMILES IDX 8 13 7 14 9 15 11 16 12 17 10 18 13 20 4 22 21 24 18 26
REMARK H PARENT 10 19 13 21 4 23 21 25 18 27
REMARK Flexibility Score: inf
ROOT
ATOM      1  C   UNL     1      25.334  43.972   4.232  1.00  0.00     0.184 A 
ATOM      2  C   UNL     1      26.638  44.276   3.808  1.00  0.00     0.208 A 
ATOM      3  C   UNL     1      27.384  45.223   4.527  1.00  0.00     0.238 A 
ATOM      4  O   UNL     1      28.571  45.450   4.177  1.00  0.00    -0.285 OA
ATOM      5  C   UNL     1      26.810  45.869   5.648  1.00  0.00     0.111 A 
ATOM      6  C   UNL     1      27.460  46.873   6.427  1.00  0.00     0.134 A 
ATOM      7  C   UNL     1      26.845  47.351   7.591  1.00  0.00     0.093 A 
ATOM      8  C   UNL     1      25.574  46.908   7.968  1.00  0.00     0.123 A 
ATOM      9  C   UNL     1      24.907  45.971   7.183  1.00  0.00     0.094 A 
ATOM     10  C   UNL     1      25.511  45.449   6.036  1.00  0.00     0.146 A 
ATOM     11  O   UNL     1      24.843  44.549   5.323  1.00  0.00    -0.451 OA
ENDROOT
BRANCH   1  12
ATOM     12  C   UNL     1      24.482  43.001   3.506  1.00  0.00     0.063 A 
ATOM     13  C   UNL     1      24.068  41.604   1.557  1.00  0.00     0.047 A 
ATOM     14  C   UNL     1      24.882  42.498   2.255  1.00  0.00     0.020 A 
ATOM     15  C   UNL     1      22.837  41.207   2.093  1.00  0.00     0.119 A 
ATOM     16  C   UNL     1      22.424  41.710   3.329  1.00  0.00     0.093 A 
ATOM     17  C   UNL     1      23.237  42.608   4.038  1.00  0.00     0.130 A 
BRANCH  15  18
ATOM     18  O   UNL     1      22.017  40.316   1.404  1.00  0.00    -0.508 OA
ATOM     19  H   UNL     1      22.367  39.764   0.629  1.00  0.00     0.293 HD
ENDBRANCH  15  18
BRANCH  17  20
ATOM     20  O   UNL     1      22.815  43.098   5.275  1.00  0.00    -0.507 OA
ATOM     21  H   UNL     1      23.068  44.026   5.593  1.00  0.00     0.293 HD
ENDBRANCH  17  20
ENDBRANCH   1  12
BRANCH   2  22
ATOM     22  O   UNL     1      27.188  43.616   2.707  1.00  0.00    -0.502 OA
ATOM     23  H   UNL     1      27.712  42.753   2.796  1.00  0.00     0.293 HD
ENDBRANCH   2  22
BRANCH   6  24
ATOM     24  O   UNL     1      28.687  47.451   6.088  1.00  0.00    -0.507 OA
ATOM     25  H   UNL     1      28.922  47.809   5.175  1.00  0.00     0.293 HD
ENDBRANCH   6  24
BRANCH   8  26
ATOM     26  O   UNL     1      24.963  47.400   9.119  1.00  0.00    -0.508 OA
ATOM     27  H   UNL     1      24.173  48.032   9.071  1.00  0.00     0.293 HD
ENDBRANCH   8  26
TORSDOF 6
ENDMDL
