MODEL 1
REMARK VINA RESULT:     1.322      0.000      0.000
REMARK INTER + INTRA:           2.135
REMARK INTER:                   2.095
REMARK INTRA:                   0.040
REMARK UNBOUND:                 0.040
REMARK SMILES C[C@H]1O[C@@H](O[C@H]2[C@H](Oc3cc(O)c4c(c3)O[C@@H](c3ccc(O)cc3)CC4=O)O[C@@H](CO)[C@@H](O)[C@H]2O)[C@H](O)[C@H](O)[C@@H]1O
REMARK SMILES IDX 6 1 34 2 32 3 29 4 28 5 7 6 5 7 4 8 1 9 2 10 40 11 3 12
REMARK SMILES IDX 38 13 36 14 41 15 39 17 37 19 35 21 8 23 9 24 10 25 15 26
REMARK SMILES IDX 11 27 14 28 13 29 16 30 26 31 17 32 27 33 25 34 12 35 18 37
REMARK SMILES IDX 19 38 24 39 20 40 23 41 21 42 22 43 33 45 30 47 31 48
REMARK H PARENT 41 16 39 18 37 20 35 22 12 36 22 44 33 46 31 49
REMARK Flexibility Score: inf
ROOT
ATOM      1  C   UNL     1       6.542  19.706   3.703  1.00  0.00     0.221 C 
ATOM      2  C   UNL     1       6.712  20.677   4.891  1.00  0.00     0.181 C 
ATOM      3  C   UNL     1       8.075  20.466   5.568  1.00  0.00     0.177 C 
ATOM      4  C   UNL     1       8.152  18.980   5.975  1.00  0.00     0.179 C 
ATOM      5  O   UNL     1       8.178  18.179   4.810  1.00  0.00    -0.332 OA
ATOM      6  C   UNL     1       6.957  18.255   4.080  1.00  0.00     0.339 C 
ENDROOT
BRANCH   1   7
ATOM      7  O   UNL     1       7.336  20.174   2.615  1.00  0.00    -0.337 OA
BRANCH   7   8
ATOM      8  C   UNL     1       6.757  19.916   1.351  1.00  0.00     0.282 C 
ATOM      9  C   UNL     1       5.877  16.679  -0.121  1.00  0.00     0.041 C 
ATOM     10  C   UNL     1       6.009  18.199  -0.050  1.00  0.00     0.150 C 
ATOM     11  C   UNL     1       6.759  18.764  -1.300  1.00  0.00     0.174 C 
ATOM     12  O   UNL     1       6.711  18.518   1.145  1.00  0.00    -0.344 OA
ATOM     13  C   UNL     1       7.052  20.274  -1.143  1.00  0.00     0.179 C 
ATOM     14  C   UNL     1       7.619  20.577   0.258  1.00  0.00     0.202 C 
BRANCH  11  15
ATOM     15  O   UNL     1       6.033  18.564  -2.489  1.00  0.00    -0.388 OA
ATOM     16  H   UNL     1       6.635  18.092  -3.123  1.00  0.00     0.211 HD
ENDBRANCH  11  15
BRANCH  13  17
ATOM     17  O   UNL     1       5.914  21.051  -1.418  1.00  0.00    -0.387 OA
ATOM     18  H   UNL     1       5.393  20.610  -2.137  1.00  0.00     0.211 HD
ENDBRANCH  13  17
BRANCH  14  19
ATOM     19  O   UNL     1       7.660  21.964   0.459  1.00  0.00    -0.385 OA
ATOM     20  H   UNL     1       7.561  22.130   1.425  1.00  0.00     0.211 HD
ENDBRANCH  14  19
ENDBRANCH   7   8
ENDBRANCH   1   7
BRANCH   2  21
ATOM     21  O   UNL     1       6.600  22.003   4.445  1.00  0.00    -0.387 OA
ATOM     22  H   UNL     1       5.782  22.388   4.858  1.00  0.00     0.211 HD
ENDBRANCH   2  21
BRANCH   6  23
ATOM     23  O   UNL     1       5.911  17.583   4.797  1.00  0.00    -0.462 OA
BRANCH  23  24
ATOM     24  C   UNL     1       6.032  17.041   6.087  1.00  0.00     0.130 A 
ATOM     25  C   UNL     1       6.034  17.833   7.250  1.00  0.00     0.093 A 
ATOM     26  C   UNL     1       6.144  15.651   6.215  1.00  0.00     0.094 A 
ATOM     27  C   UNL     1       6.052  17.237   8.522  1.00  0.00     0.133 A 
ATOM     28  C   UNL     1       6.178  15.049   7.480  1.00  0.00     0.138 A 
ATOM     29  C   UNL     1       6.050  15.832   8.639  1.00  0.00     0.102 A 
ATOM     30  O   UNL     1       6.315  13.658   7.573  1.00  0.00    -0.484 OA
ATOM     31  C   UNL     1       5.958  15.135   9.943  1.00  0.00     0.174 C 
ATOM     32  C   UNL     1       6.604  12.979   8.800  1.00  0.00     0.211 C 
ATOM     33  O   UNL     1       5.875  15.787  11.020  1.00  0.00    -0.294 OA
ATOM     34  C   UNL     1       5.875  13.635   9.993  1.00  0.00     0.131 C 
BRANCH  27  35
ATOM     35  O   UNL     1       6.107  18.038   9.662  1.00  0.00    -0.507 OA
ATOM     36  H   UNL     1       6.452  17.684  10.543  1.00  0.00     0.293 HD
ENDBRANCH  27  35
BRANCH  32  37
ATOM     37  C   UNL     1       8.114  12.840   9.001  1.00  0.00    -0.007 A 
ATOM     38  C   UNL     1       9.027  13.047   7.948  1.00  0.00     0.011 A 
ATOM     39  C   UNL     1       8.612  12.453  10.261  1.00  0.00     0.011 A 
ATOM     40  C   UNL     1      10.401  12.906   8.163  1.00  0.00     0.046 A 
ATOM     41  C   UNL     1       9.992  12.325  10.468  1.00  0.00     0.046 A 
ATOM     42  C   UNL     1      10.890  12.578   9.430  1.00  0.00     0.115 A 
BRANCH  42  43
ATOM     43  O   UNL     1      12.264  12.499   9.663  1.00  0.00    -0.508 OA
ATOM     44  H   UNL     1      12.946  12.747   8.950  1.00  0.00     0.293 HD
ENDBRANCH  42  43
ENDBRANCH  32  37
ENDBRANCH  23  24
ENDBRANCH   6  23
BRANCH   3  45
ATOM     45  O   UNL     1       9.126  20.753   4.672  1.00  0.00    -0.387 OA
ATOM     46  H   UNL     1       9.736  19.969   4.684  1.00  0.00     0.211 HD
ENDBRANCH   3  45
BRANCH   4  47
ATOM     47  C   UNL     1       9.419  18.703   6.818  1.00  0.00     0.191 C 
BRANCH  47  48
ATOM     48  O   UNL     1      10.076  19.887   7.215  1.00  0.00    -0.394 OA
ATOM     49  H   UNL     1      10.495  20.313   6.421  1.00  0.00     0.210 HD
ENDBRANCH  47  48
ENDBRANCH   4  47
TORSDOF 14
ENDMDL
