MODEL 1
REMARK VINA RESULT:    -3.951      0.000      0.000
REMARK INTER + INTRA:          -4.357
REMARK INTER:                  -4.182
REMARK INTRA:                  -0.175
REMARK UNBOUND:                -0.175
REMARK SMILES CC(C)[C@H]1CC[C@H](C)CC1=O
REMARK SMILES IDX 8 1 7 2 6 3 5 4 4 5 10 6 11 7 9 8 2 9 1 10 3 11
REMARK H PARENT
REMARK Flexibility Score: inf
ROOT
ATOM      1  C   UNL     1     114.123 114.486 112.668  1.00  0.00     0.008 C 
ATOM      2  C   UNL     1     115.441 115.240 112.461  1.00  0.00    -0.007 C 
ATOM      3  C   UNL     1     115.382 116.630 113.129  1.00  0.00     0.004 C 
ATOM      4  C   UNL     1     116.702 117.402 112.949  1.00  0.00     0.012 C 
ATOM      5  C   UNL     1     117.910 116.614 113.514  1.00  0.00     0.058 C 
ATOM      6  C   UNL     1     117.882 115.229 112.888  1.00  0.00     0.136 C 
ATOM      7  O   UNL     1     118.816 114.798 112.228  1.00  0.00    -0.299 OA
ATOM      8  C   UNL     1     116.623 114.423 113.012  1.00  0.00     0.079 C 
ENDROOT
BRANCH   5   9
ATOM      9  C   UNL     1     119.277 117.347 113.309  1.00  0.00    -0.007 C 
ATOM     10  C   UNL     1     119.237 118.372 112.161  1.00  0.00     0.008 C 
ATOM     11  C   UNL     1     119.709 118.074 114.596  1.00  0.00     0.008 C 
ENDBRANCH   5   9
TORSDOF 1
ENDMDL
MODEL 2
REMARK VINA RESULT:    -3.943      1.984      3.331
REMARK INTER + INTRA:          -4.348
REMARK INTER:                  -4.174
REMARK INTRA:                  -0.174
REMARK UNBOUND:                -0.175
REMARK SMILES CC(C)[C@H]1CC[C@H](C)CC1=O
REMARK SMILES IDX 8 1 7 2 6 3 5 4 4 5 10 6 11 7 9 8 2 9 1 10 3 11
REMARK H PARENT
REMARK Flexibility Score: inf
ROOT
ATOM      1  C   UNL     1     118.533 113.968 112.583  1.00  0.00     0.008 C 
ATOM      2  C   UNL     1     117.887 115.340 112.365  1.00  0.00    -0.007 C 
ATOM      3  C   UNL     1     116.412 115.323 112.819  1.00  0.00     0.004 C 
ATOM      4  C   UNL     1     115.743 116.697 112.626  1.00  0.00     0.012 C 
ATOM      5  C   UNL     1     116.499 117.815 113.385  1.00  0.00     0.058 C 
ATOM      6  C   UNL     1     117.958 117.743 112.966  1.00  0.00     0.136 C 
ATOM      7  O   UNL     1     118.529 118.690 112.444  1.00  0.00    -0.299 OA
ATOM      8  C   UNL     1     118.672 116.432 113.114  1.00  0.00     0.079 C 
ENDROOT
BRANCH   5   9
ATOM      9  C   UNL     1     115.874 119.235 113.176  1.00  0.00    -0.007 C 
ATOM     10  C   UNL     1     115.057 119.340 111.876  1.00  0.00     0.008 C 
ATOM     11  C   UNL     1     114.961 119.612 114.358  1.00  0.00     0.008 C 
ENDBRANCH   5   9
TORSDOF 1
ENDMDL
MODEL 3
REMARK VINA RESULT:    -3.894      2.196      4.616
REMARK INTER + INTRA:          -4.296
REMARK INTER:                  -4.122
REMARK INTRA:                  -0.174
REMARK UNBOUND:                -0.175
REMARK SMILES CC(C)[C@H]1CC[C@H](C)CC1=O
REMARK SMILES IDX 8 1 7 2 6 3 5 4 4 5 10 6 11 7 9 8 2 9 1 10 3 11
REMARK H PARENT
REMARK Flexibility Score: inf
ROOT
ATOM      1  C   UNL     1     120.744 118.229 116.010  1.00  0.00     0.008 C 
ATOM      2  C   UNL     1     119.530 117.923 115.127  1.00  0.00    -0.007 C 
ATOM      3  C   UNL     1     118.242 118.493 115.758  1.00  0.00     0.004 C 
ATOM      4  C   UNL     1     117.008 118.213 114.881  1.00  0.00     0.012 C 
ATOM      5  C   UNL     1     117.176 118.788 113.453  1.00  0.00     0.058 C 
ATOM      6  C   UNL     1     118.492 118.262 112.903  1.00  0.00     0.136 C 
ATOM      7  O   UNL     1     118.546 117.600 111.876  1.00  0.00    -0.299 OA
ATOM      8  C   UNL     1     119.736 118.488 113.711  1.00  0.00     0.079 C 
ENDROOT
BRANCH   5   9
ATOM      9  C   UNL     1     115.959 118.482 112.517  1.00  0.00    -0.007 C 
ATOM     10  C   UNL     1     115.020 117.408 113.092  1.00  0.00     0.008 C 
ATOM     11  C   UNL     1     115.137 119.758 112.252  1.00  0.00     0.008 C 
ENDBRANCH   5   9
TORSDOF 1
ENDMDL
MODEL 4
REMARK VINA RESULT:    -3.877      1.106      4.298
REMARK INTER + INTRA:          -4.279
REMARK INTER:                  -4.111
REMARK INTRA:                  -0.168
REMARK UNBOUND:                -0.175
REMARK SMILES CC(C)[C@H]1CC[C@H](C)CC1=O
REMARK SMILES IDX 8 1 7 2 6 3 5 4 4 5 10 6 11 7 9 8 2 9 1 10 3 11
REMARK H PARENT
REMARK Flexibility Score: inf
ROOT
ATOM      1  C   UNL     1     119.644 118.087 112.629  1.00  0.00     0.008 C 
ATOM      2  C   UNL     1     118.483 117.145 112.963  1.00  0.00    -0.007 C 
ATOM      3  C   UNL     1     117.154 117.925 113.038  1.00  0.00     0.004 C 
ATOM      4  C   UNL     1     115.967 116.996 113.357  1.00  0.00     0.012 C 
ATOM      5  C   UNL     1     115.834 115.857 112.315  1.00  0.00     0.058 C 
ATOM      6  C   UNL     1     117.185 115.169 112.219  1.00  0.00     0.136 C 
ATOM      7  O   UNL     1     117.322 113.976 112.454  1.00  0.00    -0.299 OA
ATOM      8  C   UNL     1     118.390 116.013 111.924  1.00  0.00     0.079 C 
ENDROOT
BRANCH   5   9
ATOM      9  C   UNL     1     114.666 114.865 112.631  1.00  0.00    -0.007 C 
ATOM     10  C   UNL     1     114.341 114.786 114.134  1.00  0.00     0.008 C 
ATOM     11  C   UNL     1     113.385 115.267 111.876  1.00  0.00     0.008 C 
ENDBRANCH   5   9
TORSDOF 1
ENDMDL
MODEL 5
REMARK VINA RESULT:    -3.876      1.941      3.478
REMARK INTER + INTRA:          -4.277
REMARK INTER:                  -4.106
REMARK INTRA:                  -0.171
REMARK UNBOUND:                -0.175
REMARK SMILES CC(C)[C@H]1CC[C@H](C)CC1=O
REMARK SMILES IDX 8 1 7 2 6 3 5 4 4 5 10 6 11 7 9 8 2 9 1 10 3 11
REMARK H PARENT
REMARK Flexibility Score: inf
ROOT
ATOM      1  C   UNL     1     115.130 119.554 112.133  1.00  0.00     0.008 C 
ATOM      2  C   UNL     1     115.737 118.154 112.001  1.00  0.00    -0.007 C 
ATOM      3  C   UNL     1     117.103 118.083 112.715  1.00  0.00     0.004 C 
ATOM      4  C   UNL     1     117.727 116.679 112.612  1.00  0.00     0.012 C 
ATOM      5  C   UNL     1     116.790 115.591 113.191  1.00  0.00     0.058 C 
ATOM      6  C   UNL     1     115.437 115.748 112.516  1.00  0.00     0.136 C 
ATOM      7  O   UNL     1     114.925 114.841 111.875  1.00  0.00    -0.299 OA
ATOM      8  C   UNL     1     114.775 117.093 112.566  1.00  0.00     0.079 C 
ENDROOT
BRANCH   5   9
ATOM      9  C   UNL     1     117.371 114.143 113.062  1.00  0.00    -0.007 C 
ATOM     10  C   UNL     1     118.361 114.001 111.892  1.00  0.00     0.008 C 
ATOM     11  C   UNL     1     118.085 113.720 114.360  1.00  0.00     0.008 C 
ENDBRANCH   5   9
TORSDOF 1
ENDMDL
MODEL 6
REMARK VINA RESULT:    -3.833      2.147      3.445
REMARK INTER + INTRA:          -4.232
REMARK INTER:                  -4.060
REMARK INTRA:                  -0.173
REMARK UNBOUND:                -0.175
REMARK SMILES CC(C)[C@H]1CC[C@H](C)CC1=O
REMARK SMILES IDX 8 1 7 2 6 3 5 4 4 5 10 6 11 7 9 8 2 9 1 10 3 11
REMARK H PARENT
REMARK Flexibility Score: inf
ROOT
ATOM      1  C   UNL     1     117.816 113.154 111.907  1.00  0.00     0.008 C 
ATOM      2  C   UNL     1     117.139 114.379 112.529  1.00  0.00    -0.007 C 
ATOM      3  C   UNL     1     118.041 115.624 112.395  1.00  0.00     0.004 C 
ATOM      4  C   UNL     1     117.376 116.875 112.999  1.00  0.00     0.012 C 
ATOM      5  C   UNL     1     116.001 117.166 112.347  1.00  0.00     0.058 C 
ATOM      6  C   UNL     1     115.178 115.891 112.434  1.00  0.00     0.136 C 
ATOM      7  O   UNL     1     114.101 115.855 113.010  1.00  0.00    -0.299 OA
ATOM      8  C   UNL     1     115.768 114.629 111.877  1.00  0.00     0.079 C 
ENDROOT
BRANCH   5   9
ATOM      9  C   UNL     1     115.273 118.405 112.968  1.00  0.00    -0.007 C 
ATOM     10  C   UNL     1     115.973 118.935 114.232  1.00  0.00     0.008 C 
ATOM     11  C   UNL     1     115.177 119.553 111.945  1.00  0.00     0.008 C 
ENDBRANCH   5   9
TORSDOF 1
ENDMDL
MODEL 7
REMARK VINA RESULT:    -3.814      1.775      2.508
REMARK INTER + INTRA:          -4.211
REMARK INTER:                  -4.037
REMARK INTRA:                  -0.174
REMARK UNBOUND:                -0.175
REMARK SMILES CC(C)[C@H]1CC[C@H](C)CC1=O
REMARK SMILES IDX 8 1 7 2 6 3 5 4 4 5 10 6 11 7 9 8 2 9 1 10 3 11
REMARK H PARENT
REMARK Flexibility Score: inf
ROOT
ATOM      1  C   UNL     1     113.697 115.096 113.032  1.00  0.00     0.008 C 
ATOM      2  C   UNL     1     114.898 116.011 113.291  1.00  0.00    -0.007 C 
ATOM      3  C   UNL     1     116.206 115.193 113.334  1.00  0.00     0.004 C 
ATOM      4  C   UNL     1     117.431 116.093 113.578  1.00  0.00     0.012 C 
ATOM      5  C   UNL     1     117.555 117.199 112.501  1.00  0.00     0.058 C 
ATOM      6  C   UNL     1     116.222 117.926 112.440  1.00  0.00     0.136 C 
ATOM      7  O   UNL     1     116.130 119.128 112.647  1.00  0.00    -0.299 OA
ATOM      8  C   UNL     1     114.982 117.111 112.218  1.00  0.00     0.079 C 
ENDROOT
BRANCH   5   9
ATOM      9  C   UNL     1     118.764 118.163 112.741  1.00  0.00    -0.007 C 
ATOM     10  C   UNL     1     119.210 118.204 114.214  1.00  0.00     0.008 C 
ATOM     11  C   UNL     1     119.972 117.753 111.877  1.00  0.00     0.008 C 
ENDBRANCH   5   9
TORSDOF 1
ENDMDL
