MODEL 1
REMARK VINA RESULT:    -5.108      0.000      0.000
REMARK INTER + INTRA:          -6.471
REMARK INTER:                  -6.153
REMARK INTRA:                  -0.318
REMARK UNBOUND:                -0.318
REMARK SMILES O=c1c(O)c(-c2ccc(O)c(O)c2)oc2cc(O)cc(O)c12
REMARK SMILES IDX 5 1 3 2 2 3 1 4 22 5 20 6 19 7 17 8 16 9 15 10 14 11 6 12
REMARK SMILES IDX 7 13 8 14 9 15 13 16 11 17 10 18 12 20 4 22 21 24 18 26
REMARK H PARENT 10 19 12 21 4 23 21 25 18 27
REMARK Flexibility Score: inf
ROOT
ATOM      1  C   UNL     1      32.800  -6.383  -0.456  1.00  0.00     0.180 A 
ATOM      2  C   UNL     1      33.522  -5.640  -1.405  1.00  0.00     0.208 A 
ATOM      3  C   UNL     1      33.265  -5.847  -2.771  1.00  0.00     0.238 A 
ATOM      4  O   UNL     1      33.953  -5.218  -3.616  1.00  0.00    -0.285 OA
ATOM      5  C   UNL     1      32.280  -6.782  -3.168  1.00  0.00     0.111 A 
ATOM      6  C   UNL     1      31.910  -7.043  -4.522  1.00  0.00     0.134 A 
ATOM      7  C   UNL     1      31.016  -8.084  -4.805  1.00  0.00     0.093 A 
ATOM      8  C   UNL     1      30.430  -8.827  -3.782  1.00  0.00     0.123 A 
ATOM      9  C   UNL     1      30.738  -8.541  -2.452  1.00  0.00     0.094 A 
ATOM     10  C   UNL     1      31.655  -7.534  -2.139  1.00  0.00     0.146 A 
ATOM     11  O   UNL     1      31.930  -7.301  -0.862  1.00  0.00    -0.452 OA
ENDROOT
BRANCH   1  12
ATOM     12  C   UNL     1      32.997  -6.203   1.001  1.00  0.00     0.025 A 
ATOM     13  C   UNL     1      33.781  -7.126   1.711  1.00  0.00     0.016 A 
ATOM     14  C   UNL     1      33.963  -6.987   3.090  1.00  0.00     0.051 A 
ATOM     15  C   UNL     1      33.353  -5.936   3.781  1.00  0.00     0.157 A 
ATOM     16  C   UNL     1      32.368  -5.158   1.701  1.00  0.00     0.062 A 
ATOM     17  C   UNL     1      32.547  -5.019   3.086  1.00  0.00     0.158 A 
BRANCH  15  18
ATOM     18  O   UNL     1      33.554  -5.821   5.156  1.00  0.00    -0.504 OA
ATOM     19  H   UNL     1      33.210  -5.030   5.686  1.00  0.00     0.293 HD
ENDBRANCH  15  18
BRANCH  17  20
ATOM     20  O   UNL     1      31.925  -3.976   3.771  1.00  0.00    -0.504 OA
ATOM     21  H   UNL     1      32.435  -3.149   4.056  1.00  0.00     0.293 HD
ENDBRANCH  17  20
ENDBRANCH   1  12
BRANCH   2  22
ATOM     22  O   UNL     1      34.506  -4.738  -0.991  1.00  0.00    -0.502 OA
ATOM     23  H   UNL     1      34.591  -3.807  -1.385  1.00  0.00     0.293 HD
ENDBRANCH   2  22
BRANCH   6  24
ATOM     24  O   UNL     1      32.367  -6.299  -5.613  1.00  0.00    -0.507 OA
ATOM     25  H   UNL     1      33.080  -6.604  -6.259  1.00  0.00     0.293 HD
ENDBRANCH   6  24
BRANCH   8  26
ATOM     26  O   UNL     1      29.531  -9.844  -4.099  1.00  0.00    -0.508 OA
ATOM     27  H   UNL     1      29.741 -10.533  -4.811  1.00  0.00     0.293 HD
ENDBRANCH   8  26
TORSDOF 6
ENDMDL
MODEL 2
REMARK VINA RESULT:    -4.995      1.899      7.454
REMARK INTER + INTRA:          -6.334
REMARK INTER:                  -6.020
REMARK INTRA:                  -0.315
REMARK UNBOUND:                -0.318
REMARK SMILES O=c1c(O)c(-c2ccc(O)c(O)c2)oc2cc(O)cc(O)c12
REMARK SMILES IDX 5 1 3 2 2 3 1 4 22 5 20 6 19 7 17 8 16 9 15 10 14 11 6 12
REMARK SMILES IDX 7 13 8 14 9 15 13 16 11 17 10 18 12 20 4 22 21 24 18 26
REMARK H PARENT 10 19 12 21 4 23 21 25 18 27
REMARK Flexibility Score: inf
ROOT
ATOM      1  C   UNL     1      33.006  -6.093   1.696  1.00  0.00     0.180 A 
ATOM      2  C   UNL     1      32.575  -4.977   2.432  1.00  0.00     0.208 A 
ATOM      3  C   UNL     1      32.953  -4.863   3.780  1.00  0.00     0.238 A 
ATOM      4  O   UNL     1      32.519  -3.889   4.448  1.00  0.00    -0.285 OA
ATOM      5  C   UNL     1      33.768  -5.859   4.370  1.00  0.00     0.111 A 
ATOM      6  C   UNL     1      34.244  -5.825   5.715  1.00  0.00     0.134 A 
ATOM      7  C   UNL     1      34.935  -6.928   6.232  1.00  0.00     0.093 A 
ATOM      8  C   UNL     1      35.225  -8.033   5.433  1.00  0.00     0.123 A 
ATOM      9  C   UNL     1      34.818  -8.051   4.099  1.00  0.00     0.094 A 
ATOM     10  C   UNL     1      34.094  -6.982   3.566  1.00  0.00     0.146 A 
ATOM     11  O   UNL     1      33.715  -7.043   2.295  1.00  0.00    -0.452 OA
ENDROOT
BRANCH   1  12
ATOM     12  C   UNL     1      32.670  -6.271   0.264  1.00  0.00     0.025 A 
ATOM     13  C   UNL     1      33.554  -5.796  -0.717  1.00  0.00     0.016 A 
ATOM     14  C   UNL     1      33.246  -5.934  -2.073  1.00  0.00     0.051 A 
ATOM     15  C   UNL     1      32.047  -6.533  -2.468  1.00  0.00     0.157 A 
ATOM     16  C   UNL     1      31.454  -6.854  -0.135  1.00  0.00     0.062 A 
ATOM     17  C   UNL     1      31.142  -6.991  -1.496  1.00  0.00     0.158 A 
BRANCH  15  18
ATOM     18  O   UNL     1      31.768  -6.659  -3.829  1.00  0.00    -0.504 OA
ATOM     19  H   UNL     1      31.538  -7.550  -4.251  1.00  0.00     0.293 HD
ENDBRANCH  15  18
BRANCH  17  20
ATOM     20  O   UNL     1      29.937  -7.576  -1.883  1.00  0.00    -0.504 OA
ATOM     21  H   UNL     1      29.450  -8.232  -1.285  1.00  0.00     0.293 HD
ENDBRANCH  17  20
ENDBRANCH   1  12
BRANCH   2  22
ATOM     22  O   UNL     1      31.752  -4.017   1.837  1.00  0.00    -0.502 OA
ATOM     23  H   UNL     1      31.640  -3.945   0.832  1.00  0.00     0.293 HD
ENDBRANCH   2  22
BRANCH   6  24
ATOM     24  O   UNL     1      34.088  -4.730   6.571  1.00  0.00    -0.507 OA
ATOM     25  H   UNL     1      34.506  -3.823   6.426  1.00  0.00     0.293 HD
ENDBRANCH   6  24
BRANCH   8  26
ATOM     26  O   UNL     1      35.930  -9.107   5.975  1.00  0.00    -0.508 OA
ATOM     27  H   UNL     1      35.562  -9.644   6.751  1.00  0.00     0.293 HD
ENDBRANCH   8  26
TORSDOF 6
ENDMDL
MODEL 3
REMARK VINA RESULT:    -4.962      1.471      3.046
REMARK INTER + INTRA:          -6.295
REMARK INTER:                  -6.001
REMARK INTRA:                  -0.294
REMARK UNBOUND:                -0.318
REMARK SMILES O=c1c(O)c(-c2ccc(O)c(O)c2)oc2cc(O)cc(O)c12
REMARK SMILES IDX 5 1 3 2 2 3 1 4 22 5 20 6 19 7 17 8 16 9 15 10 14 11 6 12
REMARK SMILES IDX 7 13 8 14 9 15 13 16 11 17 10 18 12 20 4 22 21 24 18 26
REMARK H PARENT 10 19 12 21 4 23 21 25 18 27
REMARK Flexibility Score: inf
ROOT
ATOM      1  C   UNL     1      32.421  -7.371  -1.102  1.00  0.00     0.180 A 
ATOM      2  C   UNL     1      31.684  -8.552  -1.291  1.00  0.00     0.208 A 
ATOM      3  C   UNL     1      31.525  -9.056  -2.593  1.00  0.00     0.238 A 
ATOM      4  O   UNL     1      30.818 -10.083  -2.761  1.00  0.00    -0.285 OA
ATOM      5  C   UNL     1      32.119  -8.381  -3.686  1.00  0.00     0.111 A 
ATOM      6  C   UNL     1      32.056  -8.823  -5.042  1.00  0.00     0.134 A 
ATOM      7  C   UNL     1      32.569  -8.007  -6.059  1.00  0.00     0.093 A 
ATOM      8  C   UNL     1      33.198  -6.799  -5.763  1.00  0.00     0.123 A 
ATOM      9  C   UNL     1      33.319  -6.386  -4.436  1.00  0.00     0.094 A 
ATOM     10  C   UNL     1      32.785  -7.160  -3.403  1.00  0.00     0.146 A 
ATOM     11  O   UNL     1      32.910  -6.725  -2.155  1.00  0.00    -0.452 OA
ENDROOT
BRANCH   1  12
ATOM     12  C   UNL     1      32.653  -6.793   0.242  1.00  0.00     0.025 A 
ATOM     13  C   UNL     1      33.645  -7.343   1.068  1.00  0.00     0.016 A 
ATOM     14  C   UNL     1      33.865  -6.826   2.348  1.00  0.00     0.051 A 
ATOM     15  C   UNL     1      33.090  -5.766   2.825  1.00  0.00     0.157 A 
ATOM     16  C   UNL     1      31.860  -5.740   0.731  1.00  0.00     0.062 A 
ATOM     17  C   UNL     1      32.078  -5.222   2.017  1.00  0.00     0.158 A 
BRANCH  15  18
ATOM     18  O   UNL     1      33.334  -5.269   4.106  1.00  0.00    -0.504 OA
ATOM     19  H   UNL     1      34.005  -4.530   4.277  1.00  0.00     0.293 HD
ENDBRANCH  15  18
BRANCH  17  20
ATOM     20  O   UNL     1      31.291  -4.173   2.492  1.00  0.00    -0.504 OA
ATOM     21  H   UNL     1      30.304  -4.296   2.683  1.00  0.00     0.293 HD
ENDBRANCH  17  20
ENDBRANCH   1  12
BRANCH   2  22
ATOM     22  O   UNL     1      31.088  -9.191  -0.200  1.00  0.00    -0.502 OA
ATOM     23  H   UNL     1      30.238  -8.847   0.234  1.00  0.00     0.293 HD
ENDBRANCH   2  22
BRANCH   6  24
ATOM     24  O   UNL     1      31.531 -10.056  -5.437  1.00  0.00    -0.507 OA
ATOM     25  H   UNL     1      30.733 -10.173  -6.045  1.00  0.00     0.293 HD
ENDBRANCH   6  24
BRANCH   8  26
ATOM     26  O   UNL     1      33.711  -6.020  -6.799  1.00  0.00    -0.508 OA
ATOM     27  H   UNL     1      33.151  -5.310  -7.255  1.00  0.00     0.293 HD
ENDBRANCH   8  26
TORSDOF 6
ENDMDL
MODEL 4
REMARK VINA RESULT:    -4.945      1.774      7.467
REMARK INTER + INTRA:          -6.275
REMARK INTER:                  -5.955
REMARK INTRA:                  -0.319
REMARK UNBOUND:                -0.318
REMARK SMILES O=c1c(O)c(-c2ccc(O)c(O)c2)oc2cc(O)cc(O)c12
REMARK SMILES IDX 5 1 3 2 2 3 1 4 22 5 20 6 19 7 17 8 16 9 15 10 14 11 6 12
REMARK SMILES IDX 7 13 8 14 9 15 13 16 11 17 10 18 12 20 4 22 21 24 18 26
REMARK H PARENT 10 19 12 21 4 23 21 25 18 27
REMARK Flexibility Score: inf
ROOT
ATOM      1  C   UNL     1      32.976  -6.548   1.228  1.00  0.00     0.180 A 
ATOM      2  C   UNL     1      33.785  -7.498   1.874  1.00  0.00     0.208 A 
ATOM      3  C   UNL     1      34.112  -7.307   3.227  1.00  0.00     0.238 A 
ATOM      4  O   UNL     1      34.880  -8.132   3.785  1.00  0.00    -0.285 OA
ATOM      5  C   UNL     1      33.613  -6.177   3.919  1.00  0.00     0.111 A 
ATOM      6  C   UNL     1      33.847  -5.905   5.301  1.00  0.00     0.134 A 
ATOM      7  C   UNL     1      33.414  -4.691   5.849  1.00  0.00     0.093 A 
ATOM      8  C   UNL     1      32.699  -3.771   5.084  1.00  0.00     0.123 A 
ATOM      9  C   UNL     1      32.412  -4.053   3.748  1.00  0.00     0.094 A 
ATOM     10  C   UNL     1      32.863  -5.239   3.163  1.00  0.00     0.146 A 
ATOM     11  O   UNL     1      32.578  -5.465   1.887  1.00  0.00    -0.452 OA
ENDROOT
BRANCH   1  12
ATOM     12  C   UNL     1      32.569  -6.693  -0.189  1.00  0.00     0.025 A 
ATOM     13  C   UNL     1      33.404  -6.196  -1.201  1.00  0.00     0.016 A 
ATOM     14  C   UNL     1      33.029  -6.304  -2.544  1.00  0.00     0.051 A 
ATOM     15  C   UNL     1      31.810  -6.893  -2.892  1.00  0.00     0.157 A 
ATOM     16  C   UNL     1      31.334  -7.267  -0.540  1.00  0.00     0.062 A 
ATOM     17  C   UNL     1      30.955  -7.374  -1.887  1.00  0.00     0.158 A 
BRANCH  15  18
ATOM     18  O   UNL     1      31.464  -6.989  -4.240  1.00  0.00    -0.504 OA
ATOM     19  H   UNL     1      30.510  -6.874  -4.559  1.00  0.00     0.293 HD
ENDBRANCH  15  18
BRANCH  17  20
ATOM     20  O   UNL     1      29.731  -7.950  -2.226  1.00  0.00    -0.504 OA
ATOM     21  H   UNL     1      29.617  -8.490  -3.076  1.00  0.00     0.293 HD
ENDBRANCH  17  20
ENDBRANCH   1  12
BRANCH   2  22
ATOM     22  O   UNL     1      34.284  -8.594   1.166  1.00  0.00    -0.502 OA
ATOM     23  H   UNL     1      34.720  -9.386   1.625  1.00  0.00     0.293 HD
ENDBRANCH   2  22
BRANCH   6  24
ATOM     24  O   UNL     1      34.471  -6.797   6.177  1.00  0.00    -0.507 OA
ATOM     25  H   UNL     1      34.079  -7.114   7.051  1.00  0.00     0.293 HD
ENDBRANCH   6  24
BRANCH   8  26
ATOM     26  O   UNL     1      32.269  -2.580   5.666  1.00  0.00    -0.508 OA
ATOM     27  H   UNL     1      31.331  -2.479   6.034  1.00  0.00     0.293 HD
ENDBRANCH   8  26
TORSDOF 6
ENDMDL
MODEL 5
REMARK VINA RESULT:    -4.931      2.173      7.155
REMARK INTER + INTRA:          -6.258
REMARK INTER:                  -5.929
REMARK INTRA:                  -0.329
REMARK UNBOUND:                -0.318
REMARK SMILES O=c1c(O)c(-c2ccc(O)c(O)c2)oc2cc(O)cc(O)c12
REMARK SMILES IDX 5 1 3 2 2 3 1 4 22 5 20 6 19 7 17 8 16 9 15 10 14 11 6 12
REMARK SMILES IDX 7 13 8 14 9 15 13 16 11 17 10 18 12 20 4 22 21 24 18 26
REMARK H PARENT 10 19 12 21 4 23 21 25 18 27
REMARK Flexibility Score: inf
ROOT
ATOM      1  C   UNL     1      33.050  -6.146  -1.637  1.00  0.00     0.180 A 
ATOM      2  C   UNL     1      31.742  -5.967  -1.159  1.00  0.00     0.208 A 
ATOM      3  C   UNL     1      31.554  -5.474   0.144  1.00  0.00     0.238 A 
ATOM      4  O   UNL     1      30.380  -5.366   0.585  1.00  0.00    -0.285 OA
ATOM      5  C   UNL     1      32.676  -5.153   0.944  1.00  0.00     0.111 A 
ATOM      6  C   UNL     1      32.603  -4.610   2.262  1.00  0.00     0.134 A 
ATOM      7  C   UNL     1      33.777  -4.454   3.011  1.00  0.00     0.093 A 
ATOM      8  C   UNL     1      35.023  -4.759   2.466  1.00  0.00     0.123 A 
ATOM      9  C   UNL     1      35.112  -5.233   1.157  1.00  0.00     0.094 A 
ATOM     10  C   UNL     1      33.956  -5.435   0.399  1.00  0.00     0.146 A 
ATOM     11  O   UNL     1      34.083  -5.899  -0.839  1.00  0.00    -0.452 OA
ENDROOT
BRANCH   1  12
ATOM     12  C   UNL     1      33.328  -6.637  -3.007  1.00  0.00     0.025 A 
ATOM     13  C   UNL     1      33.482  -8.014  -3.228  1.00  0.00     0.016 A 
ATOM     14  C   UNL     1      33.765  -8.498  -4.509  1.00  0.00     0.051 A 
ATOM     15  C   UNL     1      33.915  -7.613  -5.581  1.00  0.00     0.157 A 
ATOM     16  C   UNL     1      33.499  -5.748  -4.082  1.00  0.00     0.062 A 
ATOM     17  C   UNL     1      33.786  -6.231  -5.368  1.00  0.00     0.158 A 
BRANCH  15  18
ATOM     18  O   UNL     1      34.195  -8.125  -6.848  1.00  0.00    -0.504 OA
ATOM     19  H   UNL     1      34.613  -9.038  -6.978  1.00  0.00     0.293 HD
ENDBRANCH  15  18
BRANCH  17  20
ATOM     20  O   UNL     1      33.948  -5.342  -6.430  1.00  0.00    -0.504 OA
ATOM     21  H   UNL     1      33.165  -4.826  -6.814  1.00  0.00     0.293 HD
ENDBRANCH  17  20
ENDBRANCH   1  12
BRANCH   2  22
ATOM     22  O   UNL     1      30.648  -6.310  -1.958  1.00  0.00    -0.502 OA
ATOM     23  H   UNL     1      29.768  -5.808  -1.921  1.00  0.00     0.293 HD
ENDBRANCH   2  22
BRANCH   6  24
ATOM     24  O   UNL     1      31.417  -4.187   2.867  1.00  0.00    -0.507 OA
ATOM     25  H   UNL     1      31.336  -3.388   3.478  1.00  0.00     0.293 HD
ENDBRANCH   6  24
BRANCH   8  26
ATOM     26  O   UNL     1      36.172  -4.576   3.234  1.00  0.00    -0.508 OA
ATOM     27  H   UNL     1      36.188  -4.795   4.223  1.00  0.00     0.293 HD
ENDBRANCH   8  26
TORSDOF 6
ENDMDL
MODEL 6
REMARK VINA RESULT:    -4.915      2.027      3.577
REMARK INTER + INTRA:          -6.239
REMARK INTER:                  -5.996
REMARK INTRA:                  -0.242
REMARK UNBOUND:                -0.318
REMARK SMILES O=c1c(O)c(-c2ccc(O)c(O)c2)oc2cc(O)cc(O)c12
REMARK SMILES IDX 5 1 3 2 2 3 1 4 22 5 20 6 19 7 17 8 16 9 15 10 14 11 6 12
REMARK SMILES IDX 7 13 8 14 9 15 13 16 11 17 10 18 12 20 4 22 21 24 18 26
REMARK H PARENT 10 19 12 21 4 23 21 25 18 27
REMARK Flexibility Score: inf
ROOT
ATOM      1  C   UNL     1      33.132  -5.063   0.767  1.00  0.00     0.180 A 
ATOM      2  C   UNL     1      31.858  -5.370   0.260  1.00  0.00     0.208 A 
ATOM      3  C   UNL     1      31.746  -5.858  -1.053  1.00  0.00     0.238 A 
ATOM      4  O   UNL     1      30.599  -6.080  -1.519  1.00  0.00    -0.285 OA
ATOM      5  C   UNL     1      32.911  -6.049  -1.835  1.00  0.00     0.111 A 
ATOM      6  C   UNL     1      32.919  -6.576  -3.161  1.00  0.00     0.134 A 
ATOM      7  C   UNL     1      34.116  -6.598  -3.888  1.00  0.00     0.093 A 
ATOM      8  C   UNL     1      35.314  -6.175  -3.315  1.00  0.00     0.123 A 
ATOM      9  C   UNL     1      35.328  -5.714  -1.998  1.00  0.00     0.094 A 
ATOM     10  C   UNL     1      34.144  -5.645  -1.260  1.00  0.00     0.146 A 
ATOM     11  O   UNL     1      34.199  -5.190  -0.014  1.00  0.00    -0.452 OA
ENDROOT
BRANCH   1  12
ATOM     12  C   UNL     1      33.332  -4.568   2.148  1.00  0.00     0.025 A 
ATOM     13  C   UNL     1      33.782  -3.255   2.352  1.00  0.00     0.016 A 
ATOM     14  C   UNL     1      33.998  -2.773   3.647  1.00  0.00     0.051 A 
ATOM     15  C   UNL     1      33.782  -3.600   4.753  1.00  0.00     0.157 A 
ATOM     16  C   UNL     1      33.135  -5.404   3.261  1.00  0.00     0.062 A 
ATOM     17  C   UNL     1      33.353  -4.924   4.561  1.00  0.00     0.158 A 
BRANCH  15  18
ATOM     18  O   UNL     1      34.004  -3.092   6.033  1.00  0.00    -0.504 OA
ATOM     19  H   UNL     1      33.376  -3.284   6.804  1.00  0.00     0.293 HD
ENDBRANCH  15  18
BRANCH  17  20
ATOM     20  O   UNL     1      33.149  -5.758   5.660  1.00  0.00    -0.504 OA
ATOM     21  H   UNL     1      33.097  -6.765   5.559  1.00  0.00     0.293 HD
ENDBRANCH  17  20
ENDBRANCH   1  12
BRANCH   2  22
ATOM     22  O   UNL     1      30.720  -5.154   1.041  1.00  0.00    -0.502 OA
ATOM     23  H   UNL     1      30.267  -4.249   1.104  1.00  0.00     0.293 HD
ENDBRANCH   2  22
BRANCH   6  24
ATOM     24  O   UNL     1      31.794  -7.110  -3.796  1.00  0.00    -0.507 OA
ATOM     25  H   UNL     1      30.839  -6.894  -3.551  1.00  0.00     0.293 HD
ENDBRANCH   6  24
BRANCH   8  26
ATOM     26  O   UNL     1      36.489  -6.226  -4.062  1.00  0.00    -0.508 OA
ATOM     27  H   UNL     1      36.613  -6.900  -4.808  1.00  0.00     0.293 HD
ENDBRANCH   8  26
TORSDOF 6
ENDMDL
MODEL 7
REMARK VINA RESULT:    -4.907      1.898      3.607
REMARK INTER + INTRA:          -6.229
REMARK INTER:                  -5.909
REMARK INTRA:                  -0.319
REMARK UNBOUND:                -0.318
REMARK SMILES O=c1c(O)c(-c2ccc(O)c(O)c2)oc2cc(O)cc(O)c12
REMARK SMILES IDX 5 1 3 2 2 3 1 4 22 5 20 6 19 7 17 8 16 9 15 10 14 11 6 12
REMARK SMILES IDX 7 13 8 14 9 15 13 16 11 17 10 18 12 20 4 22 21 24 18 26
REMARK H PARENT 10 19 12 21 4 23 21 25 18 27
REMARK Flexibility Score: inf
ROOT
ATOM      1  C   UNL     1      33.253  -5.968  -1.565  1.00  0.00     0.180 A 
ATOM      2  C   UNL     1      32.554  -6.947  -2.291  1.00  0.00     0.208 A 
ATOM      3  C   UNL     1      32.656  -6.958  -3.692  1.00  0.00     0.238 A 
ATOM      4  O   UNL     1      31.985  -7.802  -4.340  1.00  0.00    -0.285 OA
ATOM      5  C   UNL     1      33.467  -6.000  -4.347  1.00  0.00     0.111 A 
ATOM      6  C   UNL     1      33.675  -5.943  -5.758  1.00  0.00     0.134 A 
ATOM      7  C   UNL     1      34.394  -4.873  -6.307  1.00  0.00     0.093 A 
ATOM      8  C   UNL     1      34.965  -3.897  -5.493  1.00  0.00     0.123 A 
ATOM      9  C   UNL     1      34.819  -3.976  -4.108  1.00  0.00     0.094 A 
ATOM     10  C   UNL     1      34.077  -5.011  -3.533  1.00  0.00     0.146 A 
ATOM     11  O   UNL     1      33.953  -5.043  -2.212  1.00  0.00    -0.452 OA
ENDROOT
BRANCH   1  12
ATOM     12  C   UNL     1      33.214  -5.908  -0.085  1.00  0.00     0.025 A 
ATOM     13  C   UNL     1      34.100  -6.700   0.661  1.00  0.00     0.016 A 
ATOM     14  C   UNL     1      34.066  -6.674   2.058  1.00  0.00     0.051 A 
ATOM     15  C   UNL     1      33.139  -5.871   2.728  1.00  0.00     0.157 A 
ATOM     16  C   UNL     1      32.269  -5.116   0.590  1.00  0.00     0.062 A 
ATOM     17  C   UNL     1      32.232  -5.091   1.993  1.00  0.00     0.158 A 
BRANCH  15  18
ATOM     18  O   UNL     1      33.131  -5.864   4.123  1.00  0.00    -0.504 OA
ATOM     19  H   UNL     1      33.974  -5.717   4.665  1.00  0.00     0.293 HD
ENDBRANCH  15  18
BRANCH  17  20
ATOM     20  O   UNL     1      31.295  -4.298   2.655  1.00  0.00    -0.504 OA
ATOM     21  H   UNL     1      30.849  -3.511   2.199  1.00  0.00     0.293 HD
ENDBRANCH  17  20
ENDBRANCH   1  12
BRANCH   2  22
ATOM     22  O   UNL     1      31.741  -7.869  -1.627  1.00  0.00    -0.502 OA
ATOM     23  H   UNL     1      30.793  -8.073  -1.924  1.00  0.00     0.293 HD
ENDBRANCH   2  22
BRANCH   6  24
ATOM     24  O   UNL     1      33.225  -6.917  -6.653  1.00  0.00    -0.507 OA
ATOM     25  H   UNL     1      32.684  -6.728  -7.484  1.00  0.00     0.293 HD
ENDBRANCH   6  24
BRANCH   8  26
ATOM     26  O   UNL     1      35.688  -2.855  -6.073  1.00  0.00    -0.508 OA
ATOM     27  H   UNL     1      35.436  -1.887  -5.918  1.00  0.00     0.293 HD
ENDBRANCH   8  26
TORSDOF 6
ENDMDL
MODEL 8
REMARK VINA RESULT:    -4.854      2.632      4.078
REMARK INTER + INTRA:          -6.165
REMARK INTER:                  -5.868
REMARK INTRA:                  -0.297
REMARK UNBOUND:                -0.318
REMARK SMILES O=c1c(O)c(-c2ccc(O)c(O)c2)oc2cc(O)cc(O)c12
REMARK SMILES IDX 5 1 3 2 2 3 1 4 22 5 20 6 19 7 17 8 16 9 15 10 14 11 6 12
REMARK SMILES IDX 7 13 8 14 9 15 13 16 11 17 10 18 12 20 4 22 21 24 18 26
REMARK H PARENT 10 19 12 21 4 23 21 25 18 27
REMARK Flexibility Score: inf
ROOT
ATOM      1  C   UNL     1      33.495  -4.194   2.711  1.00  0.00     0.180 A 
ATOM      2  C   UNL     1      34.722  -4.088   2.033  1.00  0.00     0.208 A 
ATOM      3  C   UNL     1      34.806  -4.531   0.703  1.00  0.00     0.238 A 
ATOM      4  O   UNL     1      35.920  -4.483   0.120  1.00  0.00    -0.285 OA
ATOM      5  C   UNL     1      33.659  -5.058   0.062  1.00  0.00     0.111 A 
ATOM      6  C   UNL     1      33.620  -5.499  -1.295  1.00  0.00     0.134 A 
ATOM      7  C   UNL     1      32.466  -6.124  -1.785  1.00  0.00     0.093 A 
ATOM      8  C   UNL     1      31.331  -6.265  -0.988  1.00  0.00     0.123 A 
ATOM      9  C   UNL     1      31.338  -5.783   0.321  1.00  0.00     0.094 A 
ATOM     10  C   UNL     1      32.486  -5.188   0.850  1.00  0.00     0.146 A 
ATOM     11  O   UNL     1      32.455  -4.754   2.104  1.00  0.00    -0.452 OA
ENDROOT
BRANCH   1  12
ATOM     12  C   UNL     1      33.323  -3.726   4.105  1.00  0.00     0.025 A 
ATOM     13  C   UNL     1      33.251  -4.667   5.145  1.00  0.00     0.016 A 
ATOM     14  C   UNL     1      33.067  -4.248   6.466  1.00  0.00     0.051 A 
ATOM     15  C   UNL     1      32.936  -2.889   6.765  1.00  0.00     0.157 A 
ATOM     16  C   UNL     1      33.171  -2.361   4.406  1.00  0.00     0.062 A 
ATOM     17  C   UNL     1      32.984  -1.940   5.731  1.00  0.00     0.158 A 
BRANCH  15  18
ATOM     18  O   UNL     1      32.756  -2.502   8.093  1.00  0.00    -0.504 OA
ATOM     19  H   UNL     1      32.039  -1.841   8.367  1.00  0.00     0.293 HD
ENDBRANCH  15  18
BRANCH  17  20
ATOM     20  O   UNL     1      32.840  -0.583   6.021  1.00  0.00    -0.504 OA
ATOM     21  H   UNL     1      32.344  -0.266   6.845  1.00  0.00     0.293 HD
ENDBRANCH  17  20
ENDBRANCH   1  12
BRANCH   2  22
ATOM     22  O   UNL     1      35.847  -3.585   2.692  1.00  0.00    -0.502 OA
ATOM     23  H   UNL     1      35.802  -3.197   3.627  1.00  0.00     0.293 HD
ENDBRANCH   2  22
BRANCH   6  24
ATOM     24  O   UNL     1      34.667  -5.324  -2.203  1.00  0.00    -0.507 OA
ATOM     25  H   UNL     1      35.335  -6.037  -2.455  1.00  0.00     0.293 HD
ENDBRANCH   6  24
BRANCH   8  26
ATOM     26  O   UNL     1      30.194  -6.877  -1.513  1.00  0.00    -0.508 OA
ATOM     27  H   UNL     1      29.766  -7.677  -1.061  1.00  0.00     0.293 HD
ENDBRANCH   8  26
TORSDOF 6
ENDMDL
MODEL 9
REMARK VINA RESULT:    -4.819      2.732      5.129
REMARK INTER + INTRA:          -6.122
REMARK INTER:                  -5.829
REMARK INTRA:                  -0.294
REMARK UNBOUND:                -0.318
REMARK SMILES O=c1c(O)c(-c2ccc(O)c(O)c2)oc2cc(O)cc(O)c12
REMARK SMILES IDX 5 1 3 2 2 3 1 4 22 5 20 6 19 7 17 8 16 9 15 10 14 11 6 12
REMARK SMILES IDX 7 13 8 14 9 15 13 16 11 17 10 18 12 20 4 22 21 24 18 26
REMARK H PARENT 10 19 12 21 4 23 21 25 18 27
REMARK Flexibility Score: inf
ROOT
ATOM      1  C   UNL     1      33.242  -5.200   3.616  1.00  0.00     0.180 A 
ATOM      2  C   UNL     1      33.681  -6.501   3.912  1.00  0.00     0.208 A 
ATOM      3  C   UNL     1      33.544  -7.505   2.939  1.00  0.00     0.238 A 
ATOM      4  O   UNL     1      33.890  -8.679   3.230  1.00  0.00    -0.285 OA
ATOM      5  C   UNL     1      32.984  -7.191   1.678  1.00  0.00     0.111 A 
ATOM      6  C   UNL     1      32.835  -8.120   0.604  1.00  0.00     0.134 A 
ATOM      7  C   UNL     1      32.148  -7.732  -0.554  1.00  0.00     0.093 A 
ATOM      8  C   UNL     1      31.665  -6.433  -0.702  1.00  0.00     0.123 A 
ATOM      9  C   UNL     1      31.858  -5.500   0.316  1.00  0.00     0.094 A 
ATOM     10  C   UNL     1      32.507  -5.867   1.497  1.00  0.00     0.146 A 
ATOM     11  O   UNL     1      32.660  -4.952   2.447  1.00  0.00    -0.452 OA
ENDROOT
BRANCH   1  12
ATOM     12  C   UNL     1      33.375  -4.084   4.580  1.00  0.00     0.025 A 
ATOM     13  C   UNL     1      32.426  -3.939   5.604  1.00  0.00     0.016 A 
ATOM     14  C   UNL     1      32.521  -2.881   6.512  1.00  0.00     0.051 A 
ATOM     15  C   UNL     1      33.554  -1.946   6.402  1.00  0.00     0.157 A 
ATOM     16  C   UNL     1      34.402  -3.131   4.459  1.00  0.00     0.062 A 
ATOM     17  C   UNL     1      34.498  -2.067   5.368  1.00  0.00     0.158 A 
BRANCH  15  18
ATOM     18  O   UNL     1      33.625  -0.902   7.324  1.00  0.00    -0.504 OA
ATOM     19  H   UNL     1      34.355  -0.851   8.025  1.00  0.00     0.293 HD
ENDBRANCH  15  18
BRANCH  17  20
ATOM     20  O   UNL     1      35.523  -1.129   5.244  1.00  0.00    -0.504 OA
ATOM     21  H   UNL     1      35.397  -0.272   4.720  1.00  0.00     0.293 HD
ENDBRANCH  17  20
ENDBRANCH   1  12
BRANCH   2  22
ATOM     22  O   UNL     1      34.211  -6.794   5.172  1.00  0.00    -0.502 OA
ATOM     23  H   UNL     1      33.626  -6.971   5.980  1.00  0.00     0.293 HD
ENDBRANCH   2  22
BRANCH   6  24
ATOM     24  O   UNL     1      33.361  -9.415   0.613  1.00  0.00    -0.507 OA
ATOM     25  H   UNL     1      33.185 -10.112  -0.096  1.00  0.00     0.293 HD
ENDBRANCH   6  24
BRANCH   8  26
ATOM     26  O   UNL     1      31.000  -6.077  -1.875  1.00  0.00    -0.508 OA
ATOM     27  H   UNL     1      30.781  -5.111  -2.087  1.00  0.00     0.293 HD
ENDBRANCH   8  26
TORSDOF 6
ENDMDL
