MODEL 1
REMARK VINA RESULT:    -3.168      0.000      0.000
REMARK INTER + INTRA:          -4.312
REMARK INTER:                  -4.094
REMARK INTRA:                  -0.219
REMARK UNBOUND:                -0.219
REMARK SMILES C=CC(=O)CCCCC
REMARK SMILES IDX 6 1 7 2 8 3 9 4 5 5 3 6 4 7 2 8 1 9
REMARK H PARENT
REMARK Flexibility Score: inf
ROOT
ATOM      1  C   UNL     1     205.573 160.764 176.787  1.00  0.00     0.008 C 
ENDROOT
BRANCH   1   2
ATOM      2  C   UNL     1     204.753 162.064 176.807  1.00  0.00     0.000 C 
BRANCH   2   3
ATOM      3  C   UNL     1     204.333 162.520 175.402  1.00  0.00    -0.003 C 
ATOM      4  C   UNL     1     205.541 162.626 174.475  1.00  0.00     0.004 C 
ENDBRANCH   2   3
ENDBRANCH   1   2
BRANCH   1   5
ATOM      5  C   UNL     1     206.975 160.939 177.385  1.00  0.00     0.080 C 
BRANCH   5   6
ATOM      6  C   UNL     1     207.753 159.661 177.284  1.00  0.00     0.155 C 
ATOM      7  O   UNL     1     208.796 159.517 177.979  1.00  0.00    -0.295 OA
BRANCH   6   8
ATOM      8  C   UNL     1     207.272 158.569 176.415  1.00  0.00     0.039 C 
ATOM      9  C   UNL     1     208.053 157.558 176.040  1.00  0.00     0.012 C 
ENDBRANCH   6   8
ENDBRANCH   5   6
ENDBRANCH   1   5
TORSDOF 5
ENDMDL
MODEL 2
REMARK VINA RESULT:    -3.013      1.628      4.653
REMARK INTER + INTRA:          -4.112
REMARK INTER:                  -3.939
REMARK INTRA:                  -0.173
REMARK UNBOUND:                -0.219
REMARK SMILES C=CC(=O)CCCCC
REMARK SMILES IDX 6 1 7 2 8 3 9 4 5 5 3 6 4 7 2 8 1 9
REMARK H PARENT
REMARK Flexibility Score: inf
ROOT
ATOM      1  C   UNL     1     206.935 159.797 177.856  1.00  0.00     0.008 C 
ENDROOT
BRANCH   1   2
ATOM      2  C   UNL     1     208.116 159.055 177.210  1.00  0.00     0.000 C 
BRANCH   2   3
ATOM      3  C   UNL     1     207.678 158.123 176.072  1.00  0.00    -0.003 C 
ATOM      4  C   UNL     1     207.958 156.664 176.418  1.00  0.00     0.004 C 
ENDBRANCH   2   3
ENDBRANCH   1   2
BRANCH   1   5
ATOM      5  C   UNL     1     205.836 160.153 176.845  1.00  0.00     0.080 C 
BRANCH   5   6
ATOM      6  C   UNL     1     205.456 161.598 176.970  1.00  0.00     0.155 C 
ATOM      7  O   UNL     1     205.730 162.218 178.035  1.00  0.00    -0.295 OA
BRANCH   6   8
ATOM      8  C   UNL     1     204.811 162.295 175.840  1.00  0.00     0.039 C 
ATOM      9  C   UNL     1     203.514 162.593 175.831  1.00  0.00     0.012 C 
ENDBRANCH   6   8
ENDBRANCH   5   6
ENDBRANCH   1   5
TORSDOF 5
ENDMDL
MODEL 3
REMARK VINA RESULT:    -2.979     16.771     18.115
REMARK INTER + INTRA:          -4.068
REMARK INTER:                  -3.485
REMARK INTRA:                  -0.584
REMARK UNBOUND:                -0.219
REMARK SMILES C=CC(=O)CCCCC
REMARK SMILES IDX 6 1 7 2 8 3 9 4 5 5 3 6 4 7 2 8 1 9
REMARK H PARENT
REMARK Flexibility Score: inf
ROOT
ATOM      1  C   UNL     1     214.082 160.977 158.955  1.00  0.00     0.008 C 
ENDROOT
BRANCH   1   2
ATOM      2  C   UNL     1     215.437 161.667 159.183  1.00  0.00     0.000 C 
BRANCH   2   3
ATOM      3  C   UNL     1     216.006 161.405 160.584  1.00  0.00    -0.003 C 
ATOM      4  C   UNL     1     216.015 159.912 160.902  1.00  0.00     0.004 C 
ENDBRANCH   2   3
ENDBRANCH   1   2
BRANCH   1   5
ATOM      5  C   UNL     1     212.903 161.958 159.009  1.00  0.00     0.080 C 
BRANCH   5   6
ATOM      6  C   UNL     1     212.262 161.935 160.365  1.00  0.00     0.155 C 
ATOM      7  O   UNL     1     211.652 162.960 160.777  1.00  0.00    -0.295 OA
BRANCH   6   8
ATOM      8  C   UNL     1     212.308 160.708 161.185  1.00  0.00     0.039 C 
ATOM      9  C   UNL     1     212.711 160.711 162.453  1.00  0.00     0.012 C 
ENDBRANCH   6   8
ENDBRANCH   5   6
ENDBRANCH   1   5
TORSDOF 5
ENDMDL
MODEL 4
REMARK VINA RESULT:    -2.917     17.882     18.698
REMARK INTER + INTRA:          -3.989
REMARK INTER:                  -3.825
REMARK INTRA:                  -0.164
REMARK UNBOUND:                -0.219
REMARK SMILES C=CC(=O)CCCCC
REMARK SMILES IDX 6 1 7 2 8 3 9 4 5 5 3 6 4 7 2 8 1 9
REMARK H PARENT
REMARK Flexibility Score: inf
ROOT
ATOM      1  C   UNL     1     198.874 149.848 164.478  1.00  0.00     0.008 C 
ENDROOT
BRANCH   1   2
ATOM      2  C   UNL     1     199.180 150.916 165.540  1.00  0.00     0.000 C 
BRANCH   2   3
ATOM      3  C   UNL     1     199.867 152.156 164.952  1.00  0.00    -0.003 C 
ATOM      4  C   UNL     1     199.646 153.379 165.838  1.00  0.00     0.004 C 
ENDBRANCH   2   3
ENDBRANCH   1   2
BRANCH   1   5
ATOM      5  C   UNL     1     198.836 150.424 163.055  1.00  0.00     0.080 C 
BRANCH   5   6
ATOM      6  C   UNL     1     197.803 149.716 162.229  1.00  0.00     0.155 C 
ATOM      7  O   UNL     1     197.041 148.877 162.783  1.00  0.00    -0.295 OA
BRANCH   6   8
ATOM      8  C   UNL     1     197.655 150.036 160.796  1.00  0.00     0.039 C 
ATOM      9  C   UNL     1     196.736 150.887 160.346  1.00  0.00     0.012 C 
ENDBRANCH   6   8
ENDBRANCH   5   6
ENDBRANCH   1   5
TORSDOF 5
ENDMDL
MODEL 5
REMARK VINA RESULT:    -2.893     16.210     17.542
REMARK INTER + INTRA:          -3.957
REMARK INTER:                  -3.318
REMARK INTRA:                  -0.639
REMARK UNBOUND:                -0.219
REMARK SMILES C=CC(=O)CCCCC
REMARK SMILES IDX 6 1 7 2 8 3 9 4 5 5 3 6 4 7 2 8 1 9
REMARK H PARENT
REMARK Flexibility Score: inf
ROOT
ATOM      1  C   UNL     1     214.504 160.918 161.411  1.00  0.00     0.008 C 
ENDROOT
BRANCH   1   2
ATOM      2  C   UNL     1     214.512 159.761 160.398  1.00  0.00     0.000 C 
BRANCH   2   3
ATOM      3  C   UNL     1     214.575 160.249 158.944  1.00  0.00    -0.003 C 
ATOM      4  C   UNL     1     214.983 161.719 158.875  1.00  0.00     0.004 C 
ENDBRANCH   2   3
ENDBRANCH   1   2
BRANCH   1   5
ATOM      5  C   UNL     1     213.333 160.828 162.400  1.00  0.00     0.080 C 
BRANCH   5   6
ATOM      6  C   UNL     1     212.024 160.926 161.675  1.00  0.00     0.155 C 
ATOM      7  O   UNL     1     211.179 159.998 161.800  1.00  0.00    -0.295 OA
BRANCH   6   8
ATOM      8  C   UNL     1     211.715 162.120 160.864  1.00  0.00     0.039 C 
ATOM      9  C   UNL     1     211.203 162.038 159.638  1.00  0.00     0.012 C 
ENDBRANCH   6   8
ENDBRANCH   5   6
ENDBRANCH   1   5
TORSDOF 5
ENDMDL
MODEL 6
REMARK VINA RESULT:    -2.874     14.900     17.296
REMARK INTER + INTRA:          -3.933
REMARK INTER:                  -3.496
REMARK INTRA:                  -0.436
REMARK UNBOUND:                -0.219
REMARK SMILES C=CC(=O)CCCCC
REMARK SMILES IDX 6 1 7 2 8 3 9 4 5 5 3 6 4 7 2 8 1 9
REMARK H PARENT
REMARK Flexibility Score: inf
ROOT
ATOM      1  C   UNL     1     215.500 145.709 172.250  1.00  0.00     0.008 C 
ENDROOT
BRANCH   1   2
ATOM      2  C   UNL     1     214.979 144.294 171.951  1.00  0.00     0.000 C 
BRANCH   2   3
ATOM      3  C   UNL     1     214.656 144.085 170.465  1.00  0.00    -0.003 C 
ATOM      4  C   UNL     1     215.453 145.048 169.589  1.00  0.00     0.004 C 
ENDBRANCH   2   3
ENDBRANCH   1   2
BRANCH   1   5
ATOM      5  C   UNL     1     214.458 146.583 172.963  1.00  0.00     0.080 C 
BRANCH   5   6
ATOM      6  C   UNL     1     213.795 147.509 171.988  1.00  0.00     0.155 C 
ATOM      7  O   UNL     1     214.305 148.643 171.769  1.00  0.00    -0.295 OA
BRANCH   6   8
ATOM      8  C   UNL     1     212.585 147.077 171.262  1.00  0.00     0.039 C 
ATOM      9  C   UNL     1     211.360 147.436 171.636  1.00  0.00     0.012 C 
ENDBRANCH   6   8
ENDBRANCH   5   6
ENDBRANCH   1   5
TORSDOF 5
ENDMDL
MODEL 7
REMARK VINA RESULT:    -2.872     17.947     18.772
REMARK INTER + INTRA:          -3.930
REMARK INTER:                  -3.495
REMARK INTRA:                  -0.435
REMARK UNBOUND:                -0.219
REMARK SMILES C=CC(=O)CCCCC
REMARK SMILES IDX 6 1 7 2 8 3 9 4 5 5 3 6 4 7 2 8 1 9
REMARK H PARENT
REMARK Flexibility Score: inf
ROOT
ATOM      1  C   UNL     1     197.755 148.871 163.850  1.00  0.00     0.008 C 
ENDROOT
BRANCH   1   2
ATOM      2  C   UNL     1     197.008 148.807 162.508  1.00  0.00     0.000 C 
BRANCH   2   3
ATOM      3  C   UNL     1     197.722 149.588 161.396  1.00  0.00    -0.003 C 
ATOM      4  C   UNL     1     196.770 150.568 160.716  1.00  0.00     0.004 C 
ENDBRANCH   2   3
ENDBRANCH   1   2
BRANCH   1   5
ATOM      5  C   UNL     1     199.170 149.452 163.711  1.00  0.00     0.080 C 
BRANCH   5   6
ATOM      6  C   UNL     1     199.319 150.678 164.563  1.00  0.00     0.155 C 
ATOM      7  O   UNL     1     198.934 150.645 165.764  1.00  0.00    -0.295 OA
BRANCH   6   8
ATOM      8  C   UNL     1     199.954 151.890 164.010  1.00  0.00     0.039 C 
ATOM      9  C   UNL     1     200.039 152.119 162.702  1.00  0.00     0.012 C 
ENDBRANCH   6   8
ENDBRANCH   5   6
ENDBRANCH   1   5
TORSDOF 5
ENDMDL
MODEL 8
REMARK VINA RESULT:    -2.859     16.617     17.849
REMARK INTER + INTRA:          -3.914
REMARK INTER:                  -3.401
REMARK INTRA:                  -0.513
REMARK UNBOUND:                -0.219
REMARK SMILES C=CC(=O)CCCCC
REMARK SMILES IDX 6 1 7 2 8 3 9 4 5 5 3 6 4 7 2 8 1 9
REMARK H PARENT
REMARK Flexibility Score: inf
ROOT
ATOM      1  C   UNL     1     211.946 161.556 160.518  1.00  0.00     0.008 C 
ENDROOT
BRANCH   1   2
ATOM      2  C   UNL     1     212.714 161.406 161.841  1.00  0.00     0.000 C 
BRANCH   2   3
ATOM      3  C   UNL     1     212.324 160.137 162.611  1.00  0.00    -0.003 C 
ATOM      4  C   UNL     1     213.256 158.978 162.267  1.00  0.00     0.004 C 
ENDBRANCH   2   3
ENDBRANCH   1   2
BRANCH   1   5
ATOM      5  C   UNL     1     212.834 162.059 159.372  1.00  0.00     0.080 C 
BRANCH   5   6
ATOM      6  C   UNL     1     213.988 161.125 159.154  1.00  0.00     0.155 C 
ATOM      7  O   UNL     1     213.760 159.916 158.875  1.00  0.00    -0.295 OA
BRANCH   6   8
ATOM      8  C   UNL     1     215.373 161.633 159.220  1.00  0.00     0.039 C 
ATOM      9  C   UNL     1     216.125 161.515 160.311  1.00  0.00     0.012 C 
ENDBRANCH   6   8
ENDBRANCH   5   6
ENDBRANCH   1   5
TORSDOF 5
ENDMDL
MODEL 9
REMARK VINA RESULT:    -2.827     14.679     16.794
REMARK INTER + INTRA:          -3.871
REMARK INTER:                  -3.630
REMARK INTRA:                  -0.242
REMARK UNBOUND:                -0.219
REMARK SMILES C=CC(=O)CCCCC
REMARK SMILES IDX 6 1 7 2 8 3 9 4 5 5 3 6 4 7 2 8 1 9
REMARK H PARENT
REMARK Flexibility Score: inf
ROOT
ATOM      1  C   UNL     1     200.742 146.204 169.744  1.00  0.00     0.008 C 
ENDROOT
BRANCH   1   2
ATOM      2  C   UNL     1     200.883 144.718 170.110  1.00  0.00     0.000 C 
BRANCH   2   3
ATOM      3  C   UNL     1     201.885 144.481 171.248  1.00  0.00    -0.003 C 
ATOM      4  C   UNL     1     202.281 143.010 171.334  1.00  0.00     0.004 C 
ENDBRANCH   2   3
ENDBRANCH   1   2
BRANCH   1   5
ATOM      5  C   UNL     1     201.650 146.613 168.576  1.00  0.00     0.080 C 
BRANCH   5   6
ATOM      6  C   UNL     1     202.656 147.632 169.025  1.00  0.00     0.155 C 
ATOM      7  O   UNL     1     203.805 147.249 169.381  1.00  0.00    -0.295 OA
BRANCH   6   8
ATOM      8  C   UNL     1     202.315 149.068 169.006  1.00  0.00     0.039 C 
ATOM      9  C   UNL     1     201.495 149.595 168.099  1.00  0.00     0.012 C 
ENDBRANCH   6   8
ENDBRANCH   5   6
ENDBRANCH   1   5
TORSDOF 5
ENDMDL
