MODEL 1
REMARK VINA RESULT:    -3.654      0.000      0.000
REMARK INTER + INTRA:          -3.996
REMARK INTER:                  -3.975
REMARK INTRA:                  -0.021
REMARK UNBOUND:                -0.021
REMARK SMILES OCc1ccco1
REMARK SMILES IDX 2 1 3 2 5 3 6 4 4 5 7 6 1 7
REMARK H PARENT 1 8
REMARK Flexibility Score: inf
ROOT
ATOM      1  C   UNL     1       5.632  20.888   3.768  1.00  0.00     0.231 C 
ENDROOT
BRANCH   1   2
ATOM      2  C   UNL     1       6.012  20.190   2.502  1.00  0.00     0.129 A 
ATOM      3  C   UNL     1       7.034  18.922   1.028  1.00  0.00     0.042 A 
ATOM      4  C   UNL     1       5.916  19.519   0.480  1.00  0.00     0.195 A 
ATOM      5  C   UNL     1       7.097  19.352   2.336  1.00  0.00     0.048 A 
ATOM      6  O   UNL     1       5.326  20.267   1.385  1.00  0.00    -0.467 OA
ENDBRANCH   1   2
BRANCH   1   7
ATOM      7  O   UNL     1       4.289  21.284   3.715  1.00  0.00    -0.388 OA
ATOM      8  H   UNL     1       4.160  21.730   2.837  1.00  0.00     0.211 HD
ENDBRANCH   1   7
TORSDOF 2
ENDMDL
MODEL 2
REMARK VINA RESULT:    -3.413      1.287      2.976
REMARK INTER + INTRA:          -3.733
REMARK INTER:                  -3.720
REMARK INTRA:                  -0.013
REMARK UNBOUND:                -0.021
REMARK SMILES OCc1ccco1
REMARK SMILES IDX 2 1 3 2 5 3 6 4 4 5 7 6 1 7
REMARK H PARENT 1 8
REMARK Flexibility Score: inf
ROOT
ATOM      1  C   UNL     1       5.153  20.147  -0.524  1.00  0.00     0.231 C 
ENDROOT
BRANCH   1   2
ATOM      2  C   UNL     1       5.825  19.819   0.771  1.00  0.00     0.129 A 
ATOM      3  C   UNL     1       7.173  18.963   2.279  1.00  0.00     0.042 A 
ATOM      4  C   UNL     1       6.322  19.893   2.843  1.00  0.00     0.195 A 
ATOM      5  C   UNL     1       6.855  18.915   0.939  1.00  0.00     0.048 A 
ATOM      6  O   UNL     1       5.532  20.388   1.917  1.00  0.00    -0.467 OA
ENDBRANCH   1   2
BRANCH   1   7
ATOM      7  O   UNL     1       4.782  18.969  -1.186  1.00  0.00    -0.388 OA
ATOM      8  H   UNL     1       5.150  19.033  -2.106  1.00  0.00     0.211 HD
ENDBRANCH   1   7
TORSDOF 2
ENDMDL
MODEL 3
REMARK VINA RESULT:    -3.127      7.607      8.573
REMARK INTER + INTRA:          -3.423
REMARK INTER:                  -3.402
REMARK INTRA:                  -0.020
REMARK UNBOUND:                -0.021
REMARK SMILES OCc1ccco1
REMARK SMILES IDX 2 1 3 2 5 3 6 4 4 5 7 6 1 7
REMARK H PARENT 1 8
REMARK Flexibility Score: inf
ROOT
ATOM      1  C   UNL     1       6.556  12.244  -0.769  1.00  0.00     0.231 C 
ENDROOT
BRANCH   1   2
ATOM      2  C   UNL     1       5.143  12.711  -0.622  1.00  0.00     0.129 A 
ATOM      3  C   UNL     1       3.352  13.976  -0.497  1.00  0.00     0.042 A 
ATOM      4  C   UNL     1       3.023  12.637  -0.416  1.00  0.00     0.195 A 
ATOM      5  C   UNL     1       4.723  14.026  -0.634  1.00  0.00     0.048 A 
ATOM      6  O   UNL     1       4.112  11.908  -0.496  1.00  0.00    -0.467 OA
ENDBRANCH   1   2
BRANCH   1   7
ATOM      7  O   UNL     1       6.585  10.988  -1.391  1.00  0.00    -0.388 OA
ATOM      8  H   UNL     1       7.487  10.893  -1.794  1.00  0.00     0.211 HD
ENDBRANCH   1   7
TORSDOF 2
ENDMDL
MODEL 4
REMARK VINA RESULT:    -3.053     12.526     13.002
REMARK INTER + INTRA:          -3.341
REMARK INTER:                  -3.325
REMARK INTRA:                  -0.016
REMARK UNBOUND:                -0.021
REMARK SMILES OCc1ccco1
REMARK SMILES IDX 2 1 3 2 5 3 6 4 4 5 7 6 1 7
REMARK H PARENT 1 8
REMARK Flexibility Score: inf
ROOT
ATOM      1  C   UNL     1      -6.125  16.041   1.236  1.00  0.00     0.231 C 
ENDROOT
BRANCH   1   2
ATOM      2  C   UNL     1      -6.322  16.780   2.521  1.00  0.00     0.129 A 
ATOM      3  C   UNL     1      -6.605  18.375   4.004  1.00  0.00     0.042 A 
ATOM      4  C   UNL     1      -6.662  17.129   4.596  1.00  0.00     0.195 A 
ATOM      5  C   UNL     1      -6.388  18.151   2.661  1.00  0.00     0.048 A 
ATOM      6  O   UNL     1      -6.492  16.198   3.685  1.00  0.00    -0.467 OA
ENDBRANCH   1   2
BRANCH   1   7
ATOM      7  O   UNL     1      -5.055  15.145   1.355  1.00  0.00    -0.388 OA
ATOM      8  H   UNL     1      -4.728  15.217   2.290  1.00  0.00     0.211 HD
ENDBRANCH   1   7
TORSDOF 2
ENDMDL
MODEL 5
REMARK VINA RESULT:    -3.034     16.721     17.586
REMARK INTER + INTRA:          -3.321
REMARK INTER:                  -3.306
REMARK INTRA:                  -0.015
REMARK UNBOUND:                -0.021
REMARK SMILES OCc1ccco1
REMARK SMILES IDX 2 1 3 2 5 3 6 4 4 5 7 6 1 7
REMARK H PARENT 1 8
REMARK Flexibility Score: inf
ROOT
ATOM      1  C   UNL     1      -8.415  15.492  -4.628  1.00  0.00     0.231 C 
ENDROOT
BRANCH   1   2
ATOM      2  C   UNL     1      -8.531  15.021  -6.042  1.00  0.00     0.129 A 
ATOM      3  C   UNL     1      -9.312  14.214  -7.930  1.00  0.00     0.042 A 
ATOM      4  C   UNL     1      -8.004  14.635  -8.072  1.00  0.00     0.195 A 
ATOM      5  C   UNL     1      -9.655  14.466  -6.619  1.00  0.00     0.048 A 
ATOM      6  O   UNL     1      -7.567  15.114  -6.929  1.00  0.00    -0.467 OA
ENDBRANCH   1   2
BRANCH   1   7
ATOM      7  O   UNL     1      -8.428  16.893  -4.584  1.00  0.00    -0.388 OA
ATOM      8  H   UNL     1      -7.501  17.178  -4.372  1.00  0.00     0.211 HD
ENDBRANCH   1   7
TORSDOF 2
ENDMDL
MODEL 6
REMARK VINA RESULT:    -3.024     16.183     17.249
REMARK INTER + INTRA:          -3.310
REMARK INTER:                  -3.293
REMARK INTRA:                  -0.017
REMARK UNBOUND:                -0.021
REMARK SMILES OCc1ccco1
REMARK SMILES IDX 2 1 3 2 5 3 6 4 4 5 7 6 1 7
REMARK H PARENT 1 8
REMARK Flexibility Score: inf
ROOT
ATOM      1  C   UNL     1      -8.627  14.616  -8.142  1.00  0.00     0.231 C 
ENDROOT
BRANCH   1   2
ATOM      2  C   UNL     1      -7.632  14.422  -7.043  1.00  0.00     0.129 A 
ATOM      3  C   UNL     1      -6.536  14.595  -5.148  1.00  0.00     0.042 A 
ATOM      4  C   UNL     1      -6.006  13.595  -5.940  1.00  0.00     0.195 A 
ATOM      5  C   UNL     1      -7.590  15.128  -5.858  1.00  0.00     0.048 A 
ATOM      6  O   UNL     1      -6.683  13.515  -7.062  1.00  0.00    -0.467 OA
ENDBRANCH   1   2
BRANCH   1   7
ATOM      7  O   UNL     1      -7.978  14.629  -9.383  1.00  0.00    -0.388 OA
ATOM      8  H   UNL     1      -7.956  13.689  -9.701  1.00  0.00     0.211 HD
ENDBRANCH   1   7
TORSDOF 2
ENDMDL
MODEL 7
REMARK VINA RESULT:    -3.013     15.566     16.072
REMARK INTER + INTRA:          -3.299
REMARK INTER:                  -3.285
REMARK INTRA:                  -0.014
REMARK UNBOUND:                -0.021
REMARK SMILES OCc1ccco1
REMARK SMILES IDX 2 1 3 2 5 3 6 4 4 5 7 6 1 7
REMARK H PARENT 1 8
REMARK Flexibility Score: inf
ROOT
ATOM      1  C   UNL     1      -8.727  15.847  -3.467  1.00  0.00     0.231 C 
ENDROOT
BRANCH   1   2
ATOM      2  C   UNL     1      -7.926  15.264  -4.586  1.00  0.00     0.129 A 
ATOM      3  C   UNL     1      -7.223  14.680  -6.584  1.00  0.00     0.042 A 
ATOM      4  C   UNL     1      -6.328  14.289  -5.607  1.00  0.00     0.195 A 
ATOM      5  C   UNL     1      -8.255  15.313  -5.926  1.00  0.00     0.048 A 
ATOM      6  O   UNL     1      -6.774  14.654  -4.427  1.00  0.00    -0.467 OA
ENDBRANCH   1   2
BRANCH   1   7
ATOM      7  O   UNL     1      -8.487  17.224  -3.368  1.00  0.00    -0.388 OA
ATOM      8  H   UNL     1      -9.356  17.647  -3.139  1.00  0.00     0.211 HD
ENDBRANCH   1   7
TORSDOF 2
ENDMDL
MODEL 8
REMARK VINA RESULT:    -3.013     14.940     15.703
REMARK INTER + INTRA:          -3.298
REMARK INTER:                  -3.285
REMARK INTRA:                  -0.013
REMARK UNBOUND:                -0.021
REMARK SMILES OCc1ccco1
REMARK SMILES IDX 2 1 3 2 5 3 6 4 4 5 7 6 1 7
REMARK H PARENT 1 8
REMARK Flexibility Score: inf
ROOT
ATOM      1  C   UNL     1      -8.571  15.688  -4.041  1.00  0.00     0.231 C 
ENDROOT
BRANCH   1   2
ATOM      2  C   UNL     1      -8.368  15.941  -2.582  1.00  0.00     0.129 A 
ATOM      3  C   UNL     1      -8.546  16.740  -0.544  1.00  0.00     0.042 A 
ATOM      4  C   UNL     1      -7.624  15.714  -0.597  1.00  0.00     0.195 A 
ATOM      5  C   UNL     1      -9.030  16.886  -1.826  1.00  0.00     0.048 A 
ATOM      6  O   UNL     1      -7.542  15.256  -1.825  1.00  0.00    -0.467 OA
ENDBRANCH   1   2
BRANCH   1   7
ATOM      7  O   UNL     1      -8.398  16.875  -4.764  1.00  0.00    -0.388 OA
ATOM      8  H   UNL     1      -7.957  17.519  -4.150  1.00  0.00     0.211 HD
ENDBRANCH   1   7
TORSDOF 2
ENDMDL
MODEL 9
REMARK VINA RESULT:    -2.928      1.507      2.607
REMARK INTER + INTRA:          -3.206
REMARK INTER:                  -3.190
REMARK INTRA:                  -0.016
REMARK UNBOUND:                -0.021
REMARK SMILES OCc1ccco1
REMARK SMILES IDX 2 1 3 2 5 3 6 4 4 5 7 6 1 7
REMARK H PARENT 1 8
REMARK Flexibility Score: inf
ROOT
ATOM      1  C   UNL     1       5.667  19.969   0.178  1.00  0.00     0.231 C 
ENDROOT
BRANCH   1   2
ATOM      2  C   UNL     1       6.586  19.329   1.170  1.00  0.00     0.129 A 
ATOM      3  C   UNL     1       7.615  18.783   3.032  1.00  0.00     0.042 A 
ATOM      4  C   UNL     1       8.053  18.009   1.976  1.00  0.00     0.195 A 
ATOM      5  C   UNL     1       6.663  19.635   2.513  1.00  0.00     0.048 A 
ATOM      6  O   UNL     1       7.419  18.357   0.879  1.00  0.00    -0.467 OA
ENDBRANCH   1   2
BRANCH   1   7
ATOM      7  O   UNL     1       4.558  20.518   0.834  1.00  0.00    -0.388 OA
ATOM      8  H   UNL     1       3.827  20.567   0.163  1.00  0.00     0.211 HD
ENDBRANCH   1   7
TORSDOF 2
ENDMDL
