MODEL 1
REMARK VINA RESULT:    -6.901      0.000      0.000
REMARK INTER + INTRA:          -8.285
REMARK INTER:                  -8.112
REMARK INTRA:                  -0.174
REMARK UNBOUND:                -0.174
REMARK SMILES O=c1c(O)c(-c2ccc(O)cc2)oc2cc(O)cc(O)c12
REMARK SMILES IDX 5 1 3 2 2 3 1 4 21 5 19 6 18 7 16 8 15 9 14 10 13 11 6 12
REMARK SMILES IDX 7 13 8 14 9 15 12 16 11 17 10 18 4 20 20 22 17 24
REMARK H PARENT 10 19 4 21 20 23 17 25
REMARK Flexibility Score: inf
ROOT
ATOM      1  C   UNL     1     -14.499 -33.272 -13.040  1.00  0.00     0.180 A 
ATOM      2  C   UNL     1     -13.467 -33.434 -13.981  1.00  0.00     0.208 A 
ATOM      3  C   UNL     1     -13.624 -34.375 -15.010  1.00  0.00     0.238 A 
ATOM      4  O   UNL     1     -12.722 -34.476 -15.881  1.00  0.00    -0.285 OA
ATOM      5  C   UNL     1     -14.804 -35.156 -15.076  1.00  0.00     0.111 A 
ATOM      6  C   UNL     1     -15.053 -36.169 -16.051  1.00  0.00     0.134 A 
ATOM      7  C   UNL     1     -16.308 -36.787 -16.099  1.00  0.00     0.093 A 
ATOM      8  C   UNL     1     -17.300 -36.478 -15.169  1.00  0.00     0.123 A 
ATOM      9  C   UNL     1     -17.047 -35.533 -14.175  1.00  0.00     0.094 A 
ATOM     10  C   UNL     1     -15.816 -34.873 -14.122  1.00  0.00     0.146 A 
ATOM     11  O   UNL     1     -15.620 -33.973 -13.167  1.00  0.00    -0.452 OA
ENDROOT
BRANCH   1  12
ATOM     12  C   UNL     1     -14.396 -32.317 -11.913  1.00  0.00     0.021 A 
ATOM     13  C   UNL     1     -13.453 -32.497 -10.884  1.00  0.00     0.016 A 
ATOM     14  C   UNL     1     -13.390 -31.596  -9.817  1.00  0.00     0.047 A 
ATOM     15  C   UNL     1     -14.276 -30.511  -9.759  1.00  0.00     0.115 A 
ATOM     16  C   UNL     1     -15.293 -31.239 -11.835  1.00  0.00     0.016 A 
ATOM     17  C   UNL     1     -15.227 -30.339 -10.768  1.00  0.00     0.047 A 
BRANCH  15  18
ATOM     18  O   UNL     1     -14.222 -29.606  -8.702  1.00  0.00    -0.508 OA
ATOM     19  H   UNL     1     -14.923 -28.884  -8.585  1.00  0.00     0.293 HD
ENDBRANCH  15  18
ENDBRANCH   1  12
BRANCH   2  20
ATOM     20  O   UNL     1     -12.320 -32.636 -13.911  1.00  0.00    -0.502 OA
ATOM     21  H   UNL     1     -11.494 -32.823 -14.466  1.00  0.00     0.293 HD
ENDBRANCH   2  20
BRANCH   6  22
ATOM     22  O   UNL     1     -14.099 -36.619 -16.969  1.00  0.00    -0.507 OA
ATOM     23  H   UNL     1     -13.929 -36.201 -17.871  1.00  0.00     0.293 HD
ENDBRANCH   6  22
BRANCH   8  24
ATOM     24  O   UNL     1     -18.531 -37.125 -15.238  1.00  0.00    -0.508 OA
ATOM     25  H   UNL     1     -18.675 -38.036 -14.818  1.00  0.00     0.293 HD
ENDBRANCH   8  24
TORSDOF 5
ENDMDL
