MODEL 1
REMARK VINA RESULT:    -5.055      0.000      0.000
REMARK INTER + INTRA:          -8.570
REMARK INTER:                  -7.715
REMARK INTRA:                  -0.855
REMARK UNBOUND:                -0.855
REMARK SMILES CCCCCCCCCCC(=O)[O-]
REMARK SMILES IDX 7 1 8 2 9 3 10 4 11 5 12 6 13 7 6 8 5 9 4 10 3 11 2 12 1 13
REMARK H PARENT
REMARK Flexibility Score: inf
ROOT
ATOM      1  C   UNL     1     -10.183 -18.875  29.935  1.00  0.00     0.000 C 
ENDROOT
BRANCH   1   2
ATOM      2  C   UNL     1     -10.365 -18.925  31.460  1.00  0.00     0.000 C 
BRANCH   2   3
ATOM      3  C   UNL     1      -9.676 -17.751  32.177  1.00  0.00     0.006 C 
BRANCH   3   4
ATOM      4  C   UNL     1      -9.324 -16.610  31.214  1.00  0.00     0.053 C 
BRANCH   4   5
ATOM      5  C   UNL     1      -8.050 -15.928  31.609  1.00  0.00     0.041 C 
ATOM      6  O   UNL     1      -7.879 -14.706  31.354  1.00  0.00    -0.550 OA
ATOM      7  O   UNL     1      -7.064 -16.633  32.288  1.00  0.00    -0.550 OA
ENDBRANCH   4   5
ENDBRANCH   3   4
ENDBRANCH   2   3
ENDBRANCH   1   2
BRANCH   1   8
ATOM      8  C   UNL     1     -11.522 -18.916  29.176  1.00  0.00     0.000 C 
BRANCH   8   9
ATOM      9  C   UNL     1     -12.693 -18.395  30.035  1.00  0.00    -0.000 C 
BRANCH   9  10
ATOM     10  C   UNL     1     -13.388 -17.156  29.443  1.00  0.00    -0.000 C 
BRANCH  10  11
ATOM     11  C   UNL     1     -12.398 -16.135  28.865  1.00  0.00    -0.000 C 
BRANCH  11  12
ATOM     12  C   UNL     1     -12.449 -16.127  27.334  1.00  0.00    -0.003 C 
ATOM     13  C   UNL     1     -11.086 -15.781  26.739  1.00  0.00     0.004 C 
ENDBRANCH  11  12
ENDBRANCH  10  11
ENDBRANCH   9  10
ENDBRANCH   8   9
ENDBRANCH   1   8
TORSDOF 9
ENDMDL
MODEL 2
REMARK VINA RESULT:    -5.006      1.074      2.006
REMARK INTER + INTRA:          -8.496
REMARK INTER:                  -7.373
REMARK INTRA:                  -1.123
REMARK UNBOUND:                -0.855
REMARK SMILES CCCCCCCCCCC(=O)[O-]
REMARK SMILES IDX 7 1 8 2 9 3 10 4 11 5 12 6 13 7 6 8 5 9 4 10 3 11 2 12 1 13
REMARK H PARENT
REMARK Flexibility Score: inf
ROOT
ATOM      1  C   UNL     1     -10.174 -17.821  32.241  1.00  0.00     0.000 C 
ENDROOT
BRANCH   1   2
ATOM      2  C   UNL     1     -11.074 -16.608  32.524  1.00  0.00     0.000 C 
BRANCH   2   3
ATOM      3  C   UNL     1     -10.537 -15.312  31.894  1.00  0.00     0.006 C 
BRANCH   3   4
ATOM      4  C   UNL     1      -9.273 -15.554  31.060  1.00  0.00     0.053 C 
BRANCH   4   5
ATOM      5  C   UNL     1      -8.127 -14.715  31.536  1.00  0.00     0.041 C 
ATOM      6  O   UNL     1      -8.341 -13.644  32.162  1.00  0.00    -0.550 OA
ATOM      7  O   UNL     1      -6.820 -15.134  31.317  1.00  0.00    -0.550 OA
ENDBRANCH   4   5
ENDBRANCH   3   4
ENDBRANCH   2   3
ENDBRANCH   1   2
BRANCH   1   8
ATOM      8  C   UNL     1     -10.868 -18.886  31.373  1.00  0.00     0.000 C 
BRANCH   8   9
ATOM      9  C   UNL     1     -10.428 -18.811  29.897  1.00  0.00    -0.000 C 
BRANCH   9  10
ATOM     10  C   UNL     1     -11.595 -18.597  28.916  1.00  0.00    -0.000 C 
BRANCH  10  11
ATOM     11  C   UNL     1     -12.761 -17.816  29.537  1.00  0.00    -0.000 C 
BRANCH  11  12
ATOM     12  C   UNL     1     -12.892 -16.428  28.902  1.00  0.00    -0.003 C 
ATOM     13  C   UNL     1     -11.969 -16.285  27.695  1.00  0.00     0.004 C 
ENDBRANCH  11  12
ENDBRANCH  10  11
ENDBRANCH   9  10
ENDBRANCH   8   9
ENDBRANCH   1   8
TORSDOF 9
ENDMDL
MODEL 3
REMARK VINA RESULT:    -4.987      2.712      4.791
REMARK INTER + INTRA:          -8.466
REMARK INTER:                  -7.307
REMARK INTRA:                  -1.159
REMARK UNBOUND:                -0.855
REMARK SMILES CCCCCCCCCCC(=O)[O-]
REMARK SMILES IDX 7 1 8 2 9 3 10 4 11 5 12 6 13 7 6 8 5 9 4 10 3 11 2 12 1 13
REMARK H PARENT
REMARK Flexibility Score: inf
ROOT
ATOM      1  C   UNL     1     -13.091 -17.439  31.069  1.00  0.00     0.000 C 
ENDROOT
BRANCH   1   2
ATOM      2  C   UNL     1     -13.200 -17.253  29.547  1.00  0.00     0.000 C 
BRANCH   2   3
ATOM      3  C   UNL     1     -12.405 -16.037  29.041  1.00  0.00     0.006 C 
BRANCH   3   4
ATOM      4  C   UNL     1     -11.251 -16.444  28.117  1.00  0.00     0.053 C 
BRANCH   4   5
ATOM      5  C   UNL     1     -11.361 -15.790  26.774  1.00  0.00     0.041 C 
ATOM      6  O   UNL     1     -12.484 -15.667  26.217  1.00  0.00    -0.550 OA
ATOM      7  O   UNL     1     -10.226 -15.283  26.152  1.00  0.00    -0.550 OA
ENDBRANCH   4   5
ENDBRANCH   3   4
ENDBRANCH   2   3
ENDBRANCH   1   2
BRANCH   1   8
ATOM      8  C   UNL     1     -12.365 -18.739  31.457  1.00  0.00     0.000 C 
BRANCH   8   9
ATOM      9  C   UNL     1     -10.844 -18.651  31.212  1.00  0.00    -0.000 C 
BRANCH   9  10
ATOM     10  C   UNL     1     -10.073 -17.977  32.361  1.00  0.00    -0.000 C 
BRANCH  10  11
ATOM     11  C   UNL     1      -8.849 -17.187  31.876  1.00  0.00    -0.000 C 
BRANCH  11  12
ATOM     12  C   UNL     1      -9.275 -15.939  31.096  1.00  0.00    -0.003 C 
ATOM     13  C   UNL     1     -10.203 -15.058  31.929  1.00  0.00     0.004 C 
ENDBRANCH  11  12
ENDBRANCH  10  11
ENDBRANCH   9  10
ENDBRANCH   8   9
ENDBRANCH   1   8
TORSDOF 9
ENDMDL
MODEL 4
REMARK VINA RESULT:    -4.946      1.568      2.675
REMARK INTER + INTRA:          -8.403
REMARK INTER:                  -7.739
REMARK INTRA:                  -0.664
REMARK UNBOUND:                -0.855
REMARK SMILES CCCCCCCCCCC(=O)[O-]
REMARK SMILES IDX 7 1 8 2 9 3 10 4 11 5 12 6 13 7 6 8 5 9 4 10 3 11 2 12 1 13
REMARK H PARENT
REMARK Flexibility Score: inf
ROOT
ATOM      1  C   UNL     1     -11.724 -18.528  29.118  1.00  0.00     0.000 C 
ENDROOT
BRANCH   1   2
ATOM      2  C   UNL     1     -10.276 -18.682  29.611  1.00  0.00     0.000 C 
BRANCH   2   3
ATOM      3  C   UNL     1     -10.191 -18.948  31.124  1.00  0.00     0.006 C 
BRANCH   3   4
ATOM      4  C   UNL     1     -10.159 -17.649  31.939  1.00  0.00     0.053 C 
BRANCH   4   5
ATOM      5  C   UNL     1      -8.895 -16.880  31.705  1.00  0.00     0.041 C 
ATOM      6  O   UNL     1      -8.899 -15.860  30.966  1.00  0.00    -0.550 OA
ATOM      7  O   UNL     1      -7.717 -17.271  32.331  1.00  0.00    -0.550 OA
ENDBRANCH   4   5
ENDBRANCH   3   4
ENDBRANCH   2   3
ENDBRANCH   1   2
BRANCH   1   8
ATOM      8  C   UNL     1     -12.040 -17.098  28.644  1.00  0.00     0.000 C 
BRANCH   8   9
ATOM      9  C   UNL     1     -10.806 -16.404  28.030  1.00  0.00    -0.000 C 
BRANCH   9  10
ATOM     10  C   UNL     1     -11.106 -15.671  26.710  1.00  0.00    -0.000 C 
BRANCH  10  11
ATOM     11  C   UNL     1      -9.861 -15.014  26.096  1.00  0.00    -0.000 C 
BRANCH  11  12
ATOM     12  C   UNL     1      -8.645 -15.176  27.013  1.00  0.00    -0.003 C 
ATOM     13  C   UNL     1      -7.367 -14.705  26.324  1.00  0.00     0.004 C 
ENDBRANCH  11  12
ENDBRANCH  10  11
ENDBRANCH   9  10
ENDBRANCH   8   9
ENDBRANCH   1   8
TORSDOF 9
ENDMDL
MODEL 5
REMARK VINA RESULT:    -4.941      2.487      4.740
REMARK INTER + INTRA:          -8.395
REMARK INTER:                  -7.583
REMARK INTRA:                  -0.812
REMARK UNBOUND:                -0.855
REMARK SMILES CCCCCCCCCCC(=O)[O-]
REMARK SMILES IDX 7 1 8 2 9 3 10 4 11 5 12 6 13 7 6 8 5 9 4 10 3 11 2 12 1 13
REMARK H PARENT
REMARK Flexibility Score: inf
ROOT
ATOM      1  C   UNL     1     -12.880 -16.360  29.286  1.00  0.00     0.000 C 
ENDROOT
BRANCH   1   2
ATOM      2  C   UNL     1     -11.987 -17.146  28.314  1.00  0.00     0.000 C 
BRANCH   2   3
ATOM      3  C   UNL     1     -10.742 -16.353  27.880  1.00  0.00     0.006 C 
BRANCH   3   4
ATOM      4  C   UNL     1     -10.958 -15.617  26.552  1.00  0.00     0.053 C 
BRANCH   4   5
ATOM      5  C   UNL     1      -9.719 -14.903  26.107  1.00  0.00     0.041 C 
ATOM      6  O   UNL     1      -9.792 -13.970  25.264  1.00  0.00    -0.550 OA
ATOM      7  O   UNL     1      -8.486 -15.245  26.650  1.00  0.00    -0.550 OA
ENDBRANCH   4   5
ENDBRANCH   3   4
ENDBRANCH   2   3
ENDBRANCH   1   2
BRANCH   1   8
ATOM      8  C   UNL     1     -13.269 -17.179  30.529  1.00  0.00     0.000 C 
BRANCH   8   9
ATOM      9  C   UNL     1     -12.202 -17.092  31.640  1.00  0.00    -0.000 C 
BRANCH   9  10
ATOM     10  C   UNL     1     -11.588 -18.454  32.012  1.00  0.00    -0.000 C 
BRANCH  10  11
ATOM     11  C   UNL     1     -10.121 -18.586  31.577  1.00  0.00    -0.000 C 
BRANCH  11  12
ATOM     12  C   UNL     1      -9.535 -17.221  31.199  1.00  0.00    -0.003 C 
ATOM     13  C   UNL     1      -8.313 -16.891  32.052  1.00  0.00     0.004 C 
ENDBRANCH  11  12
ENDBRANCH  10  11
ENDBRANCH   9  10
ENDBRANCH   8   9
ENDBRANCH   1   8
TORSDOF 9
ENDMDL
MODEL 6
REMARK VINA RESULT:    -4.884      1.184      1.738
REMARK INTER + INTRA:          -8.309
REMARK INTER:                  -7.527
REMARK INTRA:                  -0.782
REMARK UNBOUND:                -0.855
REMARK SMILES CCCCCCCCCCC(=O)[O-]
REMARK SMILES IDX 7 1 8 2 9 3 10 4 11 5 12 6 13 7 6 8 5 9 4 10 3 11 2 12 1 13
REMARK H PARENT
REMARK Flexibility Score: inf
ROOT
ATOM      1  C   UNL     1     -12.281 -17.257  31.833  1.00  0.00     0.000 C 
ENDROOT
BRANCH   1   2
ATOM      2  C   UNL     1     -11.251 -18.184  32.497  1.00  0.00     0.000 C 
BRANCH   2   3
ATOM      3  C   UNL     1      -9.806 -17.857  32.081  1.00  0.00     0.006 C 
BRANCH   3   4
ATOM      4  C   UNL     1      -9.593 -16.355  31.858  1.00  0.00     0.053 C 
BRANCH   4   5
ATOM      5  C   UNL     1      -8.172 -16.046  31.497  1.00  0.00     0.041 C 
ATOM      6  O   UNL     1      -7.227 -16.498  32.196  1.00  0.00    -0.550 OA
ATOM      7  O   UNL     1      -7.891 -15.285  30.369  1.00  0.00    -0.550 OA
ENDBRANCH   4   5
ENDBRANCH   3   4
ENDBRANCH   2   3
ENDBRANCH   1   2
BRANCH   1   8
ATOM      8  C   UNL     1     -13.129 -17.977  30.769  1.00  0.00     0.000 C 
BRANCH   8   9
ATOM      9  C   UNL     1     -13.297 -17.132  29.489  1.00  0.00    -0.000 C 
BRANCH   9  10
ATOM     10  C   UNL     1     -12.270 -15.992  29.365  1.00  0.00    -0.000 C 
BRANCH  10  11
ATOM     11  C   UNL     1     -11.094 -16.345  28.443  1.00  0.00    -0.000 C 
BRANCH  11  12
ATOM     12  C   UNL     1     -11.425 -16.021  26.983  1.00  0.00    -0.003 C 
ATOM     13  C   UNL     1     -10.271 -15.286  26.306  1.00  0.00     0.004 C 
ENDBRANCH  11  12
ENDBRANCH  10  11
ENDBRANCH   9  10
ENDBRANCH   8   9
ENDBRANCH   1   8
TORSDOF 9
ENDMDL
MODEL 7
REMARK VINA RESULT:    -4.746      3.706      4.557
REMARK INTER + INTRA:          -8.099
REMARK INTER:                  -7.389
REMARK INTRA:                  -0.710
REMARK UNBOUND:                -0.855
REMARK SMILES CCCCCCCCCCC(=O)[O-]
REMARK SMILES IDX 7 1 8 2 9 3 10 4 11 5 12 6 13 7 6 8 5 9 4 10 3 11 2 12 1 13
REMARK H PARENT
REMARK Flexibility Score: inf
ROOT
ATOM      1  C   UNL     1      -9.937 -17.722  31.810  1.00  0.00     0.000 C 
ENDROOT
BRANCH   1   2
ATOM      2  C   UNL     1     -10.413 -19.184  31.847  1.00  0.00     0.000 C 
BRANCH   2   3
ATOM      3  C   UNL     1     -11.727 -19.359  32.626  1.00  0.00     0.006 C 
BRANCH   3   4
ATOM      4  C   UNL     1     -11.601 -20.398  33.747  1.00  0.00     0.053 C 
BRANCH   4   5
ATOM      5  C   UNL     1     -12.824 -21.256  33.847  1.00  0.00     0.041 C 
ATOM      6  O   UNL     1     -13.717 -21.195  32.960  1.00  0.00    -0.550 OA
ATOM      7  O   UNL     1     -12.964 -22.149  34.902  1.00  0.00    -0.550 OA
ENDBRANCH   4   5
ENDBRANCH   3   4
ENDBRANCH   2   3
ENDBRANCH   1   2
BRANCH   1   8
ATOM      8  C   UNL     1     -11.067 -16.723  32.120  1.00  0.00     0.000 C 
BRANCH   8   9
ATOM      9  C   UNL     1     -11.536 -15.967  30.860  1.00  0.00    -0.000 C 
BRANCH   9  10
ATOM     10  C   UNL     1     -12.654 -16.691  30.089  1.00  0.00    -0.000 C 
BRANCH  10  11
ATOM     11  C   UNL     1     -12.148 -17.391  28.819  1.00  0.00    -0.000 C 
BRANCH  11  12
ATOM     12  C   UNL     1     -12.306 -16.485  27.593  1.00  0.00    -0.003 C 
ATOM     13  C   UNL     1     -10.970 -15.863  27.193  1.00  0.00     0.004 C 
ENDBRANCH  11  12
ENDBRANCH  10  11
ENDBRANCH   9  10
ENDBRANCH   8   9
ENDBRANCH   1   8
TORSDOF 9
ENDMDL
MODEL 8
REMARK VINA RESULT:    -4.746      1.763      3.100
REMARK INTER + INTRA:          -8.098
REMARK INTER:                  -7.220
REMARK INTRA:                  -0.878
REMARK UNBOUND:                -0.855
REMARK SMILES CCCCCCCCCCC(=O)[O-]
REMARK SMILES IDX 7 1 8 2 9 3 10 4 11 5 12 6 13 7 6 8 5 9 4 10 3 11 2 12 1 13
REMARK H PARENT
REMARK Flexibility Score: inf
ROOT
ATOM      1  C   UNL     1      -9.162 -16.763  31.326  1.00  0.00     0.000 C 
ENDROOT
BRANCH   1   2
ATOM      2  C   UNL     1      -9.568 -15.343  31.750  1.00  0.00     0.000 C 
BRANCH   2   3
ATOM      3  C   UNL     1      -8.391 -14.353  31.710  1.00  0.00     0.006 C 
BRANCH   3   4
ATOM      4  C   UNL     1      -7.171 -14.934  30.985  1.00  0.00     0.053 C 
BRANCH   4   5
ATOM      5  C   UNL     1      -6.788 -14.106  29.797  1.00  0.00     0.041 C 
ATOM      6  O   UNL     1      -7.127 -14.463  28.638  1.00  0.00    -0.550 OA
ATOM      7  O   UNL     1      -6.085 -12.920  29.973  1.00  0.00    -0.550 OA
ENDBRANCH   4   5
ENDBRANCH   3   4
ENDBRANCH   2   3
ENDBRANCH   1   2
BRANCH   1   8
ATOM      8  C   UNL     1      -9.885 -17.854  32.136  1.00  0.00     0.000 C 
BRANCH   8   9
ATOM      9  C   UNL     1     -10.652 -18.838  31.230  1.00  0.00    -0.000 C 
BRANCH   9  10
ATOM     10  C   UNL     1     -10.364 -18.647  29.730  1.00  0.00    -0.000 C 
BRANCH  10  11
ATOM     11  C   UNL     1     -11.637 -18.416  28.902  1.00  0.00    -0.000 C 
BRANCH  11  12
ATOM     12  C   UNL     1     -11.696 -16.979  28.376  1.00  0.00    -0.003 C 
ATOM     13  C   UNL     1     -12.439 -16.066  29.349  1.00  0.00     0.004 C 
ENDBRANCH  11  12
ENDBRANCH  10  11
ENDBRANCH   9  10
ENDBRANCH   8   9
ENDBRANCH   1   8
TORSDOF 9
ENDMDL
MODEL 9
REMARK VINA RESULT:    -4.659      1.495      2.274
REMARK INTER + INTRA:          -7.965
REMARK INTER:                  -7.358
REMARK INTRA:                  -0.607
REMARK UNBOUND:                -0.855
REMARK SMILES CCCCCCCCCCC(=O)[O-]
REMARK SMILES IDX 7 1 8 2 9 3 10 4 11 5 12 6 13 7 6 8 5 9 4 10 3 11 2 12 1 13
REMARK H PARENT
REMARK Flexibility Score: inf
ROOT
ATOM      1  C   UNL     1     -10.509 -18.497  29.788  1.00  0.00     0.000 C 
ENDROOT
BRANCH   1   2
ATOM      2  C   UNL     1     -11.016 -18.629  31.233  1.00  0.00     0.000 C 
BRANCH   2   3
ATOM      3  C   UNL     1     -10.126 -17.885  32.244  1.00  0.00     0.006 C 
BRANCH   3   4
ATOM      4  C   UNL     1      -9.045 -17.044  31.554  1.00  0.00     0.053 C 
BRANCH   4   5
ATOM      5  C   UNL     1      -9.340 -15.578  31.649  1.00  0.00     0.041 C 
ATOM      6  O   UNL     1      -8.433 -14.733  31.429  1.00  0.00    -0.550 OA
ATOM      7  O   UNL     1     -10.626 -15.146  31.948  1.00  0.00    -0.550 OA
ENDBRANCH   4   5
ENDBRANCH   3   4
ENDBRANCH   2   3
ENDBRANCH   1   2
BRANCH   1   8
ATOM      8  C   UNL     1     -11.621 -18.095  28.803  1.00  0.00     0.000 C 
BRANCH   8   9
ATOM      9  C   UNL     1     -11.745 -16.564  28.660  1.00  0.00    -0.000 C 
BRANCH   9  10
ATOM     10  C   UNL     1     -11.400 -16.048  27.251  1.00  0.00    -0.000 C 
BRANCH  10  11
ATOM     11  C   UNL     1      -9.938 -15.600  27.120  1.00  0.00    -0.000 C 
BRANCH  11  12
ATOM     12  C   UNL     1      -9.723 -14.794  25.834  1.00  0.00    -0.003 C 
ATOM     13  C   UNL     1      -8.498 -13.891  25.948  1.00  0.00     0.004 C 
ENDBRANCH  11  12
ENDBRANCH  10  11
ENDBRANCH   9  10
ENDBRANCH   8   9
ENDBRANCH   1   8
TORSDOF 9
ENDMDL
