MODEL 1
REMARK VINA RESULT:    -3.284      0.000      0.000
REMARK INTER + INTRA:          -3.679
REMARK INTER:                  -3.668
REMARK INTRA:                  -0.011
REMARK UNBOUND:                -0.011
REMARK SMILES CCCC(=O)[O-]
REMARK SMILES IDX 3 1 4 2 5 3 6 4 2 5 1 6
REMARK H PARENT
REMARK Flexibility Score: inf
ROOT
ATOM      1  C   UNL     1     -20.609  -6.968 -12.795  1.00  0.00     0.052 C 
ENDROOT
BRANCH   1   2
ATOM      2  C   UNL     1     -20.272  -5.637 -13.394  1.00  0.00     0.041 C 
ATOM      3  O   UNL     1     -19.652  -5.573 -14.488  1.00  0.00    -0.550 OA
ATOM      4  O   UNL     1     -20.671  -4.467 -12.762  1.00  0.00    -0.550 OA
ENDBRANCH   1   2
BRANCH   1   5
ATOM      5  C   UNL     1     -20.091  -8.127 -13.657  1.00  0.00     0.003 C 
ATOM      6  C   UNL     1     -20.204  -9.475 -12.947  1.00  0.00     0.004 C 
ENDBRANCH   1   5
TORSDOF 2
ENDMDL
MODEL 2
REMARK VINA RESULT:    -3.268      0.769      1.436
REMARK INTER + INTRA:          -3.661
REMARK INTER:                  -3.650
REMARK INTRA:                  -0.011
REMARK UNBOUND:                -0.011
REMARK SMILES CCCC(=O)[O-]
REMARK SMILES IDX 3 1 4 2 5 3 6 4 2 5 1 6
REMARK H PARENT
REMARK Flexibility Score: inf
ROOT
ATOM      1  C   UNL     1     -19.958  -7.227 -14.080  1.00  0.00     0.052 C 
ENDROOT
BRANCH   1   2
ATOM      2  C   UNL     1     -20.098  -5.755 -13.839  1.00  0.00     0.041 C 
ATOM      3  O   UNL     1     -20.736  -5.335 -12.838  1.00  0.00    -0.550 OA
ATOM      4  O   UNL     1     -19.494  -4.847 -14.699  1.00  0.00    -0.550 OA
ENDBRANCH   1   2
BRANCH   1   5
ATOM      5  C   UNL     1     -20.465  -8.049 -12.889  1.00  0.00     0.003 C 
ATOM      6  C   UNL     1     -20.149  -9.538 -13.033  1.00  0.00     0.004 C 
ENDBRANCH   1   5
TORSDOF 2
ENDMDL
MODEL 3
REMARK VINA RESULT:    -2.885     18.632     18.853
REMARK INTER + INTRA:          -3.234
REMARK INTER:                  -3.216
REMARK INTRA:                  -0.018
REMARK UNBOUND:                -0.011
REMARK SMILES CCCC(=O)[O-]
REMARK SMILES IDX 3 1 4 2 5 3 6 4 2 5 1 6
REMARK H PARENT
REMARK Flexibility Score: inf
ROOT
ATOM      1  C   UNL     1      -7.682  -8.402  -0.396  1.00  0.00     0.052 C 
ENDROOT
BRANCH   1   2
ATOM      2  C   UNL     1      -7.222  -7.061   0.088  1.00  0.00     0.041 C 
ATOM      3  O   UNL     1      -6.169  -6.548  -0.372  1.00  0.00    -0.550 OA
ATOM      4  O   UNL     1      -7.975  -6.362   1.023  1.00  0.00    -0.550 OA
ENDBRANCH   1   2
BRANCH   1   5
ATOM      5  C   UNL     1      -7.109  -9.541   0.456  1.00  0.00     0.003 C 
ATOM      6  C   UNL     1      -6.419 -10.611  -0.390  1.00  0.00     0.004 C 
ENDBRANCH   1   5
TORSDOF 2
ENDMDL
MODEL 4
REMARK VINA RESULT:    -2.764     19.068     19.323
REMARK INTER + INTRA:          -3.098
REMARK INTER:                  -3.062
REMARK INTRA:                  -0.036
REMARK UNBOUND:                -0.011
REMARK SMILES CCCC(=O)[O-]
REMARK SMILES IDX 3 1 4 2 5 3 6 4 2 5 1 6
REMARK H PARENT
REMARK Flexibility Score: inf
ROOT
ATOM      1  C   UNL     1      -7.662  -8.751  -0.417  1.00  0.00     0.052 C 
ENDROOT
BRANCH   1   2
ATOM      2  C   UNL     1      -6.874  -9.915   0.102  1.00  0.00     0.041 C 
ATOM      3  O   UNL     1      -6.243 -10.658  -0.695  1.00  0.00    -0.550 OA
ATOM      4  O   UNL     1      -6.810 -10.159   1.468  1.00  0.00    -0.550 OA
ENDBRANCH   1   2
BRANCH   1   5
ATOM      5  C   UNL     1      -6.923  -7.424  -0.204  1.00  0.00     0.003 C 
ATOM      6  C   UNL     1      -7.584  -6.555   0.865  1.00  0.00     0.004 C 
ENDBRANCH   1   5
TORSDOF 2
ENDMDL
MODEL 5
REMARK VINA RESULT:    -2.744     19.451     19.826
REMARK INTER + INTRA:          -3.076
REMARK INTER:                  -3.038
REMARK INTRA:                  -0.038
REMARK UNBOUND:                -0.011
REMARK SMILES CCCC(=O)[O-]
REMARK SMILES IDX 3 1 4 2 5 3 6 4 2 5 1 6
REMARK H PARENT
REMARK Flexibility Score: inf
ROOT
ATOM      1  C   UNL     1      -6.591 -10.169  -0.514  1.00  0.00     0.052 C 
ENDROOT
BRANCH   1   2
ATOM      2  C   UNL     1      -6.425 -11.078   0.665  1.00  0.00     0.041 C 
ATOM      3  O   UNL     1      -6.632 -10.649   1.830  1.00  0.00    -0.550 OA
ATOM      4  O   UNL     1      -6.075 -12.409   0.474  1.00  0.00    -0.550 OA
ENDBRANCH   1   2
BRANCH   1   5
ATOM      5  C   UNL     1      -7.695  -9.130  -0.280  1.00  0.00     0.003 C 
ATOM      6  C   UNL     1      -7.151  -7.703  -0.231  1.00  0.00     0.004 C 
ENDBRANCH   1   5
TORSDOF 2
ENDMDL
MODEL 6
REMARK VINA RESULT:    -2.636      1.190      1.632
REMARK INTER + INTRA:          -2.956
REMARK INTER:                  -2.918
REMARK INTRA:                  -0.038
REMARK UNBOUND:                -0.011
REMARK SMILES CCCC(=O)[O-]
REMARK SMILES IDX 3 1 4 2 5 3 6 4 2 5 1 6
REMARK H PARENT
REMARK Flexibility Score: inf
ROOT
ATOM      1  C   UNL     1     -20.148  -5.351 -12.940  1.00  0.00     0.052 C 
ENDROOT
BRANCH   1   2
ATOM      2  C   UNL     1     -20.135  -4.377 -14.078  1.00  0.00     0.041 C 
ATOM      3  O   UNL     1     -19.488  -4.635 -15.126  1.00  0.00    -0.550 OA
ATOM      4  O   UNL     1     -20.864  -3.198 -13.993  1.00  0.00    -0.550 OA
ENDBRANCH   1   2
BRANCH   1   5
ATOM      5  C   UNL     1     -21.056  -6.553 -13.232  1.00  0.00     0.003 C 
ATOM      6  C   UNL     1     -20.261  -7.832 -13.496  1.00  0.00     0.004 C 
ENDBRANCH   1   5
TORSDOF 2
ENDMDL
MODEL 7
REMARK VINA RESULT:    -2.563      1.474      2.144
REMARK INTER + INTRA:          -2.873
REMARK INTER:                  -2.867
REMARK INTRA:                  -0.006
REMARK UNBOUND:                -0.011
REMARK SMILES CCCC(=O)[O-]
REMARK SMILES IDX 3 1 4 2 5 3 6 4 2 5 1 6
REMARK H PARENT
REMARK Flexibility Score: inf
ROOT
ATOM      1  C   UNL     1     -21.642  -6.145 -13.573  1.00  0.00     0.052 C 
ENDROOT
BRANCH   1   2
ATOM      2  C   UNL     1     -21.992  -4.842 -12.921  1.00  0.00     0.041 C 
ATOM      3  O   UNL     1     -23.187  -4.585 -12.620  1.00  0.00    -0.550 OA
ATOM      4  O   UNL     1     -20.994  -3.927 -12.614  1.00  0.00    -0.550 OA
ENDBRANCH   1   2
BRANCH   1   5
ATOM      5  C   UNL     1     -20.404  -6.787 -12.933  1.00  0.00     0.003 C 
ATOM      6  C   UNL     1     -20.257  -8.262 -13.304  1.00  0.00     0.004 C 
ENDBRANCH   1   5
TORSDOF 2
ENDMDL
MODEL 8
REMARK VINA RESULT:    -2.459      2.059      3.587
REMARK INTER + INTRA:          -2.757
REMARK INTER:                  -2.752
REMARK INTRA:                  -0.005
REMARK UNBOUND:                -0.011
REMARK SMILES CCCC(=O)[O-]
REMARK SMILES IDX 3 1 4 2 5 3 6 4 2 5 1 6
REMARK H PARENT
REMARK Flexibility Score: inf
ROOT
ATOM      1  C   UNL     1     -21.393  -6.094 -13.302  1.00  0.00     0.052 C 
ENDROOT
BRANCH   1   2
ATOM      2  C   UNL     1     -20.516  -7.305 -13.205  1.00  0.00     0.041 C 
ATOM      3  O   UNL     1     -20.669  -8.123 -12.260  1.00  0.00    -0.550 OA
ATOM      4  O   UNL     1     -19.553  -7.547 -14.175  1.00  0.00    -0.550 OA
ENDBRANCH   1   2
BRANCH   1   5
ATOM      5  C   UNL     1     -20.619  -4.805 -12.997  1.00  0.00     0.003 C 
ATOM      6  C   UNL     1     -21.537  -3.665 -12.558  1.00  0.00     0.004 C 
ENDBRANCH   1   5
TORSDOF 2
ENDMDL
MODEL 9
REMARK VINA RESULT:    -2.421      2.241      3.046
REMARK INTER + INTRA:          -2.715
REMARK INTER:                  -2.670
REMARK INTRA:                  -0.045
REMARK UNBOUND:                -0.011
REMARK SMILES CCCC(=O)[O-]
REMARK SMILES IDX 3 1 4 2 5 3 6 4 2 5 1 6
REMARK H PARENT
REMARK Flexibility Score: inf
ROOT
ATOM      1  C   UNL     1     -20.035  -6.954 -14.325  1.00  0.00     0.052 C 
ENDROOT
BRANCH   1   2
ATOM      2  C   UNL     1     -20.962  -6.577 -15.440  1.00  0.00     0.041 C 
ATOM      3  O   UNL     1     -20.582  -5.783 -16.339  1.00  0.00    -0.550 OA
ATOM      4  O   UNL     1     -22.235  -7.129 -15.503  1.00  0.00    -0.550 OA
ENDBRANCH   1   2
BRANCH   1   5
ATOM      5  C   UNL     1     -20.428  -6.280 -13.005  1.00  0.00     0.003 C 
ATOM      6  C   UNL     1     -20.169  -4.774 -13.020  1.00  0.00     0.004 C 
ENDBRANCH   1   5
TORSDOF 2
ENDMDL
