MODEL 1
REMARK VINA RESULT:    -4.460      0.000      0.000
REMARK INTER + INTRA:         -16.674
REMARK INTER:                 -11.761
REMARK INTRA:                  -4.912
REMARK UNBOUND:                -4.912
REMARK SMILES CCCCCCCCCCCCCCCCCCCCCCCCCCCCCC(=O)[O-]
REMARK SMILES IDX 16 1 17 2 18 3 19 4 20 5 21 6 22 7 23 8 24 9 25 10 26 11
REMARK SMILES IDX 27 12 28 13 29 14 30 15 31 16 32 17 15 18 14 19 13 20 12 21
REMARK SMILES IDX 11 22 10 23 9 24 8 25 7 26 6 27 5 28 4 29 3 30 2 31 1 32
REMARK H PARENT
REMARK Flexibility Score: inf
ROOT
ATOM      1  C   UNL     1       5.295  31.554 -14.297  1.00  0.00     0.000 C 
ENDROOT
BRANCH   1   2
ATOM      2  C   UNL     1       5.021  32.852 -15.077  1.00  0.00     0.000 C 
BRANCH   2   3
ATOM      3  C   UNL     1       5.528  32.799 -16.530  1.00  0.00     0.000 C 
BRANCH   3   4
ATOM      4  C   UNL     1       6.907  33.444 -16.764  1.00  0.00     0.000 C 
BRANCH   4   5
ATOM      5  C   UNL     1       7.303  34.432 -15.655  1.00  0.00     0.000 C 
BRANCH   5   6
ATOM      6  C   UNL     1       8.769  34.275 -15.221  1.00  0.00     0.000 C 
BRANCH   6   7
ATOM      7  C   UNL     1       9.144  32.809 -14.939  1.00  0.00     0.000 C 
BRANCH   7   8
ATOM      8  C   UNL     1       8.624  32.328 -13.571  1.00  0.00     0.000 C 
BRANCH   8   9
ATOM      9  C   UNL     1       9.621  32.557 -12.414  1.00  0.00     0.000 C 
BRANCH   9  10
ATOM     10  C   UNL     1       9.020  33.283 -11.193  1.00  0.00     0.000 C 
BRANCH  10  11
ATOM     11  C   UNL     1       8.516  34.708 -11.496  1.00  0.00     0.000 C 
BRANCH  11  12
ATOM     12  C   UNL     1       7.070  34.932 -11.019  1.00  0.00     0.000 C 
BRANCH  12  13
ATOM     13  C   UNL     1       6.057  34.935 -12.175  1.00  0.00     0.006 C 
BRANCH  13  14
ATOM     14  C   UNL     1       4.652  34.508 -11.733  1.00  0.00     0.053 C 
BRANCH  14  15
ATOM     15  C   UNL     1       4.733  33.552 -10.584  1.00  0.00     0.041 C 
ATOM     16  O   UNL     1       4.434  33.935  -9.422  1.00  0.00    -0.550 OA
ATOM     17  O   UNL     1       5.084  32.226 -10.805  1.00  0.00    -0.550 OA
ENDBRANCH  14  15
ENDBRANCH  13  14
ENDBRANCH  12  13
ENDBRANCH  11  12
ENDBRANCH  10  11
ENDBRANCH   9  10
ENDBRANCH   8   9
ENDBRANCH   7   8
ENDBRANCH   6   7
ENDBRANCH   5   6
ENDBRANCH   4   5
ENDBRANCH   3   4
ENDBRANCH   2   3
ENDBRANCH   1   2
BRANCH   1  18
ATOM     18  C   UNL     1       5.479  30.339 -15.221  1.00  0.00     0.000 C 
BRANCH  18  19
ATOM     19  C   UNL     1       6.814  29.614 -14.975  1.00  0.00     0.000 C 
BRANCH  19  20
ATOM     20  C   UNL     1       6.622  28.166 -14.496  1.00  0.00     0.000 C 
BRANCH  20  21
ATOM     21  C   UNL     1       7.401  27.858 -13.203  1.00  0.00     0.000 C 
BRANCH  21  22
ATOM     22  C   UNL     1       8.383  28.978 -12.822  1.00  0.00     0.000 C 
BRANCH  22  23
ATOM     23  C   UNL     1       9.852  28.594 -13.075  1.00  0.00     0.000 C 
BRANCH  23  24
ATOM     24  C   UNL     1      10.277  28.831 -14.533  1.00  0.00    -0.000 C 
BRANCH  24  25
ATOM     25  C   UNL     1      10.809  27.556 -15.213  1.00  0.00    -0.000 C 
BRANCH  25  26
ATOM     26  C   UNL     1      10.864  26.357 -14.241  1.00  0.00    -0.000 C 
BRANCH  26  27
ATOM     27  C   UNL     1      10.310  25.050 -14.834  1.00  0.00    -0.000 C 
BRANCH  27  28
ATOM     28  C   UNL     1       9.381  24.301 -13.870  1.00  0.00    -0.000 C 
BRANCH  28  29
ATOM     29  C   UNL     1       9.546  24.815 -12.433  1.00  0.00    -0.000 C 
BRANCH  29  30
ATOM     30  C   UNL     1       8.255  24.695 -11.610  1.00  0.00    -0.000 C 
BRANCH  30  31
ATOM     31  C   UNL     1       8.476  23.993 -10.263  1.00  0.00    -0.003 C 
ATOM     32  C   UNL     1       7.786  22.632 -10.231  1.00  0.00     0.004 C 
ENDBRANCH  30  31
ENDBRANCH  29  30
ENDBRANCH  28  29
ENDBRANCH  27  28
ENDBRANCH  26  27
ENDBRANCH  25  26
ENDBRANCH  24  25
ENDBRANCH  23  24
ENDBRANCH  22  23
ENDBRANCH  21  22
ENDBRANCH  20  21
ENDBRANCH  19  20
ENDBRANCH  18  19
ENDBRANCH   1  18
TORSDOF 28
ENDMDL
MODEL 2
REMARK VINA RESULT:    -4.188      3.526      8.000
REMARK INTER + INTRA:         -15.956
REMARK INTER:                  -9.986
REMARK INTRA:                  -5.969
REMARK UNBOUND:                -4.912
REMARK SMILES CCCCCCCCCCCCCCCCCCCCCCCCCCCCCC(=O)[O-]
REMARK SMILES IDX 16 1 17 2 18 3 19 4 20 5 21 6 22 7 23 8 24 9 25 10 26 11
REMARK SMILES IDX 27 12 28 13 29 14 30 15 31 16 32 17 15 18 14 19 13 20 12 21
REMARK SMILES IDX 11 22 10 23 9 24 8 25 7 26 6 27 5 28 4 29 3 30 2 31 1 32
REMARK H PARENT
REMARK Flexibility Score: inf
ROOT
ATOM      1  C   UNL     1       5.292  30.671 -14.786  1.00  0.00     0.000 C 
ENDROOT
BRANCH   1   2
ATOM      2  C   UNL     1       6.707  30.133 -15.061  1.00  0.00     0.000 C 
BRANCH   2   3
ATOM      3  C   UNL     1       7.085  28.945 -14.156  1.00  0.00     0.000 C 
BRANCH   3   4
ATOM      4  C   UNL     1       7.746  29.327 -12.819  1.00  0.00     0.000 C 
BRANCH   4   5
ATOM      5  C   UNL     1       9.281  29.385 -12.904  1.00  0.00     0.000 C 
BRANCH   5   6
ATOM      6  C   UNL     1       9.808  30.820 -13.066  1.00  0.00     0.000 C 
BRANCH   6   7
ATOM      7  C   UNL     1       8.817  31.873 -12.540  1.00  0.00     0.000 C 
BRANCH   7   8
ATOM      8  C   UNL     1       8.968  33.226 -13.259  1.00  0.00     0.000 C 
BRANCH   8   9
ATOM      9  C   UNL     1       8.521  33.195 -14.737  1.00  0.00     0.000 C 
BRANCH   9  10
ATOM     10  C   UNL     1       8.421  34.584 -15.399  1.00  0.00     0.000 C 
BRANCH  10  11
ATOM     11  C   UNL     1       7.258  34.719 -16.403  1.00  0.00     0.000 C 
BRANCH  11  12
ATOM     12  C   UNL     1       6.760  33.354 -16.910  1.00  0.00     0.000 C 
BRANCH  12  13
ATOM     13  C   UNL     1       5.272  33.370 -17.293  1.00  0.00     0.006 C 
BRANCH  13  14
ATOM     14  C   UNL     1       4.672  34.782 -17.277  1.00  0.00     0.053 C 
BRANCH  14  15
ATOM     15  C   UNL     1       3.654  34.930 -18.365  1.00  0.00     0.041 C 
ATOM     16  O   UNL     1       2.822  35.875 -18.326  1.00  0.00    -0.550 OA
ATOM     17  O   UNL     1       3.659  34.059 -19.448  1.00  0.00    -0.550 OA
ENDBRANCH  14  15
ENDBRANCH  13  14
ENDBRANCH  12  13
ENDBRANCH  11  12
ENDBRANCH  10  11
ENDBRANCH   9  10
ENDBRANCH   8   9
ENDBRANCH   7   8
ENDBRANCH   6   7
ENDBRANCH   5   6
ENDBRANCH   4   5
ENDBRANCH   3   4
ENDBRANCH   2   3
ENDBRANCH   1   2
BRANCH   1  18
ATOM     18  C   UNL     1       5.296  31.883 -13.840  1.00  0.00     0.000 C 
BRANCH  18  19
ATOM     19  C   UNL     1       3.977  32.674 -13.897  1.00  0.00     0.000 C 
BRANCH  19  20
ATOM     20  C   UNL     1       4.165  34.164 -13.575  1.00  0.00     0.000 C 
BRANCH  20  21
ATOM     21  C   UNL     1       5.559  34.478 -12.999  1.00  0.00     0.000 C 
BRANCH  21  22
ATOM     22  C   UNL     1       5.506  35.473 -11.828  1.00  0.00     0.000 C 
BRANCH  22  23
ATOM     23  C   UNL     1       6.090  34.894 -10.527  1.00  0.00     0.000 C 
BRANCH  23  24
ATOM     24  C   UNL     1       5.863  33.378 -10.406  1.00  0.00    -0.000 C 
BRANCH  24  25
ATOM     25  C   UNL     1       5.451  32.949  -8.985  1.00  0.00    -0.000 C 
BRANCH  25  26
ATOM     26  C   UNL     1       6.102  33.831  -7.898  1.00  0.00    -0.000 C 
BRANCH  26  27
ATOM     27  C   UNL     1       5.172  34.148  -6.715  1.00  0.00    -0.000 C 
BRANCH  27  28
ATOM     28  C   UNL     1       3.763  34.567  -7.155  1.00  0.00    -0.000 C 
BRANCH  28  29
ATOM     29  C   UNL     1       3.765  35.990  -7.729  1.00  0.00    -0.000 C 
BRANCH  29  30
ATOM     30  C   UNL     1       3.009  36.091  -9.063  1.00  0.00    -0.000 C 
BRANCH  30  31
ATOM     31  C   UNL     1       2.193  34.829  -9.376  1.00  0.00    -0.003 C 
ATOM     32  C   UNL     1       1.842  34.753 -10.859  1.00  0.00     0.004 C 
ENDBRANCH  30  31
ENDBRANCH  29  30
ENDBRANCH  28  29
ENDBRANCH  27  28
ENDBRANCH  26  27
ENDBRANCH  25  26
ENDBRANCH  24  25
ENDBRANCH  23  24
ENDBRANCH  22  23
ENDBRANCH  21  22
ENDBRANCH  20  21
ENDBRANCH  19  20
ENDBRANCH  18  19
ENDBRANCH   1  18
TORSDOF 28
ENDMDL
MODEL 3
REMARK VINA RESULT:    -4.180      3.070      8.295
REMARK INTER + INTRA:         -15.935
REMARK INTER:                 -11.074
REMARK INTRA:                  -4.861
REMARK UNBOUND:                -4.912
REMARK SMILES CCCCCCCCCCCCCCCCCCCCCCCCCCCCCC(=O)[O-]
REMARK SMILES IDX 16 1 17 2 18 3 19 4 20 5 21 6 22 7 23 8 24 9 25 10 26 11
REMARK SMILES IDX 27 12 28 13 29 14 30 15 31 16 32 17 15 18 14 19 13 20 12 21
REMARK SMILES IDX 11 22 10 23 9 24 8 25 7 26 6 27 5 28 4 29 3 30 2 31 1 32
REMARK H PARENT
REMARK Flexibility Score: inf
ROOT
ATOM      1  C   UNL     1       5.874  31.662 -16.295  1.00  0.00     0.000 C 
ENDROOT
BRANCH   1   2
ATOM      2  C   UNL     1       5.557  31.120 -14.890  1.00  0.00     0.000 C 
BRANCH   2   3
ATOM      3  C   UNL     1       4.598  32.027 -14.098  1.00  0.00     0.000 C 
BRANCH   3   4
ATOM      4  C   UNL     1       5.137  32.521 -12.742  1.00  0.00     0.000 C 
BRANCH   4   5
ATOM      5  C   UNL     1       5.877  33.865 -12.844  1.00  0.00     0.000 C 
BRANCH   5   6
ATOM      6  C   UNL     1       7.404  33.703 -12.776  1.00  0.00     0.000 C 
BRANCH   6   7
ATOM      7  C   UNL     1       7.837  32.639 -11.753  1.00  0.00     0.000 C 
BRANCH   7   8
ATOM      8  C   UNL     1       9.022  31.794 -12.258  1.00  0.00     0.000 C 
BRANCH   8   9
ATOM      9  C   UNL     1       8.814  31.221 -13.677  1.00  0.00     0.000 C 
BRANCH   9  10
ATOM     10  C   UNL     1       9.581  29.911 -13.951  1.00  0.00     0.000 C 
BRANCH  10  11
ATOM     11  C   UNL     1       9.195  28.750 -13.012  1.00  0.00     0.000 C 
BRANCH  11  12
ATOM     12  C   UNL     1       7.704  28.383 -13.116  1.00  0.00     0.000 C 
BRANCH  12  13
ATOM     13  C   UNL     1       7.466  26.865 -13.120  1.00  0.00     0.006 C 
BRANCH  13  14
ATOM     14  C   UNL     1       8.598  26.085 -12.440  1.00  0.00     0.053 C 
BRANCH  14  15
ATOM     15  C   UNL     1       9.259  25.163 -13.416  1.00  0.00     0.041 C 
ATOM     16  O   UNL     1       9.129  23.916 -13.293  1.00  0.00    -0.550 OA
ATOM     17  O   UNL     1       9.971  25.680 -14.492  1.00  0.00    -0.550 OA
ENDBRANCH  14  15
ENDBRANCH  13  14
ENDBRANCH  12  13
ENDBRANCH  11  12
ENDBRANCH  10  11
ENDBRANCH   9  10
ENDBRANCH   8   9
ENDBRANCH   7   8
ENDBRANCH   6   7
ENDBRANCH   5   6
ENDBRANCH   4   5
ENDBRANCH   3   4
ENDBRANCH   2   3
ENDBRANCH   1   2
BRANCH   1  18
ATOM     18  C   UNL     1       6.822  32.871 -16.260  1.00  0.00     0.000 C 
BRANCH  18  19
ATOM     19  C   UNL     1       6.156  34.153 -16.791  1.00  0.00     0.000 C 
BRANCH  19  20
ATOM     20  C   UNL     1       4.707  33.922 -17.246  1.00  0.00     0.000 C 
BRANCH  20  21
ATOM     21  C   UNL     1       3.685  34.719 -16.412  1.00  0.00     0.000 C 
BRANCH  21  22
ATOM     22  C   UNL     1       4.341  35.834 -15.581  1.00  0.00     0.000 C 
BRANCH  22  23
ATOM     23  C   UNL     1       3.416  36.377 -14.477  1.00  0.00     0.000 C 
BRANCH  23  24
ATOM     24  C   UNL     1       2.677  35.255 -13.728  1.00  0.00    -0.000 C 
BRANCH  24  25
ATOM     25  C   UNL     1       2.230  35.678 -12.315  1.00  0.00    -0.000 C 
BRANCH  25  26
ATOM     26  C   UNL     1       2.464  34.564 -11.273  1.00  0.00    -0.000 C 
BRANCH  26  27
ATOM     27  C   UNL     1       2.081  34.964  -9.838  1.00  0.00    -0.000 C 
BRANCH  27  28
ATOM     28  C   UNL     1       3.230  34.786  -8.838  1.00  0.00    -0.000 C 
BRANCH  28  29
ATOM     29  C   UNL     1       4.433  34.097  -9.497  1.00  0.00    -0.000 C 
BRANCH  29  30
ATOM     30  C   UNL     1       5.198  33.184  -8.527  1.00  0.00    -0.000 C 
BRANCH  30  31
ATOM     31  C   UNL     1       6.630  33.671  -8.264  1.00  0.00    -0.003 C 
ATOM     32  C   UNL     1       6.653  34.771  -7.206  1.00  0.00     0.004 C 
ENDBRANCH  30  31
ENDBRANCH  29  30
ENDBRANCH  28  29
ENDBRANCH  27  28
ENDBRANCH  26  27
ENDBRANCH  25  26
ENDBRANCH  24  25
ENDBRANCH  23  24
ENDBRANCH  22  23
ENDBRANCH  21  22
ENDBRANCH  20  21
ENDBRANCH  19  20
ENDBRANCH  18  19
ENDBRANCH   1  18
TORSDOF 28
ENDMDL
MODEL 4
REMARK VINA RESULT:    -4.166      2.635      8.003
REMARK INTER + INTRA:         -15.898
REMARK INTER:                 -11.236
REMARK INTRA:                  -4.663
REMARK UNBOUND:                -4.912
REMARK SMILES CCCCCCCCCCCCCCCCCCCCCCCCCCCCCC(=O)[O-]
REMARK SMILES IDX 16 1 17 2 18 3 19 4 20 5 21 6 22 7 23 8 24 9 25 10 26 11
REMARK SMILES IDX 27 12 28 13 29 14 30 15 31 16 32 17 15 18 14 19 13 20 12 21
REMARK SMILES IDX 11 22 10 23 9 24 8 25 7 26 6 27 5 28 4 29 3 30 2 31 1 32
REMARK H PARENT
REMARK Flexibility Score: inf
ROOT
ATOM      1  C   UNL     1       4.000  33.150 -14.967  1.00  0.00     0.000 C 
ENDROOT
BRANCH   1   2
ATOM      2  C   UNL     1       5.260  32.408 -14.489  1.00  0.00     0.000 C 
BRANCH   2   3
ATOM      3  C   UNL     1       5.241  30.907 -14.831  1.00  0.00     0.000 C 
BRANCH   3   4
ATOM      4  C   UNL     1       6.624  30.272 -15.060  1.00  0.00     0.000 C 
BRANCH   4   5
ATOM      5  C   UNL     1       6.641  28.757 -14.792  1.00  0.00     0.000 C 
BRANCH   5   6
ATOM      6  C   UNL     1       7.321  28.402 -13.460  1.00  0.00     0.000 C 
BRANCH   6   7
ATOM      7  C   UNL     1       7.983  29.621 -12.795  1.00  0.00     0.000 C 
BRANCH   7   8
ATOM      8  C   UNL     1       9.510  29.636 -12.993  1.00  0.00     0.000 C 
BRANCH   8   9
ATOM      9  C   UNL     1      10.088  28.278 -13.450  1.00  0.00     0.000 C 
BRANCH   9  10
ATOM     10  C   UNL     1      10.977  27.582 -12.400  1.00  0.00     0.000 C 
BRANCH  10  11
ATOM     11  C   UNL     1      10.624  26.099 -12.162  1.00  0.00     0.000 C 
BRANCH  11  12
ATOM     12  C   UNL     1       9.770  25.511 -13.300  1.00  0.00     0.000 C 
BRANCH  12  13
ATOM     13  C   UNL     1       8.492  24.827 -12.789  1.00  0.00     0.006 C 
BRANCH  13  14
ATOM     14  C   UNL     1       8.637  24.294 -11.358  1.00  0.00     0.053 C 
BRANCH  14  15
ATOM     15  C   UNL     1       7.387  23.587 -10.934  1.00  0.00     0.041 C 
ATOM     16  O   UNL     1       6.269  23.964 -11.377  1.00  0.00    -0.550 OA
ATOM     17  O   UNL     1       7.461  22.482 -10.096  1.00  0.00    -0.550 OA
ENDBRANCH  14  15
ENDBRANCH  13  14
ENDBRANCH  12  13
ENDBRANCH  11  12
ENDBRANCH  10  11
ENDBRANCH   9  10
ENDBRANCH   8   9
ENDBRANCH   7   8
ENDBRANCH   6   7
ENDBRANCH   5   6
ENDBRANCH   4   5
ENDBRANCH   3   4
ENDBRANCH   2   3
ENDBRANCH   1   2
BRANCH   1  18
ATOM     18  C   UNL     1       4.303  34.577 -15.451  1.00  0.00     0.000 C 
BRANCH  18  19
ATOM     19  C   UNL     1       5.641  35.108 -14.905  1.00  0.00     0.000 C 
BRANCH  19  20
ATOM     20  C   UNL     1       6.647  35.437 -16.019  1.00  0.00     0.000 C 
BRANCH  20  21
ATOM     21  C   UNL     1       8.108  35.197 -15.593  1.00  0.00     0.000 C 
BRANCH  21  22
ATOM     22  C   UNL     1       8.606  33.788 -15.954  1.00  0.00     0.000 C 
BRANCH  22  23
ATOM     23  C   UNL     1       9.013  32.965 -14.718  1.00  0.00     0.000 C 
BRANCH  23  24
ATOM     24  C   UNL     1       9.295  33.849 -13.492  1.00  0.00    -0.000 C 
BRANCH  24  25
ATOM     25  C   UNL     1       9.361  33.043 -12.181  1.00  0.00    -0.000 C 
BRANCH  25  26
ATOM     26  C   UNL     1       8.331  33.534 -11.142  1.00  0.00    -0.000 C 
BRANCH  26  27
ATOM     27  C   UNL     1       6.878  33.158 -11.481  1.00  0.00    -0.000 C 
BRANCH  27  28
ATOM     28  C   UNL     1       5.890  34.307 -11.243  1.00  0.00    -0.000 C 
BRANCH  28  29
ATOM     29  C   UNL     1       4.605  33.800 -10.573  1.00  0.00    -0.000 C 
BRANCH  29  30
ATOM     30  C   UNL     1       3.404  33.788 -11.530  1.00  0.00    -0.000 C 
BRANCH  30  31
ATOM     31  C   UNL     1       2.450  34.968 -11.294  1.00  0.00    -0.003 C 
ATOM     32  C   UNL     1       2.125  35.683 -12.603  1.00  0.00     0.004 C 
ENDBRANCH  30  31
ENDBRANCH  29  30
ENDBRANCH  28  29
ENDBRANCH  27  28
ENDBRANCH  26  27
ENDBRANCH  25  26
ENDBRANCH  24  25
ENDBRANCH  23  24
ENDBRANCH  22  23
ENDBRANCH  21  22
ENDBRANCH  20  21
ENDBRANCH  19  20
ENDBRANCH  18  19
ENDBRANCH   1  18
TORSDOF 28
ENDMDL
MODEL 5
REMARK VINA RESULT:    -4.097      2.764      7.698
REMARK INTER + INTRA:         -15.715
REMARK INTER:                 -11.105
REMARK INTRA:                  -4.610
REMARK UNBOUND:                -4.912
REMARK SMILES CCCCCCCCCCCCCCCCCCCCCCCCCCCCCC(=O)[O-]
REMARK SMILES IDX 16 1 17 2 18 3 19 4 20 5 21 6 22 7 23 8 24 9 25 10 26 11
REMARK SMILES IDX 27 12 28 13 29 14 30 15 31 16 32 17 15 18 14 19 13 20 12 21
REMARK SMILES IDX 11 22 10 23 9 24 8 25 7 26 6 27 5 28 4 29 3 30 2 31 1 32
REMARK H PARENT
REMARK Flexibility Score: inf
ROOT
ATOM      1  C   UNL     1       3.985  32.555 -13.604  1.00  0.00     0.000 C 
ENDROOT
BRANCH   1   2
ATOM      2  C   UNL     1       5.384  32.041 -13.983  1.00  0.00     0.000 C 
BRANCH   2   3
ATOM      3  C   UNL     1       5.346  30.886 -15.001  1.00  0.00     0.000 C 
BRANCH   3   4
ATOM      4  C   UNL     1       6.681  30.145 -15.198  1.00  0.00     0.000 C 
BRANCH   4   5
ATOM      5  C   UNL     1       6.635  28.687 -14.711  1.00  0.00     0.000 C 
BRANCH   5   6
ATOM      6  C   UNL     1       7.344  28.494 -13.361  1.00  0.00     0.000 C 
BRANCH   6   7
ATOM      7  C   UNL     1       8.319  29.641 -13.041  1.00  0.00     0.000 C 
BRANCH   7   8
ATOM      8  C   UNL     1       9.632  29.528 -13.836  1.00  0.00     0.000 C 
BRANCH   8   9
ATOM      9  C   UNL     1      10.279  28.127 -13.768  1.00  0.00     0.000 C 
BRANCH   9  10
ATOM     10  C   UNL     1      10.863  27.764 -12.388  1.00  0.00     0.000 C 
BRANCH  10  11
ATOM     11  C   UNL     1      10.760  26.266 -12.038  1.00  0.00     0.000 C 
BRANCH  11  12
ATOM     12  C   UNL     1       9.715  25.533 -12.898  1.00  0.00     0.000 C 
BRANCH  12  13
ATOM     13  C   UNL     1       8.341  25.444 -12.216  1.00  0.00     0.006 C 
BRANCH  13  14
ATOM     14  C   UNL     1       7.811  24.007 -12.137  1.00  0.00     0.053 C 
BRANCH  14  15
ATOM     15  C   UNL     1       8.081  23.423 -10.786  1.00  0.00     0.041 C 
ATOM     16  O   UNL     1       8.576  24.140  -9.876  1.00  0.00    -0.550 OA
ATOM     17  O   UNL     1       7.737  22.104 -10.515  1.00  0.00    -0.550 OA
ENDBRANCH  14  15
ENDBRANCH  13  14
ENDBRANCH  12  13
ENDBRANCH  11  12
ENDBRANCH  10  11
ENDBRANCH   9  10
ENDBRANCH   8   9
ENDBRANCH   7   8
ENDBRANCH   6   7
ENDBRANCH   5   6
ENDBRANCH   4   5
ENDBRANCH   3   4
ENDBRANCH   2   3
ENDBRANCH   1   2
BRANCH   1  18
ATOM     18  C   UNL     1       3.754  34.011 -14.038  1.00  0.00     0.000 C 
BRANCH  18  19
ATOM     19  C   UNL     1       5.069  34.803 -14.152  1.00  0.00     0.000 C 
BRANCH  19  20
ATOM     20  C   UNL     1       4.991  35.935 -15.188  1.00  0.00     0.000 C 
BRANCH  20  21
ATOM     21  C   UNL     1       5.970  35.738 -16.361  1.00  0.00     0.000 C 
BRANCH  21  22
ATOM     22  C   UNL     1       5.947  34.305 -16.918  1.00  0.00     0.000 C 
BRANCH  22  23
ATOM     23  C   UNL     1       7.294  33.580 -16.751  1.00  0.00     0.000 C 
BRANCH  23  24
ATOM     24  C   UNL     1       8.421  34.529 -16.311  1.00  0.00    -0.000 C 
BRANCH  24  25
ATOM     25  C   UNL     1       9.442  33.848 -15.380  1.00  0.00    -0.000 C 
BRANCH  25  26
ATOM     26  C   UNL     1       8.759  33.097 -14.217  1.00  0.00    -0.000 C 
BRANCH  26  27
ATOM     27  C   UNL     1       8.680  33.910 -12.913  1.00  0.00    -0.000 C 
BRANCH  27  28
ATOM     28  C   UNL     1       8.021  33.137 -11.763  1.00  0.00    -0.000 C 
BRANCH  28  29
ATOM     29  C   UNL     1       6.821  33.909 -11.197  1.00  0.00    -0.000 C 
BRANCH  29  30
ATOM     30  C   UNL     1       5.857  33.009 -10.409  1.00  0.00    -0.000 C 
BRANCH  30  31
ATOM     31  C   UNL     1       4.860  33.811  -9.562  1.00  0.00    -0.003 C 
ATOM     32  C   UNL     1       5.022  33.499  -8.076  1.00  0.00     0.004 C 
ENDBRANCH  30  31
ENDBRANCH  29  30
ENDBRANCH  28  29
ENDBRANCH  27  28
ENDBRANCH  26  27
ENDBRANCH  25  26
ENDBRANCH  24  25
ENDBRANCH  23  24
ENDBRANCH  22  23
ENDBRANCH  21  22
ENDBRANCH  20  21
ENDBRANCH  19  20
ENDBRANCH  18  19
ENDBRANCH   1  18
TORSDOF 28
ENDMDL
MODEL 6
REMARK VINA RESULT:    -4.074      3.679      8.552
REMARK INTER + INTRA:         -15.655
REMARK INTER:                 -10.964
REMARK INTRA:                  -4.691
REMARK UNBOUND:                -4.912
REMARK SMILES CCCCCCCCCCCCCCCCCCCCCCCCCCCCCC(=O)[O-]
REMARK SMILES IDX 16 1 17 2 18 3 19 4 20 5 21 6 22 7 23 8 24 9 25 10 26 11
REMARK SMILES IDX 27 12 28 13 29 14 30 15 31 16 32 17 15 18 14 19 13 20 12 21
REMARK SMILES IDX 11 22 10 23 9 24 8 25 7 26 6 27 5 28 4 29 3 30 2 31 1 32
REMARK H PARENT
REMARK Flexibility Score: inf
ROOT
ATOM      1  C   UNL     1       9.276  30.570 -12.964  1.00  0.00     0.000 C 
ENDROOT
BRANCH   1   2
ATOM      2  C   UNL     1       8.087  29.624 -12.723  1.00  0.00     0.000 C 
BRANCH   2   3
ATOM      3  C   UNL     1       8.003  28.487 -13.757  1.00  0.00     0.000 C 
BRANCH   3   4
ATOM      4  C   UNL     1       6.617  28.287 -14.398  1.00  0.00     0.000 C 
BRANCH   4   5
ATOM      5  C   UNL     1       6.484  28.974 -15.768  1.00  0.00     0.000 C 
BRANCH   5   6
ATOM      6  C   UNL     1       6.429  30.506 -15.656  1.00  0.00     0.000 C 
BRANCH   6   7
ATOM      7  C   UNL     1       5.170  30.996 -14.918  1.00  0.00     0.000 C 
BRANCH   7   8
ATOM      8  C   UNL     1       4.861  32.475 -15.213  1.00  0.00     0.000 C 
BRANCH   8   9
ATOM      9  C   UNL     1       5.926  33.167 -16.093  1.00  0.00     0.000 C 
BRANCH   9  10
ATOM     10  C   UNL     1       5.738  34.691 -16.235  1.00  0.00     0.000 C 
BRANCH  10  11
ATOM     11  C   UNL     1       4.352  35.105 -16.768  1.00  0.00     0.000 C 
BRANCH  11  12
ATOM     12  C   UNL     1       4.013  34.431 -18.109  1.00  0.00     0.000 C 
BRANCH  12  13
ATOM     13  C   UNL     1       3.187  35.335 -19.036  1.00  0.00     0.006 C 
BRANCH  13  14
ATOM     14  C   UNL     1       2.345  34.540 -20.043  1.00  0.00     0.053 C 
BRANCH  14  15
ATOM     15  C   UNL     1       0.887  34.789 -19.818  1.00  0.00     0.041 C 
ATOM     16  O   UNL     1       0.314  35.750 -20.397  1.00  0.00    -0.550 OA
ATOM     17  O   UNL     1       0.149  33.930 -19.013  1.00  0.00    -0.550 OA
ENDBRANCH  14  15
ENDBRANCH  13  14
ENDBRANCH  12  13
ENDBRANCH  11  12
ENDBRANCH  10  11
ENDBRANCH   9  10
ENDBRANCH   8   9
ENDBRANCH   7   8
ENDBRANCH   6   7
ENDBRANCH   5   6
ENDBRANCH   4   5
ENDBRANCH   3   4
ENDBRANCH   2   3
ENDBRANCH   1   2
BRANCH   1  18
ATOM     18  C   UNL     1       9.060  31.960 -12.344  1.00  0.00     0.000 C 
BRANCH  18  19
ATOM     19  C   UNL     1       7.879  32.710 -12.985  1.00  0.00     0.000 C 
BRANCH  19  20
ATOM     20  C   UNL     1       6.916  33.300 -11.944  1.00  0.00     0.000 C 
BRANCH  20  21
ATOM     21  C   UNL     1       5.793  32.322 -11.547  1.00  0.00     0.000 C 
BRANCH  21  22
ATOM     22  C   UNL     1       4.398  32.965 -11.609  1.00  0.00     0.000 C 
BRANCH  22  23
ATOM     23  C   UNL     1       4.411  34.352 -12.275  1.00  0.00     0.000 C 
BRANCH  23  24
ATOM     24  C   UNL     1       3.019  34.775 -12.776  1.00  0.00    -0.000 C 
BRANCH  24  25
ATOM     25  C   UNL     1       2.329  35.782 -11.837  1.00  0.00    -0.000 C 
BRANCH  25  26
ATOM     26  C   UNL     1       1.476  35.081 -10.757  1.00  0.00    -0.000 C 
BRANCH  26  27
ATOM     27  C   UNL     1       2.099  35.120  -9.351  1.00  0.00    -0.000 C 
BRANCH  27  28
ATOM     28  C   UNL     1       3.263  36.113  -9.238  1.00  0.00    -0.000 C 
BRANCH  28  29
ATOM     29  C   UNL     1       4.554  35.403  -8.807  1.00  0.00    -0.000 C 
BRANCH  29  30
ATOM     30  C   UNL     1       4.291  34.022  -8.188  1.00  0.00    -0.000 C 
BRANCH  30  31
ATOM     31  C   UNL     1       5.585  33.246  -7.906  1.00  0.00    -0.003 C 
ATOM     32  C   UNL     1       6.811  34.038  -8.353  1.00  0.00     0.004 C 
ENDBRANCH  30  31
ENDBRANCH  29  30
ENDBRANCH  28  29
ENDBRANCH  27  28
ENDBRANCH  26  27
ENDBRANCH  25  26
ENDBRANCH  24  25
ENDBRANCH  23  24
ENDBRANCH  22  23
ENDBRANCH  21  22
ENDBRANCH  20  21
ENDBRANCH  19  20
ENDBRANCH  18  19
ENDBRANCH   1  18
TORSDOF 28
ENDMDL
MODEL 7
REMARK VINA RESULT:    -4.009      3.083      8.713
REMARK INTER + INTRA:         -15.484
REMARK INTER:                 -10.815
REMARK INTRA:                  -4.670
REMARK UNBOUND:                -4.912
REMARK SMILES CCCCCCCCCCCCCCCCCCCCCCCCCCCCCC(=O)[O-]
REMARK SMILES IDX 16 1 17 2 18 3 19 4 20 5 21 6 22 7 23 8 24 9 25 10 26 11
REMARK SMILES IDX 27 12 28 13 29 14 30 15 31 16 32 17 15 18 14 19 13 20 12 21
REMARK SMILES IDX 11 22 10 23 9 24 8 25 7 26 6 27 5 28 4 29 3 30 2 31 1 32
REMARK H PARENT
REMARK Flexibility Score: inf
ROOT
ATOM      1  C   UNL     1       4.733  32.578 -15.207  1.00  0.00     0.000 C 
ENDROOT
BRANCH   1   2
ATOM      2  C   UNL     1       4.866  31.833 -13.867  1.00  0.00     0.000 C 
BRANCH   2   3
ATOM      3  C   UNL     1       4.490  32.705 -12.654  1.00  0.00     0.000 C 
BRANCH   3   4
ATOM      4  C   UNL     1       5.297  32.423 -11.373  1.00  0.00     0.000 C 
BRANCH   4   5
ATOM      5  C   UNL     1       6.166  33.615 -10.937  1.00  0.00     0.000 C 
BRANCH   5   6
ATOM      6  C   UNL     1       7.405  33.797 -11.828  1.00  0.00     0.000 C 
BRANCH   6   7
ATOM      7  C   UNL     1       8.255  32.518 -11.921  1.00  0.00     0.000 C 
BRANCH   7   8
ATOM      8  C   UNL     1       8.516  32.097 -13.379  1.00  0.00     0.000 C 
BRANCH   8   9
ATOM      9  C   UNL     1       8.757  30.581 -13.553  1.00  0.00     0.000 C 
BRANCH   9  10
ATOM     10  C   UNL     1       7.795  29.689 -12.741  1.00  0.00     0.000 C 
BRANCH  10  11
ATOM     11  C   UNL     1       7.369  28.400 -13.472  1.00  0.00     0.000 C 
BRANCH  11  12
ATOM     12  C   UNL     1       8.339  27.233 -13.218  1.00  0.00     0.000 C 
BRANCH  12  13
ATOM     13  C   UNL     1       7.627  25.965 -12.722  1.00  0.00     0.006 C 
BRANCH  13  14
ATOM     14  C   UNL     1       8.445  24.691 -12.968  1.00  0.00     0.053 C 
BRANCH  14  15
ATOM     15  C   UNL     1       8.720  23.989 -11.675  1.00  0.00     0.041 C 
ATOM     16  O   UNL     1       9.121  24.642 -10.675  1.00  0.00    -0.550 OA
ATOM     17  O   UNL     1       8.480  22.625 -11.558  1.00  0.00    -0.550 OA
ENDBRANCH  14  15
ENDBRANCH  13  14
ENDBRANCH  12  13
ENDBRANCH  11  12
ENDBRANCH  10  11
ENDBRANCH   9  10
ENDBRANCH   8   9
ENDBRANCH   7   8
ENDBRANCH   6   7
ENDBRANCH   5   6
ENDBRANCH   4   5
ENDBRANCH   3   4
ENDBRANCH   2   3
ENDBRANCH   1   2
BRANCH   1  18
ATOM     18  C   UNL     1       5.969  32.404 -16.104  1.00  0.00     0.000 C 
BRANCH  18  19
ATOM     19  C   UNL     1       6.761  33.713 -16.269  1.00  0.00     0.000 C 
BRANCH  19  20
ATOM     20  C   UNL     1       5.921  34.840 -16.890  1.00  0.00     0.000 C 
BRANCH  20  21
ATOM     21  C   UNL     1       5.998  36.153 -16.088  1.00  0.00     0.000 C 
BRANCH  21  22
ATOM     22  C   UNL     1       6.604  35.957 -14.689  1.00  0.00     0.000 C 
BRANCH  22  23
ATOM     23  C   UNL     1       5.692  36.482 -13.566  1.00  0.00     0.000 C 
BRANCH  23  24
ATOM     24  C   UNL     1       4.247  35.970 -13.696  1.00  0.00    -0.000 C 
BRANCH  24  25
ATOM     25  C   UNL     1       3.285  36.648 -12.702  1.00  0.00    -0.000 C 
BRANCH  25  26
ATOM     26  C   UNL     1       1.906  35.955 -12.662  1.00  0.00    -0.000 C 
BRANCH  26  27
ATOM     27  C   UNL     1       1.395  35.668 -11.240  1.00  0.00    -0.000 C 
BRANCH  27  28
ATOM     28  C   UNL     1       2.258  34.646 -10.488  1.00  0.00    -0.000 C 
BRANCH  28  29
ATOM     29  C   UNL     1       2.369  35.006  -9.000  1.00  0.00    -0.000 C 
BRANCH  29  30
ATOM     30  C   UNL     1       3.686  35.721  -8.661  1.00  0.00    -0.000 C 
BRANCH  30  31
ATOM     31  C   UNL     1       4.677  34.811  -7.921  1.00  0.00    -0.003 C 
ATOM     32  C   UNL     1       3.946  33.788  -7.056  1.00  0.00     0.004 C 
ENDBRANCH  30  31
ENDBRANCH  29  30
ENDBRANCH  28  29
ENDBRANCH  27  28
ENDBRANCH  26  27
ENDBRANCH  25  26
ENDBRANCH  24  25
ENDBRANCH  23  24
ENDBRANCH  22  23
ENDBRANCH  21  22
ENDBRANCH  20  21
ENDBRANCH  19  20
ENDBRANCH  18  19
ENDBRANCH   1  18
TORSDOF 28
ENDMDL
MODEL 8
REMARK VINA RESULT:    -4.009      2.384      4.782
REMARK INTER + INTRA:         -15.484
REMARK INTER:                 -10.948
REMARK INTRA:                  -4.536
REMARK UNBOUND:                -4.912
REMARK SMILES CCCCCCCCCCCCCCCCCCCCCCCCCCCCCC(=O)[O-]
REMARK SMILES IDX 16 1 17 2 18 3 19 4 20 5 21 6 22 7 23 8 24 9 25 10 26 11
REMARK SMILES IDX 27 12 28 13 29 14 30 15 31 16 32 17 15 18 14 19 13 20 12 21
REMARK SMILES IDX 11 22 10 23 9 24 8 25 7 26 6 27 5 28 4 29 3 30 2 31 1 32
REMARK H PARENT
REMARK Flexibility Score: inf
ROOT
ATOM      1  C   UNL     1       5.738  32.028 -11.913  1.00  0.00     0.000 C 
ENDROOT
BRANCH   1   2
ATOM      2  C   UNL     1       4.764  33.058 -11.314  1.00  0.00     0.000 C 
BRANCH   2   3
ATOM      3  C   UNL     1       5.253  34.509 -11.470  1.00  0.00     0.000 C 
BRANCH   3   4
ATOM      4  C   UNL     1       4.457  35.362 -12.475  1.00  0.00     0.000 C 
BRANCH   4   5
ATOM      5  C   UNL     1       3.753  36.562 -11.819  1.00  0.00     0.000 C 
BRANCH   5   6
ATOM      6  C   UNL     1       3.753  36.478 -10.284  1.00  0.00     0.000 C 
BRANCH   6   7
ATOM      7  C   UNL     1       2.368  36.127  -9.714  1.00  0.00     0.000 C 
BRANCH   7   8
ATOM      8  C   UNL     1       2.423  34.934  -8.742  1.00  0.00     0.000 C 
BRANCH   8   9
ATOM      9  C   UNL     1       3.626  34.980  -7.774  1.00  0.00     0.000 C 
BRANCH   9  10
ATOM     10  C   UNL     1       4.294  33.612  -7.528  1.00  0.00     0.000 C 
BRANCH  10  11
ATOM     11  C   UNL     1       5.796  33.575  -7.875  1.00  0.00     0.000 C 
BRANCH  11  12
ATOM     12  C   UNL     1       6.426  34.979  -7.901  1.00  0.00     0.000 C 
BRANCH  12  13
ATOM     13  C   UNL     1       7.623  35.074  -8.860  1.00  0.00     0.006 C 
BRANCH  13  14
ATOM     14  C   UNL     1       8.379  33.747  -8.998  1.00  0.00     0.053 C 
BRANCH  14  15
ATOM     15  C   UNL     1       9.779  33.989  -9.469  1.00  0.00     0.041 C 
ATOM     16  O   UNL     1      10.728  33.299  -9.008  1.00  0.00    -0.550 OA
ATOM     17  O   UNL     1      10.029  34.936 -10.454  1.00  0.00    -0.550 OA
ENDBRANCH  14  15
ENDBRANCH  13  14
ENDBRANCH  12  13
ENDBRANCH  11  12
ENDBRANCH  10  11
ENDBRANCH   9  10
ENDBRANCH   8   9
ENDBRANCH   7   8
ENDBRANCH   6   7
ENDBRANCH   5   6
ENDBRANCH   4   5
ENDBRANCH   3   4
ENDBRANCH   2   3
ENDBRANCH   1   2
BRANCH   1  18
ATOM     18  C   UNL     1       7.117  32.632 -12.224  1.00  0.00     0.000 C 
BRANCH  18  19
ATOM     19  C   UNL     1       7.498  32.486 -13.708  1.00  0.00     0.000 C 
BRANCH  19  20
ATOM     20  C   UNL     1       6.290  32.626 -14.646  1.00  0.00     0.000 C 
BRANCH  20  21
ATOM     21  C   UNL     1       6.173  31.459 -15.646  1.00  0.00     0.000 C 
BRANCH  21  22
ATOM     22  C   UNL     1       5.708  30.154 -14.980  1.00  0.00     0.000 C 
BRANCH  22  23
ATOM     23  C   UNL     1       6.613  28.956 -15.320  1.00  0.00     0.000 C 
BRANCH  23  24
ATOM     24  C   UNL     1       6.962  28.114 -14.082  1.00  0.00    -0.000 C 
BRANCH  24  25
ATOM     25  C   UNL     1       7.650  28.937 -12.977  1.00  0.00    -0.000 C 
BRANCH  25  26
ATOM     26  C   UNL     1       9.163  28.646 -12.889  1.00  0.00    -0.000 C 
BRANCH  26  27
ATOM     27  C   UNL     1       9.610  27.427 -13.714  1.00  0.00    -0.000 C 
BRANCH  27  28
ATOM     28  C   UNL     1       9.990  26.221 -12.844  1.00  0.00    -0.000 C 
BRANCH  28  29
ATOM     29  C   UNL     1       9.187  24.976 -13.246  1.00  0.00    -0.000 C 
BRANCH  29  30
ATOM     30  C   UNL     1       7.961  24.748 -12.349  1.00  0.00    -0.000 C 
BRANCH  30  31
ATOM     31  C   UNL     1       8.342  24.296 -10.932  1.00  0.00    -0.003 C 
ATOM     32  C   UNL     1       8.028  22.817 -10.722  1.00  0.00     0.004 C 
ENDBRANCH  30  31
ENDBRANCH  29  30
ENDBRANCH  28  29
ENDBRANCH  27  28
ENDBRANCH  26  27
ENDBRANCH  25  26
ENDBRANCH  24  25
ENDBRANCH  23  24
ENDBRANCH  22  23
ENDBRANCH  21  22
ENDBRANCH  20  21
ENDBRANCH  19  20
ENDBRANCH  18  19
ENDBRANCH   1  18
TORSDOF 28
ENDMDL
MODEL 9
REMARK VINA RESULT:    -4.001      2.962      8.391
REMARK INTER + INTRA:         -15.463
REMARK INTER:                 -10.591
REMARK INTRA:                  -4.872
REMARK UNBOUND:                -4.912
REMARK SMILES CCCCCCCCCCCCCCCCCCCCCCCCCCCCCC(=O)[O-]
REMARK SMILES IDX 16 1 17 2 18 3 19 4 20 5 21 6 22 7 23 8 24 9 25 10 26 11
REMARK SMILES IDX 27 12 28 13 29 14 30 15 31 16 32 17 15 18 14 19 13 20 12 21
REMARK SMILES IDX 11 22 10 23 9 24 8 25 7 26 6 27 5 28 4 29 3 30 2 31 1 32
REMARK H PARENT
REMARK Flexibility Score: inf
ROOT
ATOM      1  C   UNL     1       4.753  32.633 -15.788  1.00  0.00     0.000 C 
ENDROOT
BRANCH   1   2
ATOM      2  C   UNL     1       6.158  32.632 -16.415  1.00  0.00     0.000 C 
BRANCH   2   3
ATOM      3  C   UNL     1       7.030  33.808 -15.937  1.00  0.00     0.000 C 
BRANCH   3   4
ATOM      4  C   UNL     1       8.549  33.573 -16.028  1.00  0.00     0.000 C 
BRANCH   4   5
ATOM      5  C   UNL     1       9.183  33.214 -14.673  1.00  0.00     0.000 C 
BRANCH   5   6
ATOM      6  C   UNL     1       8.313  33.647 -13.482  1.00  0.00     0.000 C 
BRANCH   6   7
ATOM      7  C   UNL     1       8.447  32.695 -12.280  1.00  0.00     0.000 C 
BRANCH   7   8
ATOM      8  C   UNL     1       8.667  31.235 -12.716  1.00  0.00     0.000 C 
BRANCH   8   9
ATOM      9  C   UNL     1       7.361  30.418 -12.826  1.00  0.00     0.000 C 
BRANCH   9  10
ATOM     10  C   UNL     1       7.066  29.881 -14.241  1.00  0.00     0.000 C 
BRANCH  10  11
ATOM     11  C   UNL     1       6.923  28.347 -14.313  1.00  0.00     0.000 C 
BRANCH  11  12
ATOM     12  C   UNL     1       7.641  27.636 -13.152  1.00  0.00     0.000 C 
BRANCH  12  13
ATOM     13  C   UNL     1       7.058  26.246 -12.856  1.00  0.00     0.006 C 
BRANCH  13  14
ATOM     14  C   UNL     1       8.135  25.157 -12.773  1.00  0.00     0.053 C 
BRANCH  14  15
ATOM     15  C   UNL     1       7.984  24.366 -11.511  1.00  0.00     0.041 C 
ATOM     16  O   UNL     1       6.960  23.654 -11.331  1.00  0.00    -0.550 OA
ATOM     17  O   UNL     1       8.996  24.373 -10.559  1.00  0.00    -0.550 OA
ENDBRANCH  14  15
ENDBRANCH  13  14
ENDBRANCH  12  13
ENDBRANCH  11  12
ENDBRANCH  10  11
ENDBRANCH   9  10
ENDBRANCH   8   9
ENDBRANCH   7   8
ENDBRANCH   6   7
ENDBRANCH   5   6
ENDBRANCH   4   5
ENDBRANCH   3   4
ENDBRANCH   2   3
ENDBRANCH   1   2
BRANCH   1  18
ATOM     18  C   UNL     1       4.792  32.713 -14.253  1.00  0.00     0.000 C 
BRANCH  18  19
ATOM     19  C   UNL     1       3.802  33.752 -13.697  1.00  0.00     0.000 C 
BRANCH  19  20
ATOM     20  C   UNL     1       4.170  35.191 -14.092  1.00  0.00     0.000 C 
BRANCH  20  21
ATOM     21  C   UNL     1       5.068  35.885 -13.050  1.00  0.00     0.000 C 
BRANCH  21  22
ATOM     22  C   UNL     1       5.454  34.954 -11.888  1.00  0.00     0.000 C 
BRANCH  22  23
ATOM     23  C   UNL     1       6.206  35.687 -10.763  1.00  0.00     0.000 C 
BRANCH  23  24
ATOM     24  C   UNL     1       6.662  34.735  -9.645  1.00  0.00    -0.000 C 
BRANCH  24  25
ATOM     25  C   UNL     1       5.879  33.409  -9.636  1.00  0.00    -0.000 C 
BRANCH  25  26
ATOM     26  C   UNL     1       5.413  33.017  -8.218  1.00  0.00    -0.000 C 
BRANCH  26  27
ATOM     27  C   UNL     1       5.296  34.207  -7.250  1.00  0.00    -0.000 C 
BRANCH  27  28
ATOM     28  C   UNL     1       3.852  34.690  -7.065  1.00  0.00    -0.000 C 
BRANCH  28  29
ATOM     29  C   UNL     1       3.638  36.055  -7.734  1.00  0.00    -0.000 C 
BRANCH  29  30
ATOM     30  C   UNL     1       2.334  36.119  -8.544  1.00  0.00    -0.000 C 
BRANCH  30  31
ATOM     31  C   UNL     1       2.569  35.964 -10.053  1.00  0.00    -0.003 C 
ATOM     32  C   UNL     1       2.063  34.614 -10.554  1.00  0.00     0.004 C 
ENDBRANCH  30  31
ENDBRANCH  29  30
ENDBRANCH  28  29
ENDBRANCH  27  28
ENDBRANCH  26  27
ENDBRANCH  25  26
ENDBRANCH  24  25
ENDBRANCH  23  24
ENDBRANCH  22  23
ENDBRANCH  21  22
ENDBRANCH  20  21
ENDBRANCH  19  20
ENDBRANCH  18  19
ENDBRANCH   1  18
TORSDOF 28
ENDMDL
