MODEL 1
REMARK VINA RESULT:    -6.034      0.000      0.000
REMARK INTER + INTRA:          -7.398
REMARK INTER:                  -7.092
REMARK INTRA:                  -0.306
REMARK UNBOUND:                -0.306
REMARK SMILES O=c1c(O)c(-c2ccc(O)c(O)c2)oc2cc(O)ccc12
REMARK SMILES IDX 5 1 3 2 2 3 1 4 21 5 15 6 14 7 16 8 17 9 19 10 20 11 6 12
REMARK SMILES IDX 7 13 8 14 9 15 13 16 11 17 10 18 12 20 4 22 18 24
REMARK H PARENT 10 19 12 21 4 23 18 25
REMARK Flexibility Score: inf
ROOT
ATOM      1  C   UNL     1       6.000   5.961  -1.559  1.00  0.00     0.180 A 
ATOM      2  C   UNL     1       5.902   7.354  -1.755  1.00  0.00     0.208 A 
ATOM      3  C   UNL     1       4.872   8.057  -1.111  1.00  0.00     0.235 A 
ATOM      4  O   UNL     1       4.769   9.306  -1.263  1.00  0.00    -0.285 OA
ATOM      5  C   UNL     1       3.957   7.358  -0.307  1.00  0.00     0.069 A 
ATOM      6  C   UNL     1       4.110   5.960  -0.180  1.00  0.00     0.142 A 
ATOM      7  O   UNL     1       5.103   5.334  -0.800  1.00  0.00    -0.452 OA
ATOM      8  C   UNL     1       3.212   5.227   0.604  1.00  0.00     0.094 A 
ATOM      9  C   UNL     1       2.162   5.875   1.268  1.00  0.00     0.119 A 
ATOM     10  C   UNL     1       2.010   7.260   1.144  1.00  0.00     0.047 A 
ATOM     11  C   UNL     1       2.900   8.002   0.362  1.00  0.00     0.020 A 
ENDROOT
BRANCH   1  12
ATOM     12  C   UNL     1       7.069   5.151  -2.188  1.00  0.00     0.025 A 
ATOM     13  C   UNL     1       6.864   4.495  -3.412  1.00  0.00     0.016 A 
ATOM     14  C   UNL     1       7.894   3.756  -3.997  1.00  0.00     0.051 A 
ATOM     15  C   UNL     1       9.148   3.669  -3.383  1.00  0.00     0.157 A 
ATOM     16  C   UNL     1       8.332   5.083  -1.581  1.00  0.00     0.062 A 
ATOM     17  C   UNL     1       9.372   4.345  -2.160  1.00  0.00     0.158 A 
BRANCH  15  18
ATOM     18  O   UNL     1      10.134   2.911  -4.018  1.00  0.00    -0.504 OA
ATOM     19  H   UNL     1      10.949   3.304  -4.466  1.00  0.00     0.293 HD
ENDBRANCH  15  18
BRANCH  17  20
ATOM     20  O   UNL     1      10.598   4.311  -1.493  1.00  0.00    -0.504 OA
ATOM     21  H   UNL     1      11.239   3.531  -1.528  1.00  0.00     0.293 HD
ENDBRANCH  17  20
ENDBRANCH   1  12
BRANCH   2  22
ATOM     22  O   UNL     1       6.796   8.015  -2.600  1.00  0.00    -0.502 OA
ATOM     23  H   UNL     1       7.418   8.742  -2.268  1.00  0.00     0.293 HD
ENDBRANCH   2  22
BRANCH   9  24
ATOM     24  O   UNL     1       1.265   5.153   2.051  1.00  0.00    -0.508 OA
ATOM     25  H   UNL     1       1.536   4.765   2.947  1.00  0.00     0.293 HD
ENDBRANCH   9  24
TORSDOF 5
ENDMDL
MODEL 2
REMARK VINA RESULT:    -6.011      1.919      7.308
REMARK INTER + INTRA:          -7.371
REMARK INTER:                  -7.470
REMARK INTRA:                   0.099
REMARK UNBOUND:                -0.306
REMARK SMILES O=c1c(O)c(-c2ccc(O)c(O)c2)oc2cc(O)ccc12
REMARK SMILES IDX 5 1 3 2 2 3 1 4 21 5 15 6 14 7 16 8 17 9 19 10 20 11 6 12
REMARK SMILES IDX 7 13 8 14 9 15 13 16 11 17 10 18 12 20 4 22 18 24
REMARK H PARENT 10 19 12 21 4 23 18 25
REMARK Flexibility Score: inf
ROOT
ATOM      1  C   UNL     1       3.714   6.082  -0.460  1.00  0.00     0.180 A 
ATOM      2  C   UNL     1       3.420   4.814  -1.002  1.00  0.00     0.208 A 
ATOM      3  C   UNL     1       4.352   4.214  -1.863  1.00  0.00     0.235 A 
ATOM      4  O   UNL     1       4.116   3.074  -2.352  1.00  0.00    -0.285 OA
ATOM      5  C   UNL     1       5.539   4.894  -2.179  1.00  0.00     0.069 A 
ATOM      6  C   UNL     1       5.747   6.172  -1.615  1.00  0.00     0.142 A 
ATOM      7  O   UNL     1       4.844   6.701  -0.798  1.00  0.00    -0.452 OA
ATOM      8  C   UNL     1       6.913   6.886  -1.914  1.00  0.00     0.094 A 
ATOM      9  C   UNL     1       7.876   6.337  -2.771  1.00  0.00     0.119 A 
ATOM     10  C   UNL     1       7.672   5.072  -3.330  1.00  0.00     0.047 A 
ATOM     11  C   UNL     1       6.510   4.350  -3.039  1.00  0.00     0.020 A 
ENDROOT
BRANCH   1  12
ATOM     12  C   UNL     1       2.792   6.774   0.470  1.00  0.00     0.025 A 
ATOM     13  C   UNL     1       2.453   8.124   0.293  1.00  0.00     0.016 A 
ATOM     14  C   UNL     1       1.563   8.748   1.170  1.00  0.00     0.051 A 
ATOM     15  C   UNL     1       0.986   8.037   2.228  1.00  0.00     0.157 A 
ATOM     16  C   UNL     1       2.199   6.053   1.517  1.00  0.00     0.062 A 
ATOM     17  C   UNL     1       1.305   6.670   2.402  1.00  0.00     0.158 A 
BRANCH  15  18
ATOM     18  O   UNL     1       0.108   8.721   3.072  1.00  0.00    -0.504 OA
ATOM     19  H   UNL     1      -0.738   8.320   3.452  1.00  0.00     0.293 HD
ENDBRANCH  15  18
BRANCH  17  20
ATOM     20  O   UNL     1       0.763   5.893   3.429  1.00  0.00    -0.504 OA
ATOM     21  H   UNL     1      -0.111   5.393   3.358  1.00  0.00     0.293 HD
ENDBRANCH  17  20
ENDBRANCH   1  12
BRANCH   2  22
ATOM     22  O   UNL     1       2.210   4.182  -0.709  1.00  0.00    -0.502 OA
ATOM     23  H   UNL     1       2.167   3.269  -0.273  1.00  0.00     0.293 HD
ENDBRANCH   2  22
BRANCH   9  24
ATOM     24  O   UNL     1       9.040   7.042  -3.074  1.00  0.00    -0.508 OA
ATOM     25  H   UNL     1       9.578   7.510  -2.354  1.00  0.00     0.293 HD
ENDBRANCH   9  24
TORSDOF 5
ENDMDL
MODEL 3
REMARK VINA RESULT:    -5.993      1.655      6.895
REMARK INTER + INTRA:          -7.351
REMARK INTER:                  -7.081
REMARK INTRA:                  -0.270
REMARK UNBOUND:                -0.306
REMARK SMILES O=c1c(O)c(-c2ccc(O)c(O)c2)oc2cc(O)ccc12
REMARK SMILES IDX 5 1 3 2 2 3 1 4 21 5 15 6 14 7 16 8 17 9 19 10 20 11 6 12
REMARK SMILES IDX 7 13 8 14 9 15 13 16 11 17 10 18 12 20 4 22 18 24
REMARK H PARENT 10 19 12 21 4 23 18 25
REMARK Flexibility Score: inf
ROOT
ATOM      1  C   UNL     1       3.746   5.876  -0.515  1.00  0.00     0.180 A 
ATOM      2  C   UNL     1       4.248   7.188  -0.643  1.00  0.00     0.208 A 
ATOM      3  C   UNL     1       5.442   7.389  -1.353  1.00  0.00     0.235 A 
ATOM      4  O   UNL     1       5.906   8.555  -1.490  1.00  0.00    -0.285 OA
ATOM      5  C   UNL     1       6.115   6.284  -1.898  1.00  0.00     0.069 A 
ATOM      6  C   UNL     1       5.560   5.000  -1.705  1.00  0.00     0.142 A 
ATOM      7  O   UNL     1       4.423   4.854  -1.034  1.00  0.00    -0.452 OA
ATOM      8  C   UNL     1       6.207   3.873  -2.224  1.00  0.00     0.094 A 
ATOM      9  C   UNL     1       7.404   4.014  -2.938  1.00  0.00     0.119 A 
ATOM     10  C   UNL     1       7.956   5.284  -3.131  1.00  0.00     0.047 A 
ATOM     11  C   UNL     1       7.318   6.417  -2.615  1.00  0.00     0.020 A 
ENDROOT
BRANCH   1  12
ATOM     12  C   UNL     1       2.483   5.584   0.203  1.00  0.00     0.025 A 
ATOM     13  C   UNL     1       2.427   5.567   1.604  1.00  0.00     0.016 A 
ATOM     14  C   UNL     1       1.220   5.311   2.258  1.00  0.00     0.051 A 
ATOM     15  C   UNL     1       0.048   5.081   1.531  1.00  0.00     0.157 A 
ATOM     16  C   UNL     1       1.306   5.375  -0.530  1.00  0.00     0.062 A 
ATOM     17  C   UNL     1       0.090   5.117   0.116  1.00  0.00     0.158 A 
BRANCH  15  18
ATOM     18  O   UNL     1      -1.125   4.827   2.244  1.00  0.00    -0.504 OA
ATOM     19  H   UNL     1      -1.408   5.339   3.068  1.00  0.00     0.293 HD
ENDBRANCH  15  18
BRANCH  17  20
ATOM     20  O   UNL     1      -1.040   4.906  -0.678  1.00  0.00    -0.504 OA
ATOM     21  H   UNL     1      -1.022   4.433  -1.570  1.00  0.00     0.293 HD
ENDBRANCH  17  20
ENDBRANCH   1  12
BRANCH   2  22
ATOM     22  O   UNL     1       3.582   8.262  -0.048  1.00  0.00    -0.502 OA
ATOM     23  H   UNL     1       3.544   8.386   0.957  1.00  0.00     0.293 HD
ENDBRANCH   2  22
BRANCH   9  24
ATOM     24  O   UNL     1       8.054   2.897  -3.459  1.00  0.00    -0.508 OA
ATOM     25  H   UNL     1       9.056   2.888  -3.606  1.00  0.00     0.293 HD
ENDBRANCH   9  24
TORSDOF 5
ENDMDL
MODEL 4
REMARK VINA RESULT:    -5.784      2.240      7.354
REMARK INTER + INTRA:          -7.105
REMARK INTER:                  -6.851
REMARK INTRA:                  -0.254
REMARK UNBOUND:                -0.306
REMARK SMILES O=c1c(O)c(-c2ccc(O)c(O)c2)oc2cc(O)ccc12
REMARK SMILES IDX 5 1 3 2 2 3 1 4 21 5 15 6 14 7 16 8 17 9 19 10 20 11 6 12
REMARK SMILES IDX 7 13 8 14 9 15 13 16 11 17 10 18 12 20 4 22 18 24
REMARK H PARENT 10 19 12 21 4 23 18 25
REMARK Flexibility Score: inf
ROOT
ATOM      1  C   UNL     1       4.031   5.275   0.081  1.00  0.00     0.180 A 
ATOM      2  C   UNL     1       4.603   4.434   1.058  1.00  0.00     0.208 A 
ATOM      3  C   UNL     1       5.695   3.628   0.702  1.00  0.00     0.235 A 
ATOM      4  O   UNL     1       6.230   2.875   1.563  1.00  0.00    -0.285 OA
ATOM      5  C   UNL     1       6.178   3.662  -0.616  1.00  0.00     0.069 A 
ATOM      6  C   UNL     1       5.535   4.512  -1.542  1.00  0.00     0.142 A 
ATOM      7  O   UNL     1       4.510   5.266  -1.163  1.00  0.00    -0.452 OA
ATOM      8  C   UNL     1       5.981   4.566  -2.867  1.00  0.00     0.094 A 
ATOM      9  C   UNL     1       7.065   3.780  -3.280  1.00  0.00     0.119 A 
ATOM     10  C   UNL     1       7.703   2.937  -2.364  1.00  0.00     0.047 A 
ATOM     11  C   UNL     1       7.265   2.875  -1.037  1.00  0.00     0.020 A 
ENDROOT
BRANCH   1  12
ATOM     12  C   UNL     1       2.890   6.169   0.381  1.00  0.00     0.025 A 
ATOM     13  C   UNL     1       3.062   7.556   0.507  1.00  0.00     0.016 A 
ATOM     14  C   UNL     1       1.966   8.381   0.769  1.00  0.00     0.051 A 
ATOM     15  C   UNL     1       0.681   7.844   0.895  1.00  0.00     0.157 A 
ATOM     16  C   UNL     1       1.599   5.629   0.487  1.00  0.00     0.062 A 
ATOM     17  C   UNL     1       0.494   6.449   0.748  1.00  0.00     0.158 A 
BRANCH  15  18
ATOM     18  O   UNL     1      -0.371   8.722   1.161  1.00  0.00    -0.504 OA
ATOM     19  H   UNL     1      -0.301   9.728   1.089  1.00  0.00     0.293 HD
ENDBRANCH  15  18
BRANCH  17  20
ATOM     20  O   UNL     1      -0.760   5.841   0.853  1.00  0.00    -0.504 OA
ATOM     21  H   UNL     1      -1.071   5.082   0.263  1.00  0.00     0.293 HD
ENDBRANCH  17  20
ENDBRANCH   1  12
BRANCH   2  22
ATOM     22  O   UNL     1       4.070   4.385   2.348  1.00  0.00    -0.502 OA
ATOM     23  H   UNL     1       4.587   4.700   3.160  1.00  0.00     0.293 HD
ENDBRANCH   2  22
BRANCH   9  24
ATOM     24  O   UNL     1       7.515   3.828  -4.597  1.00  0.00    -0.508 OA
ATOM     25  H   UNL     1       6.911   3.582  -5.373  1.00  0.00     0.293 HD
ENDBRANCH   9  24
TORSDOF 5
ENDMDL
MODEL 5
REMARK VINA RESULT:    -5.423      1.792      7.041
REMARK INTER + INTRA:          -6.680
REMARK INTER:                  -6.592
REMARK INTRA:                  -0.088
REMARK UNBOUND:                -0.306
REMARK SMILES O=c1c(O)c(-c2ccc(O)c(O)c2)oc2cc(O)ccc12
REMARK SMILES IDX 5 1 3 2 2 3 1 4 21 5 15 6 14 7 16 8 17 9 19 10 20 11 6 12
REMARK SMILES IDX 7 13 8 14 9 15 13 16 11 17 10 18 12 20 4 22 18 24
REMARK H PARENT 10 19 12 21 4 23 18 25
REMARK Flexibility Score: inf
ROOT
ATOM      1  C   UNL     1       5.998   5.628  -1.828  1.00  0.00     0.180 A 
ATOM      2  C   UNL     1       5.703   4.480  -2.591  1.00  0.00     0.208 A 
ATOM      3  C   UNL     1       6.718   3.909  -3.375  1.00  0.00     0.235 A 
ATOM      4  O   UNL     1       6.481   2.875  -4.059  1.00  0.00    -0.285 OA
ATOM      5  C   UNL     1       7.990   4.503  -3.397  1.00  0.00     0.069 A 
ATOM      6  C   UNL     1       8.198   5.666  -2.624  1.00  0.00     0.142 A 
ATOM      7  O   UNL     1       7.213   6.169  -1.888  1.00  0.00    -0.452 OA
ATOM      8  C   UNL     1       9.449   6.293  -2.628  1.00  0.00     0.094 A 
ATOM      9  C   UNL     1      10.498   5.770  -3.395  1.00  0.00     0.119 A 
ATOM     10  C   UNL     1      10.294   4.618  -4.161  1.00  0.00     0.047 A 
ATOM     11  C   UNL     1       9.047   3.985  -4.165  1.00  0.00     0.020 A 
ENDROOT
BRANCH   1  12
ATOM     12  C   UNL     1       4.988   6.278  -0.961  1.00  0.00     0.025 A 
ATOM     13  C   UNL     1       4.583   7.604  -1.179  1.00  0.00     0.016 A 
ATOM     14  C   UNL     1       3.613   8.187  -0.362  1.00  0.00     0.051 A 
ATOM     15  C   UNL     1       3.019   7.459   0.674  1.00  0.00     0.157 A 
ATOM     16  C   UNL     1       4.379   5.538   0.064  1.00  0.00     0.062 A 
ATOM     17  C   UNL     1       3.404   6.114   0.888  1.00  0.00     0.158 A 
BRANCH  15  18
ATOM     18  O   UNL     1       2.058   8.102   1.457  1.00  0.00    -0.504 OA
ATOM     19  H   UNL     1       1.509   8.891   1.145  1.00  0.00     0.293 HD
ENDBRANCH  15  18
BRANCH  17  20
ATOM     20  O   UNL     1       2.850   5.322   1.896  1.00  0.00    -0.504 OA
ATOM     21  H   UNL     1       2.407   4.429   1.734  1.00  0.00     0.293 HD
ENDBRANCH  17  20
ENDBRANCH   1  12
BRANCH   2  22
ATOM     22  O   UNL     1       4.415   3.939  -2.588  1.00  0.00    -0.502 OA
ATOM     23  H   UNL     1       4.220   3.006  -2.245  1.00  0.00     0.293 HD
ENDBRANCH   2  22
BRANCH   9  24
ATOM     24  O   UNL     1      11.747   6.388  -3.403  1.00  0.00    -0.508 OA
ATOM     25  H   UNL     1      12.325   6.427  -2.572  1.00  0.00     0.293 HD
ENDBRANCH   9  24
TORSDOF 5
ENDMDL
MODEL 6
REMARK VINA RESULT:    -5.421      1.988      7.024
REMARK INTER + INTRA:          -6.679
REMARK INTER:                  -6.528
REMARK INTRA:                  -0.151
REMARK UNBOUND:                -0.306
REMARK SMILES O=c1c(O)c(-c2ccc(O)c(O)c2)oc2cc(O)ccc12
REMARK SMILES IDX 5 1 3 2 2 3 1 4 21 5 15 6 14 7 16 8 17 9 19 10 20 11 6 12
REMARK SMILES IDX 7 13 8 14 9 15 13 16 11 17 10 18 12 20 4 22 18 24
REMARK H PARENT 10 19 12 21 4 23 18 25
REMARK Flexibility Score: inf
ROOT
ATOM      1  C   UNL     1       4.812   5.317  -0.776  1.00  0.00     0.180 A 
ATOM      2  C   UNL     1       5.497   4.138  -0.416  1.00  0.00     0.208 A 
ATOM      3  C   UNL     1       6.783   3.918  -0.935  1.00  0.00     0.235 A 
ATOM      4  O   UNL     1       7.420   2.875  -0.619  1.00  0.00    -0.285 OA
ATOM      5  C   UNL     1       7.345   4.860  -1.811  1.00  0.00     0.069 A 
ATOM      6  C   UNL     1       6.584   6.003  -2.142  1.00  0.00     0.142 A 
ATOM      7  O   UNL     1       5.375   6.178  -1.622  1.00  0.00    -0.452 OA
ATOM      8  C   UNL     1       7.106   6.959  -3.020  1.00  0.00     0.094 A 
ATOM      9  C   UNL     1       8.383   6.790  -3.571  1.00  0.00     0.119 A 
ATOM     10  C   UNL     1       9.138   5.659  -3.244  1.00  0.00     0.047 A 
ATOM     11  C   UNL     1       8.626   4.696  -2.369  1.00  0.00     0.020 A 
ENDROOT
BRANCH   1  12
ATOM     12  C   UNL     1       3.461   5.631  -0.257  1.00  0.00     0.025 A 
ATOM     13  C   UNL     1       2.356   4.822  -0.560  1.00  0.00     0.016 A 
ATOM     14  C   UNL     1       1.096   5.126  -0.040  1.00  0.00     0.051 A 
ATOM     15  C   UNL     1       0.917   6.230   0.800  1.00  0.00     0.157 A 
ATOM     16  C   UNL     1       3.290   6.727   0.601  1.00  0.00     0.062 A 
ATOM     17  C   UNL     1       2.030   7.040   1.129  1.00  0.00     0.158 A 
BRANCH  15  18
ATOM     18  O   UNL     1      -0.369   6.482   1.283  1.00  0.00    -0.504 OA
ATOM     19  H   UNL     1      -0.609   6.511   2.264  1.00  0.00     0.293 HD
ENDBRANCH  15  18
BRANCH  17  20
ATOM     20  O   UNL     1       1.931   8.154   1.966  1.00  0.00    -0.504 OA
ATOM     21  H   UNL     1       2.726   8.677   2.306  1.00  0.00     0.293 HD
ENDBRANCH  17  20
ENDBRANCH   1  12
BRANCH   2  22
ATOM     22  O   UNL     1       4.893   3.195   0.418  1.00  0.00    -0.502 OA
ATOM     23  H   UNL     1       3.898   3.199   0.610  1.00  0.00     0.293 HD
ENDBRANCH   2  22
BRANCH   9  24
ATOM     24  O   UNL     1       8.909   7.738  -4.445  1.00  0.00    -0.508 OA
ATOM     25  H   UNL     1       9.334   8.593  -4.107  1.00  0.00     0.293 HD
ENDBRANCH   9  24
TORSDOF 5
ENDMDL
MODEL 7
REMARK VINA RESULT:    -5.345      2.015      2.987
REMARK INTER + INTRA:          -6.589
REMARK INTER:                  -6.264
REMARK INTRA:                  -0.324
REMARK UNBOUND:                -0.306
REMARK SMILES O=c1c(O)c(-c2ccc(O)c(O)c2)oc2cc(O)ccc12
REMARK SMILES IDX 5 1 3 2 2 3 1 4 21 5 15 6 14 7 16 8 17 9 19 10 20 11 6 12
REMARK SMILES IDX 7 13 8 14 9 15 13 16 11 17 10 18 12 20 4 22 18 24
REMARK H PARENT 10 19 12 21 4 23 18 25
REMARK Flexibility Score: inf
ROOT
ATOM      1  C   UNL     1       6.692   5.406  -1.828  1.00  0.00     0.180 A 
ATOM      2  C   UNL     1       6.380   4.135  -1.301  1.00  0.00     0.208 A 
ATOM      3  C   UNL     1       5.254   4.004  -0.474  1.00  0.00     0.235 A 
ATOM      4  O   UNL     1       4.949   2.875   0.001  1.00  0.00    -0.285 OA
ATOM      5  C   UNL     1       4.480   5.137  -0.176  1.00  0.00     0.069 A 
ATOM      6  C   UNL     1       4.872   6.378  -0.723  1.00  0.00     0.142 A 
ATOM      7  O   UNL     1       5.940   6.458  -1.508  1.00  0.00    -0.452 OA
ATOM      8  C   UNL     1       4.133   7.531  -0.440  1.00  0.00     0.094 A 
ATOM      9  C   UNL     1       3.001   7.460   0.382  1.00  0.00     0.119 A 
ATOM     10  C   UNL     1       2.610   6.232   0.925  1.00  0.00     0.047 A 
ATOM     11  C   UNL     1       3.343   5.073   0.650  1.00  0.00     0.020 A 
ENDROOT
BRANCH   1  12
ATOM     12  C   UNL     1       7.851   5.623  -2.723  1.00  0.00     0.025 A 
ATOM     13  C   UNL     1       7.732   5.497  -4.116  1.00  0.00     0.016 A 
ATOM     14  C   UNL     1       8.834   5.730  -4.941  1.00  0.00     0.051 A 
ATOM     15  C   UNL     1      10.068   6.105  -4.398  1.00  0.00     0.157 A 
ATOM     16  C   UNL     1       9.081   6.019  -2.177  1.00  0.00     0.062 A 
ATOM     17  C   UNL     1      10.192   6.256  -2.996  1.00  0.00     0.158 A 
BRANCH  15  18
ATOM     18  O   UNL     1      11.131   6.318  -5.277  1.00  0.00    -0.504 OA
ATOM     19  H   UNL     1      11.723   7.137  -5.260  1.00  0.00     0.293 HD
ENDBRANCH  15  18
BRANCH  17  20
ATOM     20  O   UNL     1      11.388   6.635  -2.381  1.00  0.00    -0.504 OA
ATOM     21  H   UNL     1      11.523   6.668  -1.381  1.00  0.00     0.293 HD
ENDBRANCH  17  20
ENDBRANCH   1  12
BRANCH   2  22
ATOM     22  O   UNL     1       7.196   3.036  -1.575  1.00  0.00    -0.502 OA
ATOM     23  H   UNL     1       7.945   2.749  -0.956  1.00  0.00     0.293 HD
ENDBRANCH   2  22
BRANCH   9  24
ATOM     24  O   UNL     1       2.259   8.604   0.668  1.00  0.00    -0.508 OA
ATOM     25  H   UNL     1       1.422   8.564   1.237  1.00  0.00     0.293 HD
ENDBRANCH   9  24
TORSDOF 5
ENDMDL
MODEL 8
REMARK VINA RESULT:    -5.145      1.854      3.409
REMARK INTER + INTRA:          -6.354
REMARK INTER:                  -6.300
REMARK INTRA:                  -0.054
REMARK UNBOUND:                -0.306
REMARK SMILES O=c1c(O)c(-c2ccc(O)c(O)c2)oc2cc(O)ccc12
REMARK SMILES IDX 5 1 3 2 2 3 1 4 21 5 15 6 14 7 16 8 17 9 19 10 20 11 6 12
REMARK SMILES IDX 7 13 8 14 9 15 13 16 11 17 10 18 12 20 4 22 18 24
REMARK H PARENT 10 19 12 21 4 23 18 25
REMARK Flexibility Score: inf
ROOT
ATOM      1  C   UNL     1       4.050   5.658  -0.521  1.00  0.00     0.180 A 
ATOM      2  C   UNL     1       2.968   4.827  -0.877  1.00  0.00     0.208 A 
ATOM      3  C   UNL     1       1.702   5.097  -0.335  1.00  0.00     0.235 A 
ATOM      4  O   UNL     1       0.715   4.374  -0.647  1.00  0.00    -0.285 OA
ATOM      5  C   UNL     1       1.546   6.170   0.558  1.00  0.00     0.069 A 
ATOM      6  C   UNL     1       2.685   6.940   0.882  1.00  0.00     0.142 A 
ATOM      7  O   UNL     1       3.864   6.656   0.341  1.00  0.00    -0.452 OA
ATOM      8  C   UNL     1       2.573   8.010   1.776  1.00  0.00     0.094 A 
ATOM      9  C   UNL     1       1.334   8.324   2.350  1.00  0.00     0.119 A 
ATOM     10  C   UNL     1       0.205   7.563   2.030  1.00  0.00     0.047 A 
ATOM     11  C   UNL     1       0.306   6.490   1.139  1.00  0.00     0.020 A 
ENDROOT
BRANCH   1  12
ATOM     12  C   UNL     1       5.413   5.451  -1.064  1.00  0.00     0.025 A 
ATOM     13  C   UNL     1       6.071   4.219  -0.933  1.00  0.00     0.016 A 
ATOM     14  C   UNL     1       7.346   4.040  -1.473  1.00  0.00     0.051 A 
ATOM     15  C   UNL     1       7.982   5.078  -2.162  1.00  0.00     0.157 A 
ATOM     16  C   UNL     1       6.039   6.487  -1.772  1.00  0.00     0.062 A 
ATOM     17  C   UNL     1       7.318   6.318  -2.318  1.00  0.00     0.158 A 
BRANCH  15  18
ATOM     18  O   UNL     1       9.259   4.837  -2.674  1.00  0.00    -0.504 OA
ATOM     19  H   UNL     1       9.947   4.250  -2.224  1.00  0.00     0.293 HD
ENDBRANCH  15  18
BRANCH  17  20
ATOM     20  O   UNL     1       7.885   7.397  -3.000  1.00  0.00    -0.504 OA
ATOM     21  H   UNL     1       7.491   8.327  -3.013  1.00  0.00     0.293 HD
ENDBRANCH  17  20
ENDBRANCH   1  12
BRANCH   2  22
ATOM     22  O   UNL     1       3.162   3.738  -1.729  1.00  0.00    -0.502 OA
ATOM     23  H   UNL     1       4.085   3.403  -1.979  1.00  0.00     0.293 HD
ENDBRANCH   2  22
BRANCH   9  24
ATOM     24  O   UNL     1       1.214   9.388   3.241  1.00  0.00    -0.508 OA
ATOM     25  H   UNL     1       2.005   9.976   3.474  1.00  0.00     0.293 HD
ENDBRANCH   9  24
TORSDOF 5
ENDMDL
MODEL 9
REMARK VINA RESULT:    -5.033      2.462      7.106
REMARK INTER + INTRA:          -6.222
REMARK INTER:                  -5.945
REMARK INTRA:                  -0.277
REMARK UNBOUND:                -0.306
REMARK SMILES O=c1c(O)c(-c2ccc(O)c(O)c2)oc2cc(O)ccc12
REMARK SMILES IDX 5 1 3 2 2 3 1 4 21 5 15 6 14 7 16 8 17 9 19 10 20 11 6 12
REMARK SMILES IDX 7 13 8 14 9 15 13 16 11 17 10 18 12 20 4 22 18 24
REMARK H PARENT 10 19 12 21 4 23 18 25
REMARK Flexibility Score: inf
ROOT
ATOM      1  C   UNL     1       7.211   5.304  -2.313  1.00  0.00     0.180 A 
ATOM      2  C   UNL     1       8.294   4.666  -1.674  1.00  0.00     0.208 A 
ATOM      3  C   UNL     1       9.569   4.754  -2.254  1.00  0.00     0.235 A 
ATOM      4  O   UNL     1      10.556   4.200  -1.695  1.00  0.00    -0.285 OA
ATOM      5  C   UNL     1       9.733   5.455  -3.460  1.00  0.00     0.069 A 
ATOM      6  C   UNL     1       8.594   6.045  -4.049  1.00  0.00     0.142 A 
ATOM      7  O   UNL     1       7.406   5.946  -3.464  1.00  0.00    -0.452 OA
ATOM      8  C   UNL     1       8.714   6.743  -5.257  1.00  0.00     0.094 A 
ATOM      9  C   UNL     1       9.962   6.860  -5.883  1.00  0.00     0.119 A 
ATOM     10  C   UNL     1      11.091   6.276  -5.300  1.00  0.00     0.047 A 
ATOM     11  C   UNL     1      10.982   5.576  -4.095  1.00  0.00     0.020 A 
ENDROOT
BRANCH   1  12
ATOM     12  C   UNL     1       5.840   5.273  -1.755  1.00  0.00     0.025 A 
ATOM     13  C   UNL     1       5.018   4.145  -1.900  1.00  0.00     0.016 A 
ATOM     14  C   UNL     1       3.736   4.131  -1.346  1.00  0.00     0.051 A 
ATOM     15  C   UNL     1       3.256   5.231  -0.628  1.00  0.00     0.157 A 
ATOM     16  C   UNL     1       5.369   6.370  -1.018  1.00  0.00     0.062 A 
ATOM     17  C   UNL     1       4.085   6.365  -0.458  1.00  0.00     0.158 A 
BRANCH  15  18
ATOM     18  O   UNL     1       1.965   5.155  -0.103  1.00  0.00    -0.504 OA
ATOM     19  H   UNL     1       1.542   4.304   0.240  1.00  0.00     0.293 HD
ENDBRANCH  15  18
BRANCH  17  20
ATOM     20  O   UNL     1       3.679   7.497   0.253  1.00  0.00    -0.504 OA
ATOM     21  H   UNL     1       2.715   7.774   0.371  1.00  0.00     0.293 HD
ENDBRANCH  17  20
ENDBRANCH   1  12
BRANCH   2  22
ATOM     22  O   UNL     1       8.093   3.935  -0.501  1.00  0.00    -0.502 OA
ATOM     23  H   UNL     1       8.814   3.349  -0.097  1.00  0.00     0.293 HD
ENDBRANCH   2  22
BRANCH   9  24
ATOM     24  O   UNL     1      10.090   7.553  -7.084  1.00  0.00    -0.508 OA
ATOM     25  H   UNL     1      10.727   7.244  -7.809  1.00  0.00     0.293 HD
ENDBRANCH   9  24
TORSDOF 5
ENDMDL
