MODEL 1
REMARK VINA RESULT:    -5.619      0.000      0.000
REMARK INTER + INTRA:          -5.619
REMARK INTER:                  -5.619
REMARK INTRA:                   0.000
REMARK UNBOUND:                 0.000
REMARK SMILES O=c1ccc2ccccc2o1
REMARK SMILES IDX 7 1 8 2 9 3 10 4 5 5 6 6 4 7 3 8 2 9 1 10 11 11
REMARK H PARENT
REMARK Flexibility Score: inf
ROOT
ATOM      1  C   UNL     1       2.229   1.646  24.049  1.00  0.00     0.001 A 
ATOM      2  C   UNL     1       1.220   2.344  23.375  1.00  0.00     0.004 A 
ATOM      3  C   UNL     1      -0.023   1.744  23.151  1.00  0.00     0.048 A 
ATOM      4  C   UNL     1      -0.262   0.441  23.600  1.00  0.00     0.138 A 
ATOM      5  C   UNL     1       0.756  -0.265  24.279  1.00  0.00     0.018 A 
ATOM      6  C   UNL     1       1.999   0.342  24.502  1.00  0.00     0.012 A 
ATOM      7  C   UNL     1       0.487  -1.567  24.717  1.00  0.00     0.019 A 
ATOM      8  C   UNL     1      -0.767  -2.125  24.471  1.00  0.00     0.094 A 
ATOM      9  C   UNL     1      -1.726  -1.367  23.791  1.00  0.00     0.336 A 
ATOM     10  O   UNL     1      -2.864  -1.854  23.561  1.00  0.00    -0.246 OA
ATOM     11  O   UNL     1      -1.445  -0.131  23.386  1.00  0.00    -0.423 OA
ENDROOT
TORSDOF 0
ENDMDL
MODEL 2
REMARK VINA RESULT:    -5.200      1.448      1.463
REMARK INTER + INTRA:          -5.200
REMARK INTER:                  -5.200
REMARK INTRA:                   0.000
REMARK UNBOUND:                 0.000
REMARK SMILES O=c1ccc2ccccc2o1
REMARK SMILES IDX 7 1 8 2 9 3 10 4 5 5 6 6 4 7 3 8 2 9 1 10 11 11
REMARK H PARENT
REMARK Flexibility Score: inf
ROOT
ATOM      1  C   UNL     1       1.291   2.095  25.322  1.00  0.00     0.001 A 
ATOM      2  C   UNL     1       1.057   2.686  24.075  1.00  0.00     0.004 A 
ATOM      3  C   UNL     1       0.559   1.921  23.016  1.00  0.00     0.048 A 
ATOM      4  C   UNL     1       0.294   0.559  23.199  1.00  0.00     0.138 A 
ATOM      5  C   UNL     1       0.530  -0.038  24.457  1.00  0.00     0.018 A 
ATOM      6  C   UNL     1       1.028   0.734  25.516  1.00  0.00     0.012 A 
ATOM      7  C   UNL     1       0.255  -1.401  24.611  1.00  0.00     0.019 A 
ATOM      8  C   UNL     1      -0.240  -2.125  23.526  1.00  0.00     0.094 A 
ATOM      9  C   UNL     1      -0.449  -1.466  22.309  1.00  0.00     0.336 A 
ATOM     10  O   UNL     1      -0.896  -2.103  21.320  1.00  0.00    -0.246 OA
ATOM     11  O   UNL     1      -0.179  -0.169  22.190  1.00  0.00    -0.423 OA
ENDROOT
TORSDOF 0
ENDMDL
MODEL 3
REMARK VINA RESULT:    -5.183      2.096      4.178
REMARK INTER + INTRA:          -5.183
REMARK INTER:                  -5.183
REMARK INTRA:                   0.000
REMARK UNBOUND:                 0.000
REMARK SMILES O=c1ccc2ccccc2o1
REMARK SMILES IDX 7 1 8 2 9 3 10 4 5 5 6 6 4 7 3 8 2 9 1 10 11 11
REMARK H PARENT
REMARK Flexibility Score: inf
ROOT
ATOM      1  C   UNL     1      -0.470  -1.590  22.395  1.00  0.00     0.001 A 
ATOM      2  C   UNL     1      -0.291  -2.125  23.676  1.00  0.00     0.004 A 
ATOM      3  C   UNL     1       0.152  -1.311  24.723  1.00  0.00     0.048 A 
ATOM      4  C   UNL     1       0.418   0.043  24.493  1.00  0.00     0.138 A 
ATOM      5  C   UNL     1       0.237   0.584  23.200  1.00  0.00     0.018 A 
ATOM      6  C   UNL     1      -0.208  -0.237  22.155  1.00  0.00     0.012 A 
ATOM      7  C   UNL     1       0.510   1.942  23.001  1.00  0.00     0.019 A 
ATOM      8  C   UNL     1       0.949   2.715  24.075  1.00  0.00     0.094 A 
ATOM      9  C   UNL     1       1.106   2.111  25.327  1.00  0.00     0.336 A 
ATOM     10  O   UNL     1       1.501   2.794  26.308  1.00  0.00    -0.246 OA
ATOM     11  O   UNL     1       0.839   0.818  25.490  1.00  0.00    -0.423 OA
ENDROOT
TORSDOF 0
ENDMDL
MODEL 4
REMARK VINA RESULT:    -5.085      1.793      3.881
REMARK INTER + INTRA:          -5.085
REMARK INTER:                  -5.085
REMARK INTRA:                   0.000
REMARK UNBOUND:                 0.000
REMARK SMILES O=c1ccc2ccccc2o1
REMARK SMILES IDX 7 1 8 2 9 3 10 4 5 5 6 6 4 7 3 8 2 9 1 10 11 11
REMARK H PARENT
REMARK Flexibility Score: inf
ROOT
ATOM      1  C   UNL     1      -0.947  -2.125  23.823  1.00  0.00     0.001 A 
ATOM      2  C   UNL     1      -1.835  -1.090  23.508  1.00  0.00     0.004 A 
ATOM      3  C   UNL     1      -1.386   0.233  23.459  1.00  0.00     0.048 A 
ATOM      4  C   UNL     1      -0.044   0.528  23.726  1.00  0.00     0.138 A 
ATOM      5  C   UNL     1       0.853  -0.517  24.045  1.00  0.00     0.018 A 
ATOM      6  C   UNL     1       0.396  -1.842  24.091  1.00  0.00     0.012 A 
ATOM      7  C   UNL     1       2.188  -0.192  24.307  1.00  0.00     0.019 A 
ATOM      8  C   UNL     1       2.592   1.141  24.247  1.00  0.00     0.094 A 
ATOM      9  C   UNL     1       1.648   2.123  23.926  1.00  0.00     0.336 A 
ATOM     10  O   UNL     1       1.994   3.332  23.866  1.00  0.00    -0.246 OA
ATOM     11  O   UNL     1       0.384   1.787  23.681  1.00  0.00    -0.423 OA
ENDROOT
TORSDOF 0
ENDMDL
MODEL 5
REMARK VINA RESULT:    -4.836     12.073     13.419
REMARK INTER + INTRA:          -4.836
REMARK INTER:                  -4.836
REMARK INTRA:                   0.000
REMARK UNBOUND:                 0.000
REMARK SMILES O=c1ccc2ccccc2o1
REMARK SMILES IDX 7 1 8 2 9 3 10 4 5 5 6 6 4 7 3 8 2 9 1 10 11 11
REMARK H PARENT
REMARK Flexibility Score: inf
ROOT
ATOM      1  C   UNL     1     -13.243   5.033  17.410  1.00  0.00     0.001 A 
ATOM      2  C   UNL     1     -12.504   3.990  16.842  1.00  0.00     0.004 A 
ATOM      3  C   UNL     1     -11.547   3.310  17.602  1.00  0.00     0.048 A 
ATOM      4  C   UNL     1     -11.324   3.673  18.935  1.00  0.00     0.138 A 
ATOM      5  C   UNL     1     -12.071   4.726  19.509  1.00  0.00     0.018 A 
ATOM      6  C   UNL     1     -13.030   5.403  18.742  1.00  0.00     0.012 A 
ATOM      7  C   UNL     1     -11.827   5.066  20.844  1.00  0.00     0.019 A 
ATOM      8  C   UNL     1     -10.863   4.361  21.564  1.00  0.00     0.094 A 
ATOM      9  C   UNL     1     -10.162   3.329  20.929  1.00  0.00     0.336 A 
ATOM     10  O   UNL     1      -9.288   2.682  21.563  1.00  0.00    -0.246 OA
ATOM     11  O   UNL     1     -10.413   3.026  19.658  1.00  0.00    -0.423 OA
ENDROOT
TORSDOF 0
ENDMDL
MODEL 6
REMARK VINA RESULT:    -4.834     12.222     13.488
REMARK INTER + INTRA:          -4.834
REMARK INTER:                  -4.834
REMARK INTRA:                   0.000
REMARK UNBOUND:                 0.000
REMARK SMILES O=c1ccc2ccccc2o1
REMARK SMILES IDX 7 1 8 2 9 3 10 4 5 5 6 6 4 7 3 8 2 9 1 10 11 11
REMARK H PARENT
REMARK Flexibility Score: inf
ROOT
ATOM      1  C   UNL     1     -10.603   4.328  21.829  1.00  0.00     0.001 A 
ATOM      2  C   UNL     1      -9.920   3.266  21.227  1.00  0.00     0.004 A 
ATOM      3  C   UNL     1     -10.196   2.912  19.903  1.00  0.00     0.048 A 
ATOM      4  C   UNL     1     -11.158   3.620  19.174  1.00  0.00     0.138 A 
ATOM      5  C   UNL     1     -11.849   4.693  19.782  1.00  0.00     0.018 A 
ATOM      6  C   UNL     1     -11.567   5.043  21.110  1.00  0.00     0.012 A 
ATOM      7  C   UNL     1     -12.805   5.383  19.029  1.00  0.00     0.019 A 
ATOM      8  C   UNL     1     -13.047   4.995  17.712  1.00  0.00     0.094 A 
ATOM      9  C   UNL     1     -12.326   3.922  17.176  1.00  0.00     0.336 A 
ATOM     10  O   UNL     1     -12.531   3.558  15.989  1.00  0.00    -0.246 OA
ATOM     11  O   UNL     1     -11.421   3.283  17.914  1.00  0.00    -0.423 OA
ENDROOT
TORSDOF 0
ENDMDL
MODEL 7
REMARK VINA RESULT:    -4.765     13.131     13.880
REMARK INTER + INTRA:          -4.765
REMARK INTER:                  -4.765
REMARK INTRA:                   0.000
REMARK UNBOUND:                 0.000
REMARK SMILES O=c1ccc2ccccc2o1
REMARK SMILES IDX 7 1 8 2 9 3 10 4 5 5 6 6 4 7 3 8 2 9 1 10 11 11
REMARK H PARENT
REMARK Flexibility Score: inf
ROOT
ATOM      1  C   UNL     1      -9.647  11.572  24.842  1.00  0.00     0.001 A 
ATOM      2  C   UNL     1      -8.864  11.359  23.702  1.00  0.00     0.004 A 
ATOM      3  C   UNL     1      -9.001  10.179  22.964  1.00  0.00     0.048 A 
ATOM      4  C   UNL     1      -9.921   9.205  23.365  1.00  0.00     0.138 A 
ATOM      5  C   UNL     1     -10.712   9.419  24.517  1.00  0.00     0.018 A 
ATOM      6  C   UNL     1     -10.571  10.604  25.251  1.00  0.00     0.012 A 
ATOM      7  C   UNL     1     -11.624   8.427  24.893  1.00  0.00     0.019 A 
ATOM      8  C   UNL     1     -11.726   7.266  24.127  1.00  0.00     0.094 A 
ATOM      9  C   UNL     1     -10.911   7.123  23.000  1.00  0.00     0.336 A 
ATOM     10  O   UNL     1     -10.989   6.082  22.296  1.00  0.00    -0.246 OA
ATOM     11  O   UNL     1     -10.051   8.081  22.664  1.00  0.00    -0.423 OA
ENDROOT
TORSDOF 0
ENDMDL
MODEL 8
REMARK VINA RESULT:    -4.598     14.008     14.778
REMARK INTER + INTRA:          -4.598
REMARK INTER:                  -4.598
REMARK INTRA:                   0.000
REMARK UNBOUND:                 0.000
REMARK SMILES O=c1ccc2ccccc2o1
REMARK SMILES IDX 7 1 8 2 9 3 10 4 5 5 6 6 4 7 3 8 2 9 1 10 11 11
REMARK H PARENT
REMARK Flexibility Score: inf
ROOT
ATOM      1  C   UNL     1      -8.886  10.264  22.857  1.00  0.00     0.001 A 
ATOM      2  C   UNL     1      -8.941  11.339  23.751  1.00  0.00     0.004 A 
ATOM      3  C   UNL     1      -9.867  11.336  24.799  1.00  0.00     0.048 A 
ATOM      4  C   UNL     1     -10.743  10.257  24.957  1.00  0.00     0.138 A 
ATOM      5  C   UNL     1     -10.687   9.171  24.054  1.00  0.00     0.018 A 
ATOM      6  C   UNL     1      -9.756   9.179  23.006  1.00  0.00     0.012 A 
ATOM      7  C   UNL     1     -11.575   8.105  24.238  1.00  0.00     0.019 A 
ATOM      8  C   UNL     1     -12.481   8.145  25.297  1.00  0.00     0.094 A 
ATOM      9  C   UNL     1     -12.479   9.254  26.150  1.00  0.00     0.336 A 
ATOM     10  O   UNL     1     -13.290   9.307  27.112  1.00  0.00    -0.246 OA
ATOM     11  O   UNL     1     -11.624  10.254  25.954  1.00  0.00    -0.423 OA
ENDROOT
TORSDOF 0
ENDMDL
MODEL 9
REMARK VINA RESULT:    -4.569     16.308     16.623
REMARK INTER + INTRA:          -4.569
REMARK INTER:                  -4.569
REMARK INTRA:                   0.000
REMARK UNBOUND:                 0.000
REMARK SMILES O=c1ccc2ccccc2o1
REMARK SMILES IDX 7 1 8 2 9 3 10 4 5 5 6 6 4 7 3 8 2 9 1 10 11 11
REMARK H PARENT
REMARK Flexibility Score: inf
ROOT
ATOM      1  C   UNL     1      -3.679   5.406   8.436  1.00  0.00     0.001 A 
ATOM      2  C   UNL     1      -2.726   6.428   8.516  1.00  0.00     0.004 A 
ATOM      3  C   UNL     1      -1.363   6.128   8.433  1.00  0.00     0.048 A 
ATOM      4  C   UNL     1      -0.946   4.803   8.270  1.00  0.00     0.138 A 
ATOM      5  C   UNL     1      -1.907   3.770   8.189  1.00  0.00     0.018 A 
ATOM      6  C   UNL     1      -3.273   4.077   8.272  1.00  0.00     0.012 A 
ATOM      7  C   UNL     1      -1.461   2.455   8.025  1.00  0.00     0.019 A 
ATOM      8  C   UNL     1      -0.091   2.203   7.947  1.00  0.00     0.094 A 
ATOM      9  C   UNL     1       0.803   3.275   8.035  1.00  0.00     0.336 A 
ATOM     10  O   UNL     1       2.042   3.067   7.966  1.00  0.00    -0.246 OA
ATOM     11  O   UNL     1       0.351   4.517   8.191  1.00  0.00    -0.423 OA
ENDROOT
TORSDOF 0
ENDMDL
