MODEL 1
REMARK VINA RESULT:    -3.838      0.000      0.000
REMARK INTER + INTRA:          -5.980
REMARK INTER:                  -5.409
REMARK INTRA:                  -0.571
REMARK UNBOUND:                -0.571
REMARK SMILES CCCCCCCCC(=O)[O-]
REMARK SMILES IDX 6 1 7 2 8 3 9 4 10 5 11 6 5 7 4 8 3 9 2 10 1 11
REMARK H PARENT
REMARK Flexibility Score: inf
ROOT
ATOM      1  C   UNL     1      56.130  12.353  89.249  1.00  0.00     0.000 C 
ENDROOT
BRANCH   1   2
ATOM      2  C   UNL     1      57.007  11.479  88.330  1.00  0.00     0.006 C 
BRANCH   2   3
ATOM      3  C   UNL     1      58.437  11.243  88.845  1.00  0.00     0.053 C 
BRANCH   3   4
ATOM      4  C   UNL     1      58.446  10.645  90.217  1.00  0.00     0.041 C 
ATOM      5  O   UNL     1      58.067   9.457  90.393  1.00  0.00    -0.550 OA
ATOM      6  O   UNL     1      58.903  11.389  91.297  1.00  0.00    -0.550 OA
ENDBRANCH   3   4
ENDBRANCH   2   3
ENDBRANCH   1   2
BRANCH   1   7
ATOM      7  C   UNL     1      56.232  13.870  89.007  1.00  0.00     0.000 C 
BRANCH   7   8
ATOM      8  C   UNL     1      56.681  14.647  90.257  1.00  0.00    -0.000 C 
BRANCH   8   9
ATOM      9  C   UNL     1      58.212  14.695  90.414  1.00  0.00    -0.000 C 
BRANCH   9  10
ATOM     10  C   UNL     1      58.946  15.582  89.393  1.00  0.00    -0.003 C 
ATOM     11  C   UNL     1      59.641  16.783  90.032  1.00  0.00     0.004 C 
ENDBRANCH   9  10
ENDBRANCH   8   9
ENDBRANCH   7   8
ENDBRANCH   1   7
TORSDOF 7
ENDMDL
MODEL 2
REMARK VINA RESULT:    -3.817      2.629      4.266
REMARK INTER + INTRA:          -5.950
REMARK INTER:                  -5.481
REMARK INTRA:                  -0.469
REMARK UNBOUND:                -0.571
REMARK SMILES CCCCCCCCC(=O)[O-]
REMARK SMILES IDX 6 1 7 2 8 3 9 4 10 5 11 6 5 7 4 8 3 9 2 10 1 11
REMARK H PARENT
REMARK Flexibility Score: inf
ROOT
ATOM      1  C   UNL     1      57.877  11.218  88.825  1.00  0.00     0.000 C 
ENDROOT
BRANCH   1   2
ATOM      2  C   UNL     1      59.378  11.272  89.175  1.00  0.00     0.006 C 
BRANCH   2   3
ATOM      3  C   UNL     1      59.842  10.191  90.166  1.00  0.00     0.053 C 
BRANCH   3   4
ATOM      4  C   UNL     1      60.564  10.781  91.338  1.00  0.00     0.041 C 
ATOM      5  O   UNL     1      61.683  10.324  91.689  1.00  0.00    -0.550 OA
ATOM      6  O   UNL     1      60.014  11.857  92.024  1.00  0.00    -0.550 OA
ENDBRANCH   3   4
ENDBRANCH   2   3
ENDBRANCH   1   2
BRANCH   1   7
ATOM      7  C   UNL     1      57.029  12.377  89.382  1.00  0.00     0.000 C 
BRANCH   7   8
ATOM      8  C   UNL     1      56.710  12.221  90.879  1.00  0.00    -0.000 C 
BRANCH   8   9
ATOM      9  C   UNL     1      56.387  10.768  91.274  1.00  0.00    -0.000 C 
BRANCH   9  10
ATOM     10  C   UNL     1      55.538  10.611  92.548  1.00  0.00    -0.003 C 
ATOM     11  C   UNL     1      54.664   9.358  92.536  1.00  0.00     0.004 C 
ENDBRANCH   9  10
ENDBRANCH   8   9
ENDBRANCH   7   8
ENDBRANCH   1   7
TORSDOF 7
ENDMDL
MODEL 3
REMARK VINA RESULT:    -3.807      2.278      4.022
REMARK INTER + INTRA:          -5.935
REMARK INTER:                  -5.131
REMARK INTRA:                  -0.805
REMARK UNBOUND:                -0.571
REMARK SMILES CCCCCCCCC(=O)[O-]
REMARK SMILES IDX 6 1 7 2 8 3 9 4 10 5 11 6 5 7 4 8 3 9 2 10 1 11
REMARK H PARENT
REMARK Flexibility Score: inf
ROOT
ATOM      1  C   UNL     1      58.184  13.605  90.059  1.00  0.00     0.000 C 
ENDROOT
BRANCH   1   2
ATOM      2  C   UNL     1      57.820  13.860  91.535  1.00  0.00     0.006 C 
BRANCH   2   3
ATOM      3  C   UNL     1      58.138  12.692  92.483  1.00  0.00     0.053 C 
BRANCH   3   4
ATOM      4  C   UNL     1      56.896  11.998  92.952  1.00  0.00     0.041 C 
ATOM      5  O   UNL     1      56.373  11.093  92.250  1.00  0.00    -0.550 OA
ATOM      6  O   UNL     1      56.336  12.329  94.179  1.00  0.00    -0.550 OA
ENDBRANCH   3   4
ENDBRANCH   2   3
ENDBRANCH   1   2
BRANCH   1   7
ATOM      7  C   UNL     1      57.171  12.758  89.267  1.00  0.00     0.000 C 
BRANCH   7   8
ATOM      8  C   UNL     1      57.699  11.354  88.928  1.00  0.00    -0.000 C 
BRANCH   8   9
ATOM      9  C   UNL     1      59.205  11.197  89.208  1.00  0.00    -0.000 C 
BRANCH   9  10
ATOM     10  C   UNL     1      59.565  10.154  90.281  1.00  0.00    -0.003 C 
ATOM     11  C   UNL     1      60.833  10.505  91.057  1.00  0.00     0.004 C 
ENDBRANCH   9  10
ENDBRANCH   8   9
ENDBRANCH   7   8
ENDBRANCH   1   7
TORSDOF 7
ENDMDL
MODEL 4
REMARK VINA RESULT:    -3.802      2.617      4.230
REMARK INTER + INTRA:          -5.928
REMARK INTER:                  -5.293
REMARK INTRA:                  -0.635
REMARK UNBOUND:                -0.571
REMARK SMILES CCCCCCCCC(=O)[O-]
REMARK SMILES IDX 6 1 7 2 8 3 9 4 10 5 11 6 5 7 4 8 3 9 2 10 1 11
REMARK H PARENT
REMARK Flexibility Score: inf
ROOT
ATOM      1  C   UNL     1      56.202  13.672  90.977  1.00  0.00     0.000 C 
ENDROOT
BRANCH   1   2
ATOM      2  C   UNL     1      56.240  12.418  91.874  1.00  0.00     0.006 C 
BRANCH   2   3
ATOM      3  C   UNL     1      54.884  11.714  92.047  1.00  0.00     0.053 C 
BRANCH   3   4
ATOM      4  C   UNL     1      54.992  10.499  92.917  1.00  0.00     0.041 C 
ATOM      5  O   UNL     1      55.143  10.623  94.161  1.00  0.00    -0.550 OA
ATOM      6  O   UNL     1      54.893   9.232  92.358  1.00  0.00    -0.550 OA
ENDBRANCH   3   4
ENDBRANCH   2   3
ENDBRANCH   1   2
BRANCH   1   7
ATOM      7  C   UNL     1      56.946  13.546  89.635  1.00  0.00     0.000 C 
BRANCH   7   8
ATOM      8  C   UNL     1      56.234  12.613  88.640  1.00  0.00    -0.000 C 
BRANCH   8   9
ATOM      9  C   UNL     1      57.009  11.307  88.383  1.00  0.00    -0.000 C 
BRANCH   9  10
ATOM     10  C   UNL     1      58.409  11.243  89.019  1.00  0.00    -0.003 C 
ATOM     11  C   UNL     1      58.547  10.127  90.053  1.00  0.00     0.004 C 
ENDBRANCH   9  10
ENDBRANCH   8   9
ENDBRANCH   7   8
ENDBRANCH   1   7
TORSDOF 7
ENDMDL
MODEL 5
REMARK VINA RESULT:    -3.800      3.178      4.332
REMARK INTER + INTRA:          -5.925
REMARK INTER:                  -5.428
REMARK INTRA:                  -0.497
REMARK UNBOUND:                -0.571
REMARK SMILES CCCCCCCCC(=O)[O-]
REMARK SMILES IDX 6 1 7 2 8 3 9 4 10 5 11 6 5 7 4 8 3 9 2 10 1 11
REMARK H PARENT
REMARK Flexibility Score: inf
ROOT
ATOM      1  C   UNL     1      56.949   9.796  90.510  1.00  0.00     0.000 C 
ENDROOT
BRANCH   1   2
ATOM      2  C   UNL     1      56.251  10.509  91.685  1.00  0.00     0.006 C 
BRANCH   2   3
ATOM      3  C   UNL     1      55.056   9.744  92.278  1.00  0.00     0.053 C 
BRANCH   3   4
ATOM      4  C   UNL     1      54.916   9.981  93.751  1.00  0.00     0.041 C 
ATOM      5  O   UNL     1      55.408  11.014  94.276  1.00  0.00    -0.550 OA
ATOM      6  O   UNL     1      54.214   9.077  94.536  1.00  0.00    -0.550 OA
ENDBRANCH   3   4
ENDBRANCH   2   3
ENDBRANCH   1   2
BRANCH   1   7
ATOM      7  C   UNL     1      58.387  10.261  90.217  1.00  0.00     0.000 C 
BRANCH   7   8
ATOM      8  C   UNL     1      58.449  11.409  89.194  1.00  0.00    -0.000 C 
BRANCH   8   9
ATOM      9  C   UNL     1      58.492  12.799  89.856  1.00  0.00    -0.000 C 
BRANCH   9  10
ATOM     10  C   UNL     1      57.348  13.748  89.456  1.00  0.00    -0.003 C 
ATOM     11  C   UNL     1      56.120  13.014  88.919  1.00  0.00     0.004 C 
ENDBRANCH   9  10
ENDBRANCH   8   9
ENDBRANCH   7   8
ENDBRANCH   1   7
TORSDOF 7
ENDMDL
MODEL 6
REMARK VINA RESULT:    -3.765      2.876      4.849
REMARK INTER + INTRA:          -5.876
REMARK INTER:                  -5.304
REMARK INTRA:                  -0.572
REMARK UNBOUND:                -0.571
REMARK SMILES CCCCCCCCC(=O)[O-]
REMARK SMILES IDX 6 1 7 2 8 3 9 4 10 5 11 6 5 7 4 8 3 9 2 10 1 11
REMARK H PARENT
REMARK Flexibility Score: inf
ROOT
ATOM      1  C   UNL     1      56.718  13.615  90.087  1.00  0.00     0.000 C 
ENDROOT
BRANCH   1   2
ATOM      2  C   UNL     1      58.197  14.046  90.019  1.00  0.00     0.006 C 
BRANCH   2   3
ATOM      3  C   UNL     1      58.442  15.384  89.302  1.00  0.00     0.053 C 
BRANCH   3   4
ATOM      4  C   UNL     1      58.795  16.477  90.264  1.00  0.00     0.041 C 
ATOM      5  O   UNL     1      59.858  17.134  90.113  1.00  0.00    -0.550 OA
ATOM      6  O   UNL     1      57.933  16.790  91.306  1.00  0.00    -0.550 OA
ENDBRANCH   3   4
ENDBRANCH   2   3
ENDBRANCH   1   2
BRANCH   1   7
ATOM      7  C   UNL     1      56.307  12.510  89.098  1.00  0.00     0.000 C 
BRANCH   7   8
ATOM      8  C   UNL     1      57.474  11.581  88.720  1.00  0.00    -0.000 C 
BRANCH   8   9
ATOM      9  C   UNL     1      57.537  10.313  89.592  1.00  0.00    -0.000 C 
BRANCH   9  10
ATOM     10  C   UNL     1      58.793  10.189  90.473  1.00  0.00    -0.003 C 
ATOM     11  C   UNL     1      60.046  10.763  89.814  1.00  0.00     0.004 C 
ENDBRANCH   9  10
ENDBRANCH   8   9
ENDBRANCH   7   8
ENDBRANCH   1   7
TORSDOF 7
ENDMDL
MODEL 7
REMARK VINA RESULT:    -3.727     10.549     11.675
REMARK INTER + INTRA:          -5.823
REMARK INTER:                  -5.324
REMARK INTRA:                  -0.499
REMARK UNBOUND:                -0.571
REMARK SMILES CCCCCCCCC(=O)[O-]
REMARK SMILES IDX 6 1 7 2 8 3 9 4 10 5 11 6 5 7 4 8 3 9 2 10 1 11
REMARK H PARENT
REMARK Flexibility Score: inf
ROOT
ATOM      1  C   UNL     1      47.004  15.891  94.892  1.00  0.00     0.000 C 
ENDROOT
BRANCH   1   2
ATOM      2  C   UNL     1      47.647  14.640  95.524  1.00  0.00     0.006 C 
BRANCH   2   3
ATOM      3  C   UNL     1      46.647  13.553  95.951  1.00  0.00     0.053 C 
BRANCH   3   4
ATOM      4  C   UNL     1      46.487  12.496  94.903  1.00  0.00     0.041 C 
ATOM      5  O   UNL     1      46.545  11.278  95.216  1.00  0.00    -0.550 OA
ATOM      6  O   UNL     1      46.242  12.857  93.584  1.00  0.00    -0.550 OA
ENDBRANCH   3   4
ENDBRANCH   2   3
ENDBRANCH   1   2
BRANCH   1   7
ATOM      7  C   UNL     1      47.989  16.997  94.472  1.00  0.00     0.000 C 
BRANCH   7   8
ATOM      8  C   UNL     1      49.344  16.444  93.996  1.00  0.00    -0.000 C 
BRANCH   8   9
ATOM      9  C   UNL     1      50.529  16.963  94.831  1.00  0.00    -0.000 C 
BRANCH   9  10
ATOM     10  C   UNL     1      50.143  17.735  96.105  1.00  0.00    -0.003 C 
ATOM     11  C   UNL     1      50.213  16.880  97.369  1.00  0.00     0.004 C 
ENDBRANCH   9  10
ENDBRANCH   8   9
ENDBRANCH   7   8
ENDBRANCH   1   7
TORSDOF 7
ENDMDL
MODEL 8
REMARK VINA RESULT:    -3.727      1.444      2.512
REMARK INTER + INTRA:          -5.822
REMARK INTER:                  -5.257
REMARK INTRA:                  -0.565
REMARK UNBOUND:                -0.571
REMARK SMILES CCCCCCCCC(=O)[O-]
REMARK SMILES IDX 6 1 7 2 8 3 9 4 10 5 11 6 5 7 4 8 3 9 2 10 1 11
REMARK H PARENT
REMARK Flexibility Score: inf
ROOT
ATOM      1  C   UNL     1      58.154  11.226  88.748  1.00  0.00     0.000 C 
ENDROOT
BRANCH   1   2
ATOM      2  C   UNL     1      58.423  10.405  90.026  1.00  0.00     0.006 C 
BRANCH   2   3
ATOM      3  C   UNL     1      59.911  10.165  90.330  1.00  0.00     0.053 C 
BRANCH   3   4
ATOM      4  C   UNL     1      60.403  11.038  91.443  1.00  0.00     0.041 C 
ATOM      5  O   UNL     1      61.554  10.867  91.922  1.00  0.00    -0.550 OA
ATOM      6  O   UNL     1      59.600  12.062  91.930  1.00  0.00    -0.550 OA
ENDBRANCH   3   4
ENDBRANCH   2   3
ENDBRANCH   1   2
BRANCH   1   7
ATOM      7  C   UNL     1      56.672  11.525  88.458  1.00  0.00     0.000 C 
BRANCH   7   8
ATOM      8  C   UNL     1      56.295  12.994  88.719  1.00  0.00    -0.000 C 
BRANCH   8   9
ATOM      9  C   UNL     1      56.244  13.342  90.218  1.00  0.00    -0.000 C 
BRANCH   9  10
ATOM     10  C   UNL     1      57.182  14.480  90.657  1.00  0.00    -0.003 C 
ATOM     11  C   UNL     1      58.267  14.793  89.628  1.00  0.00     0.004 C 
ENDBRANCH   9  10
ENDBRANCH   8   9
ENDBRANCH   7   8
ENDBRANCH   1   7
TORSDOF 7
ENDMDL
MODEL 9
REMARK VINA RESULT:    -3.664     15.541     17.407
REMARK INTER + INTRA:          -5.734
REMARK INTER:                  -5.272
REMARK INTRA:                  -0.462
REMARK UNBOUND:                -0.571
REMARK SMILES CCCCCCCCC(=O)[O-]
REMARK SMILES IDX 6 1 7 2 8 3 9 4 10 5 11 6 5 7 4 8 3 9 2 10 1 11
REMARK H PARENT
REMARK Flexibility Score: inf
ROOT
ATOM      1  C   UNL     1      60.258   4.856 104.379  1.00  0.00     0.000 C 
ENDROOT
BRANCH   1   2
ATOM      2  C   UNL     1      61.164   6.101 104.278  1.00  0.00     0.006 C 
BRANCH   2   3
ATOM      3  C   UNL     1      61.187   6.765 102.892  1.00  0.00     0.053 C 
BRANCH   3   4
ATOM      4  C   UNL     1      60.332   7.994 102.846  1.00  0.00     0.041 C 
ATOM      5  O   UNL     1      60.737   9.026 102.250  1.00  0.00    -0.550 OA
ATOM      6  O   UNL     1      59.074   7.987 103.434  1.00  0.00    -0.550 OA
ENDBRANCH   3   4
ENDBRANCH   2   3
ENDBRANCH   1   2
BRANCH   1   7
ATOM      7  C   UNL     1      60.847   3.675 105.172  1.00  0.00     0.000 C 
BRANCH   7   8
ATOM      8  C   UNL     1      62.030   4.084 106.065  1.00  0.00    -0.000 C 
BRANCH   8   9
ATOM      9  C   UNL     1      63.204   3.089 105.998  1.00  0.00    -0.000 C 
BRANCH   9  10
ATOM     10  C   UNL     1      64.604   3.727 106.040  1.00  0.00    -0.003 C 
ATOM     11  C   UNL     1      64.623   5.165 105.526  1.00  0.00     0.004 C 
ENDBRANCH   9  10
ENDBRANCH   8   9
ENDBRANCH   7   8
ENDBRANCH   1   7
TORSDOF 7
ENDMDL
