MODEL 1
REMARK VINA RESULT:    -5.492      0.000      0.000
REMARK INTER + INTRA:          -7.554
REMARK INTER:                  -7.258
REMARK INTRA:                  -0.296
REMARK UNBOUND:                -0.296
REMARK SMILES CC[C@@H](C=C[C@H](C)[C@@H]1CC[C@H]2[C@@H]3CC=C4C[C@@H](O)CC[C@@]4(C)[C@H]3CC[C@]21C)C(C)C
REMARK SMILES IDX 6 1 7 2 5 3 4 4 3 5 2 6 1 7 28 8 29 9 30 10 8 11 9 12 26 13
REMARK SMILES IDX 10 14 11 15 25 16 27 17 12 18 24 19 23 20 13 21 21 22 14 23
REMARK SMILES IDX 15 24 20 25 22 26 16 27 19 28 17 29 18 30
REMARK H PARENT 18 31
REMARK Flexibility Score: inf
ROOT
ATOM      1  C   UNL     1      39.556   1.823  -8.481  1.00  0.00     0.012 C 
ATOM      2  C   UNL     1      39.118   0.556  -9.240  1.00  0.00     0.012 C 
ENDROOT
BRANCH   1   3
ATOM      3  C   UNL     1      41.031   1.740  -8.121  1.00  0.00    -0.028 C 
ATOM      4  C   UNL     1      41.620   2.507  -7.185  1.00  0.00    -0.027 C 
BRANCH   4   5
ATOM      5  C   UNL     1      43.063   2.284  -6.772  1.00  0.00     0.014 C 
BRANCH   5   6
ATOM      6  C   UNL     1      43.893   1.951  -8.048  1.00  0.00     0.004 C 
ATOM      7  C   UNL     1      44.048   3.160  -8.973  1.00  0.00     0.004 C 
ENDBRANCH   5   6
BRANCH   5   8
ATOM      8  C   UNL     1      43.144   1.175  -5.677  1.00  0.00    -0.011 C 
ATOM      9  C   UNL     1      43.112  -0.232  -6.311  1.00  0.00     0.008 C 
ATOM     10  C   UNL     1      41.998   1.279  -4.646  1.00  0.00     0.008 C 
ENDBRANCH   5   8
ENDBRANCH   4   5
ENDBRANCH   1   3
BRANCH   1  11
ATOM     11  C   UNL     1      39.100   3.139  -9.220  1.00  0.00     0.002 C 
ATOM     12  C   UNL     1      37.584   3.315  -9.343  1.00  0.00     0.005 C 
ATOM     13  C   UNL     1      39.650   3.409 -10.652  1.00  0.00    -0.026 C 
ATOM     14  C   UNL     1      37.356   4.340 -10.448  1.00  0.00     0.005 C 
ATOM     15  C   UNL     1      38.694   4.522 -11.207  1.00  0.00    -0.001 C 
ATOM     16  C   UNL     1      41.155   3.810 -10.649  1.00  0.00     0.007 C 
ATOM     17  C   UNL     1      39.521   2.151 -11.569  1.00  0.00     0.012 C 
ATOM     18  C   UNL     1      39.170   6.016 -11.081  1.00  0.00     0.000 C 
ATOM     19  C   UNL     1      41.414   5.273 -10.299  1.00  0.00     0.005 C 
ATOM     20  C   UNL     1      40.681   6.196 -11.294  1.00  0.00     0.003 C 
ATOM     21  C   UNL     1      38.404   6.867 -12.120  1.00  0.00     0.031 C 
ATOM     22  C   UNL     1      41.146   7.711 -11.217  1.00  0.00    -0.008 C 
ATOM     23  C   UNL     1      38.847   8.293 -12.125  1.00  0.00    -0.027 C 
ATOM     24  C   UNL     1      40.100   8.673 -11.811  1.00  0.00    -0.065 C 
ATOM     25  C   UNL     1      41.402   8.169  -9.744  1.00  0.00     0.014 C 
ATOM     26  C   UNL     1      42.449   7.844 -12.048  1.00  0.00     0.016 C 
ATOM     27  C   UNL     1      40.395  10.156 -11.734  1.00  0.00     0.063 C 
ATOM     28  C   UNL     1      41.660   9.690  -9.590  1.00  0.00     0.033 C 
ATOM     29  C   UNL     1      40.575  10.553 -10.263  1.00  0.00     0.118 C 
BRANCH  29  30
ATOM     30  O   UNL     1      39.360  10.404  -9.571  1.00  0.00    -0.393 OA
ATOM     31  H   UNL     1      38.633  10.558 -10.227  1.00  0.00     0.210 HD
ENDBRANCH  29  30
ENDBRANCH   1  11
TORSDOF 6
ENDMDL
MODEL 2
REMARK VINA RESULT:    -5.291     13.496     16.866
REMARK INTER + INTRA:          -7.288
REMARK INTER:                  -6.664
REMARK INTRA:                  -0.624
REMARK UNBOUND:                -0.296
REMARK SMILES CC[C@@H](C=C[C@H](C)[C@@H]1CC[C@H]2[C@@H]3CC=C4C[C@@H](O)CC[C@@]4(C)[C@H]3CC[C@]21C)C(C)C
REMARK SMILES IDX 6 1 7 2 5 3 4 4 3 5 2 6 1 7 28 8 29 9 30 10 8 11 9 12 26 13
REMARK SMILES IDX 10 14 11 15 25 16 27 17 12 18 24 19 23 20 13 21 21 22 14 23
REMARK SMILES IDX 15 24 20 25 22 26 16 27 19 28 17 29 18 30
REMARK H PARENT 18 31
REMARK Flexibility Score: inf
ROOT
ATOM      1  C   UNL     1      41.536  11.055   4.707  1.00  0.00     0.012 C 
ATOM      2  C   UNL     1      42.414   9.908   5.246  1.00  0.00     0.012 C 
ENDROOT
BRANCH   1   3
ATOM      3  C   UNL     1      41.814  11.285   3.231  1.00  0.00    -0.028 C 
ATOM      4  C   UNL     1      41.559  10.378   2.269  1.00  0.00    -0.027 C 
BRANCH   4   5
ATOM      5  C   UNL     1      41.727  10.716   0.799  1.00  0.00     0.014 C 
BRANCH   5   6
ATOM      6  C   UNL     1      41.111  12.125   0.545  1.00  0.00     0.004 C 
ATOM      7  C   UNL     1      39.585  12.120   0.655  1.00  0.00     0.004 C 
ENDBRANCH   5   6
BRANCH   5   8
ATOM      8  C   UNL     1      41.094   9.597  -0.086  1.00  0.00    -0.011 C 
ATOM      9  C   UNL     1      41.177   8.224   0.615  1.00  0.00     0.008 C 
ATOM     10  C   UNL     1      41.769   9.487  -1.471  1.00  0.00     0.008 C 
ENDBRANCH   5   8
ENDBRANCH   4   5
ENDBRANCH   1   3
BRANCH   1  11
ATOM     11  C   UNL     1      40.021  10.871   5.104  1.00  0.00     0.002 C 
ATOM     12  C   UNL     1      39.118  12.060   4.763  1.00  0.00     0.005 C 
ATOM     13  C   UNL     1      39.683  10.525   6.585  1.00  0.00    -0.026 C 
ATOM     14  C   UNL     1      37.860  11.904   5.610  1.00  0.00     0.005 C 
ATOM     15  C   UNL     1      38.147  10.831   6.689  1.00  0.00    -0.001 C 
ATOM     16  C   UNL     1      40.065   9.063   6.959  1.00  0.00     0.007 C 
ATOM     17  C   UNL     1      40.437  11.459   7.584  1.00  0.00     0.012 C 
ATOM     18  C   UNL     1      37.154   9.625   6.508  1.00  0.00     0.000 C 
ATOM     19  C   UNL     1      39.053   8.014   6.508  1.00  0.00     0.005 C 
ATOM     20  C   UNL     1      37.669   8.312   7.120  1.00  0.00     0.003 C 
ATOM     21  C   UNL     1      35.803   9.996   7.162  1.00  0.00     0.031 C 
ATOM     22  C   UNL     1      36.639   7.113   6.979  1.00  0.00    -0.008 C 
ATOM     23  C   UNL     1      34.817   8.877   7.105  1.00  0.00    -0.027 C 
ATOM     24  C   UNL     1      35.178   7.579   7.115  1.00  0.00    -0.065 C 
ATOM     25  C   UNL     1      36.762   6.398   5.594  1.00  0.00     0.014 C 
ATOM     26  C   UNL     1      36.932   6.108   8.123  1.00  0.00     0.016 C 
ATOM     27  C   UNL     1      34.094   6.539   6.930  1.00  0.00     0.063 C 
ATOM     28  C   UNL     1      35.649   5.354   5.321  1.00  0.00     0.033 C 
ATOM     29  C   UNL     1      34.231   5.918   5.534  1.00  0.00     0.118 C 
BRANCH  29  30
ATOM     30  O   UNL     1      33.957   6.884   4.548  1.00  0.00    -0.393 OA
ATOM     31  H   UNL     1      34.775   7.434   4.446  1.00  0.00     0.210 HD
ENDBRANCH  29  30
ENDBRANCH   1  11
TORSDOF 6
ENDMDL
MODEL 3
REMARK VINA RESULT:    -4.953     14.331     17.578
REMARK INTER + INTRA:          -6.842
REMARK INTER:                  -6.678
REMARK INTRA:                  -0.164
REMARK UNBOUND:                -0.296
REMARK SMILES CC[C@@H](C=C[C@H](C)[C@@H]1CC[C@H]2[C@@H]3CC=C4C[C@@H](O)CC[C@@]4(C)[C@H]3CC[C@]21C)C(C)C
REMARK SMILES IDX 6 1 7 2 5 3 4 4 3 5 2 6 1 7 28 8 29 9 30 10 8 11 9 12 26 13
REMARK SMILES IDX 10 14 11 15 25 16 27 17 12 18 24 19 23 20 13 21 21 22 14 23
REMARK SMILES IDX 15 24 20 25 22 26 16 27 19 28 17 29 18 30
REMARK H PARENT 18 31
REMARK Flexibility Score: inf
ROOT
ATOM      1  C   UNL     1      34.039   7.387   4.608  1.00  0.00     0.012 C 
ATOM      2  C   UNL     1      32.825   6.917   5.433  1.00  0.00     0.012 C 
ENDROOT
BRANCH   1   3
ATOM      3  C   UNL     1      33.874   8.844   4.207  1.00  0.00    -0.028 C 
ATOM      4  C   UNL     1      34.815   9.556   3.560  1.00  0.00    -0.027 C 
BRANCH   4   5
ATOM      5  C   UNL     1      34.541  10.963   3.064  1.00  0.00     0.014 C 
BRANCH   5   6
ATOM      6  C   UNL     1      34.005  11.809   4.258  1.00  0.00     0.004 C 
ATOM      7  C   UNL     1      35.086  12.081   5.308  1.00  0.00     0.004 C 
ENDBRANCH   5   6
BRANCH   5   8
ATOM      8  C   UNL     1      33.564  10.925   1.847  1.00  0.00    -0.011 C 
ATOM      9  C   UNL     1      32.106  11.147   2.303  1.00  0.00     0.008 C 
ATOM     10  C   UNL     1      33.642   9.593   1.069  1.00  0.00     0.008 C 
ENDBRANCH   5   8
ENDBRANCH   4   5
ENDBRANCH   1   3
BRANCH   1  11
ATOM     11  C   UNL     1      35.403   7.013   5.305  1.00  0.00     0.002 C 
ATOM     12  C   UNL     1      35.696   5.512   5.381  1.00  0.00     0.005 C 
ATOM     13  C   UNL     1      35.664   7.544   6.746  1.00  0.00    -0.026 C 
ATOM     14  C   UNL     1      36.762   5.334   6.457  1.00  0.00     0.005 C 
ATOM     15  C   UNL     1      36.860   6.661   7.249  1.00  0.00    -0.001 C 
ATOM     16  C   UNL     1      35.950   9.074   6.777  1.00  0.00     0.007 C 
ATOM     17  C   UNL     1      34.442   7.294   7.686  1.00  0.00     0.012 C 
ATOM     18  C   UNL     1      38.310   7.254   7.104  1.00  0.00     0.000 C 
ATOM     19  C   UNL     1      37.380   9.454   6.404  1.00  0.00     0.005 C 
ATOM     20  C   UNL     1      38.379   8.768   7.356  1.00  0.00     0.003 C 
ATOM     21  C   UNL     1      39.241   6.528   8.102  1.00  0.00     0.031 C 
ATOM     22  C   UNL     1      39.852   9.349   7.260  1.00  0.00    -0.008 C 
ATOM     23  C   UNL     1      40.629   7.078   8.089  1.00  0.00    -0.027 C 
ATOM     24  C   UNL     1      40.905   8.365   7.803  1.00  0.00    -0.065 C 
ATOM     25  C   UNL     1      40.254   9.679   5.786  1.00  0.00     0.014 C 
ATOM     26  C   UNL     1      39.905  10.636   8.125  1.00  0.00     0.016 C 
ATOM     27  C   UNL     1      42.359   8.774   7.703  1.00  0.00     0.063 C 
ATOM     28  C   UNL     1      41.747  10.057   5.606  1.00  0.00     0.033 C 
ATOM     29  C   UNL     1      42.706   9.024   6.229  1.00  0.00     0.118 C 
BRANCH  29  30
ATOM     30  O   UNL     1      42.634   7.820   5.506  1.00  0.00    -0.393 OA
ATOM     31  H   UNL     1      43.563   7.564   5.276  1.00  0.00     0.210 HD
ENDBRANCH  29  30
ENDBRANCH   1  11
TORSDOF 6
ENDMDL
MODEL 4
REMARK VINA RESULT:    -4.846     12.730     16.056
REMARK INTER + INTRA:          -6.701
REMARK INTER:                  -7.129
REMARK INTRA:                   0.428
REMARK UNBOUND:                -0.296
REMARK SMILES CC[C@@H](C=C[C@H](C)[C@@H]1CC[C@H]2[C@@H]3CC=C4C[C@@H](O)CC[C@@]4(C)[C@H]3CC[C@]21C)C(C)C
REMARK SMILES IDX 6 1 7 2 5 3 4 4 3 5 2 6 1 7 28 8 29 9 30 10 8 11 9 12 26 13
REMARK SMILES IDX 10 14 11 15 25 16 27 17 12 18 24 19 23 20 13 21 21 22 14 23
REMARK SMILES IDX 15 24 20 25 22 26 16 27 19 28 17 29 18 30
REMARK H PARENT 18 31
REMARK Flexibility Score: inf
ROOT
ATOM      1  C   UNL     1      40.890  10.965   2.712  1.00  0.00     0.012 C 
ATOM      2  C   UNL     1      42.270  11.345   3.284  1.00  0.00     0.012 C 
ENDROOT
BRANCH   1   3
ATOM      3  C   UNL     1      41.019   9.795   1.750  1.00  0.00    -0.028 C 
ATOM      4  C   UNL     1      40.722   9.864   0.439  1.00  0.00    -0.027 C 
BRANCH   4   5
ATOM      5  C   UNL     1      41.003   8.704  -0.498  1.00  0.00     0.014 C 
BRANCH   5   6
ATOM      6  C   UNL     1      41.878   7.661   0.261  1.00  0.00     0.004 C 
ATOM      7  C   UNL     1      41.068   6.856   1.280  1.00  0.00     0.004 C 
ENDBRANCH   5   6
BRANCH   5   8
ATOM      8  C   UNL     1      41.664   9.223  -1.814  1.00  0.00    -0.011 C 
ATOM      9  C   UNL     1      40.760   8.943  -3.033  1.00  0.00     0.008 C 
ATOM     10  C   UNL     1      43.049   8.590  -2.068  1.00  0.00     0.008 C 
ENDBRANCH   5   8
ENDBRANCH   4   5
ENDBRANCH   1   3
BRANCH   1  11
ATOM     11  C   UNL     1      39.807  10.807   3.847  1.00  0.00     0.002 C 
ATOM     12  C   UNL     1      39.269  12.125   4.411  1.00  0.00     0.005 C 
ATOM     13  C   UNL     1      40.171   9.957   5.101  1.00  0.00    -0.026 C 
ATOM     14  C   UNL     1      38.629  11.792   5.754  1.00  0.00     0.005 C 
ATOM     15  C   UNL     1      39.075  10.363   6.148  1.00  0.00    -0.001 C 
ATOM     16  C   UNL     1      40.222   8.432   4.795  1.00  0.00     0.007 C 
ATOM     17  C   UNL     1      41.569  10.348   5.679  1.00  0.00     0.012 C 
ATOM     18  C   UNL     1      37.812   9.433   6.272  1.00  0.00     0.000 C 
ATOM     19  C   UNL     1      38.855   7.752   4.761  1.00  0.00     0.005 C 
ATOM     20  C   UNL     1      38.134   7.940   6.111  1.00  0.00     0.003 C 
ATOM     21  C   UNL     1      37.161   9.668   7.654  1.00  0.00     0.031 C 
ATOM     22  C   UNL     1      36.864   7.005   6.289  1.00  0.00    -0.008 C 
ATOM     23  C   UNL     1      35.992   8.770   7.893  1.00  0.00    -0.027 C 
ATOM     24  C   UNL     1      35.893   7.538   7.359  1.00  0.00    -0.065 C 
ATOM     25  C   UNL     1      36.049   6.868   4.962  1.00  0.00     0.014 C 
ATOM     26  C   UNL     1      37.369   5.612   6.748  1.00  0.00     0.016 C 
ATOM     27  C   UNL     1      34.606   6.772   7.575  1.00  0.00     0.063 C 
ATOM     28  C   UNL     1      34.693   6.136   5.125  1.00  0.00     0.033 C 
ATOM     29  C   UNL     1      33.826   6.725   6.255  1.00  0.00     0.118 C 
BRANCH  29  30
ATOM     30  O   UNL     1      33.404   8.019   5.898  1.00  0.00    -0.393 OA
ATOM     31  H   UNL     1      33.314   8.536   6.739  1.00  0.00     0.210 HD
ENDBRANCH  29  30
ENDBRANCH   1  11
TORSDOF 6
ENDMDL
MODEL 5
REMARK VINA RESULT:    -4.527      2.543      8.209
REMARK INTER + INTRA:          -6.280
REMARK INTER:                  -5.584
REMARK INTRA:                  -0.696
REMARK UNBOUND:                -0.296
REMARK SMILES CC[C@@H](C=C[C@H](C)[C@@H]1CC[C@H]2[C@@H]3CC=C4C[C@@H](O)CC[C@@]4(C)[C@H]3CC[C@]21C)C(C)C
REMARK SMILES IDX 6 1 7 2 5 3 4 4 3 5 2 6 1 7 28 8 29 9 30 10 8 11 9 12 26 13
REMARK SMILES IDX 10 14 11 15 25 16 27 17 12 18 24 19 23 20 13 21 21 22 14 23
REMARK SMILES IDX 15 24 20 25 22 26 16 27 19 28 17 29 18 30
REMARK H PARENT 18 31
REMARK Flexibility Score: inf
ROOT
ATOM      1  C   UNL     1      39.808   8.190  -9.364  1.00  0.00     0.012 C 
ATOM      2  C   UNL     1      39.345   8.738  -8.000  1.00  0.00     0.012 C 
ENDROOT
BRANCH   1   3
ATOM      3  C   UNL     1      40.103   9.334 -10.321  1.00  0.00    -0.028 C 
ATOM      4  C   UNL     1      40.357  10.596  -9.928  1.00  0.00    -0.027 C 
BRANCH   4   5
ATOM      5  C   UNL     1      40.781  11.663 -10.920  1.00  0.00     0.014 C 
BRANCH   5   6
ATOM      6  C   UNL     1      39.793  11.633 -12.125  1.00  0.00     0.004 C 
ATOM      7  C   UNL     1      38.336  11.793 -11.686  1.00  0.00     0.004 C 
ENDBRANCH   5   6
BRANCH   5   8
ATOM      8  C   UNL     1      42.270  11.450 -11.337  1.00  0.00    -0.011 C 
ATOM      9  C   UNL     1      42.443  10.127 -12.112  1.00  0.00     0.008 C 
ATOM     10  C   UNL     1      43.227  11.442 -10.124  1.00  0.00     0.008 C 
ENDBRANCH   5   8
ENDBRANCH   4   5
ENDBRANCH   1   3
BRANCH   1  11
ATOM     11  C   UNL     1      40.948   7.112  -9.207  1.00  0.00     0.002 C 
ATOM     12  C   UNL     1      42.368   7.638  -9.430  1.00  0.00     0.005 C 
ATOM     13  C   UNL     1      40.863   5.817 -10.070  1.00  0.00    -0.026 C 
ATOM     14  C   UNL     1      43.244   6.420  -9.698  1.00  0.00     0.005 C 
ATOM     15  C   UNL     1      42.309   5.216  -9.969  1.00  0.00    -0.001 C 
ATOM     16  C   UNL     1      39.741   4.851  -9.589  1.00  0.00     0.007 C 
ATOM     17  C   UNL     1      40.570   6.140 -11.569  1.00  0.00     0.012 C 
ATOM     18  C   UNL     1      42.558   4.103  -8.886  1.00  0.00     0.000 C 
ATOM     19  C   UNL     1      40.121   3.994  -8.385  1.00  0.00     0.005 C 
ATOM     20  C   UNL     1      41.368   3.147  -8.708  1.00  0.00     0.003 C 
ATOM     21  C   UNL     1      43.809   3.290  -9.293  1.00  0.00     0.031 C 
ATOM     22  C   UNL     1      41.646   1.996  -7.653  1.00  0.00    -0.008 C 
ATOM     23  C   UNL     1      44.080   2.158  -8.358  1.00  0.00    -0.027 C 
ATOM     24  C   UNL     1      43.107   1.511  -7.689  1.00  0.00    -0.065 C 
ATOM     25  C   UNL     1      41.358   2.464  -6.189  1.00  0.00     0.014 C 
ATOM     26  C   UNL     1      40.732   0.796  -8.016  1.00  0.00     0.016 C 
ATOM     27  C   UNL     1      43.518   0.460  -6.679  1.00  0.00     0.063 C 
ATOM     28  C   UNL     1      41.803   1.453  -5.102  1.00  0.00     0.033 C 
ATOM     29  C   UNL     1      43.268   1.002  -5.265  1.00  0.00     0.118 C 
BRANCH  29  30
ATOM     30  O   UNL     1      44.125   2.087  -5.006  1.00  0.00    -0.393 OA
ATOM     31  H   UNL     1      43.959   2.370  -4.071  1.00  0.00     0.210 HD
ENDBRANCH  29  30
ENDBRANCH   1  11
TORSDOF 6
ENDMDL
MODEL 6
REMARK VINA RESULT:    -4.383     12.059     14.621
REMARK INTER + INTRA:          -6.089
REMARK INTER:                  -5.473
REMARK INTRA:                  -0.616
REMARK UNBOUND:                -0.296
REMARK SMILES CC[C@@H](C=C[C@H](C)[C@@H]1CC[C@H]2[C@@H]3CC=C4C[C@@H](O)CC[C@@]4(C)[C@H]3CC[C@]21C)C(C)C
REMARK SMILES IDX 6 1 7 2 5 3 4 4 3 5 2 6 1 7 28 8 29 9 30 10 8 11 9 12 26 13
REMARK SMILES IDX 10 14 11 15 25 16 27 17 12 18 24 19 23 20 13 21 21 22 14 23
REMARK SMILES IDX 15 24 20 25 22 26 16 27 19 28 17 29 18 30
REMARK H PARENT 18 31
REMARK Flexibility Score: inf
ROOT
ATOM      1  C   UNL     1      41.412   7.883   1.872  1.00  0.00     0.012 C 
ATOM      2  C   UNL     1      40.730   6.502   1.915  1.00  0.00     0.012 C 
ENDROOT
BRANCH   1   3
ATOM      3  C   UNL     1      41.900   8.189   0.465  1.00  0.00    -0.028 C 
ATOM      4  C   UNL     1      41.251   7.813  -0.653  1.00  0.00    -0.027 C 
BRANCH   4   5
ATOM      5  C   UNL     1      41.712   8.266  -2.026  1.00  0.00     0.014 C 
BRANCH   5   6
ATOM      6  C   UNL     1      43.246   8.536  -1.964  1.00  0.00     0.004 C 
ATOM      7  C   UNL     1      43.810   8.991  -3.312  1.00  0.00     0.004 C 
ENDBRANCH   5   6
BRANCH   5   8
ATOM      8  C   UNL     1      40.885   9.506  -2.489  1.00  0.00    -0.011 C 
ATOM      9  C   UNL     1      40.374  10.314  -1.277  1.00  0.00     0.008 C 
ATOM     10  C   UNL     1      39.677   9.115  -3.368  1.00  0.00     0.008 C 
ENDBRANCH   5   8
ENDBRANCH   4   5
ENDBRANCH   1   3
BRANCH   1  11
ATOM     11  C   UNL     1      40.527   8.997   2.552  1.00  0.00     0.002 C 
ATOM     12  C   UNL     1      41.053  10.425   2.389  1.00  0.00     0.005 C 
ATOM     13  C   UNL     1      40.209   8.860   4.071  1.00  0.00    -0.026 C 
ATOM     14  C   UNL     1      40.368  11.264   3.463  1.00  0.00     0.005 C 
ATOM     15  C   UNL     1      39.703  10.291   4.468  1.00  0.00    -0.001 C 
ATOM     16  C   UNL     1      39.188   7.723   4.368  1.00  0.00     0.007 C 
ATOM     17  C   UNL     1      41.491   8.545   4.906  1.00  0.00     0.012 C 
ATOM     18  C   UNL     1      38.148  10.533   4.483  1.00  0.00     0.000 C 
ATOM     19  C   UNL     1      37.731   8.105   4.122  1.00  0.00     0.005 C 
ATOM     20  C   UNL     1      37.347   9.322   4.987  1.00  0.00     0.003 C 
ATOM     21  C   UNL     1      37.848  11.753   5.383  1.00  0.00     0.031 C 
ATOM     22  C   UNL     1      35.785   9.591   5.048  1.00  0.00    -0.008 C 
ATOM     23  C   UNL     1      36.384  12.013   5.519  1.00  0.00    -0.027 C 
ATOM     24  C   UNL     1      35.457  11.038   5.462  1.00  0.00    -0.065 C 
ATOM     25  C   UNL     1      35.095   9.345   3.667  1.00  0.00     0.014 C 
ATOM     26  C   UNL     1      35.187   8.639   6.117  1.00  0.00     0.016 C 
ATOM     27  C   UNL     1      33.998  11.442   5.490  1.00  0.00     0.063 C 
ATOM     28  C   UNL     1      33.609   9.786   3.614  1.00  0.00     0.033 C 
ATOM     29  C   UNL     1      33.396  11.234   4.094  1.00  0.00     0.118 C 
BRANCH  29  30
ATOM     30  O   UNL     1      33.985  12.125   3.178  1.00  0.00    -0.393 OA
ATOM     31  H   UNL     1      33.619  11.904   2.284  1.00  0.00     0.210 HD
ENDBRANCH  29  30
ENDBRANCH   1  11
TORSDOF 6
ENDMDL
MODEL 7
REMARK VINA RESULT:    -4.292     14.649     17.579
REMARK INTER + INTRA:          -5.968
REMARK INTER:                  -5.104
REMARK INTRA:                  -0.865
REMARK UNBOUND:                -0.296
REMARK SMILES CC[C@@H](C=C[C@H](C)[C@@H]1CC[C@H]2[C@@H]3CC=C4C[C@@H](O)CC[C@@]4(C)[C@H]3CC[C@]21C)C(C)C
REMARK SMILES IDX 6 1 7 2 5 3 4 4 3 5 2 6 1 7 28 8 29 9 30 10 8 11 9 12 26 13
REMARK SMILES IDX 10 14 11 15 25 16 27 17 12 18 24 19 23 20 13 21 21 22 14 23
REMARK SMILES IDX 15 24 20 25 22 26 16 27 19 28 17 29 18 30
REMARK H PARENT 18 31
REMARK Flexibility Score: inf
ROOT
ATOM      1  C   UNL     1      34.140   7.034   4.901  1.00  0.00     0.012 C 
ATOM      2  C   UNL     1      33.153   6.269   5.805  1.00  0.00     0.012 C 
ENDROOT
BRANCH   1   3
ATOM      3  C   UNL     1      33.543   8.365   4.475  1.00  0.00    -0.028 C 
ATOM      4  C   UNL     1      34.143   9.219   3.624  1.00  0.00    -0.027 C 
BRANCH   4   5
ATOM      5  C   UNL     1      33.438  10.468   3.128  1.00  0.00     0.014 C 
BRANCH   5   6
ATOM      6  C   UNL     1      33.264  10.352   1.583  1.00  0.00     0.004 C 
ATOM      7  C   UNL     1      33.965   9.117   1.011  1.00  0.00     0.004 C 
ENDBRANCH   5   6
BRANCH   5   8
ATOM      8  C   UNL     1      34.227  11.741   3.566  1.00  0.00    -0.011 C 
ATOM      9  C   UNL     1      35.746  11.544   3.376  1.00  0.00     0.008 C 
ATOM     10  C   UNL     1      33.957  12.125   5.038  1.00  0.00     0.008 C 
ENDBRANCH   5   8
ENDBRANCH   4   5
ENDBRANCH   1   3
BRANCH   1  11
ATOM     11  C   UNL     1      35.584   7.095   5.529  1.00  0.00     0.002 C 
ATOM     12  C   UNL     1      36.311   5.749   5.603  1.00  0.00     0.005 C 
ATOM     13  C   UNL     1      35.746   7.713   6.950  1.00  0.00    -0.026 C 
ATOM     14  C   UNL     1      37.432   5.918   6.623  1.00  0.00     0.005 C 
ATOM     15  C   UNL     1      37.172   7.234   7.397  1.00  0.00    -0.001 C 
ATOM     16  C   UNL     1      35.568   9.260   6.952  1.00  0.00     0.007 C 
ATOM     17  C   UNL     1      34.698   7.137   7.955  1.00  0.00     0.012 C 
ATOM     18  C   UNL     1      38.374   8.223   7.171  1.00  0.00     0.000 C 
ATOM     19  C   UNL     1      36.803  10.035   6.501  1.00  0.00     0.005 C 
ATOM     20  C   UNL     1      38.005   9.696   7.406  1.00  0.00     0.003 C 
ATOM     21  C   UNL     1      39.524   7.827   8.125  1.00  0.00     0.031 C 
ATOM     22  C   UNL     1      39.234  10.683   7.227  1.00  0.00    -0.008 C 
ATOM     23  C   UNL     1      40.685   8.762   8.034  1.00  0.00    -0.027 C 
ATOM     24  C   UNL     1      40.555  10.065   7.722  1.00  0.00    -0.065 C 
ATOM     25  C   UNL     1      39.450  11.081   5.730  1.00  0.00     0.014 C 
ATOM     26  C   UNL     1      38.947  11.948   8.076  1.00  0.00     0.016 C 
ATOM     27  C   UNL     1      41.817  10.882   7.542  1.00  0.00     0.063 C 
ATOM     28  C   UNL     1      40.755  11.877   5.469  1.00  0.00     0.033 C 
ATOM     29  C   UNL     1      42.004  11.187   6.050  1.00  0.00     0.118 C 
BRANCH  29  30
ATOM     30  O   UNL     1      42.257   9.998   5.342  1.00  0.00    -0.393 OA
ATOM     31  H   UNL     1      42.209  10.220   4.378  1.00  0.00     0.210 HD
ENDBRANCH  29  30
ENDBRANCH   1  11
TORSDOF 6
ENDMDL
MODEL 8
REMARK VINA RESULT:    -4.031     12.035     14.967
REMARK INTER + INTRA:          -5.624
REMARK INTER:                  -4.816
REMARK INTRA:                  -0.807
REMARK UNBOUND:                -0.296
REMARK SMILES CC[C@@H](C=C[C@H](C)[C@@H]1CC[C@H]2[C@@H]3CC=C4C[C@@H](O)CC[C@@]4(C)[C@H]3CC[C@]21C)C(C)C
REMARK SMILES IDX 6 1 7 2 5 3 4 4 3 5 2 6 1 7 28 8 29 9 30 10 8 11 9 12 26 13
REMARK SMILES IDX 10 14 11 15 25 16 27 17 12 18 24 19 23 20 13 21 21 22 14 23
REMARK SMILES IDX 15 24 20 25 22 26 16 27 19 28 17 29 18 30
REMARK H PARENT 18 31
REMARK Flexibility Score: inf
ROOT
ATOM      1  C   UNL     1      41.627   9.552   0.910  1.00  0.00     0.012 C 
ATOM      2  C   UNL     1      41.863   8.056   1.198  1.00  0.00     0.012 C 
ENDROOT
BRANCH   1   3
ATOM      3  C   UNL     1      41.426   9.779  -0.579  1.00  0.00    -0.028 C 
ATOM      4  C   UNL     1      42.045   9.065  -1.538  1.00  0.00    -0.027 C 
BRANCH   4   5
ATOM      5  C   UNL     1      41.699   9.244  -3.005  1.00  0.00     0.014 C 
BRANCH   5   6
ATOM      6  C   UNL     1      40.356   8.505  -3.286  1.00  0.00     0.004 C 
ATOM      7  C   UNL     1      39.565   9.152  -4.426  1.00  0.00     0.004 C 
ENDBRANCH   5   6
BRANCH   5   8
ATOM      8  C   UNL     1      42.877   8.746  -3.900  1.00  0.00    -0.011 C 
ATOM      9  C   UNL     1      44.061   8.261  -3.036  1.00  0.00     0.008 C 
ATOM     10  C   UNL     1      43.385   9.837  -4.868  1.00  0.00     0.008 C 
ENDBRANCH   5   8
ENDBRANCH   4   5
ENDBRANCH   1   3
BRANCH   1  11
ATOM     11  C   UNL     1      40.526  10.165   1.857  1.00  0.00     0.002 C 
ATOM     12  C   UNL     1      39.888  11.460   1.346  1.00  0.00     0.005 C 
ATOM     13  C   UNL     1      40.908  10.466   3.337  1.00  0.00    -0.026 C 
ATOM     14  C   UNL     1      39.233  12.125   2.552  1.00  0.00     0.005 C 
ATOM     15  C   UNL     1      39.758  11.416   3.825  1.00  0.00    -0.001 C 
ATOM     16  C   UNL     1      41.064   9.172   4.188  1.00  0.00     0.007 C 
ATOM     17  C   UNL     1      42.260  11.240   3.440  1.00  0.00     0.012 C 
ATOM     18  C   UNL     1      38.554  10.760   4.597  1.00  0.00     0.000 C 
ATOM     19  C   UNL     1      39.746   8.576   4.675  1.00  0.00     0.005 C 
ATOM     20  C   UNL     1      38.976   9.609   5.522  1.00  0.00     0.003 C 
ATOM     21  C   UNL     1      37.851  11.854   5.432  1.00  0.00     0.031 C 
ATOM     22  C   UNL     1      37.764   8.987   6.336  1.00  0.00    -0.008 C 
ATOM     23  C   UNL     1      36.736  11.308   6.261  1.00  0.00    -0.027 C 
ATOM     24  C   UNL     1      36.731  10.052   6.748  1.00  0.00    -0.065 C 
ATOM     25  C   UNL     1      36.998   7.906   5.507  1.00  0.00     0.014 C 
ATOM     26  C   UNL     1      38.344   8.354   7.628  1.00  0.00     0.016 C 
ATOM     27  C   UNL     1      35.490   9.575   7.471  1.00  0.00     0.063 C 
ATOM     28  C   UNL     1      35.687   7.411   6.170  1.00  0.00     0.033 C 
ATOM     29  C   UNL     1      34.752   8.565   6.583  1.00  0.00     0.118 C 
BRANCH  29  30
ATOM     30  O   UNL     1      34.258   9.205   5.432  1.00  0.00    -0.393 OA
ATOM     31  H   UNL     1      33.394   9.620   5.680  1.00  0.00     0.210 HD
ENDBRANCH  29  30
ENDBRANCH   1  11
TORSDOF 6
ENDMDL
MODEL 9
REMARK VINA RESULT:    -3.482      3.756      6.926
REMARK INTER + INTRA:          -4.898
REMARK INTER:                  -4.720
REMARK INTRA:                  -0.178
REMARK UNBOUND:                -0.296
REMARK SMILES CC[C@@H](C=C[C@H](C)[C@@H]1CC[C@H]2[C@@H]3CC=C4C[C@@H](O)CC[C@@]4(C)[C@H]3CC[C@]21C)C(C)C
REMARK SMILES IDX 6 1 7 2 5 3 4 4 3 5 2 6 1 7 28 8 29 9 30 10 8 11 9 12 26 13
REMARK SMILES IDX 10 14 11 15 25 16 27 17 12 18 24 19 23 20 13 21 21 22 14 23
REMARK SMILES IDX 15 24 20 25 22 26 16 27 19 28 17 29 18 30
REMARK H PARENT 18 31
REMARK Flexibility Score: inf
ROOT
ATOM      1  C   UNL     1      44.001   8.295  -7.770  1.00  0.00     0.012 C 
ATOM      2  C   UNL     1      43.927   9.791  -8.133  1.00  0.00     0.012 C 
ENDROOT
BRANCH   1   3
ATOM      3  C   UNL     1      43.611   8.084  -6.316  1.00  0.00    -0.028 C 
ATOM      4  C   UNL     1      42.659   8.794  -5.683  1.00  0.00    -0.027 C 
BRANCH   4   5
ATOM      5  C   UNL     1      42.217   8.446  -4.274  1.00  0.00     0.014 C 
BRANCH   5   6
ATOM      6  C   UNL     1      40.921   9.250  -3.953  1.00  0.00     0.004 C 
ATOM      7  C   UNL     1      39.701   8.712  -4.705  1.00  0.00     0.004 C 
ENDBRANCH   5   6
BRANCH   5   8
ATOM      8  C   UNL     1      43.376   8.714  -3.264  1.00  0.00    -0.011 C 
ATOM      9  C   UNL     1      42.847   8.759  -1.815  1.00  0.00     0.008 C 
ATOM     10  C   UNL     1      44.123  10.033  -3.559  1.00  0.00     0.008 C 
ENDBRANCH   5   8
ENDBRANCH   4   5
ENDBRANCH   1   3
BRANCH   1  11
ATOM     11  C   UNL     1      43.248   7.397  -8.823  1.00  0.00     0.002 C 
ATOM     12  C   UNL     1      43.996   7.188 -10.143  1.00  0.00     0.005 C 
ATOM     13  C   UNL     1      41.804   7.805  -9.244  1.00  0.00    -0.026 C 
ATOM     14  C   UNL     1      42.959   6.723 -11.160  1.00  0.00     0.005 C 
ATOM     15  C   UNL     1      41.556   6.975 -10.552  1.00  0.00    -0.001 C 
ATOM     16  C   UNL     1      40.759   7.544  -8.120  1.00  0.00     0.007 C 
ATOM     17  C   UNL     1      41.713   9.323  -9.602  1.00  0.00     0.012 C 
ATOM     18  C   UNL     1      40.792   5.608 -10.410  1.00  0.00     0.000 C 
ATOM     19  C   UNL     1      40.293   6.095  -8.020  1.00  0.00     0.005 C 
ATOM     20  C   UNL     1      39.673   5.640  -9.357  1.00  0.00     0.003 C 
ATOM     21  C   UNL     1      40.188   5.236 -11.783  1.00  0.00     0.031 C 
ATOM     22  C   UNL     1      38.873   4.274  -9.255  1.00  0.00    -0.008 C 
ATOM     23  C   UNL     1      39.377   3.984 -11.727  1.00  0.00    -0.027 C 
ATOM     24  C   UNL     1      38.708   3.591 -10.626  1.00  0.00    -0.065 C 
ATOM     25  C   UNL     1      39.587   3.247  -8.318  1.00  0.00     0.014 C 
ATOM     26  C   UNL     1      37.459   4.599  -8.707  1.00  0.00     0.016 C 
ATOM     27  C   UNL     1      38.021   2.243 -10.655  1.00  0.00     0.063 C 
ATOM     28  C   UNL     1      38.962   1.829  -8.340  1.00  0.00     0.033 C 
ATOM     29  C   UNL     1      38.802   1.266  -9.766  1.00  0.00     0.118 C 
BRANCH  29  30
ATOM     30  O   UNL     1      40.072   1.021 -10.319  1.00  0.00    -0.393 OA
ATOM     31  H   UNL     1      40.707   0.941  -9.563  1.00  0.00     0.210 HD
ENDBRANCH  29  30
ENDBRANCH   1  11
TORSDOF 6
ENDMDL
