MODEL 1
REMARK VINA RESULT:    -4.498      0.000      0.000
REMARK INTER + INTRA:          -7.631
REMARK INTER:                  -6.470
REMARK INTRA:                  -1.161
REMARK UNBOUND:                -1.161
REMARK SMILES O=C(CO)[C@@H](O)[C@H](O)[C@H](O)CO
REMARK SMILES IDX 7 1 9 2 11 3 12 4 10 6 5 8 2 9 1 10 3 11 4 12 6 14 8 16
REMARK H PARENT 12 5 10 7 4 13 6 15 8 17
REMARK Flexibility Score: inf
ROOT
ATOM      1  C   UNL     1      -8.814  16.849 -13.126  1.00  0.00     0.181 C 
ENDROOT
BRANCH   1   2
ATOM      2  C   UNL     1      -7.657  17.103 -14.133  1.00  0.00     0.171 C 
BRANCH   2   3
ATOM      3  C   UNL     1      -7.846  18.411 -14.922  1.00  0.00     0.190 C 
BRANCH   3   4
ATOM      4  O   UNL     1      -8.907  18.284 -15.829  1.00  0.00    -0.394 OA
ATOM      5  H   UNL     1      -9.247  17.358 -15.727  1.00  0.00     0.210 HD
ENDBRANCH   3   4
ENDBRANCH   2   3
BRANCH   2   6
ATOM      6  O   UNL     1      -6.416  17.129 -13.470  1.00  0.00    -0.388 OA
ATOM      7  H   UNL     1      -6.594  17.021 -12.498  1.00  0.00     0.211 HD
ENDBRANCH   2   6
ENDBRANCH   1   2
BRANCH   1   8
ATOM      8  C   UNL     1      -8.681  15.479 -12.417  1.00  0.00     0.214 C 
BRANCH   8   9
ATOM      9  C   UNL     1      -8.489  14.374 -13.435  1.00  0.00     0.189 C 
ATOM     10  O   UNL     1      -9.323  14.231 -14.318  1.00  0.00    -0.294 OA
BRANCH   9  11
ATOM     11  C   UNL     1      -7.319  13.427 -13.353  1.00  0.00     0.234 C 
BRANCH  11  12
ATOM     12  O   UNL     1      -6.141  14.065 -13.764  1.00  0.00    -0.388 OA
ATOM     13  H   UNL     1      -6.198  14.996 -13.423  1.00  0.00     0.211 HD
ENDBRANCH  11  12
ENDBRANCH   9  11
ENDBRANCH   8   9
BRANCH   8  14
ATOM     14  O   UNL     1      -7.614  15.512 -11.503  1.00  0.00    -0.382 OA
ATOM     15  H   UNL     1      -6.963  16.179 -11.844  1.00  0.00     0.211 HD
ENDBRANCH   8  14
ENDBRANCH   1   8
BRANCH   1  16
ATOM     16  O   UNL     1     -10.067  16.959 -13.757  1.00  0.00    -0.387 OA
ATOM     17  H   UNL     1     -10.353  17.908 -13.696  1.00  0.00     0.211 HD
ENDBRANCH   1  16
TORSDOF 10
ENDMDL
MODEL 2
REMARK VINA RESULT:    -4.337      1.925      4.518
REMARK INTER + INTRA:          -7.399
REMARK INTER:                  -6.696
REMARK INTRA:                  -0.704
REMARK UNBOUND:                -1.161
REMARK SMILES O=C(CO)[C@@H](O)[C@H](O)[C@H](O)CO
REMARK SMILES IDX 7 1 9 2 11 3 12 4 10 6 5 8 2 9 1 10 3 11 4 12 6 14 8 16
REMARK H PARENT 12 5 10 7 4 13 6 15 8 17
REMARK Flexibility Score: inf
ROOT
ATOM      1  C   UNL     1      -8.462  17.111 -13.857  1.00  0.00     0.181 C 
ENDROOT
BRANCH   1   2
ATOM      2  C   UNL     1      -9.017  16.279 -12.667  1.00  0.00     0.171 C 
BRANCH   2   3
ATOM      3  C   UNL     1      -8.202  14.997 -12.419  1.00  0.00     0.190 C 
BRANCH   3   4
ATOM      4  O   UNL     1      -7.739  14.961 -11.097  1.00  0.00    -0.394 OA
ATOM      5  H   UNL     1      -7.860  14.026 -10.788  1.00  0.00     0.210 HD
ENDBRANCH   3   4
ENDBRANCH   2   3
BRANCH   2   6
ATOM      6  O   UNL     1      -9.049  17.051 -11.491  1.00  0.00    -0.388 OA
ATOM      7  H   UNL     1      -9.590  16.554 -10.821  1.00  0.00     0.211 HD
ENDBRANCH   2   6
ENDBRANCH   1   2
BRANCH   1   8
ATOM      8  C   UNL     1      -8.014  18.527 -13.422  1.00  0.00     0.214 C 
BRANCH   8   9
ATOM      9  C   UNL     1      -6.905  19.030 -14.324  1.00  0.00     0.189 C 
ATOM     10  O   UNL     1      -6.688  18.446 -15.377  1.00  0.00    -0.294 OA
BRANCH   9  11
ATOM     11  C   UNL     1      -6.043  20.201 -13.929  1.00  0.00     0.234 C 
BRANCH  11  12
ATOM     12  O   UNL     1      -6.269  20.549 -12.590  1.00  0.00    -0.388 OA
ATOM     13  H   UNL     1      -6.665  21.459 -12.605  1.00  0.00     0.211 HD
ENDBRANCH  11  12
ENDBRANCH   9  11
ENDBRANCH   8   9
BRANCH   8  14
ATOM     14  O   UNL     1      -9.112  19.405 -13.438  1.00  0.00    -0.382 OA
ATOM     15  H   UNL     1      -9.459  19.450 -12.510  1.00  0.00     0.211 HD
ENDBRANCH   8  14
ENDBRANCH   1   8
BRANCH   1  16
ATOM     16  O   UNL     1      -9.403  17.189 -14.902  1.00  0.00    -0.387 OA
ATOM     17  H   UNL     1     -10.171  17.728 -14.577  1.00  0.00     0.211 HD
ENDBRANCH   1  16
TORSDOF 10
ENDMDL
MODEL 3
REMARK VINA RESULT:    -4.313      1.178      2.856
REMARK INTER + INTRA:          -7.365
REMARK INTER:                  -6.218
REMARK INTRA:                  -1.146
REMARK UNBOUND:                -1.161
REMARK SMILES O=C(CO)[C@@H](O)[C@H](O)[C@H](O)CO
REMARK SMILES IDX 7 1 9 2 11 3 12 4 10 6 5 8 2 9 1 10 3 11 4 12 6 14 8 16
REMARK H PARENT 12 5 10 7 4 13 6 15 8 17
REMARK Flexibility Score: inf
ROOT
ATOM      1  C   UNL     1      -7.480  16.370 -14.280  1.00  0.00     0.181 C 
ENDROOT
BRANCH   1   2
ATOM      2  C   UNL     1      -8.853  17.074 -14.084  1.00  0.00     0.171 C 
BRANCH   2   3
ATOM      3  C   UNL     1      -8.860  18.013 -12.864  1.00  0.00     0.190 C 
BRANCH   3   4
ATOM      4  O   UNL     1      -9.092  17.285 -11.689  1.00  0.00    -0.394 OA
ATOM      5  H   UNL     1      -8.452  16.528 -11.704  1.00  0.00     0.210 HD
ENDBRANCH   3   4
ENDBRANCH   2   3
BRANCH   2   6
ATOM      6  O   UNL     1      -9.211  17.797 -15.237  1.00  0.00    -0.388 OA
ATOM      7  H   UNL     1      -9.999  18.358 -15.006  1.00  0.00     0.211 HD
ENDBRANCH   2   6
ENDBRANCH   1   2
BRANCH   1   8
ATOM      8  C   UNL     1      -7.634  14.857 -14.566  1.00  0.00     0.214 C 
BRANCH   8   9
ATOM      9  C   UNL     1      -7.204  14.045 -13.361  1.00  0.00     0.189 C 
ATOM     10  O   UNL     1      -6.129  13.463 -13.393  1.00  0.00    -0.294 OA
BRANCH   9  11
ATOM     11  C   UNL     1      -8.091  13.909 -12.150  1.00  0.00     0.234 C 
BRANCH  11  12
ATOM     12  O   UNL     1      -7.658  14.761 -11.125  1.00  0.00    -0.388 OA
ATOM     13  H   UNL     1      -6.781  14.407 -10.824  1.00  0.00     0.211 HD
ENDBRANCH  11  12
ENDBRANCH   9  11
ENDBRANCH   8   9
BRANCH   8  14
ATOM     14  O   UNL     1      -8.964  14.567 -14.919  1.00  0.00    -0.382 OA
ATOM     15  H   UNL     1      -9.071  13.582 -14.855  1.00  0.00     0.211 HD
ENDBRANCH   8  14
ENDBRANCH   1   8
BRANCH   1  16
ATOM     16  O   UNL     1      -6.641  16.581 -13.169  1.00  0.00    -0.387 OA
ATOM     17  H   UNL     1      -5.702  16.538 -13.488  1.00  0.00     0.211 HD
ENDBRANCH   1  16
TORSDOF 10
ENDMDL
MODEL 4
REMARK VINA RESULT:    -4.281      1.302      2.484
REMARK INTER + INTRA:          -7.319
REMARK INTER:                  -6.849
REMARK INTRA:                  -0.470
REMARK UNBOUND:                -1.161
REMARK SMILES O=C(CO)[C@@H](O)[C@H](O)[C@H](O)CO
REMARK SMILES IDX 7 1 9 2 11 3 12 4 10 6 5 8 2 9 1 10 3 11 4 12 6 14 8 16
REMARK H PARENT 12 5 10 7 4 13 6 15 8 17
REMARK Flexibility Score: inf
ROOT
ATOM      1  C   UNL     1      -7.955  16.085 -13.315  1.00  0.00     0.181 C 
ENDROOT
BRANCH   1   2
ATOM      2  C   UNL     1      -8.969  17.199 -12.930  1.00  0.00     0.171 C 
BRANCH   2   3
ATOM      3  C   UNL     1      -8.656  18.539 -13.620  1.00  0.00     0.190 C 
BRANCH   3   4
ATOM      4  O   UNL     1      -7.776  19.298 -12.837  1.00  0.00    -0.394 OA
ATOM      5  H   UNL     1      -8.097  19.214 -11.902  1.00  0.00     0.210 HD
ENDBRANCH   3   4
ENDBRANCH   2   3
BRANCH   2   6
ATOM      6  O   UNL     1     -10.284  16.806 -13.239  1.00  0.00    -0.388 OA
ATOM      7  H   UNL     1     -10.512  17.195 -14.125  1.00  0.00     0.211 HD
ENDBRANCH   2   6
ENDBRANCH   1   2
BRANCH   1   8
ATOM      8  C   UNL     1      -8.207  14.771 -12.538  1.00  0.00     0.214 C 
BRANCH   8   9
ATOM      9  C   UNL     1      -7.546  13.605 -13.245  1.00  0.00     0.189 C 
ATOM     10  O   UNL     1      -6.389  13.323 -12.967  1.00  0.00    -0.294 OA
BRANCH   9  11
ATOM     11  C   UNL     1      -8.271  12.820 -14.308  1.00  0.00     0.234 C 
BRANCH  11  12
ATOM     12  O   UNL     1      -9.461  13.466 -14.671  1.00  0.00    -0.388 OA
ATOM     13  H   UNL     1      -9.890  12.887 -15.355  1.00  0.00     0.211 HD
ENDBRANCH  11  12
ENDBRANCH   9  11
ENDBRANCH   8   9
BRANCH   8  14
ATOM     14  O   UNL     1      -7.733  14.893 -11.220  1.00  0.00    -0.382 OA
ATOM     15  H   UNL     1      -6.754  15.048 -11.279  1.00  0.00     0.211 HD
ENDBRANCH   8  14
ENDBRANCH   1   8
BRANCH   1  16
ATOM     16  O   UNL     1      -6.630  16.522 -13.133  1.00  0.00    -0.387 OA
ATOM     17  H   UNL     1      -6.654  17.320 -12.542  1.00  0.00     0.211 HD
ENDBRANCH   1  16
TORSDOF 10
ENDMDL
MODEL 5
REMARK VINA RESULT:    -4.269      1.088      4.011
REMARK INTER + INTRA:          -7.301
REMARK INTER:                  -6.244
REMARK INTRA:                  -1.057
REMARK UNBOUND:                -1.161
REMARK SMILES O=C(CO)[C@@H](O)[C@H](O)[C@H](O)CO
REMARK SMILES IDX 7 1 9 2 11 3 12 4 10 6 5 8 2 9 1 10 3 11 4 12 6 14 8 16
REMARK H PARENT 12 5 10 7 4 13 6 15 8 17
REMARK Flexibility Score: inf
ROOT
ATOM      1  C   UNL     1      -7.772  16.431 -12.872  1.00  0.00     0.181 C 
ENDROOT
BRANCH   1   2
ATOM      2  C   UNL     1      -8.345  15.080 -12.358  1.00  0.00     0.171 C 
BRANCH   2   3
ATOM      3  C   UNL     1      -8.164  13.942 -13.379  1.00  0.00     0.190 C 
BRANCH   3   4
ATOM      4  O   UNL     1      -9.069  14.089 -14.439  1.00  0.00    -0.394 OA
ATOM      5  H   UNL     1      -9.967  14.166 -14.026  1.00  0.00     0.210 HD
ENDBRANCH   3   4
ENDBRANCH   2   3
BRANCH   2   6
ATOM      6  O   UNL     1      -7.746  14.717 -11.138  1.00  0.00    -0.388 OA
ATOM      7  H   UNL     1      -7.999  15.403 -10.465  1.00  0.00     0.211 HD
ENDBRANCH   2   6
ENDBRANCH   1   2
BRANCH   1   8
ATOM      8  C   UNL     1      -8.876  17.355 -13.442  1.00  0.00     0.214 C 
BRANCH   8   9
ATOM      9  C   UNL     1      -8.614  17.649 -14.905  1.00  0.00     0.189 C 
ATOM     10  O   UNL     1      -8.679  16.733 -15.714  1.00  0.00    -0.294 OA
BRANCH   9  11
ATOM     11  C   UNL     1      -8.236  19.031 -15.372  1.00  0.00     0.234 C 
BRANCH  11  12
ATOM     12  O   UNL     1      -8.951  20.004 -14.660  1.00  0.00    -0.388 OA
ATOM     13  H   UNL     1      -9.145  20.732 -15.307  1.00  0.00     0.211 HD
ENDBRANCH  11  12
ENDBRANCH   9  11
ENDBRANCH   8   9
BRANCH   8  14
ATOM     14  O   UNL     1     -10.138  16.761 -13.266  1.00  0.00    -0.382 OA
ATOM     15  H   UNL     1     -10.060  15.821 -13.575  1.00  0.00     0.211 HD
ENDBRANCH   8  14
ENDBRANCH   1   8
BRANCH   1  16
ATOM     16  O   UNL     1      -6.761  16.221 -13.828  1.00  0.00    -0.387 OA
ATOM     17  H   UNL     1      -7.193  16.180 -14.721  1.00  0.00     0.211 HD
ENDBRANCH   1  16
TORSDOF 10
ENDMDL
MODEL 6
REMARK VINA RESULT:    -4.197      1.536      3.139
REMARK INTER + INTRA:          -7.198
REMARK INTER:                  -6.031
REMARK INTRA:                  -1.168
REMARK UNBOUND:                -1.161
REMARK SMILES O=C(CO)[C@@H](O)[C@H](O)[C@H](O)CO
REMARK SMILES IDX 7 1 9 2 11 3 12 4 10 6 5 8 2 9 1 10 3 11 4 12 6 14 8 16
REMARK H PARENT 12 5 10 7 4 13 6 15 8 17
REMARK Flexibility Score: inf
ROOT
ATOM      1  C   UNL     1      -7.420  17.932 -14.539  1.00  0.00     0.181 C 
ENDROOT
BRANCH   1   2
ATOM      2  C   UNL     1      -8.218  19.219 -14.184  1.00  0.00     0.171 C 
BRANCH   2   3
ATOM      3  C   UNL     1      -7.299  20.381 -13.768  1.00  0.00     0.190 C 
BRANCH   3   4
ATOM      4  O   UNL     1      -6.990  20.296 -12.404  1.00  0.00    -0.394 OA
ATOM      5  H   UNL     1      -6.433  21.090 -12.197  1.00  0.00     0.210 HD
ENDBRANCH   3   4
ENDBRANCH   2   3
BRANCH   2   6
ATOM      6  O   UNL     1      -9.024  19.619 -15.265  1.00  0.00    -0.388 OA
ATOM      7  H   UNL     1      -9.448  18.802 -15.641  1.00  0.00     0.211 HD
ENDBRANCH   2   6
ENDBRANCH   1   2
BRANCH   1   8
ATOM      8  C   UNL     1      -8.315  16.670 -14.541  1.00  0.00     0.214 C 
BRANCH   8   9
ATOM      9  C   UNL     1      -7.772  15.636 -13.576  1.00  0.00     0.189 C 
ATOM     10  O   UNL     1      -6.846  14.922 -13.933  1.00  0.00    -0.294 OA
BRANCH   9  11
ATOM     11  C   UNL     1      -8.378  15.444 -12.210  1.00  0.00     0.234 C 
BRANCH  11  12
ATOM     12  O   UNL     1      -8.508  16.675 -11.552  1.00  0.00    -0.388 OA
ATOM     13  H   UNL     1      -8.742  17.338 -12.252  1.00  0.00     0.211 HD
ENDBRANCH  11  12
ENDBRANCH   9  11
ENDBRANCH   8   9
BRANCH   8  14
ATOM     14  O   UNL     1      -9.638  17.018 -14.214  1.00  0.00    -0.382 OA
ATOM     15  H   UNL     1     -10.209  16.245 -14.463  1.00  0.00     0.211 HD
ENDBRANCH   8  14
ENDBRANCH   1   8
BRANCH   1  16
ATOM     16  O   UNL     1      -6.325  17.761 -13.670  1.00  0.00    -0.387 OA
ATOM     17  H   UNL     1      -6.335  18.512 -13.021  1.00  0.00     0.211 HD
ENDBRANCH   1  16
TORSDOF 10
ENDMDL
MODEL 7
REMARK VINA RESULT:    -4.185      1.358      4.336
REMARK INTER + INTRA:          -7.181
REMARK INTER:                  -6.304
REMARK INTRA:                  -0.878
REMARK UNBOUND:                -1.161
REMARK SMILES O=C(CO)[C@@H](O)[C@H](O)[C@H](O)CO
REMARK SMILES IDX 7 1 9 2 11 3 12 4 10 6 5 8 2 9 1 10 3 11 4 12 6 14 8 16
REMARK H PARENT 12 5 10 7 4 13 6 15 8 17
REMARK Flexibility Score: inf
ROOT
ATOM      1  C   UNL     1      -8.403  16.517 -14.688  1.00  0.00     0.181 C 
ENDROOT
BRANCH   1   2
ATOM      2  C   UNL     1      -8.312  15.276 -13.755  1.00  0.00     0.171 C 
BRANCH   2   3
ATOM      3  C   UNL     1      -8.847  15.568 -12.341  1.00  0.00     0.190 C 
BRANCH   3   4
ATOM      4  O   UNL     1      -7.794  15.911 -11.483  1.00  0.00    -0.394 OA
ATOM      5  H   UNL     1      -7.012  15.377 -11.778  1.00  0.00     0.210 HD
ENDBRANCH   3   4
ENDBRANCH   2   3
BRANCH   2   6
ATOM      6  O   UNL     1      -9.009  14.186 -14.306  1.00  0.00    -0.388 OA
ATOM      7  H   UNL     1      -9.317  14.455 -15.212  1.00  0.00     0.211 HD
ENDBRANCH   2   6
ENDBRANCH   1   2
BRANCH   1   8
ATOM      8  C   UNL     1      -7.207  17.481 -14.498  1.00  0.00     0.214 C 
BRANCH   8   9
ATOM      9  C   UNL     1      -7.679  18.801 -13.925  1.00  0.00     0.189 C 
ATOM     10  O   UNL     1      -7.994  18.855 -12.744  1.00  0.00    -0.294 OA
BRANCH   9  11
ATOM     11  C   UNL     1      -7.808  20.030 -14.788  1.00  0.00     0.234 C 
BRANCH  11  12
ATOM     12  O   UNL     1      -9.155  20.286 -15.081  1.00  0.00    -0.388 OA
ATOM     13  H   UNL     1      -9.615  19.407 -15.050  1.00  0.00     0.211 HD
ENDBRANCH  11  12
ENDBRANCH   9  11
ENDBRANCH   8   9
BRANCH   8  14
ATOM     14  O   UNL     1      -6.240  16.889 -13.668  1.00  0.00    -0.382 OA
ATOM     15  H   UNL     1      -5.446  16.705 -14.235  1.00  0.00     0.211 HD
ENDBRANCH   8  14
ENDBRANCH   1   8
BRANCH   1  16
ATOM     16  O   UNL     1      -9.621  17.198 -14.506  1.00  0.00    -0.387 OA
ATOM     17  H   UNL     1      -9.416  18.079 -14.096  1.00  0.00     0.211 HD
ENDBRANCH   1  16
TORSDOF 10
ENDMDL
MODEL 8
REMARK VINA RESULT:    -4.162      1.620      4.101
REMARK INTER + INTRA:          -7.147
REMARK INTER:                  -5.666
REMARK INTRA:                  -1.481
REMARK UNBOUND:                -1.161
REMARK SMILES O=C(CO)[C@@H](O)[C@H](O)[C@H](O)CO
REMARK SMILES IDX 7 1 9 2 11 3 12 4 10 6 5 8 2 9 1 10 3 11 4 12 6 14 8 16
REMARK H PARENT 12 5 10 7 4 13 6 15 8 17
REMARK Flexibility Score: inf
ROOT
ATOM      1  C   UNL     1      -8.324  16.668 -14.701  1.00  0.00     0.181 C 
ENDROOT
BRANCH   1   2
ATOM      2  C   UNL     1      -8.700  15.730 -13.518  1.00  0.00     0.171 C 
BRANCH   2   3
ATOM      3  C   UNL     1      -9.672  16.398 -12.529  1.00  0.00     0.190 C 
BRANCH   3   4
ATOM      4  O   UNL     1      -8.991  17.324 -11.726  1.00  0.00    -0.394 OA
ATOM      5  H   UNL     1      -9.092  18.203 -12.174  1.00  0.00     0.210 HD
ENDBRANCH   3   4
ENDBRANCH   2   3
BRANCH   2   6
ATOM      6  O   UNL     1      -9.261  14.531 -13.993  1.00  0.00    -0.388 OA
ATOM      7  H   UNL     1      -9.839  14.164 -13.272  1.00  0.00     0.211 HD
ENDBRANCH   2   6
ENDBRANCH   1   2
BRANCH   1   8
ATOM      8  C   UNL     1      -6.867  17.181 -14.600  1.00  0.00     0.214 C 
BRANCH   8   9
ATOM      9  C   UNL     1      -6.805  18.660 -14.924  1.00  0.00     0.189 C 
ATOM     10  O   UNL     1      -6.899  19.014 -16.091  1.00  0.00    -0.294 OA
BRANCH   9  11
ATOM     11  C   UNL     1      -6.587  19.690 -13.846  1.00  0.00     0.234 C 
BRANCH  11  12
ATOM     12  O   UNL     1      -7.631  19.652 -12.912  1.00  0.00    -0.388 OA
ATOM     13  H   UNL     1      -7.455  18.863 -12.335  1.00  0.00     0.211 HD
ENDBRANCH  11  12
ENDBRANCH   9  11
ENDBRANCH   8   9
BRANCH   8  14
ATOM     14  O   UNL     1      -6.355  16.925 -13.316  1.00  0.00    -0.382 OA
ATOM     15  H   UNL     1      -7.045  17.220 -12.667  1.00  0.00     0.211 HD
ENDBRANCH   8  14
ENDBRANCH   1   8
BRANCH   1  16
ATOM     16  O   UNL     1      -9.223  17.747 -14.796  1.00  0.00    -0.387 OA
ATOM     17  H   UNL     1      -8.992  18.261 -15.613  1.00  0.00     0.211 HD
ENDBRANCH   1  16
TORSDOF 10
ENDMDL
MODEL 9
REMARK VINA RESULT:    -4.125      1.782      2.647
REMARK INTER + INTRA:          -7.094
REMARK INTER:                  -6.296
REMARK INTRA:                  -0.798
REMARK UNBOUND:                -1.161
REMARK SMILES O=C(CO)[C@@H](O)[C@H](O)[C@H](O)CO
REMARK SMILES IDX 7 1 9 2 11 3 12 4 10 6 5 8 2 9 1 10 3 11 4 12 6 14 8 16
REMARK H PARENT 12 5 10 7 4 13 6 15 8 17
REMARK Flexibility Score: inf
ROOT
ATOM      1  C   UNL     1      -8.065  18.504 -13.398  1.00  0.00     0.181 C 
ENDROOT
BRANCH   1   2
ATOM      2  C   UNL     1      -7.092  19.374 -14.243  1.00  0.00     0.171 C 
BRANCH   2   3
ATOM      3  C   UNL     1      -7.768  20.647 -14.785  1.00  0.00     0.190 C 
BRANCH   3   4
ATOM      4  O   UNL     1      -8.884  20.312 -15.565  1.00  0.00    -0.394 OA
ATOM      5  H   UNL     1      -8.568  20.299 -16.506  1.00  0.00     0.210 HD
ENDBRANCH   3   4
ENDBRANCH   2   3
BRANCH   2   6
ATOM      6  O   UNL     1      -5.958  19.728 -13.490  1.00  0.00    -0.388 OA
ATOM      7  H   UNL     1      -5.853  19.050 -12.770  1.00  0.00     0.211 HD
ENDBRANCH   2   6
ENDBRANCH   1   2
BRANCH   1   8
ATOM      8  C   UNL     1      -8.391  17.155 -14.085  1.00  0.00     0.214 C 
BRANCH   8   9
ATOM      9  C   UNL     1      -9.058  16.211 -13.105  1.00  0.00     0.189 C 
ATOM     10  O   UNL     1     -10.237  16.382 -12.830  1.00  0.00    -0.294 OA
BRANCH   9  11
ATOM     11  C   UNL     1      -8.288  15.102 -12.438  1.00  0.00     0.234 C 
BRANCH  11  12
ATOM     12  O   UNL     1      -7.782  15.528 -11.202  1.00  0.00    -0.388 OA
ATOM     13  H   UNL     1      -8.531  15.991 -10.743  1.00  0.00     0.211 HD
ENDBRANCH  11  12
ENDBRANCH   9  11
ENDBRANCH   8   9
BRANCH   8  14
ATOM     14  O   UNL     1      -9.207  17.373 -15.209  1.00  0.00    -0.382 OA
ATOM     15  H   UNL     1      -9.195  18.349 -15.389  1.00  0.00     0.211 HD
ENDBRANCH   8  14
ENDBRANCH   1   8
BRANCH   1  16
ATOM     16  O   UNL     1      -9.248  19.208 -13.104  1.00  0.00    -0.387 OA
ATOM     17  H   UNL     1      -9.715  19.386 -13.963  1.00  0.00     0.211 HD
ENDBRANCH   1  16
TORSDOF 10
ENDMDL
