MODEL 1
REMARK VINA RESULT:     0.480      0.000      0.000
REMARK INTER + INTRA:           1.355
REMARK INTER:                   0.648
REMARK INTRA:                   0.707
REMARK UNBOUND:                 0.707
REMARK SMILES CC[C@@H](CC[C@H](C)[C@@H]1CC[C@@H]2[C@H]3CC(=O)C4=CC(=O)CC[C@@]4(C)[C@@H]3CC[C@]21C)C(C)C
REMARK SMILES IDX 4 1 3 2 2 3 1 4 29 5 30 6 31 7 5 8 6 9 7 10 8 11 9 12 27 13
REMARK SMILES IDX 10 14 11 15 26 16 28 17 12 18 25 19 24 20 13 21 22 22 14 23
REMARK SMILES IDX 16 24 21 25 23 26 15 27 17 28 20 29 18 30 19 31
REMARK H PARENT
REMARK Flexibility Score: inf
ROOT
ATOM      1  C   UNL     1       5.279  11.768  -6.914  1.00  0.00     0.004 C 
ENDROOT
BRANCH   1   2
ATOM      2  C   UNL     1       5.121  11.715  -8.472  1.00  0.00    -0.009 C 
BRANCH   2   3
ATOM      3  C   UNL     1       5.646  13.035  -9.125  1.00  0.00     0.000 C 
ATOM      4  C   UNL     1       7.169  13.209  -9.021  1.00  0.00     0.004 C 
ENDBRANCH   2   3
BRANCH   2   5
ATOM      5  C   UNL     1       3.679  11.313  -8.944  1.00  0.00    -0.014 C 
ATOM      6  C   UNL     1       2.986  10.341  -7.965  1.00  0.00     0.007 C 
ATOM      7  C   UNL     1       2.767  12.551  -9.112  1.00  0.00     0.007 C 
ENDBRANCH   2   5
ENDBRANCH   1   2
BRANCH   1   8
ATOM      8  C   UNL     1       6.201  12.876  -6.332  1.00  0.00     0.004 C 
BRANCH   8   9
ATOM      9  C   UNL     1       5.635  13.606  -5.082  1.00  0.00    -0.011 C 
ATOM     10  C   UNL     1       5.644  12.678  -3.849  1.00  0.00     0.008 C 
BRANCH   9  11
ATOM     11  C   UNL     1       4.302  14.390  -5.379  1.00  0.00    -0.002 C 
ATOM     12  C   UNL     1       3.223  13.497  -6.040  1.00  0.00     0.005 C 
ATOM     13  C   UNL     1       4.242  15.726  -6.197  1.00  0.00    -0.026 C 
ATOM     14  C   UNL     1       2.272  14.436  -6.793  1.00  0.00     0.005 C 
ATOM     15  C   UNL     1       2.715  15.833  -6.379  1.00  0.00    -0.001 C 
ATOM     16  C   UNL     1       4.696  16.997  -5.444  1.00  0.00     0.007 C 
ATOM     17  C   UNL     1       5.003  15.622  -7.555  1.00  0.00     0.012 C 
ATOM     18  C   UNL     1       2.261  17.030  -7.244  1.00  0.00     0.004 C 
ATOM     19  C   UNL     1       4.289  18.284  -6.206  1.00  0.00     0.005 C 
ATOM     20  C   UNL     1       2.770  18.354  -6.578  1.00  0.00     0.003 C 
ATOM     21  C   UNL     1       0.723  17.046  -7.357  1.00  0.00     0.085 C 
ATOM     22  C   UNL     1       2.375  19.638  -7.412  1.00  0.00    -0.000 C 
ATOM     23  C   UNL     1       0.226  18.290  -8.021  1.00  0.00     0.159 C 
ATOM     24  C   UNL     1       0.878  19.593  -7.752  1.00  0.00     0.005 C 
ATOM     25  C   UNL     1       2.672  20.915  -6.561  1.00  0.00     0.020 C 
ATOM     26  C   UNL     1       3.160  19.724  -8.749  1.00  0.00     0.017 C 
ATOM     27  O   UNL     1      -0.813  18.227  -8.736  1.00  0.00    -0.295 OA
ATOM     28  C   UNL     1       0.156  20.722  -7.898  1.00  0.00     0.055 C 
ATOM     29  C   UNL     1       2.142  22.207  -7.197  1.00  0.00     0.081 C 
ATOM     30  C   UNL     1       0.718  22.050  -7.624  1.00  0.00     0.156 C 
ATOM     31  O   UNL     1       0.003  23.073  -7.797  1.00  0.00    -0.295 OA
ENDBRANCH   9  11
ENDBRANCH   8   9
ENDBRANCH   1   8
TORSDOF 6
ENDMDL
MODEL 2
REMARK VINA RESULT:     1.161      1.682      3.500
REMARK INTER + INTRA:           2.275
REMARK INTER:                   1.999
REMARK INTRA:                   0.276
REMARK UNBOUND:                 0.707
REMARK SMILES CC[C@@H](CC[C@H](C)[C@@H]1CC[C@@H]2[C@H]3CC(=O)C4=CC(=O)CC[C@@]4(C)[C@@H]3CC[C@]21C)C(C)C
REMARK SMILES IDX 4 1 3 2 2 3 1 4 29 5 30 6 31 7 5 8 6 9 7 10 8 11 9 12 27 13
REMARK SMILES IDX 10 14 11 15 26 16 28 17 12 18 25 19 24 20 13 21 22 22 14 23
REMARK SMILES IDX 16 24 21 25 23 26 15 27 17 28 20 29 18 30 19 31
REMARK H PARENT
REMARK Flexibility Score: inf
ROOT
ATOM      1  C   UNL     1       3.960  11.745  -6.431  1.00  0.00     0.004 C 
ENDROOT
BRANCH   1   2
ATOM      2  C   UNL     1       5.191  12.664  -6.739  1.00  0.00    -0.009 C 
BRANCH   2   3
ATOM      3  C   UNL     1       6.290  11.873  -7.521  1.00  0.00     0.000 C 
ATOM      4  C   UNL     1       6.725  12.553  -8.828  1.00  0.00     0.004 C 
ENDBRANCH   2   3
BRANCH   2   5
ATOM      5  C   UNL     1       5.741  13.421  -5.479  1.00  0.00    -0.014 C 
ATOM      6  C   UNL     1       7.098  12.862  -4.998  1.00  0.00     0.007 C 
ATOM      7  C   UNL     1       5.920  14.933  -5.755  1.00  0.00     0.007 C 
ENDBRANCH   2   5
ENDBRANCH   1   2
BRANCH   1   8
ATOM      8  C   UNL     1       2.553  12.303  -6.781  1.00  0.00     0.004 C 
BRANCH   8   9
ATOM      9  C   UNL     1       2.299  12.526  -8.299  1.00  0.00    -0.011 C 
ATOM     10  C   UNL     1       2.796  11.322  -9.125  1.00  0.00     0.008 C 
BRANCH   9  11
ATOM     11  C   UNL     1       2.729  13.959  -8.790  1.00  0.00    -0.002 C 
ATOM     12  C   UNL     1       4.250  14.059  -9.070  1.00  0.00     0.005 C 
ATOM     13  C   UNL     1       2.398  15.281  -8.015  1.00  0.00    -0.026 C 
ATOM     14  C   UNL     1       4.625  15.542  -8.951  1.00  0.00     0.005 C 
ATOM     15  C   UNL     1       3.288  16.259  -8.808  1.00  0.00    -0.001 C 
ATOM     16  C   UNL     1       0.945  15.790  -8.145  1.00  0.00     0.007 C 
ATOM     17  C   UNL     1       2.791  15.196  -6.508  1.00  0.00     0.012 C 
ATOM     18  C   UNL     1       3.289  17.703  -8.260  1.00  0.00     0.004 C 
ATOM     19  C   UNL     1       0.807  17.248  -7.635  1.00  0.00     0.005 C 
ATOM     20  C   UNL     1       1.821  18.250  -8.281  1.00  0.00     0.003 C 
ATOM     21  C   UNL     1       4.204  18.595  -9.124  1.00  0.00     0.085 C 
ATOM     22  C   UNL     1       1.718  19.720  -7.708  1.00  0.00    -0.000 C 
ATOM     23  C   UNL     1       4.088  20.038  -8.752  1.00  0.00     0.159 C 
ATOM     24  C   UNL     1       2.773  20.611  -8.380  1.00  0.00     0.005 C 
ATOM     25  C   UNL     1       0.295  20.291  -8.010  1.00  0.00     0.020 C 
ATOM     26  C   UNL     1       1.970  19.764  -6.176  1.00  0.00     0.017 C 
ATOM     27  O   UNL     1       5.106  20.778  -8.853  1.00  0.00    -0.295 OA
ATOM     28  C   UNL     1       2.566  21.931  -8.563  1.00  0.00     0.055 C 
ATOM     29  C   UNL     1       0.152  21.781  -7.673  1.00  0.00     0.081 C 
ATOM     30  C   UNL     1       1.283  22.572  -8.248  1.00  0.00     0.156 C 
ATOM     31  O   UNL     1       1.152  23.813  -8.420  1.00  0.00    -0.295 OA
ENDBRANCH   9  11
ENDBRANCH   8   9
ENDBRANCH   1   8
TORSDOF 6
ENDMDL
MODEL 3
REMARK VINA RESULT:     2.296      1.719      3.460
REMARK INTER + INTRA:           3.808
REMARK INTER:                   3.869
REMARK INTRA:                  -0.062
REMARK UNBOUND:                 0.707
REMARK SMILES CC[C@@H](CC[C@H](C)[C@@H]1CC[C@@H]2[C@H]3CC(=O)C4=CC(=O)CC[C@@]4(C)[C@@H]3CC[C@]21C)C(C)C
REMARK SMILES IDX 4 1 3 2 2 3 1 4 29 5 30 6 31 7 5 8 6 9 7 10 8 11 9 12 27 13
REMARK SMILES IDX 10 14 11 15 26 16 28 17 12 18 25 19 24 20 13 21 22 22 14 23
REMARK SMILES IDX 16 24 21 25 23 26 15 27 17 28 20 29 18 30 19 31
REMARK H PARENT
REMARK Flexibility Score: inf
ROOT
ATOM      1  C   UNL     1       3.981  11.530  -6.855  1.00  0.00     0.004 C 
ENDROOT
BRANCH   1   2
ATOM      2  C   UNL     1       5.501  11.886  -6.992  1.00  0.00    -0.009 C 
BRANCH   2   3
ATOM      3  C   UNL     1       5.845  13.168  -6.167  1.00  0.00     0.000 C 
ATOM      4  C   UNL     1       6.646  12.881  -4.887  1.00  0.00     0.004 C 
ENDBRANCH   2   3
BRANCH   2   5
ATOM      5  C   UNL     1       6.003  11.943  -8.478  1.00  0.00    -0.014 C 
ATOM      6  C   UNL     1       6.362  13.377  -8.925  1.00  0.00     0.007 C 
ATOM      7  C   UNL     1       7.247  11.050  -8.695  1.00  0.00     0.007 C 
ENDBRANCH   2   5
ENDBRANCH   1   2
BRANCH   1   8
ATOM      8  C   UNL     1       2.982  12.717  -6.765  1.00  0.00     0.004 C 
BRANCH   8   9
ATOM      9  C   UNL     1       2.257  13.062  -8.097  1.00  0.00    -0.011 C 
ATOM     10  C   UNL     1       2.356  11.893  -9.099  1.00  0.00     0.008 C 
BRANCH   9  11
ATOM     11  C   UNL     1       2.611  14.498  -8.635  1.00  0.00    -0.002 C 
ATOM     12  C   UNL     1       4.117  14.654  -8.965  1.00  0.00     0.005 C 
ATOM     13  C   UNL     1       2.249  15.824  -7.881  1.00  0.00    -0.026 C 
ATOM     14  C   UNL     1       4.433  16.154  -8.893  1.00  0.00     0.005 C 
ATOM     15  C   UNL     1       3.073  16.819  -8.724  1.00  0.00    -0.001 C 
ATOM     16  C   UNL     1       0.773  16.270  -7.977  1.00  0.00     0.007 C 
ATOM     17  C   UNL     1       2.692  15.793  -6.386  1.00  0.00     0.012 C 
ATOM     18  C   UNL     1       3.030  18.275  -8.211  1.00  0.00     0.004 C 
ATOM     19  C   UNL     1       0.589  17.733  -7.497  1.00  0.00     0.005 C 
ATOM     20  C   UNL     1       1.540  18.759  -8.198  1.00  0.00     0.003 C 
ATOM     21  C   UNL     1       3.879  19.182  -9.124  1.00  0.00     0.085 C 
ATOM     22  C   UNL     1       1.393  20.238  -7.656  1.00  0.00    -0.000 C 
ATOM     23  C   UNL     1       3.714  20.627  -8.782  1.00  0.00     0.159 C 
ATOM     24  C   UNL     1       2.388  21.155  -8.382  1.00  0.00     0.005 C 
ATOM     25  C   UNL     1      -0.062  20.742  -7.926  1.00  0.00     0.020 C 
ATOM     26  C   UNL     1       1.690  20.330  -6.135  1.00  0.00     0.017 C 
ATOM     27  O   UNL     1       4.696  21.407  -8.932  1.00  0.00    -0.295 OA
ATOM     28  C   UNL     1       2.120  22.461  -8.589  1.00  0.00     0.055 C 
ATOM     29  C   UNL     1      -0.257  22.233  -7.620  1.00  0.00     0.081 C 
ATOM     30  C   UNL     1       0.822  23.055  -8.248  1.00  0.00     0.156 C 
ATOM     31  O   UNL     1       0.633  24.285  -8.445  1.00  0.00    -0.295 OA
ENDBRANCH   9  11
ENDBRANCH   8   9
ENDBRANCH   1   8
TORSDOF 6
ENDMDL
MODEL 4
REMARK VINA RESULT:     2.434      2.922      8.723
REMARK INTER + INTRA:           3.994
REMARK INTER:                   3.111
REMARK INTRA:                   0.882
REMARK UNBOUND:                 0.707
REMARK SMILES CC[C@@H](CC[C@H](C)[C@@H]1CC[C@@H]2[C@H]3CC(=O)C4=CC(=O)CC[C@@]4(C)[C@@H]3CC[C@]21C)C(C)C
REMARK SMILES IDX 4 1 3 2 2 3 1 4 29 5 30 6 31 7 5 8 6 9 7 10 8 11 9 12 27 13
REMARK SMILES IDX 10 14 11 15 26 16 28 17 12 18 25 19 24 20 13 21 22 22 14 23
REMARK SMILES IDX 16 24 21 25 23 26 15 27 17 28 20 29 18 30 19 31
REMARK H PARENT
REMARK Flexibility Score: inf
ROOT
ATOM      1  C   UNL     1       2.564  22.220  -9.007  1.00  0.00     0.004 C 
ENDROOT
BRANCH   1   2
ATOM      2  C   UNL     1       1.855  23.401  -8.259  1.00  0.00    -0.009 C 
BRANCH   2   3
ATOM      3  C   UNL     1       1.330  22.933  -6.862  1.00  0.00     0.000 C 
ATOM      4  C   UNL     1       2.345  22.091  -6.073  1.00  0.00     0.004 C 
ENDBRANCH   2   3
BRANCH   2   5
ATOM      5  C   UNL     1       0.769  24.132  -9.124  1.00  0.00    -0.014 C 
ATOM      6  C   UNL     1      -0.670  23.772  -8.695  1.00  0.00     0.007 C 
ATOM      7  C   UNL     1       0.920  25.670  -9.048  1.00  0.00     0.007 C 
ENDBRANCH   2   5
ENDBRANCH   1   2
BRANCH   1   8
ATOM      8  C   UNL     1       2.356  20.791  -8.433  1.00  0.00     0.004 C 
BRANCH   8   9
ATOM      9  C   UNL     1       1.022  20.109  -8.850  1.00  0.00    -0.011 C 
ATOM     10  C   UNL     1      -0.133  20.544  -7.924  1.00  0.00     0.008 C 
BRANCH   9  11
ATOM     11  C   UNL     1       1.179  18.568  -9.125  1.00  0.00    -0.002 C 
ATOM     12  C   UNL     1      -0.173  17.814  -9.066  1.00  0.00     0.005 C 
ATOM     13  C   UNL     1       2.166  17.639  -8.336  1.00  0.00    -0.026 C 
ATOM     14  C   UNL     1       0.151  16.347  -8.755  1.00  0.00     0.005 C 
ATOM     15  C   UNL     1       1.670  16.269  -8.843  1.00  0.00    -0.001 C 
ATOM     16  C   UNL     1       3.655  17.751  -8.731  1.00  0.00     0.007 C 
ATOM     17  C   UNL     1       2.019  17.797  -6.792  1.00  0.00     0.012 C 
ATOM     18  C   UNL     1       2.378  15.058  -8.196  1.00  0.00     0.004 C 
ATOM     19  C   UNL     1       4.487  16.579  -8.150  1.00  0.00     0.005 C 
ATOM     20  C   UNL     1       3.915  15.161  -8.485  1.00  0.00     0.003 C 
ATOM     21  C   UNL     1       1.813  13.745  -8.773  1.00  0.00     0.085 C 
ATOM     22  C   UNL     1       4.731  13.973  -7.833  1.00  0.00    -0.000 C 
ATOM     23  C   UNL     1       2.596  12.555  -8.322  1.00  0.00     0.159 C 
ATOM     24  C   UNL     1       4.070  12.634  -8.194  1.00  0.00     0.005 C 
ATOM     25  C   UNL     1       6.193  13.991  -8.384  1.00  0.00     0.020 C 
ATOM     26  C   UNL     1       4.769  14.078  -6.284  1.00  0.00     0.017 C 
ATOM     27  O   UNL     1       1.995  11.459  -8.146  1.00  0.00    -0.295 OA
ATOM     28  C   UNL     1       4.794  11.503  -8.312  1.00  0.00     0.055 C 
ATOM     29  C   UNL     1       7.015  12.764  -7.969  1.00  0.00     0.081 C 
ATOM     30  C   UNL     1       6.260  11.500  -8.227  1.00  0.00     0.156 C 
ATOM     31  O   UNL     1       6.884  10.410  -8.325  1.00  0.00    -0.295 OA
ENDBRANCH   9  11
ENDBRANCH   8   9
ENDBRANCH   1   8
TORSDOF 6
ENDMDL
