MODEL 1
REMARK VINA RESULT:    -5.800      0.000      0.000
REMARK INTER + INTRA:          -6.172
REMARK INTER:                  -6.139
REMARK INTRA:                  -0.033
REMARK UNBOUND:                -0.033
REMARK SMILES COc1ccc2ccc(=O)oc2c1
REMARK SMILES IDX 3 1 13 2 12 3 6 4 5 5 4 6 7 7 8 8 9 9 10 10 11 11 2 12 1 13
REMARK H PARENT
REMARK Flexibility Score: inf
ROOT
ATOM      1  C   UNL     1     -37.066  -4.573 -13.023  1.00  0.00     0.122 A 
ATOM      2  C   UNL     1     -38.304  -5.249 -13.015  1.00  0.00     0.094 A 
ATOM      3  C   UNL     1     -38.349  -6.638 -13.173  1.00  0.00     0.142 A 
ATOM      4  C   UNL     1     -37.152  -7.366 -13.342  1.00  0.00     0.018 A 
ATOM      5  C   UNL     1     -35.922  -6.695 -13.350  1.00  0.00     0.016 A 
ATOM      6  C   UNL     1     -35.885  -5.306 -13.191  1.00  0.00     0.047 A 
ATOM      7  C   UNL     1     -37.230  -8.754 -13.498  1.00  0.00     0.019 A 
ATOM      8  C   UNL     1     -38.478  -9.374 -13.483  1.00  0.00     0.094 A 
ATOM      9  C   UNL     1     -39.623  -8.588 -13.312  1.00  0.00     0.336 A 
ATOM     10  O   UNL     1     -40.760  -9.130 -13.296  1.00  0.00    -0.246 OA
ATOM     11  O   UNL     1     -39.521  -7.270 -13.165  1.00  0.00    -0.423 OA
ENDROOT
BRANCH   1  12
ATOM     12  O   UNL     1     -36.969  -3.182 -12.868  1.00  0.00    -0.497 OA
ATOM     13  C   UNL     1     -36.776  -2.523 -11.621  1.00  0.00     0.278 C 
ENDBRANCH   1  12
TORSDOF 1
ENDMDL
MODEL 2
REMARK VINA RESULT:    -5.564      1.472      4.796
REMARK INTER + INTRA:          -5.922
REMARK INTER:                  -5.883
REMARK INTRA:                  -0.039
REMARK UNBOUND:                -0.033
REMARK SMILES COc1ccc2ccc(=O)oc2c1
REMARK SMILES IDX 3 1 13 2 12 3 6 4 5 5 4 6 7 7 8 8 9 9 10 10 11 11 2 12 1 13
REMARK H PARENT
REMARK Flexibility Score: inf
ROOT
ATOM      1  C   UNL     1     -38.411  -8.251 -14.260  1.00  0.00     0.122 A 
ATOM      2  C   UNL     1     -38.279  -7.161 -13.375  1.00  0.00     0.094 A 
ATOM      3  C   UNL     1     -37.209  -6.271 -13.508  1.00  0.00     0.142 A 
ATOM      4  C   UNL     1     -36.257  -6.465 -14.532  1.00  0.00     0.018 A 
ATOM      5  C   UNL     1     -36.388  -7.547 -15.412  1.00  0.00     0.016 A 
ATOM      6  C   UNL     1     -37.461  -8.433 -15.272  1.00  0.00     0.047 A 
ATOM      7  C   UNL     1     -35.198  -5.558 -14.640  1.00  0.00     0.019 A 
ATOM      8  C   UNL     1     -35.112  -4.497 -13.739  1.00  0.00     0.094 A 
ATOM      9  C   UNL     1     -36.092  -4.368 -12.749  1.00  0.00     0.336 A 
ATOM     10  O   UNL     1     -36.032  -3.416 -11.927  1.00  0.00    -0.246 OA
ATOM     11  O   UNL     1     -37.090  -5.244 -12.669  1.00  0.00    -0.423 OA
ENDROOT
BRANCH   1  12
ATOM     12  O   UNL     1     -39.467  -9.171 -14.167  1.00  0.00    -0.497 OA
ATOM     13  C   UNL     1     -40.625  -8.987 -13.359  1.00  0.00     0.278 C 
ENDBRANCH   1  12
TORSDOF 1
ENDMDL
MODEL 3
REMARK VINA RESULT:    -5.540      3.221      5.570
REMARK INTER + INTRA:          -5.897
REMARK INTER:                  -5.863
REMARK INTRA:                  -0.034
REMARK UNBOUND:                -0.033
REMARK SMILES COc1ccc2ccc(=O)oc2c1
REMARK SMILES IDX 3 1 13 2 12 3 6 4 5 5 4 6 7 7 8 8 9 9 10 10 11 11 2 12 1 13
REMARK H PARENT
REMARK Flexibility Score: inf
ROOT
ATOM      1  C   UNL     1     -36.843  -7.915 -14.326  1.00  0.00     0.122 A 
ATOM      2  C   UNL     1     -36.425  -7.551 -15.623  1.00  0.00     0.094 A 
ATOM      3  C   UNL     1     -35.595  -6.440 -15.810  1.00  0.00     0.142 A 
ATOM      4  C   UNL     1     -35.175  -5.682 -14.697  1.00  0.00     0.018 A 
ATOM      5  C   UNL     1     -35.589  -6.043 -13.408  1.00  0.00     0.016 A 
ATOM      6  C   UNL     1     -36.419  -7.155 -13.229  1.00  0.00     0.047 A 
ATOM      7  C   UNL     1     -34.345  -4.577 -14.916  1.00  0.00     0.019 A 
ATOM      8  C   UNL     1     -33.961  -4.259 -16.218  1.00  0.00     0.094 A 
ATOM      9  C   UNL     1     -34.417  -5.056 -17.273  1.00  0.00     0.336 A 
ATOM     10  O   UNL     1     -34.080  -4.785 -18.456  1.00  0.00    -0.246 OA
ATOM     11  O   UNL     1     -35.204  -6.102 -17.037  1.00  0.00    -0.423 OA
ENDROOT
BRANCH   1  12
ATOM     12  O   UNL     1     -37.674  -9.020 -14.087  1.00  0.00    -0.497 OA
ATOM     13  C   UNL     1     -38.910  -8.959 -13.382  1.00  0.00     0.278 C 
ENDBRANCH   1  12
TORSDOF 1
ENDMDL
MODEL 4
REMARK VINA RESULT:    -5.502      6.986      8.501
REMARK INTER + INTRA:          -5.857
REMARK INTER:                  -5.817
REMARK INTRA:                  -0.040
REMARK UNBOUND:                -0.033
REMARK SMILES COc1ccc2ccc(=O)oc2c1
REMARK SMILES IDX 3 1 13 2 12 3 6 4 5 5 4 6 7 7 8 8 9 9 10 10 11 11 2 12 1 13
REMARK H PARENT
REMARK Flexibility Score: inf
ROOT
ATOM      1  C   UNL     1     -31.177  -2.603 -19.651  1.00  0.00     0.122 A 
ATOM      2  C   UNL     1     -32.539  -2.765 -19.321  1.00  0.00     0.094 A 
ATOM      3  C   UNL     1     -32.904  -3.345 -18.102  1.00  0.00     0.142 A 
ATOM      4  C   UNL     1     -31.906  -3.770 -17.199  1.00  0.00     0.018 A 
ATOM      5  C   UNL     1     -30.553  -3.609 -17.526  1.00  0.00     0.016 A 
ATOM      6  C   UNL     1     -30.196  -3.028 -18.747  1.00  0.00     0.047 A 
ATOM      7  C   UNL     1     -32.302  -4.347 -15.988  1.00  0.00     0.019 A 
ATOM      8  C   UNL     1     -33.661  -4.485 -15.709  1.00  0.00     0.094 A 
ATOM      9  C   UNL     1     -34.595  -4.041 -16.652  1.00  0.00     0.336 A 
ATOM     10  O   UNL     1     -35.827  -4.158 -16.419  1.00  0.00    -0.246 OA
ATOM     11  O   UNL     1     -34.191  -3.496 -17.796  1.00  0.00    -0.423 OA
ENDROOT
BRANCH   1  12
ATOM     12  O   UNL     1     -30.761  -2.027 -20.861  1.00  0.00    -0.497 OA
ATOM     13  C   UNL     1     -29.402  -1.909 -21.270  1.00  0.00     0.278 C 
ENDBRANCH   1  12
TORSDOF 1
ENDMDL
MODEL 5
REMARK VINA RESULT:    -5.473      6.225      7.732
REMARK INTER + INTRA:          -5.826
REMARK INTER:                  -5.791
REMARK INTRA:                  -0.035
REMARK UNBOUND:                -0.033
REMARK SMILES COc1ccc2ccc(=O)oc2c1
REMARK SMILES IDX 3 1 13 2 12 3 6 4 5 5 4 6 7 7 8 8 9 9 10 10 11 11 2 12 1 13
REMARK H PARENT
REMARK Flexibility Score: inf
ROOT
ATOM      1  C   UNL     1     -30.810  -5.301 -16.698  1.00  0.00     0.122 A 
ATOM      2  C   UNL     1     -32.123  -5.795 -16.843  1.00  0.00     0.094 A 
ATOM      3  C   UNL     1     -33.124  -4.986 -17.390  1.00  0.00     0.142 A 
ATOM      4  C   UNL     1     -32.819  -3.670 -17.798  1.00  0.00     0.018 A 
ATOM      5  C   UNL     1     -31.515  -3.178 -17.655  1.00  0.00     0.016 A 
ATOM      6  C   UNL     1     -30.519  -3.993 -17.107  1.00  0.00     0.047 A 
ATOM      7  C   UNL     1     -33.842  -2.885 -18.342  1.00  0.00     0.019 A 
ATOM      8  C   UNL     1     -35.123  -3.421 -18.463  1.00  0.00     0.094 A 
ATOM      9  C   UNL     1     -35.352  -4.734 -18.036  1.00  0.00     0.336 A 
ATOM     10  O   UNL     1     -36.503  -5.235 -18.138  1.00  0.00    -0.246 OA
ATOM     11  O   UNL     1     -34.361  -5.459 -17.524  1.00  0.00    -0.423 OA
ENDROOT
BRANCH   1  12
ATOM     12  O   UNL     1     -29.772  -6.073 -16.155  1.00  0.00    -0.497 OA
ATOM     13  C   UNL     1     -29.464  -7.404 -16.559  1.00  0.00     0.278 C 
ENDBRANCH   1  12
TORSDOF 1
ENDMDL
MODEL 6
REMARK VINA RESULT:    -5.464      1.792      2.709
REMARK INTER + INTRA:          -5.816
REMARK INTER:                  -5.783
REMARK INTRA:                  -0.033
REMARK UNBOUND:                -0.033
REMARK SMILES COc1ccc2ccc(=O)oc2c1
REMARK SMILES IDX 3 1 13 2 12 3 6 4 5 5 4 6 7 7 8 8 9 9 10 10 11 11 2 12 1 13
REMARK H PARENT
REMARK Flexibility Score: inf
ROOT
ATOM      1  C   UNL     1     -38.947  -4.380 -12.152  1.00  0.00     0.122 A 
ATOM      2  C   UNL     1     -38.030  -5.165 -12.880  1.00  0.00     0.094 A 
ATOM      3  C   UNL     1     -38.355  -6.477 -13.241  1.00  0.00     0.142 A 
ATOM      4  C   UNL     1     -39.606  -7.017 -12.873  1.00  0.00     0.018 A 
ATOM      5  C   UNL     1     -40.518  -6.238 -12.150  1.00  0.00     0.016 A 
ATOM      6  C   UNL     1     -40.186  -4.927 -11.794  1.00  0.00     0.047 A 
ATOM      7  C   UNL     1     -39.902  -8.332 -13.248  1.00  0.00     0.019 A 
ATOM      8  C   UNL     1     -38.960  -9.066 -13.967  1.00  0.00     0.094 A 
ATOM      9  C   UNL     1     -37.740  -8.465 -14.296  1.00  0.00     0.336 A 
ATOM     10  O   UNL     1     -36.877  -9.112 -14.945  1.00  0.00    -0.246 OA
ATOM     11  O   UNL     1     -37.484  -7.213 -13.928  1.00  0.00    -0.423 OA
ENDROOT
BRANCH   1  12
ATOM     12  O   UNL     1     -38.668  -3.060 -11.768  1.00  0.00    -0.497 OA
ATOM     13  C   UNL     1     -37.833  -2.701 -10.671  1.00  0.00     0.278 C 
ENDBRANCH   1  12
TORSDOF 1
ENDMDL
MODEL 7
REMARK VINA RESULT:    -5.453      3.585      4.380
REMARK INTER + INTRA:          -5.805
REMARK INTER:                  -5.765
REMARK INTRA:                  -0.040
REMARK UNBOUND:                -0.033
REMARK SMILES COc1ccc2ccc(=O)oc2c1
REMARK SMILES IDX 3 1 13 2 12 3 6 4 5 5 4 6 7 7 8 8 9 9 10 10 11 11 2 12 1 13
REMARK H PARENT
REMARK Flexibility Score: inf
ROOT
ATOM      1  C   UNL     1     -34.564  -4.754 -17.167  1.00  0.00     0.122 A 
ATOM      2  C   UNL     1     -35.302  -5.948 -17.032  1.00  0.00     0.094 A 
ATOM      3  C   UNL     1     -35.648  -6.423 -15.763  1.00  0.00     0.142 A 
ATOM      4  C   UNL     1     -35.256  -5.706 -14.613  1.00  0.00     0.018 A 
ATOM      5  C   UNL     1     -34.522  -4.519 -14.746  1.00  0.00     0.016 A 
ATOM      6  C   UNL     1     -34.180  -4.050 -16.019  1.00  0.00     0.047 A 
ATOM      7  C   UNL     1     -35.616  -6.206 -13.358  1.00  0.00     0.019 A 
ATOM      8  C   UNL     1     -36.346  -7.391 -13.279  1.00  0.00     0.094 A 
ATOM      9  C   UNL     1     -36.700  -8.050 -14.462  1.00  0.00     0.336 A 
ATOM     10  O   UNL     1     -37.360  -9.121 -14.410  1.00  0.00    -0.246 OA
ATOM     11  O   UNL     1     -36.345  -7.551 -15.643  1.00  0.00    -0.423 OA
ENDROOT
BRANCH   1  12
ATOM     12  O   UNL     1     -34.193  -4.237 -18.418  1.00  0.00    -0.497 OA
ATOM     13  C   UNL     1     -33.373  -3.088 -18.602  1.00  0.00     0.278 C 
ENDBRANCH   1  12
TORSDOF 1
ENDMDL
MODEL 8
REMARK VINA RESULT:    -5.329      5.524      7.797
REMARK INTER + INTRA:          -5.674
REMARK INTER:                  -5.640
REMARK INTRA:                  -0.034
REMARK UNBOUND:                -0.033
REMARK SMILES COc1ccc2ccc(=O)oc2c1
REMARK SMILES IDX 3 1 13 2 12 3 6 4 5 5 4 6 7 7 8 8 9 9 10 10 11 11 2 12 1 13
REMARK H PARENT
REMARK Flexibility Score: inf
ROOT
ATOM      1  C   UNL     1     -35.280  -6.056 -16.738  1.00  0.00     0.122 A 
ATOM      2  C   UNL     1     -33.950  -5.708 -16.426  1.00  0.00     0.094 A 
ATOM      3  C   UNL     1     -33.296  -4.704 -17.148  1.00  0.00     0.142 A 
ATOM      4  C   UNL     1     -33.970  -4.038 -18.193  1.00  0.00     0.018 A 
ATOM      5  C   UNL     1     -35.292  -4.383 -18.504  1.00  0.00     0.016 A 
ATOM      6  C   UNL     1     -35.939  -5.387 -17.777  1.00  0.00     0.047 A 
ATOM      7  C   UNL     1     -33.290  -3.038 -18.897  1.00  0.00     0.019 A 
ATOM      8  C   UNL     1     -31.975  -2.733 -18.549  1.00  0.00     0.094 A 
ATOM      9  C   UNL     1     -31.370  -3.435 -17.501  1.00  0.00     0.336 A 
ATOM     10  O   UNL     1     -30.183  -3.173 -17.172  1.00  0.00    -0.246 OA
ATOM     11  O   UNL     1     -32.040  -4.381 -16.847  1.00  0.00    -0.423 OA
ENDROOT
BRANCH   1  12
ATOM     12  O   UNL     1     -35.979  -7.055 -16.043  1.00  0.00    -0.497 OA
ATOM     13  C   UNL     1     -36.390  -6.952 -14.684  1.00  0.00     0.278 C 
ENDBRANCH   1  12
TORSDOF 1
ENDMDL
MODEL 9
REMARK VINA RESULT:    -5.296      2.081      2.832
REMARK INTER + INTRA:          -5.639
REMARK INTER:                  -5.599
REMARK INTRA:                  -0.040
REMARK UNBOUND:                -0.033
REMARK SMILES COc1ccc2ccc(=O)oc2c1
REMARK SMILES IDX 3 1 13 2 12 3 6 4 5 5 4 6 7 7 8 8 9 9 10 10 11 11 2 12 1 13
REMARK H PARENT
REMARK Flexibility Score: inf
ROOT
ATOM      1  C   UNL     1     -36.026  -5.773 -15.130  1.00  0.00     0.122 A 
ATOM      2  C   UNL     1     -37.050  -5.377 -14.245  1.00  0.00     0.094 A 
ATOM      3  C   UNL     1     -38.042  -6.287 -13.862  1.00  0.00     0.142 A 
ATOM      4  C   UNL     1     -38.017  -7.606 -14.364  1.00  0.00     0.018 A 
ATOM      5  C   UNL     1     -36.999  -8.000 -15.242  1.00  0.00     0.016 A 
ATOM      6  C   UNL     1     -36.011  -7.085 -15.620  1.00  0.00     0.047 A 
ATOM      7  C   UNL     1     -39.022  -8.492 -13.963  1.00  0.00     0.019 A 
ATOM      8  C   UNL     1     -40.012  -8.050 -13.087  1.00  0.00     0.094 A 
ATOM      9  C   UNL     1     -39.974  -6.728 -12.631  1.00  0.00     0.336 A 
ATOM     10  O   UNL     1     -40.860  -6.311 -11.839  1.00  0.00    -0.246 OA
ATOM     11  O   UNL     1     -39.006  -5.906 -13.027  1.00  0.00    -0.423 OA
ENDROOT
BRANCH   1  12
ATOM     12  O   UNL     1     -35.010  -4.898 -15.543  1.00  0.00    -0.497 OA
ATOM     13  C   UNL     1     -33.891  -5.282 -16.336  1.00  0.00     0.278 C 
ENDBRANCH   1  12
TORSDOF 1
ENDMDL
