MODEL 1
REMARK VINA RESULT:    -6.374      0.000      0.000
REMARK INTER + INTRA:          -7.765
REMARK INTER:                  -7.678
REMARK INTRA:                  -0.087
REMARK UNBOUND:                -0.087
REMARK SMILES O=c1c(O)c(-c2ccc(O)c(O)c2)oc2cc(O)cc(O)c12
REMARK SMILES IDX 5 1 3 2 2 3 1 4 22 5 20 6 19 7 17 8 16 9 15 10 14 11 6 12
REMARK SMILES IDX 7 13 8 14 9 15 13 16 11 17 10 18 12 20 4 22 21 24 18 26
REMARK H PARENT 10 19 12 21 4 23 21 25 18 27
REMARK Flexibility Score: inf
ROOT
ATOM      1  C   UNL     1      -7.432  14.331  -2.840  1.00  0.00     0.180 A 
ATOM      2  C   UNL     1      -7.429  12.925  -2.891  1.00  0.00     0.208 A 
ATOM      3  C   UNL     1      -7.514  12.290  -4.141  1.00  0.00     0.238 A 
ATOM      4  O   UNL     1      -7.455  11.033  -4.185  1.00  0.00    -0.285 OA
ATOM      5  C   UNL     1      -7.616  13.066  -5.320  1.00  0.00     0.111 A 
ATOM      6  C   UNL     1      -7.749  12.528  -6.636  1.00  0.00     0.134 A 
ATOM      7  C   UNL     1      -7.711  13.387  -7.741  1.00  0.00     0.093 A 
ATOM      8  C   UNL     1      -7.612  14.771  -7.574  1.00  0.00     0.123 A 
ATOM      9  C   UNL     1      -7.543  15.310  -6.291  1.00  0.00     0.094 A 
ATOM     10  C   UNL     1      -7.542  14.476  -5.171  1.00  0.00     0.146 A 
ATOM     11  O   UNL     1      -7.464  15.031  -3.967  1.00  0.00    -0.452 OA
ENDROOT
BRANCH   1  12
ATOM     12  C   UNL     1      -7.372  15.071  -1.559  1.00  0.00     0.025 A 
ATOM     13  C   UNL     1      -8.377  15.983  -1.192  1.00  0.00     0.016 A 
ATOM     14  C   UNL     1      -8.286  16.689   0.010  1.00  0.00     0.051 A 
ATOM     15  C   UNL     1      -7.185  16.505   0.857  1.00  0.00     0.157 A 
ATOM     16  C   UNL     1      -6.260  14.906  -0.717  1.00  0.00     0.062 A 
ATOM     17  C   UNL     1      -6.166  15.611   0.489  1.00  0.00     0.158 A 
BRANCH  15  18
ATOM     18  O   UNL     1      -7.098  17.209   2.057  1.00  0.00    -0.504 OA
ATOM     19  H   UNL     1      -7.926  17.480   2.574  1.00  0.00     0.293 HD
ENDBRANCH  15  18
BRANCH  17  20
ATOM     20  O   UNL     1      -5.053  15.411   1.306  1.00  0.00    -0.504 OA
ATOM     21  H   UNL     1      -4.131  15.235   0.925  1.00  0.00     0.293 HD
ENDBRANCH  17  20
ENDBRANCH   1  12
BRANCH   2  22
ATOM     22  O   UNL     1      -7.304  12.179  -1.717  1.00  0.00    -0.502 OA
ATOM     23  H   UNL     1      -6.408  11.859  -1.368  1.00  0.00     0.293 HD
ENDBRANCH   2  22
BRANCH   6  24
ATOM     24  O   UNL     1      -7.945  11.170  -6.907  1.00  0.00    -0.507 OA
ATOM     25  H   UNL     1      -7.479  10.416  -6.428  1.00  0.00     0.293 HD
ENDBRANCH   6  24
BRANCH   8  26
ATOM     26  O   UNL     1      -7.592  15.620  -8.678  1.00  0.00    -0.508 OA
ATOM     27  H   UNL     1      -8.043  15.367  -9.550  1.00  0.00     0.293 HD
ENDBRANCH   8  26
TORSDOF 6
ENDMDL
MODEL 2
REMARK VINA RESULT:    -6.245      3.323      8.543
REMARK INTER + INTRA:          -7.610
REMARK INTER:                  -7.410
REMARK INTRA:                  -0.199
REMARK UNBOUND:                -0.087
REMARK SMILES O=c1c(O)c(-c2ccc(O)c(O)c2)oc2cc(O)cc(O)c12
REMARK SMILES IDX 5 1 3 2 2 3 1 4 22 5 20 6 19 7 17 8 16 9 15 10 14 11 6 12
REMARK SMILES IDX 7 13 8 14 9 15 13 16 11 17 10 18 12 20 4 22 21 24 18 26
REMARK H PARENT 10 19 12 21 4 23 21 25 18 27
REMARK Flexibility Score: inf
ROOT
ATOM      1  C   UNL     1      -7.550  16.109   1.367  1.00  0.00     0.180 A 
ATOM      2  C   UNL     1      -7.674  14.904   2.082  1.00  0.00     0.208 A 
ATOM      3  C   UNL     1      -7.350  14.887   3.448  1.00  0.00     0.238 A 
ATOM      4  O   UNL     1      -7.516  13.820   4.095  1.00  0.00    -0.285 OA
ATOM      5  C   UNL     1      -6.892  16.069   4.078  1.00  0.00     0.111 A 
ATOM      6  C   UNL     1      -6.496  16.156   5.447  1.00  0.00     0.134 A 
ATOM      7  C   UNL     1      -6.183  17.405   5.998  1.00  0.00     0.093 A 
ATOM      8  C   UNL     1      -6.187  18.560   5.211  1.00  0.00     0.123 A 
ATOM      9  C   UNL     1      -6.513  18.475   3.860  1.00  0.00     0.094 A 
ATOM     10  C   UNL     1      -6.865  17.249   3.291  1.00  0.00     0.146 A 
ATOM     11  O   UNL     1      -7.179  17.215   2.001  1.00  0.00    -0.452 OA
ENDROOT
BRANCH   1  12
ATOM     12  C   UNL     1      -7.848  16.200  -0.080  1.00  0.00     0.025 A 
ATOM     13  C   UNL     1      -8.973  16.898  -0.553  1.00  0.00     0.016 A 
ATOM     14  C   UNL     1      -9.248  16.950  -1.922  1.00  0.00     0.051 A 
ATOM     15  C   UNL     1      -8.412  16.295  -2.837  1.00  0.00     0.157 A 
ATOM     16  C   UNL     1      -7.025  15.528  -0.999  1.00  0.00     0.062 A 
ATOM     17  C   UNL     1      -7.298  15.579  -2.372  1.00  0.00     0.158 A 
BRANCH  15  18
ATOM     18  O   UNL     1      -8.688  16.351  -4.202  1.00  0.00    -0.504 OA
ATOM     19  H   UNL     1      -8.602  17.214  -4.727  1.00  0.00     0.293 HD
ENDBRANCH  15  18
BRANCH  17  20
ATOM     20  O   UNL     1      -6.450  14.911  -3.256  1.00  0.00    -0.504 OA
ATOM     21  H   UNL     1      -6.385  13.900  -3.277  1.00  0.00     0.293 HD
ENDBRANCH  17  20
ENDBRANCH   1  12
BRANCH   2  22
ATOM     22  O   UNL     1      -8.151  13.755   1.446  1.00  0.00    -0.502 OA
ATOM     23  H   UNL     1      -8.958  13.767   0.834  1.00  0.00     0.293 HD
ENDBRANCH   2  22
BRANCH   6  24
ATOM     24  O   UNL     1      -6.370  15.051   6.295  1.00  0.00    -0.507 OA
ATOM     25  H   UNL     1      -6.576  14.100   6.033  1.00  0.00     0.293 HD
ENDBRANCH   6  24
BRANCH   8  26
ATOM     26  O   UNL     1      -5.858  19.796   5.762  1.00  0.00    -0.508 OA
ATOM     27  H   UNL     1      -6.004  20.660   5.251  1.00  0.00     0.293 HD
ENDBRANCH   8  26
TORSDOF 6
ENDMDL
MODEL 3
REMARK VINA RESULT:    -6.094      1.960      2.077
REMARK INTER + INTRA:          -7.427
REMARK INTER:                  -7.126
REMARK INTRA:                  -0.301
REMARK UNBOUND:                -0.087
REMARK SMILES O=c1c(O)c(-c2ccc(O)c(O)c2)oc2cc(O)cc(O)c12
REMARK SMILES IDX 5 1 3 2 2 3 1 4 22 5 20 6 19 7 17 8 16 9 15 10 14 11 6 12
REMARK SMILES IDX 7 13 8 14 9 15 13 16 11 17 10 18 12 20 4 22 21 24 18 26
REMARK H PARENT 10 19 12 21 4 23 21 25 18 27
REMARK Flexibility Score: inf
ROOT
ATOM      1  C   UNL     1      -8.470  15.114  -2.024  1.00  0.00     0.180 A 
ATOM      2  C   UNL     1      -9.615  14.297  -2.007  1.00  0.00     0.208 A 
ATOM      3  C   UNL     1     -10.134  13.826  -3.223  1.00  0.00     0.238 A 
ATOM      4  O   UNL     1     -11.125  13.051  -3.198  1.00  0.00    -0.285 OA
ATOM      5  C   UNL     1      -9.513  14.191  -4.442  1.00  0.00     0.111 A 
ATOM      6  C   UNL     1      -9.978  13.806  -5.736  1.00  0.00     0.134 A 
ATOM      7  C   UNL     1      -9.211  14.115  -6.866  1.00  0.00     0.093 A 
ATOM      8  C   UNL     1      -8.030  14.854  -6.755  1.00  0.00     0.123 A 
ATOM      9  C   UNL     1      -7.600  15.286  -5.503  1.00  0.00     0.094 A 
ATOM     10  C   UNL     1      -8.324  14.962  -4.354  1.00  0.00     0.146 A 
ATOM     11  O   UNL     1      -7.873  15.385  -3.179  1.00  0.00    -0.452 OA
ENDROOT
BRANCH   1  12
ATOM     12  C   UNL     1      -7.880  15.669  -0.785  1.00  0.00     0.025 A 
ATOM     13  C   UNL     1      -8.446  16.781  -0.139  1.00  0.00     0.016 A 
ATOM     14  C   UNL     1      -7.857  17.303   1.017  1.00  0.00     0.051 A 
ATOM     15  C   UNL     1      -6.688  16.729   1.535  1.00  0.00     0.157 A 
ATOM     16  C   UNL     1      -6.697  15.111  -0.273  1.00  0.00     0.062 A 
ATOM     17  C   UNL     1      -6.105  15.630   0.885  1.00  0.00     0.158 A 
BRANCH  15  18
ATOM     18  O   UNL     1      -6.105  17.250   2.689  1.00  0.00    -0.504 OA
ATOM     19  H   UNL     1      -6.077  18.247   2.867  1.00  0.00     0.293 HD
ENDBRANCH  15  18
BRANCH  17  20
ATOM     20  O   UNL     1      -4.937  15.041   1.371  1.00  0.00    -0.504 OA
ATOM     21  H   UNL     1      -4.401  14.379   0.823  1.00  0.00     0.293 HD
ENDBRANCH  17  20
ENDBRANCH   1  12
BRANCH   2  22
ATOM     22  O   UNL     1     -10.198  13.931  -0.791  1.00  0.00    -0.502 OA
ATOM     23  H   UNL     1     -10.739  13.082  -0.681  1.00  0.00     0.293 HD
ENDBRANCH   2  22
BRANCH   6  24
ATOM     24  O   UNL     1     -11.190  13.146  -5.965  1.00  0.00    -0.507 OA
ATOM     25  H   UNL     1     -11.792  12.784  -5.243  1.00  0.00     0.293 HD
ENDBRANCH   6  24
BRANCH   8  26
ATOM     26  O   UNL     1      -7.282  15.172  -7.886  1.00  0.00    -0.508 OA
ATOM     27  H   UNL     1      -6.996  14.461  -8.549  1.00  0.00     0.293 HD
ENDBRANCH   8  26
TORSDOF 6
ENDMDL
MODEL 4
REMARK VINA RESULT:    -6.070      2.316      7.806
REMARK INTER + INTRA:          -7.399
REMARK INTER:                  -7.076
REMARK INTRA:                  -0.322
REMARK UNBOUND:                -0.087
REMARK SMILES O=c1c(O)c(-c2ccc(O)c(O)c2)oc2cc(O)cc(O)c12
REMARK SMILES IDX 5 1 3 2 2 3 1 4 22 5 20 6 19 7 17 8 16 9 15 10 14 11 6 12
REMARK SMILES IDX 7 13 8 14 9 15 13 16 11 17 10 18 12 20 4 22 21 24 18 26
REMARK H PARENT 10 19 12 21 4 23 21 25 18 27
REMARK Flexibility Score: inf
ROOT
ATOM      1  C   UNL     1      -8.212  15.787  -0.720  1.00  0.00     0.180 A 
ATOM      2  C   UNL     1      -6.921  15.674  -0.173  1.00  0.00     0.208 A 
ATOM      3  C   UNL     1      -6.676  16.200   1.106  1.00  0.00     0.238 A 
ATOM      4  O   UNL     1      -5.534  16.047   1.613  1.00  0.00    -0.285 OA
ATOM      5  C   UNL     1      -7.718  16.844   1.814  1.00  0.00     0.111 A 
ATOM      6  C   UNL     1      -7.571  17.449   3.099  1.00  0.00     0.134 A 
ATOM      7  C   UNL     1      -8.701  17.944   3.763  1.00  0.00     0.093 A 
ATOM      8  C   UNL     1      -9.961  17.915   3.160  1.00  0.00     0.123 A 
ATOM      9  C   UNL     1     -10.103  17.381   1.882  1.00  0.00     0.094 A 
ATOM     10  C   UNL     1      -9.002  16.847   1.209  1.00  0.00     0.146 A 
ATOM     11  O   UNL     1      -9.184  16.339  -0.004  1.00  0.00    -0.452 OA
ENDROOT
BRANCH   1  12
ATOM     12  C   UNL     1      -8.541  15.280  -2.071  1.00  0.00     0.025 A 
ATOM     13  C   UNL     1      -9.023  13.973  -2.266  1.00  0.00     0.016 A 
ATOM     14  C   UNL     1      -9.304  13.508  -3.553  1.00  0.00     0.051 A 
ATOM     15  C   UNL     1      -9.096  14.336  -4.665  1.00  0.00     0.157 A 
ATOM     16  C   UNL     1      -8.316  16.098  -3.190  1.00  0.00     0.062 A 
ATOM     17  C   UNL     1      -8.597  15.635  -4.482  1.00  0.00     0.158 A 
BRANCH  15  18
ATOM     18  O   UNL     1      -9.380  13.870  -5.948  1.00  0.00    -0.504 OA
ATOM     19  H   UNL     1      -9.191  12.912  -6.219  1.00  0.00     0.293 HD
ENDBRANCH  15  18
BRANCH  17  20
ATOM     20  O   UNL     1      -8.373  16.482  -5.568  1.00  0.00    -0.504 OA
ATOM     21  H   UNL     1      -7.461  16.573  -5.999  1.00  0.00     0.293 HD
ENDBRANCH  17  20
ENDBRANCH   1  12
BRANCH   2  22
ATOM     22  O   UNL     1      -5.913  15.014  -0.880  1.00  0.00    -0.502 OA
ATOM     23  H   UNL     1      -5.999  14.049  -1.177  1.00  0.00     0.293 HD
ENDBRANCH   2  22
BRANCH   6  24
ATOM     24  O   UNL     1      -6.344  17.612   3.750  1.00  0.00    -0.507 OA
ATOM     25  H   UNL     1      -6.104  18.396   4.335  1.00  0.00     0.293 HD
ENDBRANCH   6  24
BRANCH   8  26
ATOM     26  O   UNL     1     -11.076  18.425   3.820  1.00  0.00    -0.508 OA
ATOM     27  H   UNL     1     -11.006  18.826   4.748  1.00  0.00     0.293 HD
ENDBRANCH   8  26
TORSDOF 6
ENDMDL
MODEL 5
REMARK VINA RESULT:    -6.026      1.526      7.250
REMARK INTER + INTRA:          -7.346
REMARK INTER:                  -7.615
REMARK INTRA:                   0.269
REMARK UNBOUND:                -0.087
REMARK SMILES O=c1c(O)c(-c2ccc(O)c(O)c2)oc2cc(O)cc(O)c12
REMARK SMILES IDX 5 1 3 2 2 3 1 4 22 5 20 6 19 7 17 8 16 9 15 10 14 11 6 12
REMARK SMILES IDX 7 13 8 14 9 15 13 16 11 17 10 18 12 20 4 22 21 24 18 26
REMARK H PARENT 10 19 12 21 4 23 21 25 18 27
REMARK Flexibility Score: inf
ROOT
ATOM      1  C   UNL     1      -7.797  14.467  -4.117  1.00  0.00     0.180 A 
ATOM      2  C   UNL     1      -8.379  15.708  -3.802  1.00  0.00     0.208 A 
ATOM      3  C   UNL     1      -8.252  16.208  -2.496  1.00  0.00     0.238 A 
ATOM      4  O   UNL     1      -8.728  17.343  -2.234  1.00  0.00    -0.285 OA
ATOM      5  C   UNL     1      -7.559  15.455  -1.518  1.00  0.00     0.111 A 
ATOM      6  C   UNL     1      -7.404  15.846  -0.154  1.00  0.00     0.134 A 
ATOM      7  C   UNL     1      -6.587  15.087   0.694  1.00  0.00     0.093 A 
ATOM      8  C   UNL     1      -5.973  13.915   0.243  1.00  0.00     0.123 A 
ATOM      9  C   UNL     1      -6.167  13.494  -1.070  1.00  0.00     0.094 A 
ATOM     10  C   UNL     1      -6.947  14.249  -1.949  1.00  0.00     0.146 A 
ATOM     11  O   UNL     1      -7.097  13.816  -3.195  1.00  0.00    -0.452 OA
ENDROOT
BRANCH   1  12
ATOM     12  C   UNL     1      -7.909  13.864  -5.464  1.00  0.00     0.025 A 
ATOM     13  C   UNL     1      -7.968  12.470  -5.639  1.00  0.00     0.016 A 
ATOM     14  C   UNL     1      -8.050  11.922  -6.922  1.00  0.00     0.051 A 
ATOM     15  C   UNL     1      -8.061  12.756  -8.048  1.00  0.00     0.157 A 
ATOM     16  C   UNL     1      -7.900  14.694  -6.596  1.00  0.00     0.062 A 
ATOM     17  C   UNL     1      -7.983  14.149  -7.884  1.00  0.00     0.158 A 
BRANCH  15  18
ATOM     18  O   UNL     1      -8.145  12.207  -9.326  1.00  0.00    -0.504 OA
ATOM     19  H   UNL     1      -8.560  12.716 -10.097  1.00  0.00     0.293 HD
ENDBRANCH  15  18
BRANCH  17  20
ATOM     20  O   UNL     1      -7.984  15.006  -8.984  1.00  0.00    -0.504 OA
ATOM     21  H   UNL     1      -7.127  15.357  -9.393  1.00  0.00     0.293 HD
ENDBRANCH  17  20
ENDBRANCH   1  12
BRANCH   2  22
ATOM     22  O   UNL     1      -9.040  16.445  -4.788  1.00  0.00    -0.502 OA
ATOM     23  H   UNL     1      -9.891  16.962  -4.603  1.00  0.00     0.293 HD
ENDBRANCH   2  22
BRANCH   6  24
ATOM     24  O   UNL     1      -8.048  16.947   0.421  1.00  0.00    -0.507 OA
ATOM     25  H   UNL     1      -8.472  17.699  -0.099  1.00  0.00     0.293 HD
ENDBRANCH   6  24
BRANCH   8  26
ATOM     26  O   UNL     1      -5.176  13.157   1.098  1.00  0.00    -0.508 OA
ATOM     27  H   UNL     1      -5.433  13.005   2.067  1.00  0.00     0.293 HD
ENDBRANCH   8  26
TORSDOF 6
ENDMDL
MODEL 6
REMARK VINA RESULT:    -5.985      1.933      6.843
REMARK INTER + INTRA:          -7.296
REMARK INTER:                  -6.987
REMARK INTRA:                  -0.309
REMARK UNBOUND:                -0.087
REMARK SMILES O=c1c(O)c(-c2ccc(O)c(O)c2)oc2cc(O)cc(O)c12
REMARK SMILES IDX 5 1 3 2 2 3 1 4 22 5 20 6 19 7 17 8 16 9 15 10 14 11 6 12
REMARK SMILES IDX 7 13 8 14 9 15 13 16 11 17 10 18 12 20 4 22 21 24 18 26
REMARK H PARENT 10 19 12 21 4 23 21 25 18 27
REMARK Flexibility Score: inf
ROOT
ATOM      1  C   UNL     1      -7.613  14.726  -2.033  1.00  0.00     0.180 A 
ATOM      2  C   UNL     1      -8.191  13.593  -1.434  1.00  0.00     0.208 A 
ATOM      3  C   UNL     1      -8.206  13.497  -0.033  1.00  0.00     0.238 A 
ATOM      4  O   UNL     1      -8.774  12.508   0.499  1.00  0.00    -0.285 OA
ATOM      5  C   UNL     1      -7.630  14.527   0.749  1.00  0.00     0.111 A 
ATOM      6  C   UNL     1      -7.554  14.514   2.175  1.00  0.00     0.134 A 
ATOM      7  C   UNL     1      -7.080  15.646   2.851  1.00  0.00     0.093 A 
ATOM      8  C   UNL     1      -6.618  16.763   2.150  1.00  0.00     0.123 A 
ATOM      9  C   UNL     1      -6.634  16.761   0.758  1.00  0.00     0.094 A 
ATOM     10  C   UNL     1      -7.134  15.662   0.056  1.00  0.00     0.146 A 
ATOM     11  O   UNL     1      -7.140  15.705  -1.271  1.00  0.00    -0.452 OA
ENDROOT
BRANCH   1  12
ATOM     12  C   UNL     1      -7.536  14.887  -3.503  1.00  0.00     0.025 A 
ATOM     13  C   UNL     1      -8.512  15.609  -4.212  1.00  0.00     0.016 A 
ATOM     14  C   UNL     1      -8.433  15.727  -5.602  1.00  0.00     0.051 A 
ATOM     15  C   UNL     1      -7.386  15.115  -6.305  1.00  0.00     0.157 A 
ATOM     16  C   UNL     1      -6.501  14.258  -4.214  1.00  0.00     0.062 A 
ATOM     17  C   UNL     1      -6.418  14.375  -5.608  1.00  0.00     0.158 A 
BRANCH  15  18
ATOM     18  O   UNL     1      -7.308  15.236  -7.692  1.00  0.00    -0.504 OA
ATOM     19  H   UNL     1      -7.385  14.430  -8.301  1.00  0.00     0.293 HD
ENDBRANCH  15  18
BRANCH  17  20
ATOM     20  O   UNL     1      -5.368  13.747  -6.278  1.00  0.00    -0.504 OA
ATOM     21  H   UNL     1      -4.552  14.256  -6.594  1.00  0.00     0.293 HD
ENDBRANCH  17  20
ENDBRANCH   1  12
BRANCH   2  22
ATOM     22  O   UNL     1      -8.774  12.600  -2.224  1.00  0.00    -0.502 OA
ATOM     23  H   UNL     1      -8.796  12.652  -3.235  1.00  0.00     0.293 HD
ENDBRANCH   2  22
BRANCH   6  24
ATOM     24  O   UNL     1      -7.902  13.415   2.966  1.00  0.00    -0.507 OA
ATOM     25  H   UNL     1      -8.832  13.035   3.042  1.00  0.00     0.293 HD
ENDBRANCH   6  24
BRANCH   8  26
ATOM     26  O   UNL     1      -6.133  17.878   2.830  1.00  0.00    -0.508 OA
ATOM     27  H   UNL     1      -6.594  18.779   2.768  1.00  0.00     0.293 HD
ENDBRANCH   8  26
TORSDOF 6
ENDMDL
MODEL 7
REMARK VINA RESULT:    -5.897      1.935      7.124
REMARK INTER + INTRA:          -7.190
REMARK INTER:                  -7.200
REMARK INTRA:                   0.010
REMARK UNBOUND:                -0.087
REMARK SMILES O=c1c(O)c(-c2ccc(O)c(O)c2)oc2cc(O)cc(O)c12
REMARK SMILES IDX 5 1 3 2 2 3 1 4 22 5 20 6 19 7 17 8 16 9 15 10 14 11 6 12
REMARK SMILES IDX 7 13 8 14 9 15 13 16 11 17 10 18 12 20 4 22 21 24 18 26
REMARK H PARENT 10 19 12 21 4 23 21 25 18 27
REMARK Flexibility Score: inf
ROOT
ATOM      1  C   UNL     1      -7.635  14.933  -2.751  1.00  0.00     0.180 A 
ATOM      2  C   UNL     1      -8.210  16.089  -2.191  1.00  0.00     0.208 A 
ATOM      3  C   UNL     1      -8.229  16.231  -0.794  1.00  0.00     0.238 A 
ATOM      4  O   UNL     1      -8.695  17.291  -0.301  1.00  0.00    -0.285 OA
ATOM      5  C   UNL     1      -7.689  15.211   0.025  1.00  0.00     0.111 A 
ATOM      6  C   UNL     1      -7.693  15.231   1.453  1.00  0.00     0.134 A 
ATOM      7  C   UNL     1      -7.014  14.231   2.159  1.00  0.00     0.093 A 
ATOM      8  C   UNL     1      -6.389  13.174   1.491  1.00  0.00     0.123 A 
ATOM      9  C   UNL     1      -6.432  13.114   0.101  1.00  0.00     0.094 A 
ATOM     10  C   UNL     1      -7.070  14.116  -0.633  1.00  0.00     0.146 A 
ATOM     11  O   UNL     1      -7.078  14.025  -1.958  1.00  0.00    -0.452 OA
ENDROOT
BRANCH   1  12
ATOM     12  C   UNL     1      -7.600  14.700  -4.212  1.00  0.00     0.025 A 
ATOM     13  C   UNL     1      -8.744  14.879  -5.010  1.00  0.00     0.016 A 
ATOM     14  C   UNL     1      -8.693  14.629  -6.384  1.00  0.00     0.051 A 
ATOM     15  C   UNL     1      -7.504  14.186  -6.979  1.00  0.00     0.157 A 
ATOM     16  C   UNL     1      -6.417  14.236  -4.810  1.00  0.00     0.062 A 
ATOM     17  C   UNL     1      -6.362  13.986  -6.187  1.00  0.00     0.158 A 
BRANCH  15  18
ATOM     18  O   UNL     1      -7.456  13.941  -8.350  1.00  0.00    -0.504 OA
ATOM     19  H   UNL     1      -7.133  13.054  -8.721  1.00  0.00     0.293 HD
ENDBRANCH  15  18
BRANCH  17  20
ATOM     20  O   UNL     1      -5.165  13.539  -6.747  1.00  0.00    -0.504 OA
ATOM     21  H   UNL     1      -4.321  13.435  -6.198  1.00  0.00     0.293 HD
ENDBRANCH  17  20
ENDBRANCH   1  12
BRANCH   2  22
ATOM     22  O   UNL     1      -8.717  17.093  -3.019  1.00  0.00    -0.502 OA
ATOM     23  H   UNL     1      -9.693  17.362  -3.013  1.00  0.00     0.293 HD
ENDBRANCH   2  22
BRANCH   6  24
ATOM     24  O   UNL     1      -8.364  16.190   2.218  1.00  0.00    -0.507 OA
ATOM     25  H   UNL     1      -8.906  16.950   1.839  1.00  0.00     0.293 HD
ENDBRANCH   6  24
BRANCH   8  26
ATOM     26  O   UNL     1      -5.731  12.174   2.202  1.00  0.00    -0.508 OA
ATOM     27  H   UNL     1      -6.192  11.304   2.444  1.00  0.00     0.293 HD
ENDBRANCH   8  26
TORSDOF 6
ENDMDL
MODEL 8
REMARK VINA RESULT:    -5.838      3.597      5.973
REMARK INTER + INTRA:          -7.119
REMARK INTER:                  -6.807
REMARK INTRA:                  -0.312
REMARK UNBOUND:                -0.087
REMARK SMILES O=c1c(O)c(-c2ccc(O)c(O)c2)oc2cc(O)cc(O)c12
REMARK SMILES IDX 5 1 3 2 2 3 1 4 22 5 20 6 19 7 17 8 16 9 15 10 14 11 6 12
REMARK SMILES IDX 7 13 8 14 9 15 13 16 11 17 10 18 12 20 4 22 21 24 18 26
REMARK H PARENT 10 19 12 21 4 23 21 25 18 27
REMARK Flexibility Score: inf
ROOT
ATOM      1  C   UNL     1      -8.594  16.895   1.938  1.00  0.00     0.180 A 
ATOM      2  C   UNL     1      -9.795  16.220   2.221  1.00  0.00     0.208 A 
ATOM      3  C   UNL     1     -10.490  15.599   1.171  1.00  0.00     0.238 A 
ATOM      4  O   UNL     1     -11.535  14.950   1.438  1.00  0.00    -0.285 OA
ATOM      5  C   UNL     1      -9.985  15.673  -0.149  1.00  0.00     0.111 A 
ATOM      6  C   UNL     1     -10.628  15.116  -1.296  1.00  0.00     0.134 A 
ATOM      7  C   UNL     1      -9.973  15.136  -2.533  1.00  0.00     0.093 A 
ATOM      8  C   UNL     1      -8.727  15.753  -2.679  1.00  0.00     0.123 A 
ATOM      9  C   UNL     1      -8.120  16.352  -1.579  1.00  0.00     0.094 A 
ATOM     10  C   UNL     1      -8.732  16.316  -0.324  1.00  0.00     0.146 A 
ATOM     11  O   UNL     1      -8.112  16.891   0.701  1.00  0.00    -0.452 OA
ENDROOT
BRANCH   1  12
ATOM     12  C   UNL     1      -7.818  17.595   2.987  1.00  0.00     0.025 A 
ATOM     13  C   UNL     1      -6.906  16.906   3.805  1.00  0.00     0.016 A 
ATOM     14  C   UNL     1      -6.203  17.583   4.805  1.00  0.00     0.051 A 
ATOM     15  C   UNL     1      -6.410  18.953   5.011  1.00  0.00     0.157 A 
ATOM     16  C   UNL     1      -8.037  18.964   3.211  1.00  0.00     0.062 A 
ATOM     17  C   UNL     1      -7.334  19.646   4.212  1.00  0.00     0.158 A 
BRANCH  15  18
ATOM     18  O   UNL     1      -5.705  19.626   6.008  1.00  0.00    -0.504 OA
ATOM     19  H   UNL     1      -5.001  20.320   5.785  1.00  0.00     0.293 HD
ENDBRANCH  15  18
BRANCH  17  20
ATOM     20  O   UNL     1      -7.568  21.009   4.396  1.00  0.00    -0.504 OA
ATOM     21  H   UNL     1      -6.816  21.665   4.563  1.00  0.00     0.293 HD
ENDBRANCH  17  20
ENDBRANCH   1  12
BRANCH   2  22
ATOM     22  O   UNL     1     -10.264  16.140   3.535  1.00  0.00    -0.502 OA
ATOM     23  H   UNL     1      -9.699  16.408   4.331  1.00  0.00     0.293 HD
ENDBRANCH   2  22
BRANCH   6  24
ATOM     24  O   UNL     1     -11.910  14.559  -1.278  1.00  0.00    -0.507 OA
ATOM     25  H   UNL     1     -12.578  14.630  -2.030  1.00  0.00     0.293 HD
ENDBRANCH   6  24
BRANCH   8  26
ATOM     26  O   UNL     1      -8.090  15.783  -3.917  1.00  0.00    -0.508 OA
ATOM     27  H   UNL     1      -7.304  15.177  -4.124  1.00  0.00     0.293 HD
ENDBRANCH   8  26
TORSDOF 6
ENDMDL
MODEL 9
REMARK VINA RESULT:    -5.682      1.943      6.972
REMARK INTER + INTRA:          -6.931
REMARK INTER:                  -6.628
REMARK INTRA:                  -0.303
REMARK UNBOUND:                -0.087
REMARK SMILES O=c1c(O)c(-c2ccc(O)c(O)c2)oc2cc(O)cc(O)c12
REMARK SMILES IDX 5 1 3 2 2 3 1 4 22 5 20 6 19 7 17 8 16 9 15 10 14 11 6 12
REMARK SMILES IDX 7 13 8 14 9 15 13 16 11 17 10 18 12 20 4 22 21 24 18 26
REMARK H PARENT 10 19 12 21 4 23 21 25 18 27
REMARK Flexibility Score: inf
ROOT
ATOM      1  C   UNL     1      -8.369  14.728  -2.336  1.00  0.00     0.180 A 
ATOM      2  C   UNL     1      -7.495  13.853  -1.666  1.00  0.00     0.208 A 
ATOM      3  C   UNL     1      -7.288  14.022  -0.287  1.00  0.00     0.238 A 
ATOM      4  O   UNL     1      -6.548  13.203   0.317  1.00  0.00    -0.285 OA
ATOM      5  C   UNL     1      -7.944  15.071   0.400  1.00  0.00     0.111 A 
ATOM      6  C   UNL     1      -7.776  15.359   1.788  1.00  0.00     0.134 A 
ATOM      7  C   UNL     1      -8.574  16.339   2.392  1.00  0.00     0.093 A 
ATOM      8  C   UNL     1      -9.487  17.086   1.643  1.00  0.00     0.123 A 
ATOM      9  C   UNL     1      -9.615  16.853   0.276  1.00  0.00     0.094 A 
ATOM     10  C   UNL     1      -8.859  15.857  -0.347  1.00  0.00     0.146 A 
ATOM     11  O   UNL     1      -9.020  15.661  -1.651  1.00  0.00    -0.452 OA
ENDROOT
BRANCH   1  12
ATOM     12  C   UNL     1      -8.619  14.630  -3.792  1.00  0.00     0.025 A 
ATOM     13  C   UNL     1      -9.733  13.940  -4.298  1.00  0.00     0.016 A 
ATOM     14  C   UNL     1      -9.936  13.839  -5.677  1.00  0.00     0.051 A 
ATOM     15  C   UNL     1      -9.021  14.414  -6.570  1.00  0.00     0.157 A 
ATOM     16  C   UNL     1      -7.694  15.187  -4.691  1.00  0.00     0.062 A 
ATOM     17  C   UNL     1      -7.894  15.088  -6.074  1.00  0.00     0.158 A 
BRANCH  15  18
ATOM     18  O   UNL     1      -9.227  14.314  -7.945  1.00  0.00    -0.504 OA
ATOM     19  H   UNL     1      -8.864  13.534  -8.481  1.00  0.00     0.293 HD
ENDBRANCH  15  18
BRANCH  17  20
ATOM     20  O   UNL     1      -6.962  15.666  -6.936  1.00  0.00    -0.504 OA
ATOM     21  H   UNL     1      -7.218  16.384  -7.601  1.00  0.00     0.293 HD
ENDBRANCH  17  20
ENDBRANCH   1  12
BRANCH   2  22
ATOM     22  O   UNL     1      -6.875  12.811  -2.360  1.00  0.00    -0.502 OA
ATOM     23  H   UNL     1      -6.792  11.877  -1.977  1.00  0.00     0.293 HD
ENDBRANCH   2  22
BRANCH   6  24
ATOM     24  O   UNL     1      -6.828  14.736   2.606  1.00  0.00    -0.507 OA
ATOM     25  H   UNL     1      -6.875  14.697   3.612  1.00  0.00     0.293 HD
ENDBRANCH   6  24
BRANCH   8  26
ATOM     26  O   UNL     1     -10.266  18.070   2.247  1.00  0.00    -0.508 OA
ATOM     27  H   UNL     1     -11.276  18.073   2.164  1.00  0.00     0.293 HD
ENDBRANCH   8  26
TORSDOF 6
ENDMDL
