MODEL 1
REMARK VINA RESULT:    -5.936      0.000      0.000
REMARK INTER + INTRA:          -9.005
REMARK INTER:                  -7.844
REMARK INTRA:                  -1.161
REMARK UNBOUND:                -1.161
REMARK SMILES CC[C@@H](C=C[C@@H](C)[C@@H]1CC[C@@H]2[C@@H]3CC=C4C[C@H](O)CC[C@]4(C)[C@H]3CC[C@@]21C)C(C)C
REMARK SMILES IDX 6 1 7 2 5 3 4 4 3 5 2 6 1 7 28 8 29 9 30 10 8 11 9 12 26 13
REMARK SMILES IDX 10 14 11 15 25 16 27 17 12 18 24 19 23 20 13 21 21 22 14 23
REMARK SMILES IDX 15 24 20 25 22 26 16 27 19 28 17 29 18 30
REMARK H PARENT 18 31
REMARK Flexibility Score: inf
ROOT
ATOM      1  C   UNL     1      10.998  -7.232  42.333  1.00  0.00     0.012 C 
ATOM      2  C   UNL     1      11.619  -8.544  42.860  1.00  0.00     0.012 C 
ENDROOT
BRANCH   1   3
ATOM      3  C   UNL     1      11.389  -6.115  43.291  1.00  0.00    -0.028 C 
ATOM      4  C   UNL     1      11.188  -4.809  43.019  1.00  0.00    -0.027 C 
BRANCH   4   5
ATOM      5  C   UNL     1      11.821  -3.723  43.875  1.00  0.00     0.014 C 
BRANCH   5   6
ATOM      6  C   UNL     1      12.916  -4.295  44.815  1.00  0.00     0.004 C 
ATOM      7  C   UNL     1      14.359  -4.032  44.367  1.00  0.00     0.004 C 
ENDBRANCH   5   6
BRANCH   5   8
ATOM      8  C   UNL     1      10.744  -2.824  44.569  1.00  0.00    -0.011 C 
ATOM      9  C   UNL     1       9.306  -3.401  44.579  1.00  0.00     0.008 C 
ATOM     10  C   UNL     1      11.170  -2.402  45.979  1.00  0.00     0.008 C 
ENDBRANCH   5   8
ENDBRANCH   4   5
ENDBRANCH   1   3
BRANCH   1  11
ATOM     11  C   UNL     1       9.433  -7.357  42.275  1.00  0.00     0.002 C 
ATOM     12  C   UNL     1       8.821  -8.378  43.208  1.00  0.00     0.005 C 
ATOM     13  C   UNL     1       8.734  -7.635  40.901  1.00  0.00    -0.026 C 
ATOM     14  C   UNL     1       7.357  -8.464  42.784  1.00  0.00     0.005 C 
ATOM     15  C   UNL     1       7.276  -7.882  41.357  1.00  0.00    -0.001 C 
ATOM     16  C   UNL     1       9.284  -8.863  40.083  1.00  0.00     0.007 C 
ATOM     17  C   UNL     1       8.805  -6.382  39.997  1.00  0.00     0.012 C 
ATOM     18  C   UNL     1       6.482  -8.734  40.336  1.00  0.00     0.000 C 
ATOM     19  C   UNL     1       8.576 -10.224  40.264  1.00  0.00     0.005 C 
ATOM     20  C   UNL     1       7.017 -10.175  40.213  1.00  0.00     0.003 C 
ATOM     21  C   UNL     1       4.984  -8.739  40.660  1.00  0.00     0.031 C 
ATOM     22  C   UNL     1       6.324 -10.912  39.003  1.00  0.00    -0.008 C 
ATOM     23  C   UNL     1       4.220  -9.706  39.798  1.00  0.00    -0.027 C 
ATOM     24  C   UNL     1       4.793 -10.748  39.135  1.00  0.00    -0.065 C 
ATOM     25  C   UNL     1       6.708 -12.417  39.042  1.00  0.00     0.014 C 
ATOM     26  C   UNL     1       6.770 -10.311  37.644  1.00  0.00     0.016 C 
ATOM     27  C   UNL     1       3.875 -11.711  38.408  1.00  0.00     0.063 C 
ATOM     28  C   UNL     1       5.775 -13.328  38.216  1.00  0.00     0.033 C 
ATOM     29  C   UNL     1       4.312 -13.158  38.646  1.00  0.00     0.118 C 
BRANCH  29  30
ATOM     30  O   UNL     1       4.174 -13.509  39.993  1.00  0.00    -0.393 OA
ATOM     31  H   UNL     1       3.625 -12.818  40.443  1.00  0.00     0.210 HD
ENDBRANCH  29  30
ENDBRANCH   1  11
TORSDOF 6
ENDMDL
MODEL 2
REMARK VINA RESULT:    -5.896     12.276     14.090
REMARK INTER + INTRA:          -8.953
REMARK INTER:                  -8.072
REMARK INTRA:                  -0.881
REMARK UNBOUND:                -1.161
REMARK SMILES CC[C@@H](C=C[C@@H](C)[C@@H]1CC[C@@H]2[C@@H]3CC=C4C[C@H](O)CC[C@]4(C)[C@H]3CC[C@@]21C)C(C)C
REMARK SMILES IDX 6 1 7 2 5 3 4 4 3 5 2 6 1 7 28 8 29 9 30 10 8 11 9 12 26 13
REMARK SMILES IDX 10 14 11 15 25 16 27 17 12 18 24 19 23 20 13 21 21 22 14 23
REMARK SMILES IDX 15 24 20 25 22 26 16 27 19 28 17 29 18 30
REMARK H PARENT 18 31
REMARK Flexibility Score: inf
ROOT
ATOM      1  C   UNL     1      19.839 -16.366  41.992  1.00  0.00     0.012 C 
ATOM      2  C   UNL     1      19.964 -15.815  40.554  1.00  0.00     0.012 C 
ENDROOT
BRANCH   1   3
ATOM      3  C   UNL     1      21.216 -16.297  42.637  1.00  0.00    -0.028 C 
ATOM      4  C   UNL     1      21.612 -15.271  43.419  1.00  0.00    -0.027 C 
BRANCH   4   5
ATOM      5  C   UNL     1      23.068 -15.114  43.829  1.00  0.00     0.014 C 
BRANCH   5   6
ATOM      6  C   UNL     1      23.227 -15.035  45.372  1.00  0.00     0.004 C 
ATOM      7  C   UNL     1      22.001 -14.504  46.125  1.00  0.00     0.004 C 
ENDBRANCH   5   6
BRANCH   5   8
ATOM      8  C   UNL     1      23.784 -13.981  43.021  1.00  0.00    -0.011 C 
ATOM      9  C   UNL     1      23.398 -13.889  41.523  1.00  0.00     0.008 C 
ATOM     10  C   UNL     1      23.647 -12.616  43.702  1.00  0.00     0.008 C 
ENDBRANCH   5   8
ENDBRANCH   4   5
ENDBRANCH   1   3
BRANCH   1  11
ATOM     11  C   UNL     1      19.341 -17.855  41.961  1.00  0.00     0.002 C 
ATOM     12  C   UNL     1      19.000 -18.406  40.594  1.00  0.00     0.005 C 
ATOM     13  C   UNL     1      18.122 -18.277  42.852  1.00  0.00    -0.026 C 
ATOM     14  C   UNL     1      18.330 -19.749  40.872  1.00  0.00     0.005 C 
ATOM     15  C   UNL     1      17.873 -19.718  42.346  1.00  0.00    -0.001 C 
ATOM     16  C   UNL     1      16.825 -17.396  42.707  1.00  0.00     0.007 C 
ATOM     17  C   UNL     1      18.528 -18.298  44.344  1.00  0.00     0.012 C 
ATOM     18  C   UNL     1      16.417 -20.181  42.600  1.00  0.00     0.000 C 
ATOM     19  C   UNL     1      15.743 -17.865  41.709  1.00  0.00     0.005 C 
ATOM     20  C   UNL     1      15.382 -19.381  41.783  1.00  0.00     0.003 C 
ATOM     21  C   UNL     1      16.259 -21.685  42.350  1.00  0.00     0.031 C 
ATOM     22  C   UNL     1      13.920 -19.738  42.257  1.00  0.00    -0.008 C 
ATOM     23  C   UNL     1      14.821 -22.122  42.408  1.00  0.00    -0.027 C 
ATOM     24  C   UNL     1      13.764 -21.277  42.261  1.00  0.00    -0.065 C 
ATOM     25  C   UNL     1      12.901 -19.099  41.274  1.00  0.00     0.014 C 
ATOM     26  C   UNL     1      13.644 -19.209  43.688  1.00  0.00     0.016 C 
ATOM     27  C   UNL     1      12.376 -21.884  42.218  1.00  0.00     0.063 C 
ATOM     28  C   UNL     1      11.488 -19.716  41.339  1.00  0.00     0.033 C 
ATOM     29  C   UNL     1      11.535 -21.234  41.118  1.00  0.00     0.118 C 
BRANCH  29  30
ATOM     30  O   UNL     1      12.065 -21.507  39.852  1.00  0.00    -0.393 OA
ATOM     31  H   UNL     1      12.087 -20.664  39.333  1.00  0.00     0.210 HD
ENDBRANCH  29  30
ENDBRANCH   1  11
TORSDOF 6
ENDMDL
MODEL 3
REMARK VINA RESULT:    -5.749      4.340     10.286
REMARK INTER + INTRA:          -8.759
REMARK INTER:                  -8.147
REMARK INTRA:                  -0.612
REMARK UNBOUND:                -1.161
REMARK SMILES CC[C@@H](C=C[C@@H](C)[C@@H]1CC[C@@H]2[C@@H]3CC=C4C[C@H](O)CC[C@]4(C)[C@H]3CC[C@@]21C)C(C)C
REMARK SMILES IDX 6 1 7 2 5 3 4 4 3 5 2 6 1 7 28 8 29 9 30 10 8 11 9 12 26 13
REMARK SMILES IDX 10 14 11 15 25 16 27 17 12 18 24 19 23 20 13 21 21 22 14 23
REMARK SMILES IDX 15 24 20 25 22 26 16 27 19 28 17 29 18 30
REMARK H PARENT 18 31
REMARK Flexibility Score: inf
ROOT
ATOM      1  C   UNL     1       9.103  -5.386  43.937  1.00  0.00     0.012 C 
ATOM      2  C   UNL     1       8.559  -6.486  44.874  1.00  0.00     0.012 C 
ENDROOT
BRANCH   1   3
ATOM      3  C   UNL     1       9.731  -6.071  42.731  1.00  0.00    -0.028 C 
ATOM      4  C   UNL     1       9.102  -6.195  41.544  1.00  0.00    -0.027 C 
BRANCH   4   5
ATOM      5  C   UNL     1       9.652  -7.103  40.456  1.00  0.00     0.014 C 
BRANCH   5   6
ATOM      6  C   UNL     1       8.536  -7.960  39.800  1.00  0.00     0.004 C 
ATOM      7  C   UNL     1       7.185  -7.934  40.526  1.00  0.00     0.004 C 
ENDBRANCH   5   6
BRANCH   5   8
ATOM      8  C   UNL     1      10.912  -7.897  40.939  1.00  0.00    -0.011 C 
ATOM      9  C   UNL     1      10.635  -9.336  41.441  1.00  0.00     0.008 C 
ATOM     10  C   UNL     1      12.030  -7.893  39.891  1.00  0.00     0.008 C 
ENDBRANCH   5   8
ENDBRANCH   4   5
ENDBRANCH   1   3
BRANCH   1  11
ATOM     11  C   UNL     1      10.184  -4.524  44.681  1.00  0.00     0.002 C 
ATOM     12  C   UNL     1      10.518  -3.194  44.042  1.00  0.00     0.005 C 
ATOM     13  C   UNL     1      11.585  -5.152  44.998  1.00  0.00    -0.026 C 
ATOM     14  C   UNL     1      11.735  -2.688  44.811  1.00  0.00     0.005 C 
ATOM     15  C   UNL     1      12.352  -3.913  45.519  1.00  0.00    -0.001 C 
ATOM     16  C   UNL     1      12.336  -5.810  43.780  1.00  0.00     0.007 C 
ATOM     17  C   UNL     1      11.458  -6.212  46.117  1.00  0.00     0.012 C 
ATOM     18  C   UNL     1      13.885  -4.069  45.363  1.00  0.00     0.000 C 
ATOM     19  C   UNL     1      13.349  -4.939  43.004  1.00  0.00     0.005 C 
ATOM     20  C   UNL     1      14.336  -4.117  43.890  1.00  0.00     0.003 C 
ATOM     21  C   UNL     1      14.636  -2.972  46.125  1.00  0.00     0.031 C 
ATOM     22  C   UNL     1      15.862  -4.508  43.800  1.00  0.00    -0.008 C 
ATOM     23  C   UNL     1      16.112  -2.991  45.837  1.00  0.00    -0.027 C 
ATOM     24  C   UNL     1      16.665  -3.583  44.743  1.00  0.00    -0.065 C 
ATOM     25  C   UNL     1      16.344  -4.326  42.334  1.00  0.00     0.014 C 
ATOM     26  C   UNL     1      16.096  -5.979  44.231  1.00  0.00     0.016 C 
ATOM     27  C   UNL     1      18.155  -3.411  44.526  1.00  0.00     0.063 C 
ATOM     28  C   UNL     1      17.876  -4.235  42.179  1.00  0.00     0.033 C 
ATOM     29  C   UNL     1      18.456  -3.116  43.055  1.00  0.00     0.118 C 
BRANCH  29  30
ATOM     30  O   UNL     1      17.911  -1.887  42.667  1.00  0.00    -0.393 OA
ATOM     31  H   UNL     1      16.923  -1.957  42.703  1.00  0.00     0.210 HD
ENDBRANCH  29  30
ENDBRANCH   1  11
TORSDOF 6
ENDMDL
MODEL 4
REMARK VINA RESULT:    -5.695      2.374      4.930
REMARK INTER + INTRA:          -8.687
REMARK INTER:                  -8.021
REMARK INTRA:                  -0.666
REMARK UNBOUND:                -1.161
REMARK SMILES CC[C@@H](C=C[C@@H](C)[C@@H]1CC[C@@H]2[C@@H]3CC=C4C[C@H](O)CC[C@]4(C)[C@H]3CC[C@@]21C)C(C)C
REMARK SMILES IDX 6 1 7 2 5 3 4 4 3 5 2 6 1 7 28 8 29 9 30 10 8 11 9 12 26 13
REMARK SMILES IDX 10 14 11 15 25 16 27 17 12 18 24 19 23 20 13 21 21 22 14 23
REMARK SMILES IDX 15 24 20 25 22 26 16 27 19 28 17 29 18 30
REMARK H PARENT 18 31
REMARK Flexibility Score: inf
ROOT
ATOM      1  C   UNL     1      12.212  -4.266  46.125  1.00  0.00     0.012 C 
ATOM      2  C   UNL     1      11.750  -2.832  45.786  1.00  0.00     0.012 C 
ENDROOT
BRANCH   1   3
ATOM      3  C   UNL     1      13.353  -4.622  45.183  1.00  0.00    -0.028 C 
ATOM      4  C   UNL     1      14.221  -3.708  44.700  1.00  0.00    -0.027 C 
BRANCH   4   5
ATOM      5  C   UNL     1      15.178  -4.056  43.570  1.00  0.00     0.014 C 
BRANCH   5   6
ATOM      6  C   UNL     1      14.813  -5.409  42.901  1.00  0.00     0.004 C 
ATOM      7  C   UNL     1      14.844  -5.405  41.368  1.00  0.00     0.004 C 
ENDBRANCH   5   6
BRANCH   5   8
ATOM      8  C   UNL     1      16.674  -3.903  44.004  1.00  0.00    -0.011 C 
ATOM      9  C   UNL     1      17.613  -3.286  42.938  1.00  0.00     0.008 C 
ATOM     10  C   UNL     1      16.812  -3.167  45.341  1.00  0.00     0.008 C 
ENDBRANCH   5   8
ENDBRANCH   4   5
ENDBRANCH   1   3
BRANCH   1  11
ATOM     11  C   UNL     1      11.027  -5.278  45.930  1.00  0.00     0.002 C 
ATOM     12  C   UNL     1      11.414  -6.739  45.870  1.00  0.00     0.005 C 
ATOM     13  C   UNL     1      10.051  -5.097  44.717  1.00  0.00    -0.026 C 
ATOM     14  C   UNL     1      10.139  -7.462  45.443  1.00  0.00     0.005 C 
ATOM     15  C   UNL     1       9.217  -6.396  44.813  1.00  0.00    -0.001 C 
ATOM     16  C   UNL     1      10.728  -4.964  43.302  1.00  0.00     0.007 C 
ATOM     17  C   UNL     1       9.144  -3.863  44.936  1.00  0.00     0.012 C 
ATOM     18  C   UNL     1       8.584  -6.785  43.454  1.00  0.00     0.000 C 
ATOM     19  C   UNL     1      10.894  -6.249  42.460  1.00  0.00     0.005 C 
ATOM     20  C   UNL     1       9.634  -7.167  42.391  1.00  0.00     0.003 C 
ATOM     21  C   UNL     1       7.550  -7.904  43.621  1.00  0.00     0.031 C 
ATOM     22  C   UNL     1       8.948  -7.323  40.979  1.00  0.00    -0.008 C 
ATOM     23  C   UNL     1       7.060  -8.425  42.298  1.00  0.00    -0.027 C 
ATOM     24  C   UNL     1       7.730  -8.264  41.123  1.00  0.00    -0.065 C 
ATOM     25  C   UNL     1       9.976  -7.926  39.983  1.00  0.00     0.014 C 
ATOM     26  C   UNL     1       8.456  -5.957  40.435  1.00  0.00     0.016 C 
ATOM     27  C   UNL     1       7.173  -8.955  39.894  1.00  0.00     0.063 C 
ATOM     28  C   UNL     1       9.343  -8.542  38.718  1.00  0.00     0.033 C 
ATOM     29  C   UNL     1       8.296  -9.603  39.083  1.00  0.00     0.118 C 
BRANCH  29  30
ATOM     30  O   UNL     1       8.906 -10.635  39.805  1.00  0.00    -0.393 OA
ATOM     31  H   UNL     1       9.887 -10.557  39.696  1.00  0.00     0.210 HD
ENDBRANCH  29  30
ENDBRANCH   1  11
TORSDOF 6
ENDMDL
MODEL 5
REMARK VINA RESULT:    -5.640      6.591     12.403
REMARK INTER + INTRA:          -8.614
REMARK INTER:                  -7.559
REMARK INTRA:                  -1.056
REMARK UNBOUND:                -1.161
REMARK SMILES CC[C@@H](C=C[C@@H](C)[C@@H]1CC[C@@H]2[C@@H]3CC=C4C[C@H](O)CC[C@]4(C)[C@H]3CC[C@@]21C)C(C)C
REMARK SMILES IDX 6 1 7 2 5 3 4 4 3 5 2 6 1 7 28 8 29 9 30 10 8 11 9 12 26 13
REMARK SMILES IDX 10 14 11 15 25 16 27 17 12 18 24 19 23 20 13 21 21 22 14 23
REMARK SMILES IDX 15 24 20 25 22 26 16 27 19 28 17 29 18 30
REMARK H PARENT 18 31
REMARK Flexibility Score: inf
ROOT
ATOM      1  C   UNL     1      14.476  -5.328  42.848  1.00  0.00     0.012 C 
ATOM      2  C   UNL     1      13.980  -6.329  41.782  1.00  0.00     0.012 C 
ENDROOT
BRANCH   1   3
ATOM      3  C   UNL     1      13.408  -4.255  43.011  1.00  0.00    -0.028 C 
ATOM      4  C   UNL     1      12.409  -4.343  43.915  1.00  0.00    -0.027 C 
BRANCH   4   5
ATOM      5  C   UNL     1      11.227  -3.387  43.872  1.00  0.00     0.014 C 
BRANCH   5   6
ATOM      6  C   UNL     1      11.270  -2.363  45.039  1.00  0.00     0.004 C 
ATOM      7  C   UNL     1      12.311  -2.660  46.125  1.00  0.00     0.004 C 
ENDBRANCH   5   6
BRANCH   5   8
ATOM      8  C   UNL     1       9.870  -4.144  43.693  1.00  0.00    -0.011 C 
ATOM      9  C   UNL     1       9.981  -5.574  43.107  1.00  0.00     0.008 C 
ATOM     10  C   UNL     1       9.040  -4.149  44.981  1.00  0.00     0.008 C 
ENDBRANCH   5   8
ENDBRANCH   4   5
ENDBRANCH   1   3
BRANCH   1  11
ATOM     11  C   UNL     1      15.825  -4.669  42.388  1.00  0.00     0.002 C 
ATOM     12  C   UNL     1      16.378  -5.158  41.068  1.00  0.00     0.005 C 
ATOM     13  C   UNL     1      17.063  -4.697  43.348  1.00  0.00    -0.026 C 
ATOM     14  C   UNL     1      17.775  -4.550  40.982  1.00  0.00     0.005 C 
ATOM     15  C   UNL     1      18.170  -4.145  42.418  1.00  0.00    -0.001 C 
ATOM     16  C   UNL     1      17.459  -6.109  43.921  1.00  0.00     0.007 C 
ATOM     17  C   UNL     1      16.840  -3.737  44.541  1.00  0.00     0.012 C 
ATOM     18  C   UNL     1      19.584  -4.588  42.869  1.00  0.00     0.000 C 
ATOM     19  C   UNL     1      18.535  -6.918  43.163  1.00  0.00     0.005 C 
ATOM     20  C   UNL     1      19.803  -6.110  42.746  1.00  0.00     0.003 C 
ATOM     21  C   UNL     1      20.675  -3.821  42.115  1.00  0.00     0.031 C 
ATOM     22  C   UNL     1      21.162  -6.521  43.432  1.00  0.00    -0.008 C 
ATOM     23  C   UNL     1      22.049  -4.362  42.398  1.00  0.00    -0.027 C 
ATOM     24  C   UNL     1      22.287  -5.610  42.888  1.00  0.00    -0.065 C 
ATOM     25  C   UNL     1      21.468  -8.007  43.097  1.00  0.00     0.014 C 
ATOM     26  C   UNL     1      21.092  -6.354  44.972  1.00  0.00     0.016 C 
ATOM     27  C   UNL     1      23.730  -6.059  43.003  1.00  0.00     0.063 C 
ATOM     28  C   UNL     1      22.941  -8.414  43.310  1.00  0.00     0.033 C 
ATOM     29  C   UNL     1      23.887  -7.502  42.519  1.00  0.00     0.118 C 
BRANCH  29  30
ATOM     30  O   UNL     1      23.607  -7.607  41.152  1.00  0.00    -0.393 OA
ATOM     31  H   UNL     1      24.449  -7.474  40.648  1.00  0.00     0.210 HD
ENDBRANCH  29  30
ENDBRANCH   1  11
TORSDOF 6
ENDMDL
MODEL 6
REMARK VINA RESULT:    -5.626      1.656      2.774
REMARK INTER + INTRA:          -8.596
REMARK INTER:                  -7.328
REMARK INTRA:                  -1.268
REMARK UNBOUND:                -1.161
REMARK SMILES CC[C@@H](C=C[C@@H](C)[C@@H]1CC[C@@H]2[C@@H]3CC=C4C[C@H](O)CC[C@]4(C)[C@H]3CC[C@@]21C)C(C)C
REMARK SMILES IDX 6 1 7 2 5 3 4 4 3 5 2 6 1 7 28 8 29 9 30 10 8 11 9 12 26 13
REMARK SMILES IDX 10 14 11 15 25 16 27 17 12 18 24 19 23 20 13 21 21 22 14 23
REMARK SMILES IDX 15 24 20 25 22 26 16 27 19 28 17 29 18 30
REMARK H PARENT 18 31
REMARK Flexibility Score: inf
ROOT
ATOM      1  C   UNL     1       9.810  -6.842  43.825  1.00  0.00     0.012 C 
ATOM      2  C   UNL     1       8.403  -6.526  44.378  1.00  0.00     0.012 C 
ENDROOT
BRANCH   1   3
ATOM      3  C   UNL     1      10.755  -5.751  44.308  1.00  0.00    -0.028 C 
ATOM      4  C   UNL     1      11.227  -4.776  43.502  1.00  0.00    -0.027 C 
BRANCH   4   5
ATOM      5  C   UNL     1      12.360  -3.867  43.952  1.00  0.00     0.014 C 
BRANCH   5   6
ATOM      6  C   UNL     1      13.751  -4.512  43.704  1.00  0.00     0.004 C 
ATOM      7  C   UNL     1      13.896  -5.250  42.368  1.00  0.00     0.004 C 
ENDBRANCH   5   6
BRANCH   5   8
ATOM      8  C   UNL     1      12.125  -3.313  45.397  1.00  0.00    -0.011 C 
ATOM      9  C   UNL     1      13.394  -2.800  46.124  1.00  0.00     0.008 C 
ATOM     10  C   UNL     1      11.015  -2.257  45.433  1.00  0.00     0.008 C 
ENDBRANCH   5   8
ENDBRANCH   4   5
ENDBRANCH   1   3
BRANCH   1  11
ATOM     11  C   UNL     1       9.783  -6.864  42.255  1.00  0.00     0.002 C 
ATOM     12  C   UNL     1       8.588  -6.200  41.609  1.00  0.00     0.005 C 
ATOM     13  C   UNL     1       9.906  -8.234  41.502  1.00  0.00    -0.026 C 
ATOM     14  C   UNL     1       8.689  -6.570  40.132  1.00  0.00     0.005 C 
ATOM     15  C   UNL     1       9.623  -7.795  40.046  1.00  0.00    -0.001 C 
ATOM     16  C   UNL     1       8.904  -9.361  41.956  1.00  0.00     0.007 C 
ATOM     17  C   UNL     1      11.345  -8.788  41.624  1.00  0.00     0.012 C 
ATOM     18  C   UNL     1       9.105  -8.967  39.174  1.00  0.00     0.000 C 
ATOM     19  C   UNL     1       7.581  -9.507  41.173  1.00  0.00     0.005 C 
ATOM     20  C   UNL     1       7.720  -9.477  39.619  1.00  0.00     0.003 C 
ATOM     21  C   UNL     1       9.093  -8.592  37.688  1.00  0.00     0.031 C 
ATOM     22  C   UNL     1       7.357 -10.806  38.851  1.00  0.00    -0.008 C 
ATOM     23  C   UNL     1       8.421  -9.640  36.845  1.00  0.00    -0.027 C 
ATOM     24  C   UNL     1       7.558 -10.572  37.336  1.00  0.00    -0.065 C 
ATOM     25  C   UNL     1       5.876 -11.171  39.145  1.00  0.00     0.014 C 
ATOM     26  C   UNL     1       8.265 -11.982  39.294  1.00  0.00     0.016 C 
ATOM     27  C   UNL     1       6.864 -11.482  36.343  1.00  0.00     0.063 C 
ATOM     28  C   UNL     1       5.257 -12.162  38.137  1.00  0.00     0.033 C 
ATOM     29  C   UNL     1       5.385 -11.642  36.699  1.00  0.00     0.118 C 
BRANCH  29  30
ATOM     30  O   UNL     1       4.704 -10.426  36.578  1.00  0.00    -0.393 OA
ATOM     31  H   UNL     1       5.341  -9.690  36.762  1.00  0.00     0.210 HD
ENDBRANCH  29  30
ENDBRANCH   1  11
TORSDOF 6
ENDMDL
MODEL 7
REMARK VINA RESULT:    -5.444     12.063     14.120
REMARK INTER + INTRA:          -8.355
REMARK INTER:                  -6.894
REMARK INTRA:                  -1.461
REMARK UNBOUND:                -1.161
REMARK SMILES CC[C@@H](C=C[C@@H](C)[C@@H]1CC[C@@H]2[C@@H]3CC=C4C[C@H](O)CC[C@]4(C)[C@H]3CC[C@@]21C)C(C)C
REMARK SMILES IDX 6 1 7 2 5 3 4 4 3 5 2 6 1 7 28 8 29 9 30 10 8 11 9 12 26 13
REMARK SMILES IDX 10 14 11 15 25 16 27 17 12 18 24 19 23 20 13 21 21 22 14 23
REMARK SMILES IDX 15 24 20 25 22 26 16 27 19 28 17 29 18 30
REMARK H PARENT 18 31
REMARK Flexibility Score: inf
ROOT
ATOM      1  C   UNL     1      22.667 -14.997  44.213  1.00  0.00     0.012 C 
ATOM      2  C   UNL     1      22.759 -14.923  45.753  1.00  0.00     0.012 C 
ENDROOT
BRANCH   1   3
ATOM      3  C   UNL     1      23.525 -13.877  43.641  1.00  0.00    -0.028 C 
ATOM      4  C   UNL     1      23.005 -12.762  43.087  1.00  0.00    -0.027 C 
BRANCH   4   5
ATOM      5  C   UNL     1      23.879 -11.796  42.302  1.00  0.00     0.014 C 
BRANCH   5   6
ATOM      6  C   UNL     1      23.894 -10.382  42.943  1.00  0.00     0.004 C 
ATOM      7  C   UNL     1      22.558  -9.925  43.543  1.00  0.00     0.004 C 
ENDBRANCH   5   6
BRANCH   5   8
ATOM      8  C   UNL     1      23.563 -11.835  40.770  1.00  0.00    -0.011 C 
ATOM      9  C   UNL     1      24.124 -13.063  40.009  1.00  0.00     0.008 C 
ATOM     10  C   UNL     1      22.068 -11.657  40.487  1.00  0.00     0.008 C 
ENDBRANCH   5   8
ENDBRANCH   4   5
ENDBRANCH   1   3
BRANCH   1  11
ATOM     11  C   UNL     1      21.178 -14.815  43.749  1.00  0.00     0.002 C 
ATOM     12  C   UNL     1      20.131 -14.942  44.834  1.00  0.00     0.005 C 
ATOM     13  C   UNL     1      20.621 -15.702  42.583  1.00  0.00    -0.026 C 
ATOM     14  C   UNL     1      18.800 -14.965  44.089  1.00  0.00     0.005 C 
ATOM     15  C   UNL     1      19.118 -15.333  42.625  1.00  0.00    -0.001 C 
ATOM     16  C   UNL     1      20.825 -17.255  42.741  1.00  0.00     0.007 C 
ATOM     17  C   UNL     1      21.240 -15.268  41.233  1.00  0.00     0.012 C 
ATOM     18  C   UNL     1      18.229 -16.442  42.009  1.00  0.00     0.000 C 
ATOM     19  C   UNL     1      19.677 -18.072  43.373  1.00  0.00     0.005 C 
ATOM     20  C   UNL     1      18.251 -17.750  42.826  1.00  0.00     0.003 C 
ATOM     21  C   UNL     1      16.790 -15.954  41.807  1.00  0.00     0.031 C 
ATOM     22  C   UNL     1      17.521 -18.901  42.031  1.00  0.00    -0.008 C 
ATOM     23  C   UNL     1      15.868 -17.065  41.388  1.00  0.00    -0.027 C 
ATOM     24  C   UNL     1      16.135 -18.387  41.579  1.00  0.00    -0.065 C 
ATOM     25  C   UNL     1      17.357 -20.133  42.964  1.00  0.00     0.014 C 
ATOM     26  C   UNL     1      18.327 -19.320  40.775  1.00  0.00     0.016 C 
ATOM     27  C   UNL     1      15.052 -19.384  41.217  1.00  0.00     0.063 C 
ATOM     28  C   UNL     1      16.292 -21.145  42.492  1.00  0.00     0.033 C 
ATOM     29  C   UNL     1      14.931 -20.464  42.294  1.00  0.00     0.118 C 
BRANCH  29  30
ATOM     30  O   UNL     1      14.498 -19.918  43.507  1.00  0.00    -0.393 OA
ATOM     31  H   UNL     1      13.522 -20.068  43.588  1.00  0.00     0.210 HD
ENDBRANCH  29  30
ENDBRANCH   1  11
TORSDOF 6
ENDMDL
MODEL 8
REMARK VINA RESULT:    -2.997      6.429     10.541
REMARK INTER + INTRA:          -5.122
REMARK INTER:                  -3.722
REMARK INTRA:                  -1.400
REMARK UNBOUND:                -1.161
REMARK SMILES CC[C@@H](C=C[C@@H](C)[C@@H]1CC[C@@H]2[C@@H]3CC=C4C[C@H](O)CC[C@]4(C)[C@H]3CC[C@@]21C)C(C)C
REMARK SMILES IDX 6 1 7 2 5 3 4 4 3 5 2 6 1 7 28 8 29 9 30 10 8 11 9 12 26 13
REMARK SMILES IDX 10 14 11 15 25 16 27 17 12 18 24 19 23 20 13 21 21 22 14 23
REMARK SMILES IDX 15 24 20 25 22 26 16 27 19 28 17 29 18 30
REMARK H PARENT 18 31
REMARK Flexibility Score: inf
ROOT
ATOM      1  C   UNL     1      19.188  -4.083  45.123  1.00  0.00     0.012 C 
ATOM      2  C   UNL     1      19.762  -2.730  44.649  1.00  0.00     0.012 C 
ENDROOT
BRANCH   1   3
ATOM      3  C   UNL     1      20.330  -5.089  45.148  1.00  0.00    -0.028 C 
ATOM      4  C   UNL     1      20.887  -5.599  44.029  1.00  0.00    -0.027 C 
BRANCH   4   5
ATOM      5  C   UNL     1      21.839  -6.782  44.097  1.00  0.00     0.014 C 
BRANCH   5   6
ATOM      6  C   UNL     1      23.305  -6.361  43.806  1.00  0.00     0.004 C 
ATOM      7  C   UNL     1      23.482  -5.393  42.629  1.00  0.00     0.004 C 
ENDBRANCH   5   6
BRANCH   5   8
ATOM      8  C   UNL     1      21.315  -8.002  43.268  1.00  0.00    -0.011 C 
ATOM      9  C   UNL     1      21.004  -9.278  44.091  1.00  0.00     0.008 C 
ATOM     10  C   UNL     1      20.124  -7.624  42.381  1.00  0.00     0.008 C 
ENDBRANCH   5   8
ENDBRANCH   4   5
ENDBRANCH   1   3
BRANCH   1  11
ATOM     11  C   UNL     1      18.070  -4.574  44.135  1.00  0.00     0.002 C 
ATOM     12  C   UNL     1      17.541  -3.535  43.172  1.00  0.00     0.005 C 
ATOM     13  C   UNL     1      16.777  -5.247  44.711  1.00  0.00    -0.026 C 
ATOM     14  C   UNL     1      16.331  -4.193  42.516  1.00  0.00     0.005 C 
ATOM     15  C   UNL     1      15.911  -5.360  43.433  1.00  0.00    -0.001 C 
ATOM     16  C   UNL     1      16.022  -4.441  45.834  1.00  0.00     0.007 C 
ATOM     17  C   UNL     1      17.102  -6.655  45.262  1.00  0.00     0.012 C 
ATOM     18  C   UNL     1      14.399  -5.439  43.759  1.00  0.00     0.000 C 
ATOM     19  C   UNL     1      14.864  -3.515  45.401  1.00  0.00     0.005 C 
ATOM     20  C   UNL     1      13.853  -4.142  44.390  1.00  0.00     0.003 C 
ATOM     21  C   UNL     1      13.582  -5.824  42.521  1.00  0.00     0.031 C 
ATOM     22  C   UNL     1      12.380  -4.366  44.908  1.00  0.00    -0.008 C 
ATOM     23  C   UNL     1      12.101  -5.725  42.765  1.00  0.00    -0.027 C 
ATOM     24  C   UNL     1      11.544  -4.988  43.766  1.00  0.00    -0.065 C 
ATOM     25  C   UNL     1      11.779  -2.996  45.327  1.00  0.00     0.014 C 
ATOM     26  C   UNL     1      12.348  -5.326  46.125  1.00  0.00     0.016 C 
ATOM     27  C   UNL     1      10.032  -4.885  43.808  1.00  0.00     0.063 C 
ATOM     28  C   UNL     1      10.239  -2.985  45.424  1.00  0.00     0.033 C 
ATOM     29  C   UNL     1       9.597  -3.449  44.109  1.00  0.00     0.118 C 
BRANCH  29  30
ATOM     30  O   UNL     1       9.969  -2.584  43.075  1.00  0.00    -0.393 OA
ATOM     31  H   UNL     1       9.164  -2.376  42.536  1.00  0.00     0.210 HD
ENDBRANCH  29  30
ENDBRANCH   1  11
TORSDOF 6
ENDMDL
