MODEL 1
REMARK VINA RESULT:    -4.490      0.000      0.000
REMARK INTER + INTRA:          -4.527
REMARK INTER:                  -5.408
REMARK INTRA:                   0.882
REMARK UNBOUND:                 0.882
REMARK SMILES C=CCc1ccc(O)c(OC)c1
REMARK SMILES IDX 9 1 7 2 6 3 5 4 4 5 12 6 10 7 11 8 8 9 3 11 2 12 1 13
REMARK H PARENT 8 10
REMARK Flexibility Score: inf
ROOT
ATOM      1  C   UNL     1     149.297 151.473 145.708  1.00  0.00     0.160 A 
ATOM      2  C   UNL     1     149.489 152.866 145.671  1.00  0.00     0.157 A 
ATOM      3  C   UNL     1     150.784 153.395 145.703  1.00  0.00     0.050 A 
ATOM      4  C   UNL     1     151.892 152.550 145.772  1.00  0.00     0.008 A 
ATOM      5  C   UNL     1     151.718 151.159 145.820  1.00  0.00    -0.040 A 
ATOM      6  C   UNL     1     150.420 150.624 145.779  1.00  0.00     0.054 A 
ENDROOT
BRANCH   1   7
ATOM      7  O   UNL     1     147.987 150.970 145.670  1.00  0.00    -0.493 OA
ATOM      8  C   UNL     1     147.605 149.675 146.124  1.00  0.00     0.278 C 
ENDBRANCH   1   7
BRANCH   2   9
ATOM      9  O   UNL     1     148.406 153.742 145.602  1.00  0.00    -0.504 OA
ATOM     10  H   UNL     1     147.906 153.915 144.739  1.00  0.00     0.293 HD
ENDBRANCH   2   9
BRANCH   5  11
ATOM     11  C   UNL     1     152.913 150.243 145.866  1.00  0.00     0.062 C 
BRANCH  11  12
ATOM     12  C   UNL     1     152.526 148.843 145.477  1.00  0.00    -0.030 C 
ATOM     13  C   UNL     1     151.597 148.604 144.547  1.00  0.00     0.004 C 
ENDBRANCH  11  12
ENDBRANCH   5  11
TORSDOF 4
ENDMDL
MODEL 2
REMARK VINA RESULT:    -4.207      8.930      9.992
REMARK INTER + INTRA:          -4.186
REMARK INTER:                  -3.899
REMARK INTRA:                  -0.287
REMARK UNBOUND:                 0.882
REMARK SMILES C=CCc1ccc(O)c(OC)c1
REMARK SMILES IDX 9 1 7 2 6 3 5 4 4 5 12 6 10 7 11 8 8 9 3 11 2 12 1 13
REMARK H PARENT 8 10
REMARK Flexibility Score: inf
ROOT
ATOM      1  C   UNL     1     157.032 150.943 139.589  1.00  0.00     0.160 A 
ATOM      2  C   UNL     1     156.046 151.890 139.921  1.00  0.00     0.157 A 
ATOM      3  C   UNL     1     156.357 153.254 139.923  1.00  0.00     0.050 A 
ATOM      4  C   UNL     1     157.644 153.686 139.599  1.00  0.00     0.008 A 
ATOM      5  C   UNL     1     158.641 152.756 139.275  1.00  0.00    -0.040 A 
ATOM      6  C   UNL     1     158.330 151.387 139.262  1.00  0.00     0.054 A 
ENDROOT
BRANCH   1   7
ATOM      7  O   UNL     1     156.690 149.581 139.589  1.00  0.00    -0.493 OA
ATOM      8  C   UNL     1     156.703 148.745 138.437  1.00  0.00     0.278 C 
ENDBRANCH   1   7
BRANCH   2   9
ATOM      9  O   UNL     1     154.750 151.496 140.251  1.00  0.00    -0.504 OA
ATOM     10  H   UNL     1     154.093 152.122 140.700  1.00  0.00     0.293 HD
ENDBRANCH   2   9
BRANCH   5  11
ATOM     11  C   UNL     1     160.023 153.221 138.897  1.00  0.00     0.062 C 
BRANCH  11  12
ATOM     12  C   UNL     1     160.628 154.045 139.999  1.00  0.00    -0.030 C 
ATOM     13  C   UNL     1     161.091 153.486 141.121  1.00  0.00     0.004 C 
ENDBRANCH  11  12
ENDBRANCH   5  11
TORSDOF 4
ENDMDL
MODEL 3
REMARK VINA RESULT:    -4.197      8.025     10.153
REMARK INTER + INTRA:          -4.174
REMARK INTER:                  -3.886
REMARK INTRA:                  -0.287
REMARK UNBOUND:                 0.882
REMARK SMILES C=CCc1ccc(O)c(OC)c1
REMARK SMILES IDX 9 1 7 2 6 3 5 4 4 5 12 6 10 7 11 8 8 9 3 11 2 12 1 13
REMARK H PARENT 8 10
REMARK Flexibility Score: inf
ROOT
ATOM      1  C   UNL     1     150.270 157.007 139.586  1.00  0.00     0.160 A 
ATOM      2  C   UNL     1     149.362 155.994 139.941  1.00  0.00     0.157 A 
ATOM      3  C   UNL     1     147.990 156.265 139.980  1.00  0.00     0.050 A 
ATOM      4  C   UNL     1     147.512 157.539 139.668  1.00  0.00     0.008 A 
ATOM      5  C   UNL     1     148.404 158.563 139.322  1.00  0.00    -0.040 A 
ATOM      6  C   UNL     1     149.781 158.292 139.273  1.00  0.00     0.054 A 
ENDROOT
BRANCH   1   7
ATOM      7  O   UNL     1     151.641 156.705 139.551  1.00  0.00    -0.493 OA
ATOM      8  C   UNL     1     152.377 156.427 138.363  1.00  0.00     0.278 C 
ENDBRANCH   1   7
BRANCH   2   9
ATOM      9  O   UNL     1     149.802 154.709 140.259  1.00  0.00    -0.504 OA
ATOM     10  H   UNL     1     150.233 154.102 139.574  1.00  0.00     0.293 HD
ENDBRANCH   2   9
BRANCH   5  11
ATOM     11  C   UNL     1     147.889 159.931 138.957  1.00  0.00     0.062 C 
BRANCH  11  12
ATOM     12  C   UNL     1     147.253 160.595 140.147  1.00  0.00    -0.030 C 
ATOM     13  C   UNL     1     147.986 161.103 141.143  1.00  0.00     0.004 C 
ENDBRANCH  11  12
ENDBRANCH   5  11
TORSDOF 4
ENDMDL
MODEL 4
REMARK VINA RESULT:    -4.154      8.216      9.795
REMARK INTER + INTRA:          -4.122
REMARK INTER:                  -3.896
REMARK INTRA:                  -0.227
REMARK UNBOUND:                 0.882
REMARK SMILES C=CCc1ccc(O)c(OC)c1
REMARK SMILES IDX 9 1 7 2 6 3 5 4 4 5 12 6 10 7 11 8 8 9 3 11 2 12 1 13
REMARK H PARENT 8 10
REMARK Flexibility Score: inf
ROOT
ATOM      1  C   UNL     1     149.707 158.146 139.393  1.00  0.00     0.160 A 
ATOM      2  C   UNL     1     150.515 157.003 139.534  1.00  0.00     0.157 A 
ATOM      3  C   UNL     1     149.940 155.728 139.483  1.00  0.00     0.050 A 
ATOM      4  C   UNL     1     148.565 155.580 139.295  1.00  0.00     0.008 A 
ATOM      5  C   UNL     1     147.744 156.709 139.163  1.00  0.00    -0.040 A 
ATOM      6  C   UNL     1     148.319 157.989 139.204  1.00  0.00     0.054 A 
ENDROOT
BRANCH   1   7
ATOM      7  O   UNL     1     150.312 159.412 139.443  1.00  0.00    -0.493 OA
ATOM      8  C   UNL     1     149.794 160.526 140.163  1.00  0.00     0.278 C 
ENDBRANCH   1   7
BRANCH   2   9
ATOM      9  O   UNL     1     151.893 157.112 139.724  1.00  0.00    -0.504 OA
ATOM     10  H   UNL     1     152.493 157.582 139.058  1.00  0.00     0.293 HD
ENDBRANCH   2   9
BRANCH   5  11
ATOM     11  C   UNL     1     146.264 156.551 138.932  1.00  0.00     0.062 C 
BRANCH  11  12
ATOM     12  C   UNL     1     145.966 155.235 138.268  1.00  0.00    -0.030 C 
ATOM     13  C   UNL     1     144.997 154.429 138.711  1.00  0.00     0.004 C 
ENDBRANCH  11  12
ENDBRANCH   5  11
TORSDOF 4
ENDMDL
MODEL 5
REMARK VINA RESULT:    -4.144      8.770      9.739
REMARK INTER + INTRA:          -4.111
REMARK INTER:                  -3.837
REMARK INTRA:                  -0.274
REMARK UNBOUND:                 0.882
REMARK SMILES C=CCc1ccc(O)c(OC)c1
REMARK SMILES IDX 9 1 7 2 6 3 5 4 4 5 12 6 10 7 11 8 8 9 3 11 2 12 1 13
REMARK H PARENT 8 10
REMARK Flexibility Score: inf
ROOT
ATOM      1  C   UNL     1     143.099 148.019 139.128  1.00  0.00     0.160 A 
ATOM      2  C   UNL     1     143.826 149.156 139.525  1.00  0.00     0.157 A 
ATOM      3  C   UNL     1     145.200 149.233 139.273  1.00  0.00     0.050 A 
ATOM      4  C   UNL     1     145.860 148.186 138.627  1.00  0.00     0.008 A 
ATOM      5  C   UNL     1     145.153 147.042 138.233  1.00  0.00    -0.040 A 
ATOM      6  C   UNL     1     143.772 146.965 138.476  1.00  0.00     0.054 A 
ENDROOT
BRANCH   1   7
ATOM      7  O   UNL     1     141.721 147.972 139.390  1.00  0.00    -0.493 OA
ATOM      8  C   UNL     1     141.131 147.285 140.489  1.00  0.00     0.278 C 
ENDBRANCH   1   7
BRANCH   2   9
ATOM      9  O   UNL     1     143.201 150.222 140.173  1.00  0.00    -0.504 OA
ATOM     10  H   UNL     1     142.401 150.090 140.779  1.00  0.00     0.293 HD
ENDBRANCH   2   9
BRANCH   5  11
ATOM     11  C   UNL     1     145.857 145.923 137.511  1.00  0.00     0.062 C 
BRANCH  11  12
ATOM     12  C   UNL     1     147.034 145.433 138.307  1.00  0.00    -0.030 C 
ATOM     13  C   UNL     1     146.932 144.402 139.150  1.00  0.00     0.004 C 
ENDBRANCH  11  12
ENDBRANCH   5  11
TORSDOF 4
ENDMDL
MODEL 6
REMARK VINA RESULT:    -4.136      9.457     10.690
REMARK INTER + INTRA:          -4.101
REMARK INTER:                  -3.837
REMARK INTRA:                  -0.263
REMARK UNBOUND:                 0.882
REMARK SMILES C=CCc1ccc(O)c(OC)c1
REMARK SMILES IDX 9 1 7 2 6 3 5 4 4 5 12 6 10 7 11 8 8 9 3 11 2 12 1 13
REMARK H PARENT 8 10
REMARK Flexibility Score: inf
ROOT
ATOM      1  C   UNL     1     153.256 142.932 139.100  1.00  0.00     0.160 A 
ATOM      2  C   UNL     1     152.117 143.636 139.529  1.00  0.00     0.157 A 
ATOM      3  C   UNL     1     152.024 145.015 139.315  1.00  0.00     0.050 A 
ATOM      4  C   UNL     1     153.057 145.704 138.678  1.00  0.00     0.008 A 
ATOM      5  C   UNL     1     154.205 145.019 138.252  1.00  0.00    -0.040 A 
ATOM      6  C   UNL     1     154.297 143.633 138.457  1.00  0.00     0.054 A 
ENDROOT
BRANCH   1   7
ATOM      7  O   UNL     1     153.321 141.548 139.324  1.00  0.00    -0.493 OA
ATOM      8  C   UNL     1     153.949 140.939 140.447  1.00  0.00     0.278 C 
ENDBRANCH   1   7
BRANCH   2   9
ATOM      9  O   UNL     1     151.064 142.983 140.170  1.00  0.00    -0.504 OA
ATOM     10  H   UNL     1     150.205 142.746 139.690  1.00  0.00     0.293 HD
ENDBRANCH   2   9
BRANCH   5  11
ATOM     11  C   UNL     1     155.309 145.754 137.539  1.00  0.00     0.062 C 
BRANCH  11  12
ATOM     12  C   UNL     1     155.778 146.930 138.351  1.00  0.00    -0.030 C 
ATOM     13  C   UNL     1     156.879 146.867 139.105  1.00  0.00     0.004 C 
ENDBRANCH  11  12
ENDBRANCH   5  11
TORSDOF 4
ENDMDL
MODEL 7
REMARK VINA RESULT:    -4.124      9.327     10.778
REMARK INTER + INTRA:          -4.086
REMARK INTER:                  -3.881
REMARK INTRA:                  -0.205
REMARK UNBOUND:                 0.882
REMARK SMILES C=CCc1ccc(O)c(OC)c1
REMARK SMILES IDX 9 1 7 2 6 3 5 4 4 5 12 6 10 7 11 8 8 9 3 11 2 12 1 13
REMARK H PARENT 8 10
REMARK Flexibility Score: inf
ROOT
ATOM      1  C   UNL     1     158.219 153.326 139.138  1.00  0.00     0.160 A 
ATOM      2  C   UNL     1     157.578 152.127 139.496  1.00  0.00     0.157 A 
ATOM      3  C   UNL     1     156.199 151.987 139.309  1.00  0.00     0.050 A 
ATOM      4  C   UNL     1     155.449 153.033 138.768  1.00  0.00     0.008 A 
ATOM      5  C   UNL     1     156.071 154.239 138.415  1.00  0.00    -0.040 A 
ATOM      6  C   UNL     1     157.456 154.379 138.593  1.00  0.00     0.054 A 
ENDROOT
BRANCH   1   7
ATOM      7  O   UNL     1     159.606 153.437 139.333  1.00  0.00    -0.493 OA
ATOM      8  C   UNL     1     160.217 153.989 140.494  1.00  0.00     0.278 C 
ENDBRANCH   1   7
BRANCH   2   9
ATOM      9  O   UNL     1     158.294 151.060 140.039  1.00  0.00    -0.504 OA
ATOM     10  H   UNL     1     158.386 150.173 139.560  1.00  0.00     0.293 HD
ENDBRANCH   2   9
BRANCH   5  11
ATOM     11  C   UNL     1     155.269 155.359 137.805  1.00  0.00     0.062 C 
BRANCH  11  12
ATOM     12  C   UNL     1     154.784 156.306 138.867  1.00  0.00    -0.030 C 
ATOM     13  C   UNL     1     153.544 156.802 138.852  1.00  0.00     0.004 C 
ENDBRANCH  11  12
ENDBRANCH   5  11
TORSDOF 4
ENDMDL
MODEL 8
REMARK VINA RESULT:    -4.120      8.612      9.903
REMARK INTER + INTRA:          -4.082
REMARK INTER:                  -3.872
REMARK INTRA:                  -0.210
REMARK UNBOUND:                 0.882
REMARK SMILES C=CCc1ccc(O)c(OC)c1
REMARK SMILES IDX 9 1 7 2 6 3 5 4 4 5 12 6 10 7 11 8 8 9 3 11 2 12 1 13
REMARK H PARENT 8 10
REMARK Flexibility Score: inf
ROOT
ATOM      1  C   UNL     1     147.978 158.238 139.142  1.00  0.00     0.160 A 
ATOM      2  C   UNL     1     149.191 157.612 139.480  1.00  0.00     0.157 A 
ATOM      3  C   UNL     1     149.352 156.238 139.272  1.00  0.00     0.050 A 
ATOM      4  C   UNL     1     148.313 155.479 138.732  1.00  0.00     0.008 A 
ATOM      5  C   UNL     1     147.093 156.085 138.399  1.00  0.00    -0.040 A 
ATOM      6  C   UNL     1     146.932 157.465 138.597  1.00  0.00     0.054 A 
ENDROOT
BRANCH   1   7
ATOM      7  O   UNL     1     147.846 159.620 139.357  1.00  0.00    -0.493 OA
ATOM      8  C   UNL     1     147.240 160.205 140.505  1.00  0.00     0.278 C 
ENDBRANCH   1   7
BRANCH   2   9
ATOM      9  O   UNL     1     150.251 158.338 140.022  1.00  0.00    -0.504 OA
ATOM     10  H   UNL     1     151.201 157.989 140.019  1.00  0.00     0.293 HD
ENDBRANCH   2   9
BRANCH   5  11
ATOM     11  C   UNL     1     145.980 155.273 137.790  1.00  0.00     0.062 C 
BRANCH  11  12
ATOM     12  C   UNL     1     145.062 154.743 138.856  1.00  0.00    -0.030 C 
ATOM     13  C   UNL     1     144.599 153.490 138.824  1.00  0.00     0.004 C 
ENDBRANCH  11  12
ENDBRANCH   5  11
TORSDOF 4
ENDMDL
MODEL 9
REMARK VINA RESULT:    -3.984      8.759      9.553
REMARK INTER + INTRA:          -3.918
REMARK INTER:                  -3.699
REMARK INTRA:                  -0.219
REMARK UNBOUND:                 0.882
REMARK SMILES C=CCc1ccc(O)c(OC)c1
REMARK SMILES IDX 9 1 7 2 6 3 5 4 4 5 12 6 10 7 11 8 8 9 3 11 2 12 1 13
REMARK H PARENT 8 10
REMARK Flexibility Score: inf
ROOT
ATOM      1  C   UNL     1     144.440 149.789 139.386  1.00  0.00     0.160 A 
ATOM      2  C   UNL     1     143.158 149.265 139.634  1.00  0.00     0.157 A 
ATOM      3  C   UNL     1     142.893 147.915 139.379  1.00  0.00     0.050 A 
ATOM      4  C   UNL     1     143.892 147.080 138.878  1.00  0.00     0.008 A 
ATOM      5  C   UNL     1     145.172 147.589 138.616  1.00  0.00    -0.040 A 
ATOM      6  C   UNL     1     145.445 148.941 138.879  1.00  0.00     0.054 A 
ENDROOT
BRANCH   1   7
ATOM      7  O   UNL     1     144.679 151.146 139.655  1.00  0.00    -0.493 OA
ATOM      8  C   UNL     1     144.636 152.183 138.680  1.00  0.00     0.278 C 
ENDBRANCH   1   7
BRANCH   2   9
ATOM      9  O   UNL     1     142.134 150.069 140.134  1.00  0.00    -0.504 OA
ATOM     10  H   UNL     1     141.622 150.716 139.549  1.00  0.00     0.293 HD
ENDBRANCH   2   9
BRANCH   5  11
ATOM     11  C   UNL     1     146.261 146.684 138.102  1.00  0.00     0.062 C 
BRANCH  11  12
ATOM     12  C   UNL     1     146.193 145.338 138.768  1.00  0.00    -0.030 C 
ATOM     13  C   UNL     1     147.261 144.537 138.843  1.00  0.00     0.004 C 
ENDBRANCH  11  12
ENDBRANCH   5  11
TORSDOF 4
ENDMDL
