MODEL 1
REMARK VINA RESULT:     9.457      0.000      0.000
REMARK INTER + INTRA:          15.769
REMARK INTER:                  16.091
REMARK INTRA:                  -0.323
REMARK UNBOUND:                -0.323
REMARK SMILES CCCCCCCCCCCCCC(=O)[O-]
REMARK SMILES IDX 8 1 9 2 10 3 11 4 12 5 13 6 14 7 15 8 16 9 7 10 6 11 5 12
REMARK SMILES IDX 4 13 3 14 2 15 1 16
REMARK H PARENT
REMARK Flexibility Score: inf
ROOT
ATOM      1  C   UNL     1     -19.729  38.014  -4.389  1.00  0.00     0.000 C 
ENDROOT
BRANCH   1   2
ATOM      2  C   UNL     1     -20.232  37.822  -5.832  1.00  0.00     0.000 C 
BRANCH   2   3
ATOM      3  C   UNL     1     -20.499  39.120  -6.618  1.00  0.00     0.000 C 
BRANCH   3   4
ATOM      4  C   UNL     1     -20.795  38.871  -8.106  1.00  0.00     0.000 C 
BRANCH   4   5
ATOM      5  C   UNL     1     -19.516  38.696  -8.947  1.00  0.00     0.006 C 
BRANCH   5   6
ATOM      6  C   UNL     1     -19.770  38.306 -10.413  1.00  0.00     0.053 C 
BRANCH   6   7
ATOM      7  C   UNL     1     -18.496  38.171 -11.188  1.00  0.00     0.041 C 
ATOM      8  O   UNL     1     -18.103  37.036 -11.569  1.00  0.00    -0.550 OA
ATOM      9  O   UNL     1     -17.724  39.294 -11.462  1.00  0.00    -0.550 OA
ENDBRANCH   6   7
ENDBRANCH   5   6
ENDBRANCH   4   5
ENDBRANCH   3   4
ENDBRANCH   2   3
ENDBRANCH   1   2
BRANCH   1  10
ATOM     10  C   UNL     1     -20.812  38.560  -3.443  1.00  0.00     0.000 C 
BRANCH  10  11
ATOM     11  C   UNL     1     -21.108  40.055  -3.663  1.00  0.00    -0.000 C 
BRANCH  11  12
ATOM     12  C   UNL     1     -20.214  41.032  -2.877  1.00  0.00    -0.000 C 
BRANCH  12  13
ATOM     13  C   UNL     1     -19.440  42.003  -3.784  1.00  0.00    -0.000 C 
BRANCH  13  14
ATOM     14  C   UNL     1     -18.338  42.775  -3.035  1.00  0.00    -0.000 C 
BRANCH  14  15
ATOM     15  C   UNL     1     -18.484  44.308  -3.059  1.00  0.00    -0.003 C 
ATOM     16  C   UNL     1     -19.940  44.772  -3.055  1.00  0.00     0.004 C 
ENDBRANCH  14  15
ENDBRANCH  13  14
ENDBRANCH  12  13
ENDBRANCH  11  12
ENDBRANCH  10  11
ENDBRANCH   1  10
TORSDOF 12
ENDMDL
MODEL 2
REMARK VINA RESULT:     9.631      1.071      1.642
REMARK INTER + INTRA:          16.064
REMARK INTER:                  14.023
REMARK INTRA:                   2.041
REMARK UNBOUND:                -0.323
REMARK SMILES CCCCCCCCCCCCCC(=O)[O-]
REMARK SMILES IDX 8 1 9 2 10 3 11 4 12 5 13 6 14 7 15 8 16 9 7 10 6 11 5 12
REMARK SMILES IDX 4 13 3 14 2 15 1 16
REMARK H PARENT
REMARK Flexibility Score: inf
ROOT
ATOM      1  C   UNL     1     -19.741  38.752  -3.296  1.00  0.00     0.000 C 
ENDROOT
BRANCH   1   2
ATOM      2  C   UNL     1     -19.475  38.618  -4.807  1.00  0.00     0.000 C 
BRANCH   2   3
ATOM      3  C   UNL     1     -20.731  38.568  -5.698  1.00  0.00     0.000 C 
BRANCH   3   4
ATOM      4  C   UNL     1     -20.499  39.161  -7.098  1.00  0.00     0.000 C 
BRANCH   4   5
ATOM      5  C   UNL     1     -19.914  38.137  -8.089  1.00  0.00     0.006 C 
BRANCH   5   6
ATOM      6  C   UNL     1     -20.279  38.399  -9.560  1.00  0.00     0.053 C 
BRANCH   6   7
ATOM      7  C   UNL     1     -19.076  38.366 -10.451  1.00  0.00     0.041 C 
ATOM      8  O   UNL     1     -17.927  38.555  -9.972  1.00  0.00    -0.550 OA
ATOM      9  O   UNL     1     -19.227  38.158 -11.817  1.00  0.00    -0.550 OA
ENDBRANCH   6   7
ENDBRANCH   5   6
ENDBRANCH   4   5
ENDBRANCH   3   4
ENDBRANCH   2   3
ENDBRANCH   1   2
BRANCH   1  10
ATOM     10  C   UNL     1     -20.690  39.913  -2.953  1.00  0.00     0.000 C 
BRANCH  10  11
ATOM     11  C   UNL     1     -20.300  41.235  -3.641  1.00  0.00    -0.000 C 
BRANCH  11  12
ATOM     12  C   UNL     1     -20.721  42.518  -2.902  1.00  0.00    -0.000 C 
BRANCH  12  13
ATOM     13  C   UNL     1     -21.013  43.692  -3.853  1.00  0.00    -0.000 C 
BRANCH  13  14
ATOM     14  C   UNL     1     -20.013  44.853  -3.697  1.00  0.00    -0.000 C 
BRANCH  14  15
ATOM     15  C   UNL     1     -18.754  44.524  -2.875  1.00  0.00    -0.003 C 
ATOM     16  C   UNL     1     -18.391  43.039  -2.900  1.00  0.00     0.004 C 
ENDBRANCH  14  15
ENDBRANCH  13  14
ENDBRANCH  12  13
ENDBRANCH  11  12
ENDBRANCH  10  11
ENDBRANCH   1  10
TORSDOF 12
ENDMDL
MODEL 3
REMARK VINA RESULT:    10.348     13.056     13.914
REMARK INTER + INTRA:          17.284
REMARK INTER:                  17.585
REMARK INTRA:                  -0.301
REMARK UNBOUND:                -0.323
REMARK SMILES CCCCCCCCCCCCCC(=O)[O-]
REMARK SMILES IDX 8 1 9 2 10 3 11 4 12 5 13 6 14 7 15 8 16 9 7 10 6 11 5 12
REMARK SMILES IDX 4 13 3 14 2 15 1 16
REMARK H PARENT
REMARK Flexibility Score: inf
ROOT
ATOM      1  C   UNL     1     -15.598  27.760  -3.661  1.00  0.00     0.000 C 
ENDROOT
BRANCH   1   2
ATOM      2  C   UNL     1     -16.889  27.465  -2.875  1.00  0.00     0.000 C 
BRANCH   2   3
ATOM      3  C   UNL     1     -18.117  27.102  -3.732  1.00  0.00     0.000 C 
BRANCH   3   4
ATOM      4  C   UNL     1     -19.125  26.210  -2.990  1.00  0.00     0.000 C 
BRANCH   4   5
ATOM      5  C   UNL     1     -20.582  26.482  -3.408  1.00  0.00     0.006 C 
BRANCH   5   6
ATOM      6  C   UNL     1     -21.053  25.674  -4.629  1.00  0.00     0.053 C 
BRANCH   6   7
ATOM      7  C   UNL     1     -20.771  26.386  -5.916  1.00  0.00     0.041 C 
ATOM      8  O   UNL     1     -20.635  25.733  -6.985  1.00  0.00    -0.550 OA
ATOM      9  O   UNL     1     -20.627  27.768  -5.930  1.00  0.00    -0.550 OA
ENDBRANCH   6   7
ENDBRANCH   5   6
ENDBRANCH   4   5
ENDBRANCH   3   4
ENDBRANCH   2   3
ENDBRANCH   1   2
BRANCH   1  10
ATOM     10  C   UNL     1     -14.639  28.700  -2.910  1.00  0.00     0.000 C 
BRANCH  10  11
ATOM     11  C   UNL     1     -13.155  28.407  -3.202  1.00  0.00    -0.000 C 
BRANCH  11  12
ATOM     12  C   UNL     1     -12.438  29.437  -4.094  1.00  0.00    -0.000 C 
BRANCH  12  13
ATOM     13  C   UNL     1     -12.129  28.903  -5.503  1.00  0.00    -0.000 C 
BRANCH  13  14
ATOM     14  C   UNL     1     -11.670  30.006  -6.475  1.00  0.00    -0.000 C 
BRANCH  14  15
ATOM     15  C   UNL     1     -10.585  29.579  -7.481  1.00  0.00    -0.003 C 
ATOM     16  C   UNL     1      -9.190  30.077  -7.107  1.00  0.00     0.004 C 
ENDBRANCH  14  15
ENDBRANCH  13  14
ENDBRANCH  12  13
ENDBRANCH  11  12
ENDBRANCH  10  11
ENDBRANCH   1  10
TORSDOF 12
ENDMDL
MODEL 4
REMARK VINA RESULT:    10.666      5.879      8.064
REMARK INTER + INTRA:          17.826
REMARK INTER:                  18.131
REMARK INTRA:                  -0.305
REMARK UNBOUND:                -0.323
REMARK SMILES CCCCCCCCCCCCCC(=O)[O-]
REMARK SMILES IDX 8 1 9 2 10 3 11 4 12 5 13 6 14 7 15 8 16 9 7 10 6 11 5 12
REMARK SMILES IDX 4 13 3 14 2 15 1 16
REMARK H PARENT
REMARK Flexibility Score: inf
ROOT
ATOM      1  C   UNL     1     -15.860  41.202  -3.966  1.00  0.00     0.000 C 
ENDROOT
BRANCH   1   2
ATOM      2  C   UNL     1     -16.924  40.967  -2.878  1.00  0.00     0.000 C 
BRANCH   2   3
ATOM      3  C   UNL     1     -18.175  41.862  -2.970  1.00  0.00     0.000 C 
BRANCH   3   4
ATOM      4  C   UNL     1     -19.480  41.060  -3.107  1.00  0.00     0.000 C 
BRANCH   4   5
ATOM      5  C   UNL     1     -20.711  41.958  -3.327  1.00  0.00     0.006 C 
BRANCH   5   6
ATOM      6  C   UNL     1     -20.521  43.416  -2.875  1.00  0.00     0.053 C 
BRANCH   6   7
ATOM      7  C   UNL     1     -20.133  44.310  -4.012  1.00  0.00     0.041 C 
ATOM      8  O   UNL     1     -19.178  45.122  -3.882  1.00  0.00    -0.550 OA
ATOM      9  O   UNL     1     -20.845  44.271  -5.204  1.00  0.00    -0.550 OA
ENDBRANCH   6   7
ENDBRANCH   5   6
ENDBRANCH   4   5
ENDBRANCH   3   4
ENDBRANCH   2   3
ENDBRANCH   1   2
BRANCH   1  10
ATOM     10  C   UNL     1     -14.433  41.298  -3.400  1.00  0.00     0.000 C 
BRANCH  10  11
ATOM     11  C   UNL     1     -13.400  41.763  -4.443  1.00  0.00    -0.000 C 
BRANCH  11  12
ATOM     12  C   UNL     1     -13.799  41.546  -5.914  1.00  0.00    -0.000 C 
BRANCH  12  13
ATOM     13  C   UNL     1     -12.592  41.297  -6.835  1.00  0.00    -0.000 C 
BRANCH  13  14
ATOM     14  C   UNL     1     -11.367  42.155  -6.464  1.00  0.00    -0.000 C 
BRANCH  14  15
ATOM     15  C   UNL     1     -10.520  42.633  -7.658  1.00  0.00    -0.003 C 
ATOM     16  C   UNL     1      -9.709  41.512  -8.306  1.00  0.00     0.004 C 
ENDBRANCH  14  15
ENDBRANCH  13  14
ENDBRANCH  12  13
ENDBRANCH  11  12
ENDBRANCH  10  11
ENDBRANCH   1  10
TORSDOF 12
ENDMDL
MODEL 5
REMARK VINA RESULT:    10.938     11.896     13.666
REMARK INTER + INTRA:          18.289
REMARK INTER:                  18.809
REMARK INTRA:                  -0.521
REMARK UNBOUND:                -0.323
REMARK SMILES CCCCCCCCCCCCCC(=O)[O-]
REMARK SMILES IDX 8 1 9 2 10 3 11 4 12 5 13 6 14 7 15 8 16 9 7 10 6 11 5 12
REMARK SMILES IDX 4 13 3 14 2 15 1 16
REMARK H PARENT
REMARK Flexibility Score: inf
ROOT
ATOM      1  C   UNL     1     -14.535  28.835  -3.325  1.00  0.00     0.000 C 
ENDROOT
BRANCH   1   2
ATOM      2  C   UNL     1     -15.438  27.672  -2.876  1.00  0.00     0.000 C 
BRANCH   2   3
ATOM      3  C   UNL     1     -16.951  27.963  -2.891  1.00  0.00     0.000 C 
BRANCH   3   4
ATOM      4  C   UNL     1     -17.808  26.691  -2.990  1.00  0.00     0.000 C 
BRANCH   4   5
ATOM      5  C   UNL     1     -19.309  26.995  -3.153  1.00  0.00     0.006 C 
BRANCH   5   6
ATOM      6  C   UNL     1     -19.640  28.489  -3.306  1.00  0.00     0.053 C 
BRANCH   6   7
ATOM      7  C   UNL     1     -20.155  28.813  -4.674  1.00  0.00     0.041 C 
ATOM      8  O   UNL     1     -20.857  29.843  -4.859  1.00  0.00    -0.550 OA
ATOM      9  O   UNL     1     -19.886  27.962  -5.739  1.00  0.00    -0.550 OA
ENDBRANCH   6   7
ENDBRANCH   5   6
ENDBRANCH   4   5
ENDBRANCH   3   4
ENDBRANCH   2   3
ENDBRANCH   1   2
BRANCH   1  10
ATOM     10  C   UNL     1     -13.042  28.465  -3.343  1.00  0.00     0.000 C 
BRANCH  10  11
ATOM     11  C   UNL     1     -12.203  29.387  -4.248  1.00  0.00    -0.000 C 
BRANCH  11  12
ATOM     12  C   UNL     1     -12.624  29.428  -5.728  1.00  0.00    -0.000 C 
BRANCH  12  13
ATOM     13  C   UNL     1     -11.678  30.270  -6.600  1.00  0.00    -0.000 C 
BRANCH  13  14
ATOM     14  C   UNL     1     -10.809  29.414  -7.541  1.00  0.00    -0.000 C 
BRANCH  14  15
ATOM     15  C   UNL     1      -9.318  29.336  -7.163  1.00  0.00    -0.003 C 
ATOM     16  C   UNL     1      -8.612  30.690  -7.223  1.00  0.00     0.004 C 
ENDBRANCH  14  15
ENDBRANCH  13  14
ENDBRANCH  12  13
ENDBRANCH  11  12
ENDBRANCH  10  11
ENDBRANCH   1  10
TORSDOF 12
ENDMDL
MODEL 6
REMARK VINA RESULT:    11.265     11.551     13.554
REMARK INTER + INTRA:          18.844
REMARK INTER:                  19.612
REMARK INTRA:                  -0.768
REMARK UNBOUND:                -0.323
REMARK SMILES CCCCCCCCCCCCCC(=O)[O-]
REMARK SMILES IDX 8 1 9 2 10 3 11 4 12 5 13 6 14 7 15 8 16 9 7 10 6 11 5 12
REMARK SMILES IDX 4 13 3 14 2 15 1 16
REMARK H PARENT
REMARK Flexibility Score: inf
ROOT
ATOM      1  C   UNL     1     -15.888  27.490  -3.714  1.00  0.00     0.000 C 
ENDROOT
BRANCH   1   2
ATOM      2  C   UNL     1     -15.055  28.637  -3.113  1.00  0.00     0.000 C 
BRANCH   2   3
ATOM      3  C   UNL     1     -13.527  28.446  -3.168  1.00  0.00     0.000 C 
BRANCH   3   4
ATOM      4  C   UNL     1     -12.810  29.557  -3.951  1.00  0.00     0.000 C 
BRANCH   4   5
ATOM      5  C   UNL     1     -12.506  29.159  -5.408  1.00  0.00     0.006 C 
BRANCH   5   6
ATOM      6  C   UNL     1     -11.627  30.164  -6.170  1.00  0.00     0.053 C 
BRANCH   6   7
ATOM      7  C   UNL     1     -10.777  29.496  -7.206  1.00  0.00     0.041 C 
ATOM      8  O   UNL     1      -9.523  29.490  -7.091  1.00  0.00    -0.550 OA
ATOM      9  O   UNL     1     -11.369  28.905  -8.316  1.00  0.00    -0.550 OA
ENDBRANCH   6   7
ENDBRANCH   5   6
ENDBRANCH   4   5
ENDBRANCH   3   4
ENDBRANCH   2   3
ENDBRANCH   1   2
BRANCH   1  10
ATOM     10  C   UNL     1     -17.130  27.146  -2.875  1.00  0.00     0.000 C 
BRANCH  10  11
ATOM     11  C   UNL     1     -17.995  26.037  -3.504  1.00  0.00    -0.000 C 
BRANCH  11  12
ATOM     12  C   UNL     1     -19.390  25.848  -2.881  1.00  0.00    -0.000 C 
BRANCH  12  13
ATOM     13  C   UNL     1     -20.529  26.315  -3.803  1.00  0.00    -0.000 C 
BRANCH  13  14
ATOM     14  C   UNL     1     -20.022  26.914  -5.128  1.00  0.00    -0.000 C 
BRANCH  14  15
ATOM     15  C   UNL     1     -20.409  28.385  -5.369  1.00  0.00    -0.003 C 
ATOM     16  C   UNL     1     -19.654  29.361  -4.468  1.00  0.00     0.004 C 
ENDBRANCH  14  15
ENDBRANCH  13  14
ENDBRANCH  12  13
ENDBRANCH  11  12
ENDBRANCH  10  11
ENDBRANCH   1  10
TORSDOF 12
ENDMDL
MODEL 7
REMARK VINA RESULT:    11.487     12.329     13.568
REMARK INTER + INTRA:          19.222
REMARK INTER:                  19.684
REMARK INTRA:                  -0.462
REMARK UNBOUND:                -0.323
REMARK SMILES CCCCCCCCCCCCCC(=O)[O-]
REMARK SMILES IDX 8 1 9 2 10 3 11 4 12 5 13 6 14 7 15 8 16 9 7 10 6 11 5 12
REMARK SMILES IDX 4 13 3 14 2 15 1 16
REMARK H PARENT
REMARK Flexibility Score: inf
ROOT
ATOM      1  C   UNL     1     -15.649  27.993  -3.787  1.00  0.00     0.000 C 
ENDROOT
BRANCH   1   2
ATOM      2  C   UNL     1     -14.562  28.753  -3.005  1.00  0.00     0.000 C 
BRANCH   2   3
ATOM      3  C   UNL     1     -13.110  28.429  -3.405  1.00  0.00     0.000 C 
BRANCH   3   4
ATOM      4  C   UNL     1     -12.408  29.595  -4.121  1.00  0.00     0.000 C 
BRANCH   4   5
ATOM      5  C   UNL     1     -12.030  29.259  -5.576  1.00  0.00     0.006 C 
BRANCH   5   6
ATOM      6  C   UNL     1     -10.845  30.071  -6.126  1.00  0.00     0.053 C 
BRANCH   6   7
ATOM      7  C   UNL     1     -10.574  29.765  -7.566  1.00  0.00     0.041 C 
ATOM      8  O   UNL     1     -11.451  29.197  -8.269  1.00  0.00    -0.550 OA
ATOM      9  O   UNL     1      -9.340  30.077  -8.124  1.00  0.00    -0.550 OA
ENDBRANCH   6   7
ENDBRANCH   5   6
ENDBRANCH   4   5
ENDBRANCH   3   4
ENDBRANCH   2   3
ENDBRANCH   1   2
BRANCH   1  10
ATOM     10  C   UNL     1     -16.725  27.378  -2.875  1.00  0.00     0.000 C 
BRANCH  10  11
ATOM     11  C   UNL     1     -18.111  27.303  -3.543  1.00  0.00    -0.000 C 
BRANCH  11  12
ATOM     12  C   UNL     1     -19.086  28.437  -3.178  1.00  0.00    -0.000 C 
BRANCH  12  13
ATOM     13  C   UNL     1     -20.413  28.362  -3.951  1.00  0.00    -0.000 C 
BRANCH  13  14
ATOM     14  C   UNL     1     -20.252  27.770  -5.364  1.00  0.00    -0.000 C 
BRANCH  14  15
ATOM     15  C   UNL     1     -21.122  26.534  -5.656  1.00  0.00    -0.003 C 
ATOM     16  C   UNL     1     -20.627  25.719  -6.851  1.00  0.00     0.004 C 
ENDBRANCH  14  15
ENDBRANCH  13  14
ENDBRANCH  12  13
ENDBRANCH  11  12
ENDBRANCH  10  11
ENDBRANCH   1  10
TORSDOF 12
ENDMDL
MODEL 8
REMARK VINA RESULT:    11.816      5.110      6.862
REMARK INTER + INTRA:          19.783
REMARK INTER:                  20.409
REMARK INTRA:                  -0.626
REMARK UNBOUND:                -0.323
REMARK SMILES CCCCCCCCCCCCCC(=O)[O-]
REMARK SMILES IDX 8 1 9 2 10 3 11 4 12 5 13 6 14 7 15 8 16 9 7 10 6 11 5 12
REMARK SMILES IDX 4 13 3 14 2 15 1 16
REMARK H PARENT
REMARK Flexibility Score: inf
ROOT
ATOM      1  C   UNL     1     -16.241  41.568  -3.619  1.00  0.00     0.000 C 
ENDROOT
BRANCH   1   2
ATOM      2  C   UNL     1     -14.869  41.415  -2.935  1.00  0.00     0.000 C 
BRANCH   2   3
ATOM      3  C   UNL     1     -13.648  41.696  -3.830  1.00  0.00     0.000 C 
BRANCH   3   4
ATOM      4  C   UNL     1     -13.949  41.530  -5.329  1.00  0.00     0.000 C 
BRANCH   4   5
ATOM      5  C   UNL     1     -12.746  40.987  -6.122  1.00  0.00     0.006 C 
BRANCH   5   6
ATOM      6  C   UNL     1     -12.051  42.031  -7.013  1.00  0.00     0.053 C 
BRANCH   6   7
ATOM      7  C   UNL     1     -10.645  41.640  -7.346  1.00  0.00     0.041 C 
ATOM      8  O   UNL     1     -10.248  41.656  -8.541  1.00  0.00    -0.550 OA
ATOM      9  O   UNL     1      -9.781  41.226  -6.339  1.00  0.00    -0.550 OA
ENDBRANCH   6   7
ENDBRANCH   5   6
ENDBRANCH   4   5
ENDBRANCH   3   4
ENDBRANCH   2   3
ENDBRANCH   1   2
BRANCH   1  10
ATOM     10  C   UNL     1     -17.178  42.536  -2.876  1.00  0.00     0.000 C 
BRANCH  10  11
ATOM     11  C   UNL     1     -18.648  42.075  -2.882  1.00  0.00    -0.000 C 
BRANCH  11  12
ATOM     12  C   UNL     1     -19.368  42.170  -4.239  1.00  0.00    -0.000 C 
BRANCH  12  13
ATOM     13  C   UNL     1     -20.518  41.159  -4.383  1.00  0.00    -0.000 C 
BRANCH  13  14
ATOM     14  C   UNL     1     -20.892  40.482  -3.050  1.00  0.00    -0.000 C 
BRANCH  14  15
ATOM     15  C   UNL     1     -21.125  38.963  -3.133  1.00  0.00    -0.003 C 
ATOM     16  C   UNL     1     -19.949  38.208  -3.752  1.00  0.00     0.004 C 
ENDBRANCH  14  15
ENDBRANCH  13  14
ENDBRANCH  12  13
ENDBRANCH  11  12
ENDBRANCH  10  11
ENDBRANCH   1  10
TORSDOF 12
ENDMDL
