MODEL 1
REMARK VINA RESULT:    -5.860      0.000      0.000
REMARK INTER + INTRA:          -9.766
REMARK INTER:                  -8.258
REMARK INTRA:                  -1.508
REMARK UNBOUND:                -1.508
REMARK SMILES OC[C@H]1O[C@@H](O[C@@H]2OC=C[C@@H]3[C@@H](O)[C@H]4O[C@@]4(CO)[C@@H]23)[C@H](O)[C@H](O)[C@@H]1O
REMARK SMILES IDX 6 1 7 2 10 3 9 4 11 5 8 6 19 7 12 8 16 9 14 10 15 11 13 12
REMARK SMILES IDX 17 14 18 15 5 17 20 18 4 19 22 20 3 21 24 22 21 23 23 25
REMARK SMILES IDX 2 27 1 28 25 30
REMARK H PARENT 13 13 18 16 21 24 23 26 1 29 25 31
REMARK Flexibility Score: inf
ROOT
ATOM      1  O   UNL     1       0.726  25.463  29.228  1.00  0.00    -0.310 OA
ENDROOT
BRANCH   1   2
ATOM      2  C   UNL     1      -0.367  25.665  30.111  1.00  0.00     0.315 C 
ATOM      3  C   UNL     1      -1.412  24.896  32.726  1.00  0.00     0.018 C 
ATOM      4  C   UNL     1      -0.376  25.742  32.641  1.00  0.00     0.186 C 
ATOM      5  C   UNL     1      -2.120  24.567  31.454  1.00  0.00     0.059 C 
ATOM      6  O   UNL     1       0.111  26.164  31.383  1.00  0.00    -0.472 OA
ATOM      7  C   UNL     1      -1.095  24.334  30.356  1.00  0.00     0.105 C 
ATOM      8  C   UNL     1      -3.002  23.324  31.392  1.00  0.00     0.154 C 
ATOM      9  C   UNL     1      -1.900  23.690  29.224  1.00  0.00     0.130 C 
ATOM     10  C   UNL     1      -3.012  22.968  29.897  1.00  0.00     0.183 C 
ATOM     11  O   UNL     1      -3.248  24.082  29.056  1.00  0.00    -0.360 OA
BRANCH   8  12
ATOM     12  O   UNL     1      -4.304  23.597  31.833  1.00  0.00    -0.390 OA
ATOM     13  H   UNL     1      -4.906  23.014  31.302  1.00  0.00     0.211 HD
ENDBRANCH   8  12
BRANCH   9  14
ATOM     14  C   UNL     1      -1.263  22.940  28.058  1.00  0.00     0.195 C 
BRANCH  14  15
ATOM     15  O   UNL     1       0.071  22.638  28.361  1.00  0.00    -0.393 OA
ATOM     16  H   UNL     1       0.510  22.436  27.495  1.00  0.00     0.210 HD
ENDBRANCH  14  15
ENDBRANCH   9  14
ENDBRANCH   1   2
BRANCH   1  17
ATOM     17  C   UNL     1       0.485  26.043  27.950  1.00  0.00     0.286 C 
ATOM     18  C   UNL     1       0.813  27.554  27.938  1.00  0.00     0.202 C 
ATOM     19  O   UNL     1       1.184  25.325  26.940  1.00  0.00    -0.341 OA
ATOM     20  C   UNL     1       2.321  27.777  28.059  1.00  0.00     0.179 C 
ATOM     21  C   UNL     1       2.597  25.509  26.919  1.00  0.00     0.178 C 
ATOM     22  C   UNL     1       3.062  26.986  26.967  1.00  0.00     0.177 C 
BRANCH  18  23
ATOM     23  O   UNL     1       0.336  28.140  26.752  1.00  0.00    -0.385 OA
ATOM     24  H   UNL     1      -0.249  28.897  27.019  1.00  0.00     0.211 HD
ENDBRANCH  18  23
BRANCH  20  25
ATOM     25  O   UNL     1       2.602  29.149  27.956  1.00  0.00    -0.387 OA
ATOM     26  H   UNL     1       2.880  29.314  27.017  1.00  0.00     0.211 HD
ENDBRANCH  20  25
BRANCH  21  27
ATOM     27  C   UNL     1       3.346  24.573  27.888  1.00  0.00     0.191 C 
BRANCH  27  28
ATOM     28  O   UNL     1       2.651  23.379  28.106  1.00  0.00    -0.394 OA
ATOM     29  H   UNL     1       2.013  23.288  27.351  1.00  0.00     0.210 HD
ENDBRANCH  27  28
ENDBRANCH  21  27
BRANCH  22  30
ATOM     30  O   UNL     1       2.844  27.574  25.708  1.00  0.00    -0.387 OA
ATOM     31  H   UNL     1       3.658  27.413  25.163  1.00  0.00     0.211 HD
ENDBRANCH  22  30
ENDBRANCH   1  17
TORSDOF 10
ENDMDL
MODEL 2
REMARK VINA RESULT:    -5.853      1.724      6.210
REMARK INTER + INTRA:          -9.756
REMARK INTER:                  -8.343
REMARK INTRA:                  -1.413
REMARK UNBOUND:                -1.508
REMARK SMILES OC[C@H]1O[C@@H](O[C@@H]2OC=C[C@@H]3[C@@H](O)[C@H]4O[C@@]4(CO)[C@@H]23)[C@H](O)[C@H](O)[C@@H]1O
REMARK SMILES IDX 6 1 7 2 10 3 9 4 11 5 8 6 19 7 12 8 16 9 14 10 15 11 13 12
REMARK SMILES IDX 17 14 18 15 5 17 20 18 4 19 22 20 3 21 24 22 21 23 23 25
REMARK SMILES IDX 2 27 1 28 25 30
REMARK H PARENT 13 13 18 16 21 24 23 26 1 29 25 31
REMARK Flexibility Score: inf
ROOT
ATOM      1  O   UNL     1      -0.123  25.369  28.121  1.00  0.00    -0.310 OA
ENDROOT
BRANCH   1   2
ATOM      2  C   UNL     1       1.169  25.755  27.677  1.00  0.00     0.315 C 
ATOM      3  C   UNL     1       4.015  25.254  28.093  1.00  0.00     0.018 C 
ATOM      4  C   UNL     1       3.262  24.349  27.453  1.00  0.00     0.186 C 
ATOM      5  C   UNL     1       3.389  26.583  28.363  1.00  0.00     0.059 C 
ATOM      6  O   UNL     1       1.893  24.596  27.199  1.00  0.00    -0.472 OA
ATOM      7  C   UNL     1       1.960  26.375  28.839  1.00  0.00     0.105 C 
ATOM      8  C   UNL     1       3.994  27.489  29.429  1.00  0.00     0.154 C 
ATOM      9  C   UNL     1       1.548  27.742  29.392  1.00  0.00     0.130 C 
ATOM     10  C   UNL     1       2.811  28.369  29.863  1.00  0.00     0.183 C 
ATOM     11  O   UNL     1       2.077  28.899  28.776  1.00  0.00    -0.360 OA
BRANCH   8  12
ATOM     12  O   UNL     1       5.021  28.284  28.902  1.00  0.00    -0.390 OA
ATOM     13  H   UNL     1       5.488  27.726  28.228  1.00  0.00     0.211 HD
ENDBRANCH   8  12
BRANCH   9  14
ATOM     14  C   UNL     1       0.348  27.952  30.310  1.00  0.00     0.195 C 
BRANCH  14  15
ATOM     15  O   UNL     1      -0.828  27.992  29.552  1.00  0.00    -0.393 OA
ATOM     16  H   UNL     1      -1.183  27.065  29.546  1.00  0.00     0.210 HD
ENDBRANCH  14  15
ENDBRANCH   9  14
ENDBRANCH   1   2
BRANCH   1  17
ATOM     17  C   UNL     1      -0.058  24.323  29.085  1.00  0.00     0.286 C 
ATOM     18  C   UNL     1      -1.026  24.575  30.265  1.00  0.00     0.202 C 
ATOM     19  O   UNL     1      -0.272  23.062  28.464  1.00  0.00    -0.341 OA
ATOM     20  C   UNL     1      -2.477  24.435  29.808  1.00  0.00     0.179 C 
ATOM     21  C   UNL     1      -1.611  22.796  28.053  1.00  0.00     0.178 C 
ATOM     22  C   UNL     1      -2.690  23.071  29.130  1.00  0.00     0.177 C 
BRANCH  18  23
ATOM     23  O   UNL     1      -0.761  23.667  31.306  1.00  0.00    -0.385 OA
ATOM     24  H   UNL     1      -1.625  23.232  31.535  1.00  0.00     0.211 HD
ENDBRANCH  18  23
BRANCH  20  25
ATOM     25  O   UNL     1      -3.334  24.579  30.912  1.00  0.00    -0.387 OA
ATOM     26  H   UNL     1      -2.759  24.791  31.694  1.00  0.00     0.211 HD
ENDBRANCH  20  25
BRANCH  21  27
ATOM     27  C   UNL     1      -1.942  23.367  26.659  1.00  0.00     0.191 C 
BRANCH  27  28
ATOM     28  O   UNL     1      -0.811  23.433  25.838  1.00  0.00    -0.394 OA
ATOM     29  H   UNL     1      -0.815  22.604  25.294  1.00  0.00     0.210 HD
ENDBRANCH  27  28
ENDBRANCH  21  27
BRANCH  22  30
ATOM     30  O   UNL     1      -2.651  22.041  30.087  1.00  0.00    -0.387 OA
ATOM     31  H   UNL     1      -2.892  21.197  29.621  1.00  0.00     0.211 HD
ENDBRANCH  22  30
ENDBRANCH   1  17
TORSDOF 10
ENDMDL
MODEL 3
REMARK VINA RESULT:    -5.816      1.939      5.953
REMARK INTER + INTRA:          -9.704
REMARK INTER:                  -8.586
REMARK INTRA:                  -1.118
REMARK UNBOUND:                -1.508
REMARK SMILES OC[C@H]1O[C@@H](O[C@@H]2OC=C[C@@H]3[C@@H](O)[C@H]4O[C@@]4(CO)[C@@H]23)[C@H](O)[C@H](O)[C@@H]1O
REMARK SMILES IDX 6 1 7 2 10 3 9 4 11 5 8 6 19 7 12 8 16 9 14 10 15 11 13 12
REMARK SMILES IDX 17 14 18 15 5 17 20 18 4 19 22 20 3 21 24 22 21 23 23 25
REMARK SMILES IDX 2 27 1 28 25 30
REMARK H PARENT 13 13 18 16 21 24 23 26 1 29 25 31
REMARK Flexibility Score: inf
ROOT
ATOM      1  O   UNL     1       0.081  25.712  29.166  1.00  0.00    -0.310 OA
ENDROOT
BRANCH   1   2
ATOM      2  C   UNL     1       0.959  26.563  29.888  1.00  0.00     0.315 C 
ATOM      3  C   UNL     1       1.985  29.294  29.989  1.00  0.00     0.018 C 
ATOM      4  C   UNL     1       0.731  29.035  30.384  1.00  0.00     0.186 C 
ATOM      5  C   UNL     1       2.867  28.118  29.727  1.00  0.00     0.059 C 
ATOM      6  O   UNL     1       0.233  27.711  30.389  1.00  0.00    -0.472 OA
ATOM      7  C   UNL     1       2.081  27.064  28.965  1.00  0.00     0.105 C 
ATOM      8  C   UNL     1       4.126  28.304  28.888  1.00  0.00     0.154 C 
ATOM      9  C   UNL     1       3.150  26.085  28.471  1.00  0.00     0.130 C 
ATOM     10  C   UNL     1       4.384  26.901  28.315  1.00  0.00     0.183 C 
ATOM     11  O   UNL     1       4.287  25.873  29.283  1.00  0.00    -0.360 OA
BRANCH   8  12
ATOM     12  O   UNL     1       5.211  28.711  29.677  1.00  0.00    -0.390 OA
ATOM     13  H   UNL     1       4.873  28.771  30.607  1.00  0.00     0.211 HD
ENDBRANCH   8  12
BRANCH   9  14
ATOM     14  C   UNL     1       2.912  25.068  27.360  1.00  0.00     0.195 C 
BRANCH  14  15
ATOM     15  O   UNL     1       2.916  23.773  27.894  1.00  0.00    -0.393 OA
ATOM     16  H   UNL     1       2.067  23.351  27.598  1.00  0.00     0.210 HD
ENDBRANCH  14  15
ENDBRANCH   9  14
ENDBRANCH   1   2
BRANCH   1  17
ATOM     17  C   UNL     1      -0.131  24.478  29.843  1.00  0.00     0.286 C 
ATOM     18  C   UNL     1      -1.570  24.374  30.401  1.00  0.00     0.202 C 
ATOM     19  O   UNL     1       0.206  23.385  28.997  1.00  0.00    -0.341 OA
ATOM     20  C   UNL     1      -2.580  24.239  29.263  1.00  0.00     0.179 C 
ATOM     21  C   UNL     1      -0.707  23.126  27.932  1.00  0.00     0.178 C 
ATOM     22  C   UNL     1      -2.196  23.060  28.352  1.00  0.00     0.177 C 
BRANCH  18  23
ATOM     23  O   UNL     1      -1.670  23.268  31.265  1.00  0.00    -0.385 OA
ATOM     24  H   UNL     1      -1.497  23.604  32.184  1.00  0.00     0.211 HD
ENDBRANCH  18  23
BRANCH  20  25
ATOM     25  O   UNL     1      -3.867  24.056  29.795  1.00  0.00    -0.387 OA
ATOM     26  H   UNL     1      -4.006  24.781  30.460  1.00  0.00     0.211 HD
ENDBRANCH  20  25
BRANCH  21  27
ATOM     27  C   UNL     1      -0.435  23.981  26.679  1.00  0.00     0.191 C 
BRANCH  27  28
ATOM     28  O   UNL     1      -0.894  23.361  25.511  1.00  0.00    -0.394 OA
ATOM     29  H   UNL     1      -0.745  22.388  25.638  1.00  0.00     0.210 HD
ENDBRANCH  27  28
ENDBRANCH  21  27
BRANCH  22  30
ATOM     30  O   UNL     1      -2.430  21.839  29.011  1.00  0.00    -0.387 OA
ATOM     31  H   UNL     1      -2.263  21.991  29.978  1.00  0.00     0.211 HD
ENDBRANCH  22  30
ENDBRANCH   1  17
TORSDOF 10
ENDMDL
MODEL 4
REMARK VINA RESULT:    -5.625      1.003      1.025
REMARK INTER + INTRA:          -9.436
REMARK INTER:                  -7.941
REMARK INTRA:                  -1.495
REMARK UNBOUND:                -1.508
REMARK SMILES OC[C@H]1O[C@@H](O[C@@H]2OC=C[C@@H]3[C@@H](O)[C@H]4O[C@@]4(CO)[C@@H]23)[C@H](O)[C@H](O)[C@@H]1O
REMARK SMILES IDX 6 1 7 2 10 3 9 4 11 5 8 6 19 7 12 8 16 9 14 10 15 11 13 12
REMARK SMILES IDX 17 14 18 15 5 17 20 18 4 19 22 20 3 21 24 22 21 23 23 25
REMARK SMILES IDX 2 27 1 28 25 30
REMARK H PARENT 13 13 18 16 21 24 23 26 1 29 25 31
REMARK Flexibility Score: inf
ROOT
ATOM      1  O   UNL     1       0.473  25.735  28.564  1.00  0.00    -0.310 OA
ENDROOT
BRANCH   1   2
ATOM      2  C   UNL     1      -0.515  26.051  29.533  1.00  0.00     0.315 C 
ATOM      3  C   UNL     1      -1.138  25.821  32.375  1.00  0.00     0.018 C 
ATOM      4  C   UNL     1      -0.214  26.698  31.961  1.00  0.00     0.186 C 
ATOM      5  C   UNL     1      -1.963  25.161  31.320  1.00  0.00     0.059 C 
ATOM      6  O   UNL     1       0.065  26.859  30.584  1.00  0.00    -0.472 OA
ATOM      7  C   UNL     1      -1.066  24.761  30.161  1.00  0.00     0.105 C 
ATOM      8  C   UNL     1      -2.713  23.876  31.655  1.00  0.00     0.154 C 
ATOM      9  C   UNL     1      -1.936  23.821  29.322  1.00  0.00     0.130 C 
ATOM     10  C   UNL     1      -2.874  23.191  30.289  1.00  0.00     0.183 C 
ATOM     11  O   UNL     1      -3.327  24.065  29.273  1.00  0.00    -0.360 OA
BRANCH   8  12
ATOM     12  O   UNL     1      -3.970  24.147  32.212  1.00  0.00    -0.390 OA
ATOM     13  H   UNL     1      -4.573  24.355  31.452  1.00  0.00     0.211 HD
ENDBRANCH   8  12
BRANCH   9  14
ATOM     14  C   UNL     1      -1.376  22.874  28.265  1.00  0.00     0.195 C 
BRANCH  14  15
ATOM     15  O   UNL     1       0.006  22.735  28.437  1.00  0.00    -0.393 OA
ATOM     16  H   UNL     1       0.364  22.438  27.560  1.00  0.00     0.210 HD
ENDBRANCH  14  15
ENDBRANCH   9  14
ENDBRANCH   1   2
BRANCH   1  17
ATOM     17  C   UNL     1      -0.000  25.951  27.238  1.00  0.00     0.286 C 
ATOM     18  C   UNL     1       0.150  27.431  26.814  1.00  0.00     0.202 C 
ATOM     19  O   UNL     1       0.636  25.057  26.333  1.00  0.00    -0.341 OA
ATOM     20  C   UNL     1       1.625  27.792  26.640  1.00  0.00     0.179 C 
ATOM     21  C   UNL     1       2.004  25.338  26.047  1.00  0.00     0.178 C 
ATOM     22  C   UNL     1       2.300  26.811  25.667  1.00  0.00     0.177 C 
BRANCH  18  23
ATOM     23  O   UNL     1      -0.544  27.658  25.612  1.00  0.00    -0.385 OA
ATOM     24  H   UNL     1       0.102  27.505  24.873  1.00  0.00     0.211 HD
ENDBRANCH  18  23
BRANCH  20  25
ATOM     25  O   UNL     1       1.733  29.111  26.169  1.00  0.00    -0.387 OA
ATOM     26  H   UNL     1       2.687  29.369  26.257  1.00  0.00     0.211 HD
ENDBRANCH  20  25
BRANCH  21  27
ATOM     27  C   UNL     1       2.976  24.739  27.082  1.00  0.00     0.191 C 
BRANCH  27  28
ATOM     28  O   UNL     1       2.492  23.545  27.626  1.00  0.00    -0.394 OA
ATOM     29  H   UNL     1       1.937  23.801  28.407  1.00  0.00     0.210 HD
ENDBRANCH  27  28
ENDBRANCH  21  27
BRANCH  22  30
ATOM     30  O   UNL     1       1.852  27.041  24.354  1.00  0.00    -0.387 OA
ATOM     31  H   UNL     1       1.648  26.156  23.953  1.00  0.00     0.211 HD
ENDBRANCH  22  30
ENDBRANCH   1  17
TORSDOF 10
ENDMDL
MODEL 5
REMARK VINA RESULT:    -5.561      1.237      2.800
REMARK INTER + INTRA:          -9.345
REMARK INTER:                  -8.089
REMARK INTRA:                  -1.256
REMARK UNBOUND:                -1.508
REMARK SMILES OC[C@H]1O[C@@H](O[C@@H]2OC=C[C@@H]3[C@@H](O)[C@H]4O[C@@]4(CO)[C@@H]23)[C@H](O)[C@H](O)[C@@H]1O
REMARK SMILES IDX 6 1 7 2 10 3 9 4 11 5 8 6 19 7 12 8 16 9 14 10 15 11 13 12
REMARK SMILES IDX 17 14 18 15 5 17 20 18 4 19 22 20 3 21 24 22 21 23 23 25
REMARK SMILES IDX 2 27 1 28 25 30
REMARK H PARENT 13 13 18 16 21 24 23 26 1 29 25 31
REMARK Flexibility Score: inf
ROOT
ATOM      1  O   UNL     1       0.700  25.161  28.740  1.00  0.00    -0.310 OA
ENDROOT
BRANCH   1   2
ATOM      2  C   UNL     1      -0.073  24.180  29.415  1.00  0.00     0.315 C 
ATOM      3  C   UNL     1      -2.809  23.233  29.789  1.00  0.00     0.018 C 
ATOM      4  C   UNL     1      -2.169  22.993  28.636  1.00  0.00     0.186 C 
ATOM      5  C   UNL     1      -1.994  23.785  30.911  1.00  0.00     0.059 C 
ATOM      6  O   UNL     1      -0.827  23.400  28.456  1.00  0.00    -0.472 OA
ATOM      7  C   UNL     1      -1.064  24.860  30.372  1.00  0.00     0.105 C 
ATOM      8  C   UNL     1      -2.699  24.471  32.077  1.00  0.00     0.154 C 
ATOM      9  C   UNL     1      -0.543  25.567  31.626  1.00  0.00     0.130 C 
ATOM     10  C   UNL     1      -1.624  25.417  32.636  1.00  0.00     0.183 C 
ATOM     11  O   UNL     1      -0.362  24.799  32.799  1.00  0.00    -0.360 OA
BRANCH   8  12
ATOM     12  O   UNL     1      -3.087  23.546  33.056  1.00  0.00    -0.390 OA
ATOM     13  H   UNL     1      -3.519  24.071  33.779  1.00  0.00     0.211 HD
ENDBRANCH   8  12
BRANCH   9  14
ATOM     14  C   UNL     1       0.125  26.938  31.604  1.00  0.00     0.195 C 
BRANCH  14  15
ATOM     15  O   UNL     1      -0.084  27.547  30.361  1.00  0.00    -0.393 OA
ATOM     16  H   UNL     1      -0.457  28.446  30.555  1.00  0.00     0.210 HD
ENDBRANCH  14  15
ENDBRANCH   9  14
ENDBRANCH   1   2
BRANCH   1  17
ATOM     17  C   UNL     1       0.397  25.206  27.350  1.00  0.00     0.286 C 
ATOM     18  C   UNL     1       0.008  26.633  26.898  1.00  0.00     0.202 C 
ATOM     19  O   UNL     1       1.473  24.668  26.591  1.00  0.00    -0.341 OA
ATOM     20  C   UNL     1       1.221  27.561  26.944  1.00  0.00     0.179 C 
ATOM     21  C   UNL     1       2.641  25.484  26.512  1.00  0.00     0.178 C 
ATOM     22  C   UNL     1       2.378  26.961  26.127  1.00  0.00     0.177 C 
BRANCH  18  23
ATOM     23  O   UNL     1      -0.519  26.597  25.594  1.00  0.00    -0.385 OA
ATOM     24  H   UNL     1      -1.106  27.392  25.497  1.00  0.00     0.211 HD
ENDBRANCH  18  23
BRANCH  20  25
ATOM     25  O   UNL     1       0.865  28.825  26.445  1.00  0.00    -0.387 OA
ATOM     26  H   UNL     1       0.605  29.378  27.227  1.00  0.00     0.211 HD
ENDBRANCH  20  25
BRANCH  21  27
ATOM     27  C   UNL     1       3.593  25.297  27.709  1.00  0.00     0.191 C 
BRANCH  27  28
ATOM     28  O   UNL     1       3.577  23.984  28.192  1.00  0.00    -0.394 OA
ATOM     29  H   UNL     1       4.324  23.513  27.739  1.00  0.00     0.210 HD
ENDBRANCH  27  28
ENDBRANCH  21  27
BRANCH  22  30
ATOM     30  O   UNL     1       2.090  27.029  24.752  1.00  0.00    -0.387 OA
ATOM     31  H   UNL     1       1.649  26.176  24.501  1.00  0.00     0.211 HD
ENDBRANCH  22  30
ENDBRANCH   1  17
TORSDOF 10
ENDMDL
MODEL 6
REMARK VINA RESULT:    -5.396      1.485      6.608
REMARK INTER + INTRA:          -9.113
REMARK INTER:                  -7.576
REMARK INTRA:                  -1.536
REMARK UNBOUND:                -1.508
REMARK SMILES OC[C@H]1O[C@@H](O[C@@H]2OC=C[C@@H]3[C@@H](O)[C@H]4O[C@@]4(CO)[C@@H]23)[C@H](O)[C@H](O)[C@@H]1O
REMARK SMILES IDX 6 1 7 2 10 3 9 4 11 5 8 6 19 7 12 8 16 9 14 10 15 11 13 12
REMARK SMILES IDX 17 14 18 15 5 17 20 18 4 19 22 20 3 21 24 22 21 23 23 25
REMARK SMILES IDX 2 27 1 28 25 30
REMARK H PARENT 13 13 18 16 21 24 23 26 1 29 25 31
REMARK Flexibility Score: inf
ROOT
ATOM      1  O   UNL     1      -0.427  24.632  30.116  1.00  0.00    -0.310 OA
ENDROOT
BRANCH   1   2
ATOM      2  C   UNL     1       0.218  24.796  28.861  1.00  0.00     0.315 C 
ATOM      3  C   UNL     1       2.658  24.139  27.400  1.00  0.00     0.018 C 
ATOM      4  C   UNL     1       1.740  23.190  27.632  1.00  0.00     0.186 C 
ATOM      5  C   UNL     1       2.269  25.545  27.716  1.00  0.00     0.059 C 
ATOM      6  O   UNL     1       0.530  23.501  28.294  1.00  0.00    -0.472 OA
ATOM      7  C   UNL     1       1.530  25.574  29.044  1.00  0.00     0.105 C 
ATOM      8  C   UNL     1       3.358  26.599  27.888  1.00  0.00     0.154 C 
ATOM      9  C   UNL     1       1.485  27.059  29.414  1.00  0.00     0.130 C 
ATOM     10  C   UNL     1       2.695  27.654  28.786  1.00  0.00     0.183 C 
ATOM     11  O   UNL     1       1.389  28.006  28.369  1.00  0.00    -0.360 OA
BRANCH   8  12
ATOM     12  O   UNL     1       3.720  27.167  26.659  1.00  0.00    -0.390 OA
ATOM     13  H   UNL     1       3.703  28.151  26.791  1.00  0.00     0.211 HD
ENDBRANCH   8  12
BRANCH   9  14
ATOM     14  C   UNL     1       1.178  27.567  30.819  1.00  0.00     0.195 C 
BRANCH  14  15
ATOM     15  O   UNL     1      -0.206  27.573  31.029  1.00  0.00    -0.393 OA
ATOM     16  H   UNL     1      -0.559  26.773  30.557  1.00  0.00     0.210 HD
ENDBRANCH  14  15
ENDBRANCH   9  14
ENDBRANCH   1   2
BRANCH   1  17
ATOM     17  C   UNL     1      -1.810  24.958  30.044  1.00  0.00     0.286 C 
ATOM     18  C   UNL     1      -2.651  23.766  29.530  1.00  0.00     0.202 C 
ATOM     19  O   UNL     1      -2.269  25.448  31.298  1.00  0.00    -0.341 OA
ATOM     20  C   UNL     1      -2.688  22.646  30.570  1.00  0.00     0.179 C 
ATOM     21  C   UNL     1      -2.403  24.474  32.330  1.00  0.00     0.178 C 
ATOM     22  C   UNL     1      -3.177  23.195  31.922  1.00  0.00     0.177 C 
BRANCH  18  23
ATOM     23  O   UNL     1      -3.960  24.192  29.238  1.00  0.00    -0.385 OA
ATOM     24  H   UNL     1      -4.205  23.792  28.363  1.00  0.00     0.211 HD
ENDBRANCH  18  23
BRANCH  20  25
ATOM     25  O   UNL     1      -3.529  21.615  30.120  1.00  0.00    -0.387 OA
ATOM     26  H   UNL     1      -4.310  21.595  30.732  1.00  0.00     0.211 HD
ENDBRANCH  20  25
BRANCH  21  27
ATOM     27  C   UNL     1      -1.088  24.208  33.088  1.00  0.00     0.191 C 
BRANCH  27  28
ATOM     28  O   UNL     1      -0.241  25.322  33.075  1.00  0.00    -0.394 OA
ATOM     29  H   UNL     1       0.631  25.002  32.729  1.00  0.00     0.210 HD
ENDBRANCH  27  28
ENDBRANCH  21  27
BRANCH  22  30
ATOM     30  O   UNL     1      -4.550  23.493  31.858  1.00  0.00    -0.387 OA
ATOM     31  H   UNL     1      -5.037  22.718  32.242  1.00  0.00     0.211 HD
ENDBRANCH  22  30
ENDBRANCH   1  17
TORSDOF 10
ENDMDL
MODEL 7
REMARK VINA RESULT:    -5.360      1.640      2.743
REMARK INTER + INTRA:          -9.061
REMARK INTER:                  -8.164
REMARK INTRA:                  -0.897
REMARK UNBOUND:                -1.508
REMARK SMILES OC[C@H]1O[C@@H](O[C@@H]2OC=C[C@@H]3[C@@H](O)[C@H]4O[C@@]4(CO)[C@@H]23)[C@H](O)[C@H](O)[C@@H]1O
REMARK SMILES IDX 6 1 7 2 10 3 9 4 11 5 8 6 19 7 12 8 16 9 14 10 15 11 13 12
REMARK SMILES IDX 17 14 18 15 5 17 20 18 4 19 22 20 3 21 24 22 21 23 23 25
REMARK SMILES IDX 2 27 1 28 25 30
REMARK H PARENT 13 13 18 16 21 24 23 26 1 29 25 31
REMARK Flexibility Score: inf
ROOT
ATOM      1  O   UNL     1      -0.352  25.086  28.019  1.00  0.00    -0.310 OA
ENDROOT
BRANCH   1   2
ATOM      2  C   UNL     1      -1.688  24.626  28.149  1.00  0.00     0.315 C 
ATOM      3  C   UNL     1      -4.455  25.545  28.303  1.00  0.00     0.018 C 
ATOM      4  C   UNL     1      -3.804  25.574  27.132  1.00  0.00     0.186 C 
ATOM      5  C   UNL     1      -3.788  24.826  29.428  1.00  0.00     0.059 C 
ATOM      6  O   UNL     1      -2.480  25.087  27.028  1.00  0.00    -0.472 OA
ATOM      7  C   UNL     1      -2.310  25.180  29.441  1.00  0.00     0.105 C 
ATOM      8  C   UNL     1      -4.236  25.103  30.859  1.00  0.00     0.154 C 
ATOM      9  C   UNL     1      -1.816  24.671  30.798  1.00  0.00     0.130 C 
ATOM     10  C   UNL     1      -2.998  24.744  31.697  1.00  0.00     0.183 C 
ATOM     11  O   UNL     1      -2.414  23.508  31.333  1.00  0.00    -0.360 OA
BRANCH   8  12
ATOM     12  O   UNL     1      -5.318  24.290  31.223  1.00  0.00    -0.390 OA
ATOM     13  H   UNL     1      -6.013  24.897  31.588  1.00  0.00     0.211 HD
ENDBRANCH   8  12
BRANCH   9  14
ATOM     14  C   UNL     1      -0.501  25.110  31.434  1.00  0.00     0.195 C 
BRANCH  14  15
ATOM     15  O   UNL     1       0.129  26.056  30.616  1.00  0.00    -0.393 OA
ATOM     16  H   UNL     1       0.812  25.557  30.095  1.00  0.00     0.210 HD
ENDBRANCH  14  15
ENDBRANCH   9  14
ENDBRANCH   1   2
BRANCH   1  17
ATOM     17  C   UNL     1      -0.092  25.589  26.713  1.00  0.00     0.286 C 
ATOM     18  C   UNL     1      -0.011  27.134  26.704  1.00  0.00     0.202 C 
ATOM     19  O   UNL     1       1.072  24.979  26.168  1.00  0.00    -0.341 OA
ATOM     20  C   UNL     1       1.244  27.610  27.434  1.00  0.00     0.179 C 
ATOM     21  C   UNL     1       2.311  25.399  26.735  1.00  0.00     0.178 C 
ATOM     22  C   UNL     1       2.492  26.934  26.841  1.00  0.00     0.177 C 
BRANCH  18  23
ATOM     23  O   UNL     1      -0.002  27.606  25.379  1.00  0.00    -0.385 OA
ATOM     24  H   UNL     1       0.687  28.321  25.332  1.00  0.00     0.211 HD
ENDBRANCH  18  23
BRANCH  20  25
ATOM     25  O   UNL     1       1.343  29.008  27.336  1.00  0.00    -0.387 OA
ATOM     26  H   UNL     1       1.763  29.204  26.458  1.00  0.00     0.211 HD
ENDBRANCH  20  25
BRANCH  21  27
ATOM     27  C   UNL     1       2.688  24.623  28.012  1.00  0.00     0.191 C 
BRANCH  27  28
ATOM     28  O   UNL     1       3.955  24.038  27.915  1.00  0.00    -0.394 OA
ATOM     29  H   UNL     1       3.910  23.193  28.432  1.00  0.00     0.210 HD
ENDBRANCH  27  28
ENDBRANCH  21  27
BRANCH  22  30
ATOM     30  O   UNL     1       2.763  27.450  25.561  1.00  0.00    -0.387 OA
ATOM     31  H   UNL     1       2.765  28.440  25.637  1.00  0.00     0.211 HD
ENDBRANCH  22  30
ENDBRANCH   1  17
TORSDOF 10
ENDMDL
MODEL 8
REMARK VINA RESULT:    -5.272      1.759      6.319
REMARK INTER + INTRA:          -8.937
REMARK INTER:                  -7.884
REMARK INTRA:                  -1.054
REMARK UNBOUND:                -1.508
REMARK SMILES OC[C@H]1O[C@@H](O[C@@H]2OC=C[C@@H]3[C@@H](O)[C@H]4O[C@@]4(CO)[C@@H]23)[C@H](O)[C@H](O)[C@@H]1O
REMARK SMILES IDX 6 1 7 2 10 3 9 4 11 5 8 6 19 7 12 8 16 9 14 10 15 11 13 12
REMARK SMILES IDX 17 14 18 15 5 17 20 18 4 19 22 20 3 21 24 22 21 23 23 25
REMARK SMILES IDX 2 27 1 28 25 30
REMARK H PARENT 13 13 18 16 21 24 23 26 1 29 25 31
REMARK Flexibility Score: inf
ROOT
ATOM      1  O   UNL     1      -0.918  25.572  29.592  1.00  0.00    -0.310 OA
ENDROOT
BRANCH   1   2
ATOM      2  C   UNL     1      -0.514  26.532  28.626  1.00  0.00     0.315 C 
ATOM      3  C   UNL     1      -0.958  27.380  25.868  1.00  0.00     0.018 C 
ATOM      4  C   UNL     1      -1.885  27.630  26.803  1.00  0.00     0.186 C 
ATOM      5  C   UNL     1       0.362  26.872  26.346  1.00  0.00     0.059 C 
ATOM      6  O   UNL     1      -1.665  27.271  28.153  1.00  0.00    -0.472 OA
ATOM      7  C   UNL     1       0.135  25.826  27.425  1.00  0.00     0.105 C 
ATOM      8  C   UNL     1       1.293  26.175  25.360  1.00  0.00     0.154 C 
ATOM      9  C   UNL     1       1.501  25.155  27.589  1.00  0.00     0.130 C 
ATOM     10  C   UNL     1       2.157  25.277  26.260  1.00  0.00     0.183 C 
ATOM     11  O   UNL     1       2.660  25.944  27.402  1.00  0.00    -0.360 OA
BRANCH   8  12
ATOM     12  O   UNL     1       2.100  27.096  24.678  1.00  0.00    -0.390 OA
ATOM     13  H   UNL     1       1.607  27.957  24.684  1.00  0.00     0.211 HD
ENDBRANCH   8  12
BRANCH   9  14
ATOM     14  C   UNL     1       1.702  23.810  28.280  1.00  0.00     0.195 C 
BRANCH  14  15
ATOM     15  O   UNL     1       0.462  23.195  28.488  1.00  0.00    -0.393 OA
ATOM     16  H   UNL     1      -0.169  23.922  28.730  1.00  0.00     0.210 HD
ENDBRANCH  14  15
ENDBRANCH   9  14
ENDBRANCH   1   2
BRANCH   1  17
ATOM     17  C   UNL     1      -2.320  25.623  29.831  1.00  0.00     0.286 C 
ATOM     18  C   UNL     1      -3.038  24.367  29.282  1.00  0.00     0.202 C 
ATOM     19  O   UNL     1      -2.580  25.840  31.213  1.00  0.00    -0.341 OA
ATOM     20  C   UNL     1      -2.665  23.134  30.104  1.00  0.00     0.179 C 
ATOM     21  C   UNL     1      -2.327  24.728  32.069  1.00  0.00     0.178 C 
ATOM     22  C   UNL     1      -2.942  23.387  31.596  1.00  0.00     0.177 C 
BRANCH  18  23
ATOM     23  O   UNL     1      -4.431  24.559  29.312  1.00  0.00    -0.385 OA
ATOM     24  H   UNL     1      -4.626  25.341  28.730  1.00  0.00     0.211 HD
ENDBRANCH  18  23
BRANCH  20  25
ATOM     25  O   UNL     1      -3.395  22.025  29.645  1.00  0.00    -0.387 OA
ATOM     26  H   UNL     1      -3.552  21.441  30.432  1.00  0.00     0.211 HD
ENDBRANCH  20  25
BRANCH  21  27
ATOM     27  C   UNL     1      -0.855  24.631  32.518  1.00  0.00     0.191 C 
BRANCH  27  28
ATOM     28  O   UNL     1      -0.521  23.340  32.942  1.00  0.00    -0.394 OA
ATOM     29  H   UNL     1      -0.544  22.768  32.132  1.00  0.00     0.210 HD
ENDBRANCH  27  28
ENDBRANCH  21  27
BRANCH  22  30
ATOM     30  O   UNL     1      -4.328  23.412  31.836  1.00  0.00    -0.387 OA
ATOM     31  H   UNL     1      -4.459  23.291  32.813  1.00  0.00     0.211 HD
ENDBRANCH  22  30
ENDBRANCH   1  17
TORSDOF 10
ENDMDL
