MODEL 1
REMARK VINA RESULT:    -5.751      0.000      0.000
REMARK INTER + INTRA:         -17.878
REMARK INTER:                 -15.164
REMARK INTRA:                  -2.714
REMARK UNBOUND:                -2.714
REMARK SMILES CCCCCCCCCCCCCCCCCCCCCCCCCCCCCC(=O)[O-]
REMARK SMILES IDX 16 1 17 2 18 3 19 4 20 5 21 6 22 7 23 8 24 9 25 10 26 11
REMARK SMILES IDX 27 12 28 13 29 14 30 15 31 16 32 17 15 18 14 19 13 20 12 21
REMARK SMILES IDX 11 22 10 23 9 24 8 25 7 26 6 27 5 28 4 29 3 30 2 31 1 32
REMARK H PARENT
REMARK Flexibility Score: inf
ROOT
ATOM      1  C   UNL     1      -5.198  28.913 -21.369  1.00  0.00     0.000 C 
ENDROOT
BRANCH   1   2
ATOM      2  C   UNL     1      -5.624  29.211 -22.816  1.00  0.00     0.000 C 
BRANCH   2   3
ATOM      3  C   UNL     1      -6.999  28.612 -23.161  1.00  0.00     0.000 C 
BRANCH   3   4
ATOM      4  C   UNL     1      -7.083  28.131 -24.618  1.00  0.00     0.000 C 
BRANCH   4   5
ATOM      5  C   UNL     1      -8.477  27.600 -24.987  1.00  0.00     0.000 C 
BRANCH   5   6
ATOM      6  C   UNL     1      -8.739  27.749 -26.493  1.00  0.00     0.000 C 
BRANCH   6   7
ATOM      7  C   UNL     1      -7.749  26.946 -27.354  1.00  0.00     0.000 C 
BRANCH   7   8
ATOM      8  C   UNL     1      -8.386  25.821 -28.194  1.00  0.00     0.000 C 
BRANCH   8   9
ATOM      9  C   UNL     1      -9.610  25.163 -27.523  1.00  0.00     0.000 C 
BRANCH   9  10
ATOM     10  C   UNL     1      -9.204  24.096 -26.492  1.00  0.00     0.000 C 
BRANCH  10  11
ATOM     11  C   UNL     1     -10.414  23.457 -25.791  1.00  0.00     0.000 C 
BRANCH  11  12
ATOM     12  C   UNL     1     -10.011  22.305 -24.855  1.00  0.00     0.000 C 
BRANCH  12  13
ATOM     13  C   UNL     1      -9.234  22.791 -23.616  1.00  0.00     0.006 C 
BRANCH  13  14
ATOM     14  C   UNL     1     -10.138  23.181 -22.434  1.00  0.00     0.053 C 
BRANCH  14  15
ATOM     15  C   UNL     1      -9.551  22.795 -21.113  1.00  0.00     0.041 C 
ATOM     16  O   UNL     1      -8.364  23.109 -20.831  1.00  0.00    -0.550 OA
ATOM     17  O   UNL     1     -10.318  22.101 -20.185  1.00  0.00    -0.550 OA
ENDBRANCH  14  15
ENDBRANCH  13  14
ENDBRANCH  12  13
ENDBRANCH  11  12
ENDBRANCH  10  11
ENDBRANCH   9  10
ENDBRANCH   8   9
ENDBRANCH   7   8
ENDBRANCH   6   7
ENDBRANCH   5   6
ENDBRANCH   4   5
ENDBRANCH   3   4
ENDBRANCH   2   3
ENDBRANCH   1   2
BRANCH   1  18
ATOM     18  C   UNL     1      -5.851  27.642 -20.806  1.00  0.00     0.000 C 
BRANCH  18  19
ATOM     19  C   UNL     1      -6.083  27.770 -19.293  1.00  0.00     0.000 C 
BRANCH  19  20
ATOM     20  C   UNL     1      -5.730  29.166 -18.753  1.00  0.00     0.000 C 
BRANCH  20  21
ATOM     21  C   UNL     1      -6.930  29.990 -18.247  1.00  0.00     0.000 C 
BRANCH  21  22
ATOM     22  C   UNL     1      -6.726  31.516 -18.347  1.00  0.00     0.000 C 
BRANCH  22  23
ATOM     23  C   UNL     1      -6.476  31.984 -19.790  1.00  0.00     0.000 C 
BRANCH  23  24
ATOM     24  C   UNL     1      -5.339  33.012 -19.844  1.00  0.00    -0.000 C 
BRANCH  24  25
ATOM     25  C   UNL     1      -4.746  33.107 -21.258  1.00  0.00    -0.000 C 
BRANCH  25  26
ATOM     26  C   UNL     1      -3.337  32.498 -21.354  1.00  0.00    -0.000 C 
BRANCH  26  27
ATOM     27  C   UNL     1      -3.056  31.467 -20.246  1.00  0.00    -0.000 C 
BRANCH  27  28
ATOM     28  C   UNL     1      -1.608  31.522 -19.736  1.00  0.00    -0.000 C 
BRANCH  28  29
ATOM     29  C   UNL     1      -0.660  32.241 -20.711  1.00  0.00    -0.000 C 
BRANCH  29  30
ATOM     30  C   UNL     1       0.817  32.132 -20.292  1.00  0.00    -0.000 C 
BRANCH  30  31
ATOM     31  C   UNL     1       1.143  32.754 -18.921  1.00  0.00    -0.003 C 
ATOM     32  C   UNL     1       2.388  32.149 -18.270  1.00  0.00     0.004 C 
ENDBRANCH  30  31
ENDBRANCH  29  30
ENDBRANCH  28  29
ENDBRANCH  27  28
ENDBRANCH  26  27
ENDBRANCH  25  26
ENDBRANCH  24  25
ENDBRANCH  23  24
ENDBRANCH  22  23
ENDBRANCH  21  22
ENDBRANCH  20  21
ENDBRANCH  19  20
ENDBRANCH  18  19
ENDBRANCH   1  18
TORSDOF 28
ENDMDL
MODEL 2
REMARK VINA RESULT:    -5.572      3.112      5.395
REMARK INTER + INTRA:         -17.406
REMARK INTER:                 -13.360
REMARK INTRA:                  -4.046
REMARK UNBOUND:                -2.714
REMARK SMILES CCCCCCCCCCCCCCCCCCCCCCCCCCCCCC(=O)[O-]
REMARK SMILES IDX 16 1 17 2 18 3 19 4 20 5 21 6 22 7 23 8 24 9 25 10 26 11
REMARK SMILES IDX 27 12 28 13 29 14 30 15 31 16 32 17 15 18 14 19 13 20 12 21
REMARK SMILES IDX 11 22 10 23 9 24 8 25 7 26 6 27 5 28 4 29 3 30 2 31 1 32
REMARK H PARENT
REMARK Flexibility Score: inf
ROOT
ATOM      1  C   UNL     1      -6.627  29.158 -18.929  1.00  0.00     0.000 C 
ENDROOT
BRANCH   1   2
ATOM      2  C   UNL     1      -6.137  27.723 -18.677  1.00  0.00     0.000 C 
BRANCH   2   3
ATOM      3  C   UNL     1      -5.966  26.920 -19.979  1.00  0.00     0.000 C 
BRANCH   3   4
ATOM      4  C   UNL     1      -4.582  26.261 -20.088  1.00  0.00     0.000 C 
BRANCH   4   5
ATOM      5  C   UNL     1      -3.434  27.250 -19.835  1.00  0.00     0.000 C 
BRANCH   5   6
ATOM      6  C   UNL     1      -3.198  28.144 -21.061  1.00  0.00     0.000 C 
BRANCH   6   7
ATOM      7  C   UNL     1      -3.557  29.617 -20.804  1.00  0.00     0.000 C 
BRANCH   7   8
ATOM      8  C   UNL     1      -4.521  30.238 -21.835  1.00  0.00     0.000 C 
BRANCH   8   9
ATOM      9  C   UNL     1      -5.173  29.203 -22.777  1.00  0.00     0.000 C 
BRANCH   9  10
ATOM     10  C   UNL     1      -6.710  29.273 -22.741  1.00  0.00     0.000 C 
BRANCH  10  11
ATOM     11  C   UNL     1      -7.373  28.163 -23.572  1.00  0.00     0.000 C 
BRANCH  11  12
ATOM     12  C   UNL     1      -6.966  28.215 -25.054  1.00  0.00     0.000 C 
BRANCH  12  13
ATOM     13  C   UNL     1      -8.065  27.673 -25.991  1.00  0.00     0.006 C 
BRANCH  13  14
ATOM     14  C   UNL     1      -7.556  27.309 -27.395  1.00  0.00     0.053 C 
BRANCH  14  15
ATOM     15  C   UNL     1      -8.314  26.172 -28.002  1.00  0.00     0.041 C 
ATOM     16  O   UNL     1      -7.710  25.294 -28.674  1.00  0.00    -0.550 OA
ATOM     17  O   UNL     1      -9.687  26.071 -27.817  1.00  0.00    -0.550 OA
ENDBRANCH  14  15
ENDBRANCH  13  14
ENDBRANCH  12  13
ENDBRANCH  11  12
ENDBRANCH  10  11
ENDBRANCH   9  10
ENDBRANCH   8   9
ENDBRANCH   7   8
ENDBRANCH   6   7
ENDBRANCH   5   6
ENDBRANCH   4   5
ENDBRANCH   3   4
ENDBRANCH   2   3
ENDBRANCH   1   2
BRANCH   1  18
ATOM     18  C   UNL     1      -7.019  29.888 -17.637  1.00  0.00     0.000 C 
BRANCH  18  19
ATOM     19  C   UNL     1      -7.015  31.410 -17.845  1.00  0.00     0.000 C 
BRANCH  19  20
ATOM     20  C   UNL     1      -6.704  31.811 -19.297  1.00  0.00     0.000 C 
BRANCH  20  21
ATOM     21  C   UNL     1      -6.451  33.315 -19.516  1.00  0.00     0.000 C 
BRANCH  21  22
ATOM     22  C   UNL     1      -5.224  33.619 -20.401  1.00  0.00     0.000 C 
BRANCH  22  23
ATOM     23  C   UNL     1      -5.018  35.126 -20.624  1.00  0.00     0.000 C 
BRANCH  23  24
ATOM     24  C   UNL     1      -4.844  35.441 -22.115  1.00  0.00    -0.000 C 
BRANCH  24  25
ATOM     25  C   UNL     1      -3.372  35.719 -22.455  1.00  0.00    -0.000 C 
BRANCH  25  26
ATOM     26  C   UNL     1      -2.795  34.712 -23.464  1.00  0.00    -0.000 C 
BRANCH  26  27
ATOM     27  C   UNL     1      -2.689  33.287 -22.891  1.00  0.00    -0.000 C 
BRANCH  27  28
ATOM     28  C   UNL     1      -1.362  33.036 -22.159  1.00  0.00    -0.000 C 
BRANCH  28  29
ATOM     29  C   UNL     1      -1.518  33.038 -20.629  1.00  0.00    -0.000 C 
BRANCH  29  30
ATOM     30  C   UNL     1      -0.771  31.872 -19.955  1.00  0.00    -0.000 C 
BRANCH  30  31
ATOM     31  C   UNL     1       0.644  32.219 -19.455  1.00  0.00    -0.003 C 
ATOM     32  C   UNL     1       1.733  31.918 -20.487  1.00  0.00     0.004 C 
ENDBRANCH  30  31
ENDBRANCH  29  30
ENDBRANCH  28  29
ENDBRANCH  27  28
ENDBRANCH  26  27
ENDBRANCH  25  26
ENDBRANCH  24  25
ENDBRANCH  23  24
ENDBRANCH  22  23
ENDBRANCH  21  22
ENDBRANCH  20  21
ENDBRANCH  19  20
ENDBRANCH  18  19
ENDBRANCH   1  18
TORSDOF 28
ENDMDL
MODEL 3
REMARK VINA RESULT:    -5.468      4.004     10.415
REMARK INTER + INTRA:         -17.133
REMARK INTER:                 -13.975
REMARK INTRA:                  -3.158
REMARK UNBOUND:                -2.714
REMARK SMILES CCCCCCCCCCCCCCCCCCCCCCCCCCCCCC(=O)[O-]
REMARK SMILES IDX 16 1 17 2 18 3 19 4 20 5 21 6 22 7 23 8 24 9 25 10 26 11
REMARK SMILES IDX 27 12 28 13 29 14 30 15 31 16 32 17 15 18 14 19 13 20 12 21
REMARK SMILES IDX 11 22 10 23 9 24 8 25 7 26 6 27 5 28 4 29 3 30 2 31 1 32
REMARK H PARENT
REMARK Flexibility Score: inf
ROOT
ATOM      1  C   UNL     1      -4.798  30.272 -22.637  1.00  0.00     0.000 C 
ENDROOT
BRANCH   1   2
ATOM      2  C   UNL     1      -3.895  30.295 -21.393  1.00  0.00     0.000 C 
BRANCH   2   3
ATOM      3  C   UNL     1      -3.223  28.936 -21.127  1.00  0.00     0.000 C 
BRANCH   3   4
ATOM      4  C   UNL     1      -2.870  28.733 -19.645  1.00  0.00     0.000 C 
BRANCH   4   5
ATOM      5  C   UNL     1      -3.184  27.313 -19.150  1.00  0.00     0.000 C 
BRANCH   5   6
ATOM      6  C   UNL     1      -4.055  26.558 -20.165  1.00  0.00     0.000 C 
BRANCH   6   7
ATOM      7  C   UNL     1      -5.530  26.470 -19.736  1.00  0.00     0.000 C 
BRANCH   7   8
ATOM      8  C   UNL     1      -6.271  27.821 -19.689  1.00  0.00     0.000 C 
BRANCH   8   9
ATOM      9  C   UNL     1      -6.427  28.395 -18.265  1.00  0.00     0.000 C 
BRANCH   9  10
ATOM     10  C   UNL     1      -6.453  29.933 -18.257  1.00  0.00     0.000 C 
BRANCH  10  11
ATOM     11  C   UNL     1      -6.912  30.525 -19.599  1.00  0.00     0.000 C 
BRANCH  11  12
ATOM     12  C   UNL     1      -6.552  32.014 -19.739  1.00  0.00     0.000 C 
BRANCH  12  13
ATOM     13  C   UNL     1      -6.823  32.814 -18.449  1.00  0.00     0.006 C 
BRANCH  13  14
ATOM     14  C   UNL     1      -6.732  34.338 -18.636  1.00  0.00     0.053 C 
BRANCH  14  15
ATOM     15  C   UNL     1      -6.247  35.038 -17.407  1.00  0.00     0.041 C 
ATOM     16  O   UNL     1      -6.924  34.996 -16.345  1.00  0.00    -0.550 OA
ATOM     17  O   UNL     1      -5.041  35.728 -17.428  1.00  0.00    -0.550 OA
ENDBRANCH  14  15
ENDBRANCH  13  14
ENDBRANCH  12  13
ENDBRANCH  11  12
ENDBRANCH  10  11
ENDBRANCH   9  10
ENDBRANCH   8   9
ENDBRANCH   7   8
ENDBRANCH   6   7
ENDBRANCH   5   6
ENDBRANCH   4   5
ENDBRANCH   3   4
ENDBRANCH   2   3
ENDBRANCH   1   2
BRANCH   1  18
ATOM     18  C   UNL     1      -5.310  28.865 -22.975  1.00  0.00     0.000 C 
BRANCH  18  19
ATOM     19  C   UNL     1      -6.846  28.826 -22.969  1.00  0.00     0.000 C 
BRANCH  19  20
ATOM     20  C   UNL     1      -7.428  28.157 -24.226  1.00  0.00     0.000 C 
BRANCH  20  21
ATOM     21  C   UNL     1      -6.483  28.126 -25.442  1.00  0.00     0.000 C 
BRANCH  21  22
ATOM     22  C   UNL     1      -7.183  27.757 -26.767  1.00  0.00     0.000 C 
BRANCH  22  23
ATOM     23  C   UNL     1      -8.533  27.057 -26.545  1.00  0.00     0.000 C 
BRANCH  23  24
ATOM     24  C   UNL     1      -8.814  26.040 -27.659  1.00  0.00    -0.000 C 
BRANCH  24  25
ATOM     25  C   UNL     1      -9.923  25.060 -27.247  1.00  0.00    -0.000 C 
BRANCH  25  26
ATOM     26  C   UNL     1      -9.434  23.993 -26.253  1.00  0.00    -0.000 C 
BRANCH  26  27
ATOM     27  C   UNL     1     -10.537  22.994 -25.859  1.00  0.00    -0.000 C 
BRANCH  27  28
ATOM     28  C   UNL     1     -10.390  22.481 -24.418  1.00  0.00    -0.000 C 
BRANCH  28  29
ATOM     29  C   UNL     1      -9.376  23.297 -23.598  1.00  0.00    -0.000 C 
BRANCH  29  30
ATOM     30  C   UNL     1      -9.177  22.740 -22.177  1.00  0.00    -0.000 C 
BRANCH  30  31
ATOM     31  C   UNL     1     -10.295  23.105 -21.182  1.00  0.00    -0.003 C 
ATOM     32  C   UNL     1     -10.267  22.254 -19.912  1.00  0.00     0.004 C 
ENDBRANCH  30  31
ENDBRANCH  29  30
ENDBRANCH  28  29
ENDBRANCH  27  28
ENDBRANCH  26  27
ENDBRANCH  25  26
ENDBRANCH  24  25
ENDBRANCH  23  24
ENDBRANCH  22  23
ENDBRANCH  21  22
ENDBRANCH  20  21
ENDBRANCH  19  20
ENDBRANCH  18  19
ENDBRANCH   1  18
TORSDOF 28
ENDMDL
MODEL 4
REMARK VINA RESULT:    -5.449      3.214      5.964
REMARK INTER + INTRA:         -17.084
REMARK INTER:                 -12.629
REMARK INTRA:                  -4.455
REMARK UNBOUND:                -2.714
REMARK SMILES CCCCCCCCCCCCCCCCCCCCCCCCCCCCCC(=O)[O-]
REMARK SMILES IDX 16 1 17 2 18 3 19 4 20 5 21 6 22 7 23 8 24 9 25 10 26 11
REMARK SMILES IDX 27 12 28 13 29 14 30 15 31 16 32 17 15 18 14 19 13 20 12 21
REMARK SMILES IDX 11 22 10 23 9 24 8 25 7 26 6 27 5 28 4 29 3 30 2 31 1 32
REMARK H PARENT
REMARK Flexibility Score: inf
ROOT
ATOM      1  C   UNL     1      -6.479  29.080 -18.773  1.00  0.00     0.000 C 
ENDROOT
BRANCH   1   2
ATOM      2  C   UNL     1      -6.489  27.547 -18.650  1.00  0.00     0.000 C 
BRANCH   2   3
ATOM      3  C   UNL     1      -5.883  26.852 -19.882  1.00  0.00     0.000 C 
BRANCH   3   4
ATOM      4  C   UNL     1      -4.582  26.103 -19.556  1.00  0.00     0.000 C 
BRANCH   4   5
ATOM      5  C   UNL     1      -3.330  26.851 -20.038  1.00  0.00     0.000 C 
BRANCH   5   6
ATOM      6  C   UNL     1      -2.926  27.946 -19.039  1.00  0.00     0.000 C 
BRANCH   6   7
ATOM      7  C   UNL     1      -2.431  29.229 -19.728  1.00  0.00     0.000 C 
BRANCH   7   8
ATOM      8  C   UNL     1      -3.488  30.344 -19.854  1.00  0.00     0.000 C 
BRANCH   8   9
ATOM      9  C   UNL     1      -3.806  30.738 -21.313  1.00  0.00     0.000 C 
BRANCH   9  10
ATOM     10  C   UNL     1      -4.491  29.598 -22.086  1.00  0.00     0.000 C 
BRANCH  10  11
ATOM     11  C   UNL     1      -6.020  29.746 -22.129  1.00  0.00     0.000 C 
BRANCH  11  12
ATOM     12  C   UNL     1      -6.716  28.498 -22.700  1.00  0.00     0.000 C 
BRANCH  12  13
ATOM     13  C   UNL     1      -6.788  28.512 -24.240  1.00  0.00     0.006 C 
BRANCH  13  14
ATOM     14  C   UNL     1      -8.026  27.796 -24.806  1.00  0.00     0.053 C 
BRANCH  14  15
ATOM     15  C   UNL     1      -7.859  27.412 -26.242  1.00  0.00     0.041 C 
ATOM     16  O   UNL     1      -6.771  27.641 -26.837  1.00  0.00    -0.550 OA
ATOM     17  O   UNL     1      -8.897  26.789 -26.923  1.00  0.00    -0.550 OA
ENDBRANCH  14  15
ENDBRANCH  13  14
ENDBRANCH  12  13
ENDBRANCH  11  12
ENDBRANCH  10  11
ENDBRANCH   9  10
ENDBRANCH   8   9
ENDBRANCH   7   8
ENDBRANCH   6   7
ENDBRANCH   5   6
ENDBRANCH   4   5
ENDBRANCH   3   4
ENDBRANCH   2   3
ENDBRANCH   1   2
BRANCH   1  18
ATOM     18  C   UNL     1      -7.029  29.780 -17.522  1.00  0.00     0.000 C 
BRANCH  18  19
ATOM     19  C   UNL     1      -7.013  31.306 -17.697  1.00  0.00     0.000 C 
BRANCH  19  20
ATOM     20  C   UNL     1      -6.705  31.735 -19.142  1.00  0.00     0.000 C 
BRANCH  20  21
ATOM     21  C   UNL     1      -6.747  33.255 -19.391  1.00  0.00     0.000 C 
BRANCH  21  22
ATOM     22  C   UNL     1      -5.418  33.975 -19.081  1.00  0.00     0.000 C 
BRANCH  22  23
ATOM     23  C   UNL     1      -5.011  34.961 -20.188  1.00  0.00     0.000 C 
BRANCH  23  24
ATOM     24  C   UNL     1      -4.800  34.232 -21.522  1.00  0.00    -0.000 C 
BRANCH  24  25
ATOM     25  C   UNL     1      -4.514  35.227 -22.657  1.00  0.00    -0.000 C 
BRANCH  25  26
ATOM     26  C   UNL     1      -3.999  34.541 -23.933  1.00  0.00    -0.000 C 
BRANCH  26  27
ATOM     27  C   UNL     1      -3.045  33.369 -23.637  1.00  0.00    -0.000 C 
BRANCH  27  28
ATOM     28  C   UNL     1      -1.579  33.700 -23.954  1.00  0.00    -0.000 C 
BRANCH  28  29
ATOM     29  C   UNL     1      -0.717  33.855 -22.690  1.00  0.00    -0.000 C 
BRANCH  29  30
ATOM     30  C   UNL     1      -1.458  33.425 -21.411  1.00  0.00    -0.000 C 
BRANCH  30  31
ATOM     31  C   UNL     1      -0.543  32.934 -20.273  1.00  0.00    -0.003 C 
ATOM     32  C   UNL     1       0.713  32.224 -20.780  1.00  0.00     0.004 C 
ENDBRANCH  30  31
ENDBRANCH  29  30
ENDBRANCH  28  29
ENDBRANCH  27  28
ENDBRANCH  26  27
ENDBRANCH  25  26
ENDBRANCH  24  25
ENDBRANCH  23  24
ENDBRANCH  22  23
ENDBRANCH  21  22
ENDBRANCH  20  21
ENDBRANCH  19  20
ENDBRANCH  18  19
ENDBRANCH   1  18
TORSDOF 28
ENDMDL
MODEL 5
REMARK VINA RESULT:    -5.429      2.371      2.899
REMARK INTER + INTRA:         -17.029
REMARK INTER:                 -14.684
REMARK INTRA:                  -2.345
REMARK UNBOUND:                -2.714
REMARK SMILES CCCCCCCCCCCCCCCCCCCCCCCCCCCCCC(=O)[O-]
REMARK SMILES IDX 16 1 17 2 18 3 19 4 20 5 21 6 22 7 23 8 24 9 25 10 26 11
REMARK SMILES IDX 27 12 28 13 29 14 30 15 31 16 32 17 15 18 14 19 13 20 12 21
REMARK SMILES IDX 11 22 10 23 9 24 8 25 7 26 6 27 5 28 4 29 3 30 2 31 1 32
REMARK H PARENT
REMARK Flexibility Score: inf
ROOT
ATOM      1  C   UNL     1      -5.060  28.776 -21.288  1.00  0.00     0.000 C 
ENDROOT
BRANCH   1   2
ATOM      2  C   UNL     1      -5.362  29.079 -22.765  1.00  0.00     0.000 C 
BRANCH   2   3
ATOM      3  C   UNL     1      -6.836  28.830 -23.130  1.00  0.00     0.000 C 
BRANCH   3   4
ATOM      4  C   UNL     1      -7.002  28.243 -24.540  1.00  0.00     0.000 C 
BRANCH   4   5
ATOM      5  C   UNL     1      -8.418  27.703 -24.794  1.00  0.00     0.000 C 
BRANCH   5   6
ATOM      6  C   UNL     1      -8.750  27.716 -26.293  1.00  0.00     0.000 C 
BRANCH   6   7
ATOM      7  C   UNL     1      -7.715  26.956 -27.141  1.00  0.00     0.000 C 
BRANCH   7   8
ATOM      8  C   UNL     1      -8.307  25.879 -28.071  1.00  0.00     0.000 C 
BRANCH   8   9
ATOM      9  C   UNL     1      -9.556  25.179 -27.495  1.00  0.00     0.000 C 
BRANCH   9  10
ATOM     10  C   UNL     1      -9.206  24.222 -26.342  1.00  0.00     0.000 C 
BRANCH  10  11
ATOM     11  C   UNL     1     -10.401  23.361 -25.903  1.00  0.00     0.000 C 
BRANCH  11  12
ATOM     12  C   UNL     1      -9.991  22.232 -24.942  1.00  0.00     0.000 C 
BRANCH  12  13
ATOM     13  C   UNL     1      -9.233  22.753 -23.704  1.00  0.00     0.006 C 
BRANCH  13  14
ATOM     14  C   UNL     1     -10.153  23.146 -22.536  1.00  0.00     0.053 C 
BRANCH  14  15
ATOM     15  C   UNL     1      -9.571  22.792 -21.205  1.00  0.00     0.041 C 
ATOM     16  O   UNL     1      -8.361  23.039 -20.956  1.00  0.00    -0.550 OA
ATOM     17  O   UNL     1     -10.367  22.201 -20.231  1.00  0.00    -0.550 OA
ENDBRANCH  14  15
ENDBRANCH  13  14
ENDBRANCH  12  13
ENDBRANCH  11  12
ENDBRANCH  10  11
ENDBRANCH   9  10
ENDBRANCH   8   9
ENDBRANCH   7   8
ENDBRANCH   6   7
ENDBRANCH   5   6
ENDBRANCH   4   5
ENDBRANCH   3   4
ENDBRANCH   2   3
ENDBRANCH   1   2
BRANCH   1  18
ATOM     18  C   UNL     1      -5.872  27.589 -20.747  1.00  0.00     0.000 C 
BRANCH  18  19
ATOM     19  C   UNL     1      -5.977  27.651 -19.216  1.00  0.00     0.000 C 
BRANCH  19  20
ATOM     20  C   UNL     1      -5.741  29.065 -18.660  1.00  0.00     0.000 C 
BRANCH  20  21
ATOM     21  C   UNL     1      -6.933  29.668 -17.893  1.00  0.00     0.000 C 
BRANCH  21  22
ATOM     22  C   UNL     1      -6.994  31.209 -17.945  1.00  0.00     0.000 C 
BRANCH  22  23
ATOM     23  C   UNL     1      -6.909  31.754 -19.381  1.00  0.00     0.000 C 
BRANCH  23  24
ATOM     24  C   UNL     1      -6.235  33.132 -19.406  1.00  0.00    -0.000 C 
BRANCH  24  25
ATOM     25  C   UNL     1      -5.144  33.194 -20.485  1.00  0.00    -0.000 C 
BRANCH  25  26
ATOM     26  C   UNL     1      -4.504  34.587 -20.604  1.00  0.00    -0.000 C 
BRANCH  26  27
ATOM     27  C   UNL     1      -5.278  35.520 -21.553  1.00  0.00    -0.000 C 
BRANCH  27  28
ATOM     28  C   UNL     1      -4.552  35.747 -22.888  1.00  0.00    -0.000 C 
BRANCH  28  29
ATOM     29  C   UNL     1      -3.049  35.430 -22.809  1.00  0.00    -0.000 C 
BRANCH  29  30
ATOM     30  C   UNL     1      -2.500  34.831 -24.116  1.00  0.00    -0.000 C 
BRANCH  30  31
ATOM     31  C   UNL     1      -3.072  33.447 -24.479  1.00  0.00    -0.003 C 
ATOM     32  C   UNL     1      -3.925  33.467 -25.748  1.00  0.00     0.004 C 
ENDBRANCH  30  31
ENDBRANCH  29  30
ENDBRANCH  28  29
ENDBRANCH  27  28
ENDBRANCH  26  27
ENDBRANCH  25  26
ENDBRANCH  24  25
ENDBRANCH  23  24
ENDBRANCH  22  23
ENDBRANCH  21  22
ENDBRANCH  20  21
ENDBRANCH  19  20
ENDBRANCH  18  19
ENDBRANCH   1  18
TORSDOF 28
ENDMDL
MODEL 6
REMARK VINA RESULT:    -5.381      1.916      9.870
REMARK INTER + INTRA:         -16.903
REMARK INTER:                 -14.342
REMARK INTRA:                  -2.561
REMARK UNBOUND:                -2.714
REMARK SMILES CCCCCCCCCCCCCCCCCCCCCCCCCCCCCC(=O)[O-]
REMARK SMILES IDX 16 1 17 2 18 3 19 4 20 5 21 6 22 7 23 8 24 9 25 10 26 11
REMARK SMILES IDX 27 12 28 13 29 14 30 15 31 16 32 17 15 18 14 19 13 20 12 21
REMARK SMILES IDX 11 22 10 23 9 24 8 25 7 26 6 27 5 28 4 29 3 30 2 31 1 32
REMARK H PARENT
REMARK Flexibility Score: inf
ROOT
ATOM      1  C   UNL     1      -3.735  28.413 -20.620  1.00  0.00     0.000 C 
ENDROOT
BRANCH   1   2
ATOM      2  C   UNL     1      -2.624  29.176 -19.880  1.00  0.00     0.000 C 
BRANCH   2   3
ATOM      3  C   UNL     1      -2.871  30.694 -19.849  1.00  0.00     0.000 C 
BRANCH   3   4
ATOM      4  C   UNL     1      -1.568  31.506 -19.927  1.00  0.00     0.000 C 
BRANCH   4   5
ATOM      5  C   UNL     1      -1.555  32.494 -21.103  1.00  0.00     0.000 C 
BRANCH   5   6
ATOM      6  C   UNL     1      -2.922  33.175 -21.264  1.00  0.00     0.000 C 
BRANCH   6   7
ATOM      7  C   UNL     1      -3.094  34.393 -20.340  1.00  0.00     0.000 C 
BRANCH   7   8
ATOM      8  C   UNL     1      -4.548  34.877 -20.172  1.00  0.00     0.000 C 
BRANCH   8   9
ATOM      9  C   UNL     1      -5.603  33.837 -20.603  1.00  0.00     0.000 C 
BRANCH   9  10
ATOM     10  C   UNL     1      -6.556  33.465 -19.454  1.00  0.00     0.000 C 
BRANCH  10  11
ATOM     11  C   UNL     1      -6.487  31.975 -19.084  1.00  0.00     0.000 C 
BRANCH  11  12
ATOM     12  C   UNL     1      -6.973  31.702 -17.650  1.00  0.00     0.000 C 
BRANCH  12  13
ATOM     13  C   UNL     1      -7.098  30.196 -17.343  1.00  0.00     0.006 C 
BRANCH  13  14
ATOM     14  C   UNL     1      -6.657  29.290 -18.505  1.00  0.00     0.053 C 
BRANCH  14  15
ATOM     15  C   UNL     1      -6.838  27.837 -18.198  1.00  0.00     0.041 C 
ATOM     16  O   UNL     1      -7.443  27.480 -17.153  1.00  0.00    -0.550 OA
ATOM     17  O   UNL     1      -6.349  26.874 -19.073  1.00  0.00    -0.550 OA
ENDBRANCH  14  15
ENDBRANCH  13  14
ENDBRANCH  12  13
ENDBRANCH  11  12
ENDBRANCH  10  11
ENDBRANCH   9  10
ENDBRANCH   8   9
ENDBRANCH   7   8
ENDBRANCH   6   7
ENDBRANCH   5   6
ENDBRANCH   4   5
ENDBRANCH   3   4
ENDBRANCH   2   3
ENDBRANCH   1   2
BRANCH   1  18
ATOM     18  C   UNL     1      -4.714  29.345 -21.348  1.00  0.00     0.000 C 
BRANCH  18  19
ATOM     19  C   UNL     1      -5.890  28.552 -21.936  1.00  0.00     0.000 C 
BRANCH  19  20
ATOM     20  C   UNL     1      -6.177  28.914 -23.403  1.00  0.00     0.000 C 
BRANCH  20  21
ATOM     21  C   UNL     1      -7.419  28.234 -24.010  1.00  0.00     0.000 C 
BRANCH  21  22
ATOM     22  C   UNL     1      -7.259  27.852 -25.496  1.00  0.00     0.000 C 
BRANCH  22  23
ATOM     23  C   UNL     1      -8.547  27.264 -26.095  1.00  0.00     0.000 C 
BRANCH  23  24
ATOM     24  C   UNL     1      -8.303  26.744 -27.518  1.00  0.00    -0.000 C 
BRANCH  24  25
ATOM     25  C   UNL     1      -8.559  25.232 -27.606  1.00  0.00    -0.000 C 
BRANCH  25  26
ATOM     26  C   UNL     1      -9.574  24.739 -26.561  1.00  0.00    -0.000 C 
BRANCH  26  27
ATOM     27  C   UNL     1      -9.492  23.220 -26.321  1.00  0.00    -0.000 C 
BRANCH  27  28
ATOM     28  C   UNL     1     -10.163  22.789 -25.007  1.00  0.00    -0.000 C 
BRANCH  28  29
ATOM     29  C   UNL     1      -9.493  23.406 -23.767  1.00  0.00    -0.000 C 
BRANCH  29  30
ATOM     30  C   UNL     1      -9.983  22.775 -22.452  1.00  0.00    -0.000 C 
BRANCH  30  31
ATOM     31  C   UNL     1      -9.019  22.938 -21.262  1.00  0.00    -0.003 C 
ATOM     32  C   UNL     1      -9.702  22.745 -19.907  1.00  0.00     0.004 C 
ENDBRANCH  30  31
ENDBRANCH  29  30
ENDBRANCH  28  29
ENDBRANCH  27  28
ENDBRANCH  26  27
ENDBRANCH  25  26
ENDBRANCH  24  25
ENDBRANCH  23  24
ENDBRANCH  22  23
ENDBRANCH  21  22
ENDBRANCH  20  21
ENDBRANCH  19  20
ENDBRANCH  18  19
ENDBRANCH   1  18
TORSDOF 28
ENDMDL
MODEL 7
REMARK VINA RESULT:    -5.374      1.719      3.907
REMARK INTER + INTRA:         -16.885
REMARK INTER:                 -13.304
REMARK INTRA:                  -3.581
REMARK UNBOUND:                -2.714
REMARK SMILES CCCCCCCCCCCCCCCCCCCCCCCCCCCCCC(=O)[O-]
REMARK SMILES IDX 16 1 17 2 18 3 19 4 20 5 21 6 22 7 23 8 24 9 25 10 26 11
REMARK SMILES IDX 27 12 28 13 29 14 30 15 31 16 32 17 15 18 14 19 13 20 12 21
REMARK SMILES IDX 11 22 10 23 9 24 8 25 7 26 6 27 5 28 4 29 3 30 2 31 1 32
REMARK H PARENT
REMARK Flexibility Score: inf
ROOT
ATOM      1  C   UNL     1      -4.404  26.437 -20.131  1.00  0.00     0.000 C 
ENDROOT
BRANCH   1   2
ATOM      2  C   UNL     1      -3.294  27.467 -20.396  1.00  0.00     0.000 C 
BRANCH   2   3
ATOM      3  C   UNL     1      -3.197  28.529 -19.287  1.00  0.00     0.000 C 
BRANCH   3   4
ATOM      4  C   UNL     1      -3.489  29.947 -19.802  1.00  0.00     0.000 C 
BRANCH   4   5
ATOM      5  C   UNL     1      -3.656  30.001 -21.328  1.00  0.00     0.000 C 
BRANCH   5   6
ATOM      6  C   UNL     1      -5.140  29.954 -21.720  1.00  0.00     0.000 C 
BRANCH   6   7
ATOM      7  C   UNL     1      -5.381  29.235 -23.058  1.00  0.00     0.000 C 
BRANCH   7   8
ATOM      8  C   UNL     1      -6.822  28.727 -23.269  1.00  0.00     0.000 C 
BRANCH   8   9
ATOM      9  C   UNL     1      -7.074  28.139 -24.674  1.00  0.00     0.000 C 
BRANCH   9  10
ATOM     10  C   UNL     1      -8.512  27.618 -24.836  1.00  0.00     0.000 C 
BRANCH  10  11
ATOM     11  C   UNL     1      -8.902  27.400 -26.306  1.00  0.00     0.000 C 
BRANCH  11  12
ATOM     12  C   UNL     1      -8.488  26.012 -26.825  1.00  0.00     0.000 C 
BRANCH  12  13
ATOM     13  C   UNL     1      -9.672  25.027 -26.893  1.00  0.00     0.006 C 
BRANCH  13  14
ATOM     14  C   UNL     1      -9.379  23.663 -26.246  1.00  0.00     0.053 C 
BRANCH  14  15
ATOM     15  C   UNL     1     -10.480  23.210 -25.341  1.00  0.00     0.041 C 
ATOM     16  O   UNL     1     -11.681  23.283 -25.718  1.00  0.00    -0.550 OA
ATOM     17  O   UNL     1     -10.184  22.694 -24.085  1.00  0.00    -0.550 OA
ENDBRANCH  14  15
ENDBRANCH  13  14
ENDBRANCH  12  13
ENDBRANCH  11  12
ENDBRANCH  10  11
ENDBRANCH   9  10
ENDBRANCH   8   9
ENDBRANCH   7   8
ENDBRANCH   6   7
ENDBRANCH   5   6
ENDBRANCH   4   5
ENDBRANCH   3   4
ENDBRANCH   2   3
ENDBRANCH   1   2
BRANCH   1  18
ATOM     18  C   UNL     1      -5.788  27.083 -19.970  1.00  0.00     0.000 C 
BRANCH  18  19
ATOM     19  C   UNL     1      -6.464  26.612 -18.673  1.00  0.00     0.000 C 
BRANCH  19  20
ATOM     20  C   UNL     1      -7.164  27.755 -17.919  1.00  0.00     0.000 C 
BRANCH  20  21
ATOM     21  C   UNL     1      -6.696  29.171 -18.306  1.00  0.00     0.000 C 
BRANCH  21  22
ATOM     22  C   UNL     1      -7.034  30.249 -17.255  1.00  0.00     0.000 C 
BRANCH  22  23
ATOM     23  C   UNL     1      -7.055  31.666 -17.850  1.00  0.00     0.000 C 
BRANCH  23  24
ATOM     24  C   UNL     1      -6.577  31.656 -19.308  1.00  0.00    -0.000 C 
BRANCH  24  25
ATOM     25  C   UNL     1      -6.445  33.084 -19.858  1.00  0.00    -0.000 C 
BRANCH  25  26
ATOM     26  C   UNL     1      -4.984  33.552 -19.954  1.00  0.00    -0.000 C 
BRANCH  26  27
ATOM     27  C   UNL     1      -4.466  33.597 -21.403  1.00  0.00    -0.000 C 
BRANCH  27  28
ATOM     28  C   UNL     1      -3.022  34.113 -21.503  1.00  0.00    -0.000 C 
BRANCH  28  29
ATOM     29  C   UNL     1      -2.110  33.175 -22.311  1.00  0.00    -0.000 C 
BRANCH  29  30
ATOM     30  C   UNL     1      -0.783  32.871 -21.590  1.00  0.00    -0.000 C 
BRANCH  30  31
ATOM     31  C   UNL     1      -0.940  32.203 -20.211  1.00  0.00    -0.003 C 
ATOM     32  C   UNL     1       0.400  31.875 -19.550  1.00  0.00     0.004 C 
ENDBRANCH  30  31
ENDBRANCH  29  30
ENDBRANCH  28  29
ENDBRANCH  27  28
ENDBRANCH  26  27
ENDBRANCH  25  26
ENDBRANCH  24  25
ENDBRANCH  23  24
ENDBRANCH  22  23
ENDBRANCH  21  22
ENDBRANCH  20  21
ENDBRANCH  19  20
ENDBRANCH  18  19
ENDBRANCH   1  18
TORSDOF 28
ENDMDL
MODEL 8
REMARK VINA RESULT:    -5.347      2.401     10.268
REMARK INTER + INTRA:         -16.815
REMARK INTER:                 -13.870
REMARK INTRA:                  -2.944
REMARK UNBOUND:                -2.714
REMARK SMILES CCCCCCCCCCCCCCCCCCCCCCCCCCCCCC(=O)[O-]
REMARK SMILES IDX 16 1 17 2 18 3 19 4 20 5 21 6 22 7 23 8 24 9 25 10 26 11
REMARK SMILES IDX 27 12 28 13 29 14 30 15 31 16 32 17 15 18 14 19 13 20 12 21
REMARK SMILES IDX 11 22 10 23 9 24 8 25 7 26 6 27 5 28 4 29 3 30 2 31 1 32
REMARK H PARENT
REMARK Flexibility Score: inf
ROOT
ATOM      1  C   UNL     1      -6.267  28.401 -22.074  1.00  0.00     0.000 C 
ENDROOT
BRANCH   1   2
ATOM      2  C   UNL     1      -4.985  29.217 -22.308  1.00  0.00     0.000 C 
BRANCH   2   3
ATOM      3  C   UNL     1      -3.709  28.397 -22.052  1.00  0.00     0.000 C 
BRANCH   3   4
ATOM      4  C   UNL     1      -3.493  28.093 -20.562  1.00  0.00     0.000 C 
BRANCH   4   5
ATOM      5  C   UNL     1      -3.478  29.361 -19.695  1.00  0.00     0.000 C 
BRANCH   5   6
ATOM      6  C   UNL     1      -2.093  30.025 -19.717  1.00  0.00     0.000 C 
BRANCH   6   7
ATOM      7  C   UNL     1      -2.163  31.543 -19.962  1.00  0.00     0.000 C 
BRANCH   7   8
ATOM      8  C   UNL     1      -2.570  31.949 -21.392  1.00  0.00     0.000 C 
BRANCH   8   9
ATOM      9  C   UNL     1      -3.751  32.942 -21.444  1.00  0.00     0.000 C 
BRANCH   9  10
ATOM     10  C   UNL     1      -3.755  33.903 -20.243  1.00  0.00     0.000 C 
BRANCH  10  11
ATOM     11  C   UNL     1      -5.113  33.949 -19.525  1.00  0.00     0.000 C 
BRANCH  11  12
ATOM     12  C   UNL     1      -6.150  33.011 -20.167  1.00  0.00     0.000 C 
BRANCH  12  13
ATOM     13  C   UNL     1      -6.945  32.201 -19.123  1.00  0.00     0.006 C 
BRANCH  13  14
ATOM     14  C   UNL     1      -6.612  30.700 -19.123  1.00  0.00     0.053 C 
BRANCH  14  15
ATOM     15  C   UNL     1      -6.977  30.032 -17.835  1.00  0.00     0.041 C 
ATOM     16  O   UNL     1      -7.109  28.780 -17.785  1.00  0.00    -0.550 OA
ATOM     17  O   UNL     1      -7.159  30.790 -16.685  1.00  0.00    -0.550 OA
ENDBRANCH  14  15
ENDBRANCH  13  14
ENDBRANCH  12  13
ENDBRANCH  11  12
ENDBRANCH  10  11
ENDBRANCH   9  10
ENDBRANCH   8   9
ENDBRANCH   7   8
ENDBRANCH   6   7
ENDBRANCH   5   6
ENDBRANCH   4   5
ENDBRANCH   3   4
ENDBRANCH   2   3
ENDBRANCH   1   2
BRANCH   1  18
ATOM     18  C   UNL     1      -7.272  28.527 -23.229  1.00  0.00     0.000 C 
BRANCH  18  19
ATOM     19  C   UNL     1      -6.568  28.373 -24.585  1.00  0.00     0.000 C 
BRANCH  19  20
ATOM     20  C   UNL     1      -7.529  27.944 -25.708  1.00  0.00     0.000 C 
BRANCH  20  21
ATOM     21  C   UNL     1      -6.846  27.542 -27.029  1.00  0.00     0.000 C 
BRANCH  21  22
ATOM     22  C   UNL     1      -7.044  26.059 -27.407  1.00  0.00     0.000 C 
BRANCH  22  23
ATOM     23  C   UNL     1      -8.183  25.857 -28.420  1.00  0.00     0.000 C 
BRANCH  23  24
ATOM     24  C   UNL     1      -9.514  25.598 -27.703  1.00  0.00    -0.000 C 
BRANCH  24  25
ATOM     25  C   UNL     1      -9.303  24.776 -26.423  1.00  0.00    -0.000 C 
BRANCH  25  26
ATOM     26  C   UNL     1      -9.781  23.321 -26.565  1.00  0.00    -0.000 C 
BRANCH  26  27
ATOM     27  C   UNL     1      -9.787  22.562 -25.225  1.00  0.00    -0.000 C 
BRANCH  27  28
ATOM     28  C   UNL     1      -9.989  23.489 -24.017  1.00  0.00    -0.000 C 
BRANCH  28  29
ATOM     29  C   UNL     1      -9.510  22.860 -22.698  1.00  0.00    -0.000 C 
BRANCH  29  30
ATOM     30  C   UNL     1     -10.424  23.205 -21.508  1.00  0.00    -0.000 C 
BRANCH  30  31
ATOM     31  C   UNL     1     -10.000  22.575 -20.168  1.00  0.00    -0.003 C 
ATOM     32  C   UNL     1      -8.510  22.751 -19.870  1.00  0.00     0.004 C 
ENDBRANCH  30  31
ENDBRANCH  29  30
ENDBRANCH  28  29
ENDBRANCH  27  28
ENDBRANCH  26  27
ENDBRANCH  25  26
ENDBRANCH  24  25
ENDBRANCH  23  24
ENDBRANCH  22  23
ENDBRANCH  21  22
ENDBRANCH  20  21
ENDBRANCH  19  20
ENDBRANCH  18  19
ENDBRANCH   1  18
TORSDOF 28
ENDMDL
MODEL 9
REMARK VINA RESULT:    -5.240      3.264      6.154
REMARK INTER + INTRA:         -16.533
REMARK INTER:                 -12.378
REMARK INTRA:                  -4.155
REMARK UNBOUND:                -2.714
REMARK SMILES CCCCCCCCCCCCCCCCCCCCCCCCCCCCCC(=O)[O-]
REMARK SMILES IDX 16 1 17 2 18 3 19 4 20 5 21 6 22 7 23 8 24 9 25 10 26 11
REMARK SMILES IDX 27 12 28 13 29 14 30 15 31 16 32 17 15 18 14 19 13 20 12 21
REMARK SMILES IDX 11 22 10 23 9 24 8 25 7 26 6 27 5 28 4 29 3 30 2 31 1 32
REMARK H PARENT
REMARK Flexibility Score: inf
ROOT
ATOM      1  C   UNL     1      -7.001  29.687 -17.479  1.00  0.00     0.000 C 
ENDROOT
BRANCH   1   2
ATOM      2  C   UNL     1      -6.646  29.025 -18.821  1.00  0.00     0.000 C 
BRANCH   2   3
ATOM      3  C   UNL     1      -6.468  27.502 -18.698  1.00  0.00     0.000 C 
BRANCH   3   4
ATOM      4  C   UNL     1      -5.979  26.859 -20.005  1.00  0.00     0.000 C 
BRANCH   4   5
ATOM      5  C   UNL     1      -4.845  25.847 -19.780  1.00  0.00     0.000 C 
BRANCH   5   6
ATOM      6  C   UNL     1      -3.477  26.484 -20.061  1.00  0.00     0.000 C 
BRANCH   6   7
ATOM      7  C   UNL     1      -3.122  27.600 -19.063  1.00  0.00     0.000 C 
BRANCH   7   8
ATOM      8  C   UNL     1      -2.603  28.902 -19.706  1.00  0.00     0.000 C 
BRANCH   8   9
ATOM      9  C   UNL     1      -3.718  29.912 -20.050  1.00  0.00     0.000 C 
BRANCH   9  10
ATOM     10  C   UNL     1      -3.807  30.189 -21.560  1.00  0.00     0.000 C 
BRANCH  10  11
ATOM     11  C   UNL     1      -4.666  29.155 -22.304  1.00  0.00     0.000 C 
BRANCH  11  12
ATOM     12  C   UNL     1      -6.173  29.434 -22.167  1.00  0.00     0.000 C 
BRANCH  12  13
ATOM     13  C   UNL     1      -7.027  28.556 -23.103  1.00  0.00     0.006 C 
BRANCH  13  14
ATOM     14  C   UNL     1      -6.514  28.519 -24.553  1.00  0.00     0.053 C 
BRANCH  14  15
ATOM     15  C   UNL     1      -7.469  27.838 -25.481  1.00  0.00     0.041 C 
ATOM     16  O   UNL     1      -7.069  27.398 -26.592  1.00  0.00    -0.550 OA
ATOM     17  O   UNL     1      -8.800  27.674 -25.115  1.00  0.00    -0.550 OA
ENDBRANCH  14  15
ENDBRANCH  13  14
ENDBRANCH  12  13
ENDBRANCH  11  12
ENDBRANCH  10  11
ENDBRANCH   9  10
ENDBRANCH   8   9
ENDBRANCH   7   8
ENDBRANCH   6   7
ENDBRANCH   5   6
ENDBRANCH   4   5
ENDBRANCH   3   4
ENDBRANCH   2   3
ENDBRANCH   1   2
BRANCH   1  18
ATOM     18  C   UNL     1      -7.019  31.221 -17.559  1.00  0.00     0.000 C 
BRANCH  18  19
ATOM     19  C   UNL     1      -6.859  31.695 -19.011  1.00  0.00     0.000 C 
BRANCH  19  20
ATOM     20  C   UNL     1      -6.071  33.011 -19.124  1.00  0.00     0.000 C 
BRANCH  20  21
ATOM     21  C   UNL     1      -5.414  33.260 -20.495  1.00  0.00     0.000 C 
BRANCH  21  22
ATOM     22  C   UNL     1      -4.623  34.582 -20.577  1.00  0.00     0.000 C 
BRANCH  22  23
ATOM     23  C   UNL     1      -3.597  34.726 -19.441  1.00  0.00     0.000 C 
BRANCH  23  24
ATOM     24  C   UNL     1      -2.261  35.262 -19.973  1.00  0.00    -0.000 C 
BRANCH  24  25
ATOM     25  C   UNL     1      -1.136  34.235 -19.776  1.00  0.00    -0.000 C 
BRANCH  25  26
ATOM     26  C   UNL     1      -1.643  32.784 -19.802  1.00  0.00    -0.000 C 
BRANCH  26  27
ATOM     27  C   UNL     1      -0.511  31.753 -19.642  1.00  0.00    -0.000 C 
BRANCH  27  28
ATOM     28  C   UNL     1       0.787  32.373 -19.103  1.00  0.00    -0.000 C 
BRANCH  28  29
ATOM     29  C   UNL     1       1.971  32.211 -20.071  1.00  0.00    -0.000 C 
BRANCH  29  30
ATOM     30  C   UNL     1       2.006  33.304 -21.155  1.00  0.00    -0.000 C 
BRANCH  30  31
ATOM     31  C   UNL     1       1.604  32.826 -22.562  1.00  0.00    -0.003 C 
ATOM     32  C   UNL     1       0.328  33.494 -23.079  1.00  0.00     0.004 C 
ENDBRANCH  30  31
ENDBRANCH  29  30
ENDBRANCH  28  29
ENDBRANCH  27  28
ENDBRANCH  26  27
ENDBRANCH  25  26
ENDBRANCH  24  25
ENDBRANCH  23  24
ENDBRANCH  22  23
ENDBRANCH  21  22
ENDBRANCH  20  21
ENDBRANCH  19  20
ENDBRANCH  18  19
ENDBRANCH   1  18
TORSDOF 28
ENDMDL
