MODEL 1
REMARK VINA RESULT:    -2.436      0.000      0.000
REMARK INTER + INTRA:          -2.924
REMARK INTER:                  -3.433
REMARK INTRA:                   0.508
REMARK UNBOUND:                 0.508
REMARK SMILES CC1=CCC(=C(C)C)C(=O)CC(C)=CCC1
REMARK SMILES IDX 12 1 14 2 13 3 15 4 16 5 2 6 1 7 3 8 11 10 9 11 10 12 5 13
REMARK SMILES IDX 6 14 7 15 8 16 4 17
REMARK H PARENT
REMARK Flexibility Score: 60.00
ROOT
ATOM      1  C   UNL     1     103.138  47.646  53.411  1.00  0.00    -0.070 C 
ATOM      2  C   UNL     1     102.195  47.017  54.152  1.00  0.00    -0.027 C 
ATOM      3  C   UNL     1     102.713  48.264  52.104  1.00  0.00     0.039 C 
ENDROOT
BRANCH   2   4
ATOM      4  C   UNL     1     102.399  46.398  55.515  1.00  0.00     0.032 C 
BRANCH   4   5
ATOM      5  C   UNL     1     101.714  47.190  56.642  1.00  0.00     0.034 C 
BRANCH   5   6
ATOM      6  C   UNL     1     102.690  48.032  57.442  1.00  0.00    -0.077 C 
ATOM      7  C   UNL     1     103.191  47.489  58.758  1.00  0.00     0.039 C 
ATOM      8  C   UNL     1     103.125  49.254  57.057  1.00  0.00    -0.023 CG0
ATOM      9  G   UNL     1     102.700  49.992  55.810  1.00  0.00     0.000 G0
ENDBRANCH   5   6
ENDBRANCH   4   5
ENDBRANCH   2   4
BRANCH   1  10
ATOM     10  C   UNL     1     104.590  47.780  53.831  1.00  0.00     0.111 C 
BRANCH  10  11
ATOM     11  C   UNL     1     104.824  48.978  54.718  1.00  0.00     0.163 C 
ATOM     12  O   UNL     1     105.910  49.044  55.355  1.00  0.00    -0.294 OA
BRANCH  11  13
ATOM     13  C   UNL     1     103.856  50.115  54.803  1.00  0.00    -0.002 C 
ATOM     14  C   UNL     1     104.078  51.266  54.104  1.00  0.00    -0.069 C 
ATOM     15  C   UNL     1     103.171  52.467  54.258  1.00  0.00     0.039 C 
ATOM     16  C   UNL     1     105.271  51.410  53.185  1.00  0.00     0.039 C 
BRANCH  13  17
ATOM     17  C   UNL     1     102.707  50.013  55.799  1.00  0.00     0.066 CG0
ATOM     18  G   UNL     1     103.112  49.262  57.046  1.00  0.00     0.000 G0
ENDBRANCH  13  17
ENDBRANCH  11  13
ENDBRANCH  10  11
ENDBRANCH   1  10
TORSDOF 0
ENDMDL
MODEL 2
REMARK VINA RESULT:    -1.943      1.356      3.705
REMARK INTER + INTRA:          -2.231
REMARK INTER:                  -3.999
REMARK INTRA:                   1.768
REMARK UNBOUND:                 0.508
REMARK SMILES CC1=CCC(=C(C)C)C(=O)CC(C)=CCC1
REMARK SMILES IDX 12 1 14 2 13 3 15 4 16 5 2 6 1 7 3 8 11 10 9 11 10 12 5 13
REMARK SMILES IDX 6 14 7 15 8 16 4 17
REMARK H PARENT
REMARK Flexibility Score: 60.00
ROOT
ATOM      1  C   UNL     1     101.908  46.180  54.379  1.00  0.00    -0.070 C 
ATOM      2  C   UNL     1     102.450  46.747  53.276  1.00  0.00    -0.027 C 
ATOM      3  C   UNL     1     101.608  44.703  54.339  1.00  0.00     0.039 C 
ENDROOT
BRANCH   2   4
ATOM      4  C   UNL     1     102.887  48.187  53.137  1.00  0.00     0.032 C 
BRANCH   4   5
ATOM      5  C   UNL     1     104.373  48.398  53.473  1.00  0.00     0.034 C 
BRANCH   5   6
ATOM      6  C   UNL     1     104.678  49.818  53.912  1.00  0.00    -0.077 C 
ATOM      7  C   UNL     1     105.981  50.438  53.472  1.00  0.00     0.039 C 
ATOM      8  C   UNL     1     103.859  50.559  54.694  1.00  0.00    -0.023 CG0
ATOM      9  G   UNL     1     102.545  50.102  55.283  1.00  0.00     0.000 G0
ENDBRANCH   5   6
ENDBRANCH   4   5
ENDBRANCH   2   4
BRANCH   1  10
ATOM     10  C   UNL     1     101.604  46.940  55.656  1.00  0.00     0.111 C 
BRANCH  10  11
ATOM     11  C   UNL     1     102.807  47.686  56.182  1.00  0.00     0.163 C 
ATOM     12  O   UNL     1     103.886  47.050  56.322  1.00  0.00    -0.294 OA
BRANCH  11  13
ATOM     13  C   UNL     1     102.780  49.154  56.463  1.00  0.00    -0.002 C 
ATOM     14  C   UNL     1     102.818  49.613  57.748  1.00  0.00    -0.069 C 
ATOM     15  C   UNL     1     102.684  51.087  58.060  1.00  0.00     0.039 C 
ATOM     16  C   UNL     1     102.944  48.664  58.919  1.00  0.00     0.039 C 
BRANCH  13  17
ATOM     17  C   UNL     1     102.557  50.109  55.296  1.00  0.00     0.066 CG0
ATOM     18  G   UNL     1     103.862  50.564  54.688  1.00  0.00     0.000 G0
ENDBRANCH  13  17
ENDBRANCH  11  13
ENDBRANCH  10  11
ENDBRANCH   1  10
TORSDOF 0
ENDMDL
MODEL 3
REMARK VINA RESULT:    -1.198      1.506      4.494
REMARK INTER + INTRA:          -1.181
REMARK INTER:                  -2.774
REMARK INTRA:                   1.593
REMARK UNBOUND:                 0.508
REMARK SMILES CC1=CCC(=C(C)C)C(=O)CC(C)=CCC1
REMARK SMILES IDX 12 1 14 2 13 3 15 4 16 5 2 6 1 7 3 8 11 10 9 11 10 12 5 13
REMARK SMILES IDX 6 14 7 15 8 16 4 17
REMARK H PARENT
REMARK Flexibility Score: 60.00
ROOT
ATOM      1  C   UNL     1     103.105  48.588  58.016  1.00  0.00    -0.070 C 
ATOM      2  C   UNL     1     102.810  49.880  57.739  1.00  0.00    -0.027 C 
ATOM      3  C   UNL     1     103.349  48.212  59.455  1.00  0.00     0.039 C 
ENDROOT
BRANCH   2   4
ATOM      4  C   UNL     1     102.465  50.446  56.380  1.00  0.00     0.032 C 
BRANCH   4   5
ATOM      5  C   UNL     1     103.666  51.108  55.684  1.00  0.00     0.034 C 
BRANCH   5   6
ATOM      6  C   UNL     1     103.478  51.230  54.183  1.00  0.00    -0.077 C 
ATOM      7  C   UNL     1     102.734  52.429  53.651  1.00  0.00     0.039 C 
ATOM      8  C   UNL     1     103.920  50.315  53.290  1.00  0.00    -0.023 CG0
ATOM      9  G   UNL     1     104.631  49.024  53.624  1.00  0.00     0.000 G0
ENDBRANCH   5   6
ENDBRANCH   4   5
ENDBRANCH   2   4
BRANCH   1  10
ATOM     10  C   UNL     1     103.186  47.498  56.964  1.00  0.00     0.111 C 
BRANCH  10  11
ATOM     11  C   UNL     1     104.188  47.816  55.880  1.00  0.00     0.163 C 
ATOM     12  O   UNL     1     105.412  47.796  56.178  1.00  0.00    -0.294 OA
BRANCH  11  13
ATOM     13  C   UNL     1     103.783  48.073  54.464  1.00  0.00    -0.002 C 
ATOM     14  C   UNL     1     102.750  47.378  53.903  1.00  0.00    -0.069 C 
ATOM     15  C   UNL     1     102.393  47.543  52.443  1.00  0.00     0.039 C 
ATOM     16  C   UNL     1     101.951  46.374  54.705  1.00  0.00     0.039 C 
BRANCH  13  17
ATOM     17  C   UNL     1     104.643  49.010  53.625  1.00  0.00     0.066 CG0
ATOM     18  G   UNL     1     103.913  50.291  53.291  1.00  0.00     0.000 G0
ENDBRANCH  13  17
ENDBRANCH  11  13
ENDBRANCH  10  11
ENDBRANCH   1  10
TORSDOF 0
ENDMDL
MODEL 4
REMARK VINA RESULT:    -0.956      1.402      3.141
REMARK INTER + INTRA:          -0.839
REMARK INTER:                  -2.302
REMARK INTRA:                   1.463
REMARK UNBOUND:                 0.508
REMARK SMILES CC1=CCC(=C(C)C)C(=O)CC(C)=CCC1
REMARK SMILES IDX 12 1 14 2 13 3 15 4 16 5 2 6 1 7 3 8 11 10 9 11 10 12 5 13
REMARK SMILES IDX 6 14 7 15 8 16 4 17
REMARK H PARENT
REMARK Flexibility Score: 60.00
ROOT
ATOM      1  C   UNL     1     103.381  50.640  54.827  1.00  0.00    -0.070 C 
ATOM      2  C   UNL     1     102.718  50.897  55.979  1.00  0.00    -0.027 C 
ATOM      3  C   UNL     1     102.805  51.183  53.544  1.00  0.00     0.039 C 
ENDROOT
BRANCH   2   4
ATOM      4  C   UNL     1     103.162  50.506  57.370  1.00  0.00     0.032 C 
BRANCH   4   5
ATOM      5  C   UNL     1     102.297  49.393  57.985  1.00  0.00     0.034 C 
BRANCH   5   6
ATOM      6  C   UNL     1     103.051  48.086  58.144  1.00  0.00    -0.077 C 
ATOM      7  C   UNL     1     103.870  47.880  59.394  1.00  0.00     0.039 C 
ATOM      8  C   UNL     1     103.052  47.098  57.220  1.00  0.00    -0.023 CG0
ATOM      9  G   UNL     1     102.348  47.135  55.884  1.00  0.00     0.000 G0
ENDBRANCH   5   6
ENDBRANCH   4   5
ENDBRANCH   2   4
BRANCH   1  10
ATOM     10  C   UNL     1     104.678  49.855  54.757  1.00  0.00     0.111 C 
BRANCH  10  11
ATOM     11  C   UNL     1     104.499  48.412  55.162  1.00  0.00     0.163 C 
ATOM     12  O   UNL     1     105.374  47.890  55.904  1.00  0.00    -0.294 OA
BRANCH  11  13
ATOM     13  C   UNL     1     103.292  47.616  54.781  1.00  0.00    -0.002 C 
ATOM     14  C   UNL     1     102.969  47.435  53.468  1.00  0.00    -0.069 C 
ATOM     15  C   UNL     1     101.697  46.726  53.061  1.00  0.00     0.039 C 
ATOM     16  C   UNL     1     103.845  47.979  52.360  1.00  0.00     0.039 C 
BRANCH  13  17
ATOM     17  C   UNL     1     102.356  47.148  55.889  1.00  0.00     0.066 CG0
ATOM     18  G   UNL     1     103.058  47.087  57.226  1.00  0.00     0.000 G0
ENDBRANCH  13  17
ENDBRANCH  11  13
ENDBRANCH  10  11
ENDBRANCH   1  10
TORSDOF 0
ENDMDL
MODEL 5
REMARK VINA RESULT:    -0.910      7.933     10.550
REMARK INTER + INTRA:          -0.775
REMARK INTER:                  -4.138
REMARK INTRA:                   3.363
REMARK UNBOUND:                 0.508
REMARK SMILES CC1=CCC(=C(C)C)C(=O)CC(C)=CCC1
REMARK SMILES IDX 12 1 14 2 13 3 15 4 16 5 2 6 1 7 3 8 11 10 9 11 10 12 5 13
REMARK SMILES IDX 6 14 7 15 8 16 4 17
REMARK H PARENT
REMARK Flexibility Score: 60.00
ROOT
ATOM      1  C   UNL     1     108.009  47.460  65.587  1.00  0.00    -0.070 C 
ATOM      2  C   UNL     1     108.807  46.630  64.875  1.00  0.00    -0.027 C 
ATOM      3  C   UNL     1     108.483  47.898  66.949  1.00  0.00     0.039 C 
ENDROOT
BRANCH   2   4
ATOM      4  C   UNL     1     108.550  46.134  63.470  1.00  0.00     0.032 C 
BRANCH   4   5
ATOM      5  C   UNL     1     107.626  47.063  62.665  1.00  0.00     0.034 C 
BRANCH   5   6
ATOM      6  C   UNL     1     108.393  48.013  61.763  1.00  0.00    -0.077 C 
ATOM      7  C   UNL     1     108.360  47.768  60.275  1.00  0.00     0.039 C 
ATOM      8  C   UNL     1     109.125  49.057  62.215  1.00  0.00    -0.023 CG0
ATOM      9  G   UNL     1     109.331  49.433  63.663  1.00  0.00     0.000 G0
ENDBRANCH   5   6
ENDBRANCH   4   5
ENDBRANCH   2   4
BRANCH   1  10
ATOM     10  C   UNL     1     106.677  47.986  65.086  1.00  0.00     0.111 C 
BRANCH  10  11
ATOM     11  C   UNL     1     106.822  49.273  64.311  1.00  0.00     0.163 C 
ATOM     12  O   UNL     1     105.809  49.723  63.710  1.00  0.00    -0.294 OA
BRANCH  11  13
ATOM     13  C   UNL     1     108.091  50.064  64.301  1.00  0.00    -0.002 C 
ATOM     14  C   UNL     1     108.099  51.363  64.719  1.00  0.00    -0.069 C 
ATOM     15  C   UNL     1     109.345  52.214  64.616  1.00  0.00     0.039 C 
ATOM     16  C   UNL     1     106.849  52.025  65.256  1.00  0.00     0.039 C 
BRANCH  13  17
ATOM     17  C   UNL     1     109.329  49.436  63.672  1.00  0.00     0.066 CG0
ATOM     18  G   UNL     1     109.103  49.086  62.220  1.00  0.00     0.000 G0
ENDBRANCH  13  17
ENDBRANCH  11  13
ENDBRANCH  10  11
ENDBRANCH   1  10
TORSDOF 0
ENDMDL
MODEL 6
REMARK VINA RESULT:    -0.787      7.700     10.310
REMARK INTER + INTRA:          -0.601
REMARK INTER:                  -1.596
REMARK INTRA:                   0.995
REMARK UNBOUND:                 0.508
REMARK SMILES CC1=CCC(=C(C)C)C(=O)CC(C)=CCC1
REMARK SMILES IDX 12 1 14 2 13 3 15 4 16 5 2 6 1 7 3 8 11 10 9 11 10 12 5 13
REMARK SMILES IDX 6 14 7 15 8 16 4 17
REMARK H PARENT
REMARK Flexibility Score: 60.00
ROOT
ATOM      1  C   UNL     1     108.701  46.509  64.321  1.00  0.00    -0.070 C 
ATOM      2  C   UNL     1     109.101  46.834  63.069  1.00  0.00    -0.027 C 
ATOM      3  C   UNL     1     108.253  45.092  64.574  1.00  0.00     0.039 C 
ENDROOT
BRANCH   2   4
ATOM      4  C   UNL     1     109.649  48.172  62.627  1.00  0.00     0.032 C 
BRANCH   4   5
ATOM      5  C   UNL     1     108.554  49.143  62.158  1.00  0.00     0.034 C 
BRANCH   5   6
ATOM      6  C   UNL     1     107.217  48.458  61.940  1.00  0.00    -0.077 C 
ATOM      7  C   UNL     1     107.085  47.500  60.782  1.00  0.00     0.039 C 
ATOM      8  C   UNL     1     106.126  48.670  62.711  1.00  0.00    -0.023 CG0
ATOM      9  G   UNL     1     106.037  49.628  63.875  1.00  0.00     0.000 G0
ENDBRANCH   5   6
ENDBRANCH   4   5
ENDBRANCH   2   4
BRANCH   1  10
ATOM     10  C   UNL     1     108.697  47.482  65.485  1.00  0.00     0.111 C 
BRANCH  10  11
ATOM     11  C   UNL     1     107.413  48.272  65.569  1.00  0.00     0.163 C 
ATOM     12  O   UNL     1     106.515  47.865  66.353  1.00  0.00    -0.294 OA
BRANCH  11  13
ATOM     13  C   UNL     1     107.209  49.551  64.822  1.00  0.00    -0.002 C 
ATOM     14  C   UNL     1     107.989  50.639  65.087  1.00  0.00    -0.069 C 
ATOM     15  C   UNL     1     107.731  51.973  64.422  1.00  0.00     0.039 C 
ATOM     16  C   UNL     1     109.114  50.573  66.096  1.00  0.00     0.039 C 
BRANCH  13  17
ATOM     17  C   UNL     1     106.018  49.653  63.876  1.00  0.00     0.066 CG0
ATOM     18  G   UNL     1     106.127  48.673  62.732  1.00  0.00     0.000 G0
ENDBRANCH  13  17
ENDBRANCH  11  13
ENDBRANCH  10  11
ENDBRANCH   1  10
TORSDOF 0
ENDMDL
MODEL 7
REMARK VINA RESULT:    -0.722      1.590      3.863
REMARK INTER + INTRA:          -0.509
REMARK INTER:                  -1.426
REMARK INTRA:                   0.917
REMARK UNBOUND:                 0.508
REMARK SMILES CC1=CCC(=C(C)C)C(=O)CC(C)=CCC1
REMARK SMILES IDX 12 1 14 2 13 3 15 4 16 5 2 6 1 7 3 8 11 10 9 11 10 12 5 13
REMARK SMILES IDX 6 14 7 15 8 16 4 17
REMARK H PARENT
REMARK Flexibility Score: 60.00
ROOT
ATOM      1  C   UNL     1     105.004  49.436  53.930  1.00  0.00    -0.070 C 
ATOM      2  C   UNL     1     104.460  48.799  52.867  1.00  0.00    -0.027 C 
ATOM      3  C   UNL     1     105.721  50.739  53.682  1.00  0.00     0.039 C 
ENDROOT
BRANCH   2   4
ATOM      4  C   UNL     1     103.645  47.526  52.911  1.00  0.00     0.032 C 
BRANCH   4   5
ATOM      5  C   UNL     1     102.307  47.696  53.649  1.00  0.00     0.034 C 
BRANCH   5   6
ATOM      6  C   UNL     1     101.991  46.528  54.564  1.00  0.00    -0.077 C 
ATOM      7  C   UNL     1     101.996  45.138  53.978  1.00  0.00     0.039 C 
ATOM      8  C   UNL     1     101.683  46.658  55.875  1.00  0.00    -0.023 CG0
ATOM      9  G   UNL     1     101.568  47.960  56.632  1.00  0.00     0.000 G0
ENDBRANCH   5   6
ENDBRANCH   4   5
ENDBRANCH   2   4
BRANCH   1  10
ATOM     10  C   UNL     1     104.919  48.923  55.356  1.00  0.00     0.111 C 
BRANCH  10  11
ATOM     11  C   UNL     1     103.658  49.371  56.054  1.00  0.00     0.163 C 
ATOM     12  O   UNL     1     103.172  50.491  55.742  1.00  0.00    -0.294 OA
BRANCH  11  13
ATOM     13  C   UNL     1     102.932  48.505  57.033  1.00  0.00    -0.002 C 
ATOM     14  C   UNL     1     103.540  48.108  58.188  1.00  0.00    -0.069 C 
ATOM     15  C   UNL     1     102.867  47.145  59.141  1.00  0.00     0.039 C 
ATOM     16  C   UNL     1     104.936  48.572  58.543  1.00  0.00     0.039 C 
BRANCH  13  17
ATOM     17  C   UNL     1     101.566  47.956  56.638  1.00  0.00     0.066 CG0
ATOM     18  G   UNL     1     101.683  46.653  55.883  1.00  0.00     0.000 G0
ENDBRANCH  13  17
ENDBRANCH  11  13
ENDBRANCH  10  11
ENDBRANCH   1  10
TORSDOF 0
ENDMDL
MODEL 8
REMARK VINA RESULT:    -0.332      7.488     10.230
REMARK INTER + INTRA:           0.040
REMARK INTER:                  -0.645
REMARK INTRA:                   0.685
REMARK UNBOUND:                 0.508
REMARK SMILES CC1=CCC(=C(C)C)C(=O)CC(C)=CCC1
REMARK SMILES IDX 12 1 14 2 13 3 15 4 16 5 2 6 1 7 3 8 11 10 9 11 10 12 5 13
REMARK SMILES IDX 6 14 7 15 8 16 4 17
REMARK H PARENT
REMARK Flexibility Score: 60.00
ROOT
ATOM      1  C   UNL     1     106.731  49.840  64.986  1.00  0.00    -0.070 C 
ATOM      2  C   UNL     1     106.883  49.008  66.043  1.00  0.00    -0.027 C 
ATOM      3  C   UNL     1     106.721  51.324  65.251  1.00  0.00     0.039 C 
ENDROOT
BRANCH   2   4
ATOM      4  C   UNL     1     106.989  47.501  65.983  1.00  0.00     0.032 C 
BRANCH   4   5
ATOM      5  C   UNL     1     108.421  47.011  65.711  1.00  0.00     0.034 C 
BRANCH   5   6
ATOM      6  C   UNL     1     108.465  45.839  64.748  1.00  0.00    -0.077 C 
ATOM      7  C   UNL     1     108.000  44.491  65.240  1.00  0.00     0.039 C 
ATOM      8  C   UNL     1     108.919  45.924  63.476  1.00  0.00    -0.023 CG0
ATOM      9  G   UNL     1     109.479  47.163  62.817  1.00  0.00     0.000 G0
ENDBRANCH   5   6
ENDBRANCH   4   5
ENDBRANCH   2   4
BRANCH   1  10
ATOM     10  C   UNL     1     106.588  49.366  63.552  1.00  0.00     0.111 C 
BRANCH  10  11
ATOM     11  C   UNL     1     107.921  49.237  62.854  1.00  0.00     0.163 C 
ATOM     12  O   UNL     1     108.721  50.209  62.915  1.00  0.00    -0.294 OA
BRANCH  11  13
ATOM     13  C   UNL     1     108.349  47.978  62.168  1.00  0.00    -0.002 C 
ATOM     14  C   UNL     1     107.668  47.519  61.079  1.00  0.00    -0.069 C 
ATOM     15  C   UNL     1     108.015  46.195  60.435  1.00  0.00     0.039 C 
ATOM     16  C   UNL     1     106.502  48.288  60.497  1.00  0.00     0.039 C 
BRANCH  13  17
ATOM     17  C   UNL     1     109.459  47.150  62.805  1.00  0.00     0.066 CG0
ATOM     18  G   UNL     1     108.915  45.918  63.489  1.00  0.00     0.000 G0
ENDBRANCH  13  17
ENDBRANCH  11  13
ENDBRANCH  10  11
ENDBRANCH   1  10
TORSDOF 0
ENDMDL
MODEL 9
REMARK VINA RESULT:    -0.318      8.370     10.756
REMARK INTER + INTRA:           0.060
REMARK INTER:                  -2.041
REMARK INTRA:                   2.102
REMARK UNBOUND:                 0.508
REMARK SMILES CC1=CCC(=C(C)C)C(=O)CC(C)=CCC1
REMARK SMILES IDX 12 1 14 2 13 3 15 4 16 5 2 6 1 7 3 8 11 10 9 11 10 12 5 13
REMARK SMILES IDX 6 14 7 15 8 16 4 17
REMARK H PARENT
REMARK Flexibility Score: 60.00
ROOT
ATOM      1  C   UNL     1     108.860  51.497  64.565  1.00  0.00    -0.070 C 
ATOM      2  C   UNL     1     109.342  51.139  63.352  1.00  0.00    -0.027 C 
ATOM      3  C   UNL     1     108.687  52.966  64.852  1.00  0.00     0.039 C 
ENDROOT
BRANCH   2   4
ATOM      4  C   UNL     1     109.522  49.727  62.844  1.00  0.00     0.032 C 
BRANCH   4   5
ATOM      5  C   UNL     1     108.686  49.430  61.588  1.00  0.00     0.034 C 
BRANCH   5   6
ATOM      6  C   UNL     1     108.203  47.992  61.533  1.00  0.00    -0.077 C 
ATOM      7  C   UNL     1     108.831  47.064  60.524  1.00  0.00     0.039 C 
ATOM      8  C   UNL     1     107.223  47.495  62.323  1.00  0.00    -0.023 CG0
ATOM      9  G   UNL     1     106.434  48.273  63.350  1.00  0.00     0.000 G0
ENDBRANCH   5   6
ENDBRANCH   4   5
ENDBRANCH   2   4
BRANCH   1  10
ATOM     10  C   UNL     1     108.469  50.503  65.644  1.00  0.00     0.111 C 
BRANCH  10  11
ATOM     11  C   UNL     1     107.188  49.774  65.317  1.00  0.00     0.163 C 
ATOM     12  O   UNL     1     106.095  50.358  65.550  1.00  0.00    -0.294 OA
BRANCH  11  13
ATOM     13  C   UNL     1     107.175  48.432  64.658  1.00  0.00    -0.002 C 
ATOM     14  C   UNL     1     107.936  47.412  65.152  1.00  0.00    -0.069 C 
ATOM     15  C   UNL     1     108.022  46.080  64.441  1.00  0.00     0.039 C 
ATOM     16  C   UNL     1     108.766  47.586  66.404  1.00  0.00     0.039 C 
BRANCH  13  17
ATOM     17  C   UNL     1     106.417  48.279  63.344  1.00  0.00     0.066 CG0
ATOM     18  G   UNL     1     107.215  47.497  62.326  1.00  0.00     0.000 G0
ENDBRANCH  13  17
ENDBRANCH  11  13
ENDBRANCH  10  11
ENDBRANCH   1  10
TORSDOF 0
ENDMDL
