MODEL 1
REMARK VINA RESULT:    -5.255      0.000      0.000
REMARK INTER + INTRA:          -6.997
REMARK INTER:                  -6.791
REMARK INTRA:                  -0.206
REMARK UNBOUND:                -0.206
REMARK SMILES CCO[C@@H]1O[C@@H](CO)[C@H](O)[C@@H](O)[C@@H]1O
REMARK SMILES IDX 4 1 13 2 11 3 9 4 6 5 5 6 3 7 2 8 1 9 14 10 12 12 7 14 8 15
REMARK SMILES IDX 10 17
REMARK H PARENT 14 11 12 13 8 16 10 18
REMARK Flexibility Score: inf
ROOT
ATOM      1  C   UNL     1       5.581   8.008  11.943  1.00  0.00     0.281 C 
ATOM      2  C   UNL     1       6.640   8.736  11.074  1.00  0.00     0.202 C 
ATOM      3  C   UNL     1       6.204   8.799   9.585  1.00  0.00     0.179 C 
ATOM      4  C   UNL     1       4.679   8.625   9.445  1.00  0.00     0.177 C 
ATOM      5  C   UNL     1       4.236   7.302  10.136  1.00  0.00     0.178 C 
ATOM      6  O   UNL     1       5.070   6.899  11.223  1.00  0.00    -0.341 OA
ENDROOT
BRANCH   1   7
ATOM      7  O   UNL     1       6.191   7.558  13.139  1.00  0.00    -0.350 OA
BRANCH   7   8
ATOM      8  C   UNL     1       5.571   6.385  13.620  1.00  0.00     0.160 C 
ATOM      9  C   UNL     1       6.522   5.626  14.537  1.00  0.00     0.035 C 
ENDBRANCH   7   8
ENDBRANCH   1   7
BRANCH   2  10
ATOM     10  O   UNL     1       7.905   8.126  11.187  1.00  0.00    -0.385 OA
ATOM     11  H   UNL     1       8.546   8.650  10.639  1.00  0.00     0.211 HD
ENDBRANCH   2  10
BRANCH   3  12
ATOM     12  O   UNL     1       6.639   9.997   8.993  1.00  0.00    -0.387 OA
ATOM     13  H   UNL     1       6.678  10.688   9.706  1.00  0.00     0.211 HD
ENDBRANCH   3  12
BRANCH   5  14
ATOM     14  C   UNL     1       2.769   7.363  10.580  1.00  0.00     0.191 C 
BRANCH  14  15
ATOM     15  O   UNL     1       2.135   6.135  10.345  1.00  0.00    -0.394 OA
ATOM     16  H   UNL     1       1.656   6.220   9.481  1.00  0.00     0.210 HD
ENDBRANCH  14  15
ENDBRANCH   5  14
BRANCH   4  17
ATOM     17  O   UNL     1       4.324   8.586   8.088  1.00  0.00    -0.387 OA
ATOM     18  H   UNL     1       4.729   7.764   7.711  1.00  0.00     0.211 HD
ENDBRANCH   4  17
TORSDOF 7
ENDMDL
MODEL 2
REMARK VINA RESULT:    -4.796      1.237      1.266
REMARK INTER + INTRA:          -6.404
REMARK INTER:                  -6.200
REMARK INTRA:                  -0.204
REMARK UNBOUND:                -0.206
REMARK SMILES CCO[C@@H]1O[C@@H](CO)[C@H](O)[C@@H](O)[C@@H]1O
REMARK SMILES IDX 4 1 13 2 11 3 9 4 6 5 5 6 3 7 2 8 1 9 14 10 12 12 7 14 8 15
REMARK SMILES IDX 10 17
REMARK H PARENT 14 11 12 13 8 16 10 18
REMARK Flexibility Score: inf
ROOT
ATOM      1  C   UNL     1       5.378   7.707  12.829  1.00  0.00     0.281 C 
ATOM      2  C   UNL     1       6.644   8.159  12.055  1.00  0.00     0.202 C 
ATOM      3  C   UNL     1       6.467   7.975  10.524  1.00  0.00     0.179 C 
ATOM      4  C   UNL     1       4.976   7.915  10.140  1.00  0.00     0.177 C 
ATOM      5  C   UNL     1       4.270   6.792  10.956  1.00  0.00     0.178 C 
ATOM      6  O   UNL     1       4.861   6.531  12.230  1.00  0.00    -0.341 OA
ENDROOT
BRANCH   1   7
ATOM      7  O   UNL     1       5.726   7.440  14.176  1.00  0.00    -0.350 OA
BRANCH   7   8
ATOM      8  C   UNL     1       4.589   7.109  14.943  1.00  0.00     0.160 C 
ATOM      9  C   UNL     1       4.944   6.051  15.980  1.00  0.00     0.035 C 
ENDBRANCH   7   8
ENDBRANCH   1   7
BRANCH   2  10
ATOM     10  O   UNL     1       7.791   7.471  12.500  1.00  0.00    -0.385 OA
ATOM     11  H   UNL     1       8.268   7.124  11.701  1.00  0.00     0.211 HD
ENDBRANCH   2  10
BRANCH   3  12
ATOM     12  O   UNL     1       7.135   8.995   9.824  1.00  0.00    -0.387 OA
ATOM     13  H   UNL     1       6.459   9.677   9.568  1.00  0.00     0.211 HD
ENDBRANCH   3  12
BRANCH   5  14
ATOM     14  C   UNL     1       2.768   7.067  11.108  1.00  0.00     0.191 C 
BRANCH  14  15
ATOM     15  O   UNL     1       2.024   6.142  10.362  1.00  0.00    -0.394 OA
ATOM     16  H   UNL     1       2.017   6.468   9.426  1.00  0.00     0.210 HD
ENDBRANCH  14  15
ENDBRANCH   5  14
BRANCH   4  17
ATOM     17  O   UNL     1       4.845   7.649   8.769  1.00  0.00    -0.387 OA
ATOM     18  H   UNL     1       5.728   7.332   8.453  1.00  0.00     0.211 HD
ENDBRANCH   4  17
TORSDOF 7
ENDMDL
MODEL 3
REMARK VINA RESULT:    -4.770      1.557      3.294
REMARK INTER + INTRA:          -6.371
REMARK INTER:                  -5.931
REMARK INTRA:                  -0.440
REMARK UNBOUND:                -0.206
REMARK SMILES CCO[C@@H]1O[C@@H](CO)[C@H](O)[C@@H](O)[C@@H]1O
REMARK SMILES IDX 4 1 13 2 11 3 9 4 6 5 5 6 3 7 2 8 1 9 14 10 12 12 7 14 8 15
REMARK SMILES IDX 10 17
REMARK H PARENT 14 11 12 13 8 16 10 18
REMARK Flexibility Score: inf
ROOT
ATOM      1  C   UNL     1       5.617   7.267  12.934  1.00  0.00     0.281 C 
ATOM      2  C   UNL     1       4.136   7.152  12.485  1.00  0.00     0.202 C 
ATOM      3  C   UNL     1       3.987   7.392  10.959  1.00  0.00     0.179 C 
ATOM      4  C   UNL     1       5.321   7.152  10.225  1.00  0.00     0.177 C 
ATOM      5  C   UNL     1       6.434   8.039  10.858  1.00  0.00     0.178 C 
ATOM      6  O   UNL     1       6.232   8.338  12.240  1.00  0.00    -0.341 OA
ENDROOT
BRANCH   1   7
ATOM      7  O   UNL     1       5.663   7.514  14.327  1.00  0.00    -0.350 OA
BRANCH   7   8
ATOM      8  C   UNL     1       6.190   6.407  15.027  1.00  0.00     0.160 C 
ATOM      9  C   UNL     1       7.570   6.053  14.488  1.00  0.00     0.035 C 
ENDBRANCH   7   8
ENDBRANCH   1   7
BRANCH   2  10
ATOM     10  O   UNL     1       3.312   8.042  13.203  1.00  0.00    -0.385 OA
ATOM     11  H   UNL     1       2.371   7.747  13.086  1.00  0.00     0.211 HD
ENDBRANCH   2  10
BRANCH   3  12
ATOM     12  O   UNL     1       2.961   6.590  10.431  1.00  0.00    -0.387 OA
ATOM     13  H   UNL     1       2.351   6.350  11.178  1.00  0.00     0.211 HD
ENDBRANCH   3  12
BRANCH   5  14
ATOM     14  C   UNL     1       7.827   7.434  10.638  1.00  0.00     0.191 C 
BRANCH  14  15
ATOM     15  O   UNL     1       7.725   6.199   9.984  1.00  0.00    -0.394 OA
ATOM     16  H   UNL     1       6.826   6.167   9.567  1.00  0.00     0.210 HD
ENDBRANCH  14  15
ENDBRANCH   5  14
BRANCH   4  17
ATOM     17  O   UNL     1       5.185   7.471   8.866  1.00  0.00    -0.387 OA
ATOM     18  H   UNL     1       6.020   7.930   8.596  1.00  0.00     0.211 HD
ENDBRANCH   4  17
TORSDOF 7
ENDMDL
MODEL 4
REMARK VINA RESULT:    -4.707      2.130      3.932
REMARK INTER + INTRA:          -6.289
REMARK INTER:                  -5.821
REMARK INTRA:                  -0.468
REMARK UNBOUND:                -0.206
REMARK SMILES CCO[C@@H]1O[C@@H](CO)[C@H](O)[C@@H](O)[C@@H]1O
REMARK SMILES IDX 4 1 13 2 11 3 9 4 6 5 5 6 3 7 2 8 1 9 14 10 12 12 7 14 8 15
REMARK SMILES IDX 10 17
REMARK H PARENT 14 11 12 13 8 16 10 18
REMARK Flexibility Score: inf
ROOT
ATOM      1  C   UNL     1       7.376   7.801  11.811  1.00  0.00     0.281 C 
ATOM      2  C   UNL     1       6.317   8.550  10.959  1.00  0.00     0.202 C 
ATOM      3  C   UNL     1       4.892   8.381  11.550  1.00  0.00     0.179 C 
ATOM      4  C   UNL     1       4.950   8.001  13.042  1.00  0.00     0.177 C 
ATOM      5  C   UNL     1       5.821   6.723  13.224  1.00  0.00     0.178 C 
ATOM      6  O   UNL     1       6.839   6.560  12.235  1.00  0.00    -0.341 OA
ENDROOT
BRANCH   1   7
ATOM      7  O   UNL     1       8.532   7.576  11.025  1.00  0.00    -0.350 OA
BRANCH   7   8
ATOM      8  C   UNL     1       9.009   6.257  11.184  1.00  0.00     0.160 C 
ATOM      9  C   UNL     1       9.377   5.665   9.829  1.00  0.00     0.035 C 
ENDBRANCH   7   8
ENDBRANCH   1   7
BRANCH   2  10
ATOM     10  O   UNL     1       6.344   8.121   9.616  1.00  0.00    -0.385 OA
ATOM     11  H   UNL     1       5.823   8.773   9.078  1.00  0.00     0.211 HD
ENDBRANCH   2  10
BRANCH   3  12
ATOM     12  O   UNL     1       4.133   9.546  11.347  1.00  0.00    -0.387 OA
ATOM     13  H   UNL     1       4.105   9.722  10.369  1.00  0.00     0.211 HD
ENDBRANCH   3  12
BRANCH   5  14
ATOM     14  C   UNL     1       6.426   6.652  14.632  1.00  0.00     0.191 C 
BRANCH  14  15
ATOM     15  O   UNL     1       5.704   7.466  15.516  1.00  0.00    -0.394 OA
ATOM     16  H   UNL     1       6.254   7.558  16.337  1.00  0.00     0.210 HD
ENDBRANCH  14  15
ENDBRANCH   5  14
BRANCH   4  17
ATOM     17  O   UNL     1       3.656   7.758  13.525  1.00  0.00    -0.387 OA
ATOM     18  H   UNL     1       3.097   8.526  13.245  1.00  0.00     0.211 HD
ENDBRANCH   4  17
TORSDOF 7
ENDMDL
MODEL 5
REMARK VINA RESULT:    -4.674      1.820      2.209
REMARK INTER + INTRA:          -6.246
REMARK INTER:                  -5.796
REMARK INTRA:                  -0.450
REMARK UNBOUND:                -0.206
REMARK SMILES CCO[C@@H]1O[C@@H](CO)[C@H](O)[C@@H](O)[C@@H]1O
REMARK SMILES IDX 4 1 13 2 11 3 9 4 6 5 5 6 3 7 2 8 1 9 14 10 12 12 7 14 8 15
REMARK SMILES IDX 10 17
REMARK H PARENT 14 11 12 13 8 16 10 18
REMARK Flexibility Score: inf
ROOT
ATOM      1  C   UNL     1       5.993   7.826  11.919  1.00  0.00     0.281 C 
ATOM      2  C   UNL     1       6.058   7.689  10.375  1.00  0.00     0.202 C 
ATOM      3  C   UNL     1       4.637   7.605   9.754  1.00  0.00     0.179 C 
ATOM      4  C   UNL     1       3.579   8.195  10.706  1.00  0.00     0.177 C 
ATOM      5  C   UNL     1       3.663   7.484  12.089  1.00  0.00     0.178 C 
ATOM      6  O   UNL     1       4.963   6.990  12.417  1.00  0.00    -0.341 OA
ENDROOT
BRANCH   1   7
ATOM      7  O   UNL     1       7.235   7.430  12.473  1.00  0.00    -0.350 OA
BRANCH   7   8
ATOM      8  C   UNL     1       7.100   7.081  13.834  1.00  0.00     0.160 C 
ATOM      9  C   UNL     1       7.864   5.795  14.125  1.00  0.00     0.035 C 
ENDBRANCH   7   8
ENDBRANCH   1   7
BRANCH   2  10
ATOM     10  O   UNL     1       6.826   6.573   9.990  1.00  0.00    -0.385 OA
ATOM     11  H   UNL     1       7.743   6.891   9.780  1.00  0.00     0.211 HD
ENDBRANCH   2  10
BRANCH   3  12
ATOM     12  O   UNL     1       4.609   8.239   8.500  1.00  0.00    -0.387 OA
ATOM     13  H   UNL     1       3.677   8.187   8.157  1.00  0.00     0.211 HD
ENDBRANCH   3  12
BRANCH   5  14
ATOM     14  C   UNL     1       3.131   8.381  13.215  1.00  0.00     0.191 C 
BRANCH  14  15
ATOM     15  O   UNL     1       2.696   9.609  12.697  1.00  0.00    -0.394 OA
ATOM     16  H   UNL     1       3.136  10.319  13.232  1.00  0.00     0.210 HD
ENDBRANCH  14  15
ENDBRANCH   5  14
BRANCH   4  17
ATOM     17  O   UNL     1       2.297   8.017  10.166  1.00  0.00    -0.387 OA
ATOM     18  H   UNL     1       1.815   8.875  10.285  1.00  0.00     0.211 HD
ENDBRANCH   4  17
TORSDOF 7
ENDMDL
MODEL 6
REMARK VINA RESULT:    -4.669      1.060      3.234
REMARK INTER + INTRA:          -6.239
REMARK INTER:                  -5.848
REMARK INTRA:                  -0.391
REMARK UNBOUND:                -0.206
REMARK SMILES CCO[C@@H]1O[C@@H](CO)[C@H](O)[C@@H](O)[C@@H]1O
REMARK SMILES IDX 4 1 13 2 11 3 9 4 6 5 5 6 3 7 2 8 1 9 14 10 12 12 7 14 8 15
REMARK SMILES IDX 10 17
REMARK H PARENT 14 11 12 13 8 16 10 18
REMARK Flexibility Score: inf
ROOT
ATOM      1  C   UNL     1       5.153   7.343  11.600  1.00  0.00     0.281 C 
ATOM      2  C   UNL     1       4.158   7.679  10.458  1.00  0.00     0.202 C 
ATOM      3  C   UNL     1       4.738   8.756   9.501  1.00  0.00     0.179 C 
ATOM      4  C   UNL     1       6.275   8.815   9.597  1.00  0.00     0.177 C 
ATOM      5  C   UNL     1       6.699   9.049  11.076  1.00  0.00     0.178 C 
ATOM      6  O   UNL     1       5.777   8.537  12.040  1.00  0.00    -0.341 OA
ENDROOT
BRANCH   1   7
ATOM      7  O   UNL     1       4.446   6.753  12.675  1.00  0.00    -0.350 OA
BRANCH   7   8
ATOM      8  C   UNL     1       5.069   7.029  13.911  1.00  0.00     0.160 C 
ATOM      9  C   UNL     1       5.918   5.842  14.348  1.00  0.00     0.035 C 
ENDBRANCH   7   8
ENDBRANCH   1   7
BRANCH   2  10
ATOM     10  O   UNL     1       2.914   8.099  10.969  1.00  0.00    -0.385 OA
ATOM     11  H   UNL     1       2.930   7.970  11.954  1.00  0.00     0.211 HD
ENDBRANCH   2  10
BRANCH   3  12
ATOM     12  O   UNL     1       4.315   8.520   8.181  1.00  0.00    -0.387 OA
ATOM     13  H   UNL     1       5.122   8.307   7.640  1.00  0.00     0.211 HD
ENDBRANCH   3  12
BRANCH   5  14
ATOM     14  C   UNL     1       8.111   8.514  11.348  1.00  0.00     0.191 C 
BRANCH  14  15
ATOM     15  O   UNL     1       8.492   7.611  10.345  1.00  0.00    -0.394 OA
ATOM     16  H   UNL     1       8.448   8.102   9.484  1.00  0.00     0.210 HD
ENDBRANCH  14  15
ENDBRANCH   5  14
BRANCH   4  17
ATOM     17  O   UNL     1       6.764   9.859   8.798  1.00  0.00    -0.387 OA
ATOM     18  H   UNL     1       7.608  10.167   9.217  1.00  0.00     0.211 HD
ENDBRANCH   4  17
TORSDOF 7
ENDMDL
MODEL 7
REMARK VINA RESULT:    -4.606      2.115      3.906
REMARK INTER + INTRA:          -6.159
REMARK INTER:                  -5.926
REMARK INTRA:                  -0.232
REMARK UNBOUND:                -0.206
REMARK SMILES CCO[C@@H]1O[C@@H](CO)[C@H](O)[C@@H](O)[C@@H]1O
REMARK SMILES IDX 4 1 13 2 11 3 9 4 6 5 5 6 3 7 2 8 1 9 14 10 12 12 7 14 8 15
REMARK SMILES IDX 10 17
REMARK H PARENT 14 11 12 13 8 16 10 18
REMARK Flexibility Score: inf
ROOT
ATOM      1  C   UNL     1       6.752   6.824  12.176  1.00  0.00     0.281 C 
ATOM      2  C   UNL     1       6.348   6.797  13.673  1.00  0.00     0.202 C 
ATOM      3  C   UNL     1       5.065   7.633  13.929  1.00  0.00     0.179 C 
ATOM      4  C   UNL     1       4.252   7.813  12.632  1.00  0.00     0.177 C 
ATOM      5  C   UNL     1       5.156   8.440  11.530  1.00  0.00     0.178 C 
ATOM      6  O   UNL     1       6.544   8.128  11.662  1.00  0.00    -0.341 OA
ENDROOT
BRANCH   1   7
ATOM      7  O   UNL     1       8.120   6.479  12.057  1.00  0.00    -0.350 OA
BRANCH   7   8
ATOM      8  C   UNL     1       8.638   6.864  10.801  1.00  0.00     0.160 C 
ATOM      9  C   UNL     1       9.312   5.677  10.125  1.00  0.00     0.035 C 
ENDBRANCH   7   8
ENDBRANCH   1   7
BRANCH   2  10
ATOM     10  O   UNL     1       7.398   7.250  14.497  1.00  0.00    -0.385 OA
ATOM     11  H   UNL     1       7.545   6.569  15.205  1.00  0.00     0.211 HD
ENDBRANCH   2  10
BRANCH   3  12
ATOM     12  O   UNL     1       4.288   7.046  14.942  1.00  0.00    -0.387 OA
ATOM     13  H   UNL     1       3.470   7.600  15.055  1.00  0.00     0.211 HD
ENDBRANCH   3  12
BRANCH   5  14
ATOM     14  C   UNL     1       4.658   8.083  10.124  1.00  0.00     0.191 C 
BRANCH  14  15
ATOM     15  O   UNL     1       5.649   8.354   9.170  1.00  0.00    -0.394 OA
ATOM     16  H   UNL     1       5.182   8.556   8.319  1.00  0.00     0.210 HD
ENDBRANCH  14  15
ENDBRANCH   5  14
BRANCH   4  17
ATOM     17  O   UNL     1       3.153   8.653  12.868  1.00  0.00    -0.387 OA
ATOM     18  H   UNL     1       3.434   9.569  12.617  1.00  0.00     0.211 HD
ENDBRANCH   4  17
TORSDOF 7
ENDMDL
MODEL 8
REMARK VINA RESULT:    -4.463      2.280      5.082
REMARK INTER + INTRA:          -5.974
REMARK INTER:                  -5.590
REMARK INTRA:                  -0.383
REMARK UNBOUND:                -0.206
REMARK SMILES CCO[C@@H]1O[C@@H](CO)[C@H](O)[C@@H](O)[C@@H]1O
REMARK SMILES IDX 4 1 13 2 11 3 9 4 6 5 5 6 3 7 2 8 1 9 14 10 12 12 7 14 8 15
REMARK SMILES IDX 10 17
REMARK H PARENT 14 11 12 13 8 16 10 18
REMARK Flexibility Score: inf
ROOT
ATOM      1  C   UNL     1       5.123   7.241  12.931  1.00  0.00     0.281 C 
ATOM      2  C   UNL     1       6.617   6.821  12.939  1.00  0.00     0.202 C 
ATOM      3  C   UNL     1       7.160   6.691  14.388  1.00  0.00     0.179 C 
ATOM      4  C   UNL     1       6.013   6.485  15.395  1.00  0.00     0.177 C 
ATOM      5  C   UNL     1       4.977   7.639  15.253  1.00  0.00     0.178 C 
ATOM      6  O   UNL     1       4.906   8.207  13.944  1.00  0.00    -0.341 OA
ENDROOT
BRANCH   1   7
ATOM      7  O   UNL     1       4.804   7.797  11.668  1.00  0.00    -0.350 OA
BRANCH   7   8
ATOM      8  C   UNL     1       4.290   6.817  10.792  1.00  0.00     0.160 C 
ATOM      9  C   UNL     1       2.768   6.803  10.855  1.00  0.00     0.035 C 
ENDBRANCH   7   8
ENDBRANCH   1   7
BRANCH   2  10
ATOM     10  O   UNL     1       7.408   7.723  12.200  1.00  0.00    -0.385 OA
ATOM     11  H   UNL     1       6.815   8.449  11.870  1.00  0.00     0.211 HD
ENDBRANCH   2  10
BRANCH   3  12
ATOM     12  O   UNL     1       8.105   5.655  14.469  1.00  0.00    -0.387 OA
ATOM     13  H   UNL     1       7.897   5.000  13.750  1.00  0.00     0.211 HD
ENDBRANCH   3  12
BRANCH   5  14
ATOM     14  C   UNL     1       3.583   7.203  15.725  1.00  0.00     0.191 C 
BRANCH  14  15
ATOM     15  O   UNL     1       3.672   6.045  16.510  1.00  0.00    -0.394 OA
ATOM     16  H   UNL     1       2.748   5.703  16.623  1.00  0.00     0.210 HD
ENDBRANCH  14  15
ENDBRANCH   5  14
BRANCH   4  17
ATOM     17  O   UNL     1       6.520   6.470  16.703  1.00  0.00    -0.387 OA
ATOM     18  H   UNL     1       5.927   5.879  17.233  1.00  0.00     0.211 HD
ENDBRANCH   4  17
TORSDOF 7
ENDMDL
MODEL 9
REMARK VINA RESULT:    -4.381      1.921      4.682
REMARK INTER + INTRA:          -5.867
REMARK INTER:                  -5.461
REMARK INTRA:                  -0.406
REMARK UNBOUND:                -0.206
REMARK SMILES CCO[C@@H]1O[C@@H](CO)[C@H](O)[C@@H](O)[C@@H]1O
REMARK SMILES IDX 4 1 13 2 11 3 9 4 6 5 5 6 3 7 2 8 1 9 14 10 12 12 7 14 8 15
REMARK SMILES IDX 10 17
REMARK H PARENT 14 11 12 13 8 16 10 18
REMARK Flexibility Score: inf
ROOT
ATOM      1  C   UNL     1       5.873   8.316  11.125  1.00  0.00     0.281 C 
ATOM      2  C   UNL     1       4.353   8.616  11.207  1.00  0.00     0.202 C 
ATOM      3  C   UNL     1       3.727   8.015  12.495  1.00  0.00     0.179 C 
ATOM      4  C   UNL     1       4.801   7.766  13.571  1.00  0.00     0.177 C 
ATOM      5  C   UNL     1       5.930   6.866  12.987  1.00  0.00     0.178 C 
ATOM      6  O   UNL     1       6.113   6.995  11.576  1.00  0.00    -0.341 OA
ENDROOT
BRANCH   1   7
ATOM      7  O   UNL     1       6.300   8.444   9.781  1.00  0.00    -0.350 OA
BRANCH   7   8
ATOM      8  C   UNL     1       6.765   9.750   9.514  1.00  0.00     0.160 C 
ATOM      9  C   UNL     1       7.872  10.124  10.491  1.00  0.00     0.035 C 
ENDBRANCH   7   8
ENDBRANCH   1   7
BRANCH   2  10
ATOM     10  O   UNL     1       3.675   8.142  10.067  1.00  0.00    -0.385 OA
ATOM     11  H   UNL     1       4.351   7.770   9.442  1.00  0.00     0.211 HD
ENDBRANCH   2  10
BRANCH   3  12
ATOM     12  O   UNL     1       2.701   8.845  12.977  1.00  0.00    -0.387 OA
ATOM     13  H   UNL     1       1.944   8.262  13.251  1.00  0.00     0.211 HD
ENDBRANCH   3  12
BRANCH   5  14
ATOM     14  C   UNL     1       7.259   7.085  13.722  1.00  0.00     0.191 C 
BRANCH  14  15
ATOM     15  O   UNL     1       7.141   6.711  15.068  1.00  0.00    -0.394 OA
ATOM     16  H   UNL     1       7.270   7.534  15.607  1.00  0.00     0.210 HD
ENDBRANCH  14  15
ENDBRANCH   5  14
BRANCH   4  17
ATOM     17  O   UNL     1       4.227   7.133  14.683  1.00  0.00    -0.387 OA
ATOM     18  H   UNL     1       4.066   6.191  14.424  1.00  0.00     0.211 HD
ENDBRANCH   4  17
TORSDOF 7
ENDMDL
