MODEL 1
REMARK VINA RESULT:    -3.528      0.000      0.000
REMARK INTER + INTRA:          -5.768
REMARK INTER:                  -5.384
REMARK INTRA:                  -0.385
REMARK UNBOUND:                -0.385
REMARK SMILES O=C([O-])CCCCCCCCC(=O)[O-]
REMARK SMILES IDX 7 1 6 2 5 3 4 4 2 5 1 6 3 7 8 8 9 9 10 10 11 11 12 12 13 13
REMARK SMILES IDX 14 14
REMARK H PARENT
REMARK Flexibility Score: inf
ROOT
ATOM      1  C   UNL     1      33.264  36.917   1.564  1.00  0.00     0.000 C 
ENDROOT
BRANCH   1   2
ATOM      2  C   UNL     1      33.791  37.942   0.547  1.00  0.00     0.000 C 
BRANCH   2   3
ATOM      3  C   UNL     1      34.088  37.319  -0.825  1.00  0.00     0.006 C 
BRANCH   3   4
ATOM      4  C   UNL     1      33.094  36.198  -1.144  1.00  0.00     0.053 C 
BRANCH   4   5
ATOM      5  C   UNL     1      32.523  36.378  -2.515  1.00  0.00     0.041 C 
ATOM      6  O   UNL     1      31.809  35.477  -3.028  1.00  0.00    -0.550 OA
ATOM      7  O   UNL     1      32.821  37.520  -3.248  1.00  0.00    -0.550 OA
ENDBRANCH   4   5
ENDBRANCH   3   4
ENDBRANCH   2   3
ENDBRANCH   1   2
BRANCH   1   8
ATOM      8  C   UNL     1      34.182  36.777   2.791  1.00  0.00     0.000 C 
BRANCH   8   9
ATOM      9  C   UNL     1      34.838  38.107   3.203  1.00  0.00     0.000 C 
BRANCH   9  10
ATOM     10  C   UNL     1      34.262  38.752   4.477  1.00  0.00     0.006 C 
BRANCH  10  11
ATOM     11  C   UNL     1      34.988  38.307   5.754  1.00  0.00     0.053 C 
BRANCH  11  12
ATOM     12  C   UNL     1      34.097  38.473   6.945  1.00  0.00     0.041 C 
ATOM     13  O   UNL     1      32.848  38.538   6.798  1.00  0.00    -0.550 OA
ATOM     14  O   UNL     1      34.642  38.506   8.221  1.00  0.00    -0.550 OA
ENDBRANCH  11  12
ENDBRANCH  10  11
ENDBRANCH   9  10
ENDBRANCH   8   9
ENDBRANCH   1   8
TORSDOF 9
ENDMDL
MODEL 2
REMARK VINA RESULT:    -3.487      0.672      7.807
REMARK INTER + INTRA:          -5.706
REMARK INTER:                  -5.337
REMARK INTRA:                  -0.369
REMARK UNBOUND:                -0.385
REMARK SMILES O=C([O-])CCCCCCCCC(=O)[O-]
REMARK SMILES IDX 7 1 6 2 5 3 4 4 2 5 1 6 3 7 8 8 9 9 10 10 11 11 12 12 13 13
REMARK SMILES IDX 14 14
REMARK H PARENT
REMARK Flexibility Score: inf
ROOT
ATOM      1  C   UNL     1      32.850  37.121   2.630  1.00  0.00     0.000 C 
ENDROOT
BRANCH   1   2
ATOM      2  C   UNL     1      33.645  38.288   3.239  1.00  0.00     0.000 C 
BRANCH   2   3
ATOM      3  C   UNL     1      34.731  37.819   4.219  1.00  0.00     0.006 C 
BRANCH   3   4
ATOM      4  C   UNL     1      34.969  38.864   5.313  1.00  0.00     0.053 C 
BRANCH   4   5
ATOM      5  C   UNL     1      34.229  38.495   6.560  1.00  0.00     0.041 C 
ATOM      6  O   UNL     1      32.971  38.449   6.561  1.00  0.00    -0.550 OA
ATOM      7  O   UNL     1      34.926  38.251   7.736  1.00  0.00    -0.550 OA
ENDBRANCH   4   5
ENDBRANCH   3   4
ENDBRANCH   2   3
ENDBRANCH   1   2
BRANCH   1   8
ATOM      8  C   UNL     1      33.586  36.457   1.453  1.00  0.00     0.000 C 
BRANCH   8   9
ATOM      9  C   UNL     1      34.355  37.466   0.581  1.00  0.00     0.000 C 
BRANCH   9  10
ATOM     10  C   UNL     1      34.041  37.402  -0.924  1.00  0.00     0.006 C 
BRANCH  10  11
ATOM     11  C   UNL     1      33.103  36.245  -1.292  1.00  0.00     0.053 C 
BRANCH  11  12
ATOM     12  C   UNL     1      32.516  36.460  -2.651  1.00  0.00     0.041 C 
ATOM     13  O   UNL     1      32.793  37.501  -3.303  1.00  0.00    -0.550 OA
ATOM     14  O   UNL     1      31.702  35.488  -3.219  1.00  0.00    -0.550 OA
ENDBRANCH  11  12
ENDBRANCH  10  11
ENDBRANCH   9  10
ENDBRANCH   8   9
ENDBRANCH   1   8
TORSDOF 9
ENDMDL
MODEL 3
REMARK VINA RESULT:    -3.412      2.415      7.544
REMARK INTER + INTRA:          -5.592
REMARK INTER:                  -5.131
REMARK INTRA:                  -0.462
REMARK UNBOUND:                -0.385
REMARK SMILES O=C([O-])CCCCCCCCC(=O)[O-]
REMARK SMILES IDX 7 1 6 2 5 3 4 4 2 5 1 6 3 7 8 8 9 9 10 10 11 11 12 12 13 13
REMARK SMILES IDX 14 14
REMARK H PARENT
REMARK Flexibility Score: inf
ROOT
ATOM      1  C   UNL     1      33.730  37.814   3.628  1.00  0.00     0.000 C 
ENDROOT
BRANCH   1   2
ATOM      2  C   UNL     1      34.723  38.079   4.771  1.00  0.00     0.000 C 
BRANCH   2   3
ATOM      3  C   UNL     1      34.103  38.891   5.919  1.00  0.00     0.006 C 
BRANCH   3   4
ATOM      4  C   UNL     1      34.824  38.609   7.240  1.00  0.00     0.053 C 
BRANCH   4   5
ATOM      5  C   UNL     1      33.853  38.611   8.379  1.00  0.00     0.041 C 
ATOM      6  O   UNL     1      34.253  38.407   9.555  1.00  0.00    -0.550 OA
ATOM      7  O   UNL     1      32.497  38.789   8.135  1.00  0.00    -0.550 OA
ENDBRANCH   4   5
ENDBRANCH   3   4
ENDBRANCH   2   3
ENDBRANCH   1   2
BRANCH   1   8
ATOM      8  C   UNL     1      33.695  38.958   2.600  1.00  0.00     0.000 C 
BRANCH   8   9
ATOM      9  C   UNL     1      33.540  38.458   1.152  1.00  0.00     0.000 C 
BRANCH   9  10
ATOM     10  C   UNL     1      34.060  37.033   0.893  1.00  0.00     0.006 C 
BRANCH  10  11
ATOM     11  C   UNL     1      33.008  36.119   0.251  1.00  0.00     0.053 C 
BRANCH  11  12
ATOM     12  C   UNL     1      32.387  35.232   1.284  1.00  0.00     0.041 C 
ATOM     13  O   UNL     1      32.829  34.068   1.468  1.00  0.00    -0.550 OA
ATOM     14  O   UNL     1      31.351  35.709   2.076  1.00  0.00    -0.550 OA
ENDBRANCH  11  12
ENDBRANCH  10  11
ENDBRANCH   9  10
ENDBRANCH   8   9
ENDBRANCH   1   8
TORSDOF 9
ENDMDL
MODEL 4
REMARK VINA RESULT:    -3.369      0.940      7.739
REMARK INTER + INTRA:          -5.527
REMARK INTER:                  -5.272
REMARK INTRA:                  -0.254
REMARK UNBOUND:                -0.385
REMARK SMILES O=C([O-])CCCCCCCCC(=O)[O-]
REMARK SMILES IDX 7 1 6 2 5 3 4 4 2 5 1 6 3 7 8 8 9 9 10 10 11 11 12 12 13 13
REMARK SMILES IDX 14 14
REMARK H PARENT
REMARK Flexibility Score: inf
ROOT
ATOM      1  C   UNL     1      33.740  37.331   1.864  1.00  0.00     0.000 C 
ENDROOT
BRANCH   1   2
ATOM      2  C   UNL     1      34.498  37.248   3.199  1.00  0.00     0.000 C 
BRANCH   2   3
ATOM      3  C   UNL     1      33.968  38.239   4.246  1.00  0.00     0.006 C 
BRANCH   3   4
ATOM      4  C   UNL     1      34.991  38.451   5.366  1.00  0.00     0.053 C 
BRANCH   4   5
ATOM      5  C   UNL     1      34.326  38.378   6.705  1.00  0.00     0.041 C 
ATOM      6  O   UNL     1      35.016  38.233   7.748  1.00  0.00    -0.550 OA
ATOM      7  O   UNL     1      32.941  38.420   6.796  1.00  0.00    -0.550 OA
ENDBRANCH   4   5
ENDBRANCH   3   4
ENDBRANCH   2   3
ENDBRANCH   1   2
BRANCH   1   8
ATOM      8  C   UNL     1      34.086  38.601   1.068  1.00  0.00     0.000 C 
BRANCH   8   9
ATOM      9  C   UNL     1      33.280  38.728  -0.238  1.00  0.00     0.000 C 
BRANCH   9  10
ATOM     10  C   UNL     1      33.912  38.048  -1.465  1.00  0.00     0.006 C 
BRANCH  10  11
ATOM     11  C   UNL     1      32.871  37.557  -2.480  1.00  0.00     0.053 C 
BRANCH  11  12
ATOM     12  C   UNL     1      32.472  36.147  -2.177  1.00  0.00     0.041 C 
ATOM     13  O   UNL     1      31.808  35.482  -3.016  1.00  0.00    -0.550 OA
ATOM     14  O   UNL     1      32.874  35.550  -0.990  1.00  0.00    -0.550 OA
ENDBRANCH  11  12
ENDBRANCH  10  11
ENDBRANCH   9  10
ENDBRANCH   8   9
ENDBRANCH   1   8
TORSDOF 9
ENDMDL
MODEL 5
REMARK VINA RESULT:    -3.074      1.181      1.569
REMARK INTER + INTRA:          -5.076
REMARK INTER:                  -4.751
REMARK INTRA:                  -0.325
REMARK UNBOUND:                -0.385
REMARK SMILES O=C([O-])CCCCCCCCC(=O)[O-]
REMARK SMILES IDX 7 1 6 2 5 3 4 4 2 5 1 6 3 7 8 8 9 9 10 10 11 11 12 12 13 13
REMARK SMILES IDX 14 14
REMARK H PARENT
REMARK Flexibility Score: inf
ROOT
ATOM      1  C   UNL     1      33.081  36.654   1.269  1.00  0.00     0.000 C 
ENDROOT
BRANCH   1   2
ATOM      2  C   UNL     1      33.374  38.022   0.630  1.00  0.00     0.000 C 
BRANCH   2   3
ATOM      3  C   UNL     1      34.341  37.925  -0.559  1.00  0.00     0.006 C 
BRANCH   3   4
ATOM      4  C   UNL     1      33.904  38.852  -1.697  1.00  0.00     0.053 C 
BRANCH   4   5
ATOM      5  C   UNL     1      33.198  38.077  -2.765  1.00  0.00     0.041 C 
ATOM      6  O   UNL     1      32.648  36.978  -2.491  1.00  0.00    -0.550 OA
ATOM      7  O   UNL     1      33.192  38.542  -4.073  1.00  0.00    -0.550 OA
ENDBRANCH   4   5
ENDBRANCH   3   4
ENDBRANCH   2   3
ENDBRANCH   1   2
BRANCH   1   8
ATOM      8  C   UNL     1      34.220  36.174   2.184  1.00  0.00     0.000 C 
BRANCH   8   9
ATOM      9  C   UNL     1      35.118  37.324   2.677  1.00  0.00     0.000 C 
BRANCH   9  10
ATOM     10  C   UNL     1      35.116  37.548   4.200  1.00  0.00     0.006 C 
BRANCH  10  11
ATOM     11  C   UNL     1      33.917  38.375   4.682  1.00  0.00     0.053 C 
BRANCH  11  12
ATOM     12  C   UNL     1      33.868  38.401   6.177  1.00  0.00     0.041 C 
ATOM     13  O   UNL     1      34.903  38.152   6.850  1.00  0.00    -0.550 OA
ATOM     14  O   UNL     1      32.691  38.748   6.829  1.00  0.00    -0.550 OA
ENDBRANCH  11  12
ENDBRANCH  10  11
ENDBRANCH   9  10
ENDBRANCH   8   9
ENDBRANCH   1   8
TORSDOF 9
ENDMDL
MODEL 6
REMARK VINA RESULT:    -2.640      3.084      6.597
REMARK INTER + INTRA:          -4.414
REMARK INTER:                  -3.642
REMARK INTRA:                  -0.772
REMARK UNBOUND:                -0.385
REMARK SMILES O=C([O-])CCCCCCCCC(=O)[O-]
REMARK SMILES IDX 7 1 6 2 5 3 4 4 2 5 1 6 3 7 8 8 9 9 10 10 11 11 12 12 13 13
REMARK SMILES IDX 14 14
REMARK H PARENT
REMARK Flexibility Score: inf
ROOT
ATOM      1  C   UNL     1      32.238  39.114   1.019  1.00  0.00     0.000 C 
ENDROOT
BRANCH   1   2
ATOM      2  C   UNL     1      33.306  39.024   2.121  1.00  0.00     0.000 C 
BRANCH   2   3
ATOM      3  C   UNL     1      33.222  37.717   2.924  1.00  0.00     0.006 C 
BRANCH   3   4
ATOM      4  C   UNL     1      32.292  36.712   2.237  1.00  0.00     0.053 C 
BRANCH   4   5
ATOM      5  C   UNL     1      33.057  35.501   1.803  1.00  0.00     0.041 C 
ATOM      6  O   UNL     1      32.454  34.519   1.296  1.00  0.00    -0.550 OA
ATOM      7  O   UNL     1      34.430  35.437   2.003  1.00  0.00    -0.550 OA
ENDBRANCH   4   5
ENDBRANCH   3   4
ENDBRANCH   2   3
ENDBRANCH   1   2
BRANCH   1   8
ATOM      8  C   UNL     1      32.846  39.122  -0.394  1.00  0.00     0.000 C 
BRANCH   8   9
ATOM      9  C   UNL     1      34.108  38.247  -0.507  1.00  0.00     0.000 C 
BRANCH   9  10
ATOM     10  C   UNL     1      33.980  37.034  -1.446  1.00  0.00     0.006 C 
BRANCH  10  11
ATOM     11  C   UNL     1      32.885  37.210  -2.506  1.00  0.00     0.053 C 
BRANCH  11  12
ATOM     12  C   UNL     1      32.136  35.929  -2.700  1.00  0.00     0.041 C 
ATOM     13  O   UNL     1      32.163  35.038  -1.810  1.00  0.00    -0.550 OA
ATOM     14  O   UNL     1      31.369  35.738  -3.841  1.00  0.00    -0.550 OA
ENDBRANCH  11  12
ENDBRANCH  10  11
ENDBRANCH   9  10
ENDBRANCH   8   9
ENDBRANCH   1   8
TORSDOF 9
ENDMDL
MODEL 7
REMARK VINA RESULT:    -2.149      3.436      6.144
REMARK INTER + INTRA:          -3.664
REMARK INTER:                  -3.256
REMARK INTRA:                  -0.408
REMARK UNBOUND:                -0.385
REMARK SMILES O=C([O-])CCCCCCCCC(=O)[O-]
REMARK SMILES IDX 7 1 6 2 5 3 4 4 2 5 1 6 3 7 8 8 9 9 10 10 11 11 12 12 13 13
REMARK SMILES IDX 14 14
REMARK H PARENT
REMARK Flexibility Score: inf
ROOT
ATOM      1  C   UNL     1      34.430  38.512   3.055  1.00  0.00     0.000 C 
ENDROOT
BRANCH   1   2
ATOM      2  C   UNL     1      33.914  37.082   3.284  1.00  0.00     0.000 C 
BRANCH   2   3
ATOM      3  C   UNL     1      34.704  36.031   2.490  1.00  0.00     0.006 C 
BRANCH   3   4
ATOM      4  C   UNL     1      33.818  34.833   2.134  1.00  0.00     0.053 C 
BRANCH   4   5
ATOM      5  C   UNL     1      32.691  35.260   1.247  1.00  0.00     0.041 C 
ATOM      6  O   UNL     1      32.923  35.920   0.200  1.00  0.00    -0.550 OA
ATOM      7  O   UNL     1      31.380  34.971   1.602  1.00  0.00    -0.550 OA
ENDBRANCH   4   5
ENDBRANCH   3   4
ENDBRANCH   2   3
ENDBRANCH   1   2
BRANCH   1   8
ATOM      8  C   UNL     1      35.125  38.677   1.692  1.00  0.00     0.000 C 
BRANCH   8   9
ATOM      9  C   UNL     1      34.142  39.012   0.555  1.00  0.00     0.000 C 
BRANCH   9  10
ATOM     10  C   UNL     1      34.754  39.020  -0.857  1.00  0.00     0.006 C 
BRANCH  10  11
ATOM     11  C   UNL     1      34.101  37.999  -1.799  1.00  0.00     0.053 C 
BRANCH  11  12
ATOM     12  C   UNL     1      33.103  38.673  -2.687  1.00  0.00     0.041 C 
ATOM     13  O   UNL     1      32.028  39.121  -2.207  1.00  0.00    -0.550 OA
ATOM     14  O   UNL     1      33.380  38.848  -4.036  1.00  0.00    -0.550 OA
ENDBRANCH  11  12
ENDBRANCH  10  11
ENDBRANCH   9  10
ENDBRANCH   8   9
ENDBRANCH   1   8
TORSDOF 9
ENDMDL
MODEL 8
REMARK VINA RESULT:    -1.268      1.666      2.163
REMARK INTER + INTRA:          -2.320
REMARK INTER:                  -1.875
REMARK INTRA:                  -0.446
REMARK UNBOUND:                -0.385
REMARK SMILES O=C([O-])CCCCCCCCC(=O)[O-]
REMARK SMILES IDX 7 1 6 2 5 3 4 4 2 5 1 6 3 7 8 8 9 9 10 10 11 11 12 12 13 13
REMARK SMILES IDX 14 14
REMARK H PARENT
REMARK Flexibility Score: inf
ROOT
ATOM      1  C   UNL     1      31.910  36.131   1.759  1.00  0.00     0.000 C 
ENDROOT
BRANCH   1   2
ATOM      2  C   UNL     1      33.087  36.229   0.774  1.00  0.00     0.000 C 
BRANCH   2   3
ATOM      3  C   UNL     1      32.667  35.971  -0.680  1.00  0.00     0.006 C 
BRANCH   3   4
ATOM      4  C   UNL     1      33.678  36.577  -1.658  1.00  0.00     0.053 C 
BRANCH   4   5
ATOM      5  C   UNL     1      33.252  37.951  -2.069  1.00  0.00     0.041 C 
ATOM      6  O   UNL     1      32.617  38.685  -1.267  1.00  0.00    -0.550 OA
ATOM      7  O   UNL     1      33.513  38.404  -3.356  1.00  0.00    -0.550 OA
ENDBRANCH   4   5
ENDBRANCH   3   4
ENDBRANCH   2   3
ENDBRANCH   1   2
BRANCH   1   8
ATOM      8  C   UNL     1      31.520  37.496   2.350  1.00  0.00     0.000 C 
BRANCH   8   9
ATOM      9  C   UNL     1      32.557  38.595   2.056  1.00  0.00     0.000 C 
BRANCH   9  10
ATOM     10  C   UNL     1      33.360  39.080   3.276  1.00  0.00     0.006 C 
BRANCH  10  11
ATOM     11  C   UNL     1      34.458  38.095   3.701  1.00  0.00     0.053 C 
BRANCH  11  12
ATOM     12  C   UNL     1      34.624  38.108   5.188  1.00  0.00     0.041 C 
ATOM     13  O   UNL     1      34.271  39.115   5.856  1.00  0.00    -0.550 OA
ATOM     14  O   UNL     1      35.124  36.989   5.841  1.00  0.00    -0.550 OA
ENDBRANCH  11  12
ENDBRANCH  10  11
ENDBRANCH   9  10
ENDBRANCH   8   9
ENDBRANCH   1   8
TORSDOF 9
ENDMDL
