MODEL 1
REMARK VINA RESULT:    -3.718      0.000      0.000
REMARK INTER + INTRA:         -11.751
REMARK INTER:                  -8.066
REMARK INTRA:                  -3.685
REMARK UNBOUND:                -3.685
REMARK SMILES CCCCCCCCCCCCCCCCCCCCCC(=O)[O-]
REMARK SMILES IDX 12 1 11 2 10 3 9 4 8 5 7 6 6 7 5 8 4 9 3 10 2 11 1 12 13 13
REMARK SMILES IDX 14 14 15 15 16 16 17 17 18 18 19 19 20 20 21 21 22 22 23 23
REMARK SMILES IDX 24 24
REMARK H PARENT
REMARK Flexibility Score: inf
ROOT
ATOM      1  C   UNL     1     174.069 175.650 185.484  1.00  0.00     0.000 C 
ENDROOT
BRANCH   1   2
ATOM      2  C   UNL     1     174.713 176.223 186.760  1.00  0.00     0.000 C 
BRANCH   2   3
ATOM      3  C   UNL     1     176.245 176.343 186.652  1.00  0.00     0.000 C 
BRANCH   3   4
ATOM      4  C   UNL     1     176.788 177.784 186.717  1.00  0.00    -0.000 C 
BRANCH   4   5
ATOM      5  C   UNL     1     175.737 178.796 187.204  1.00  0.00    -0.000 C 
BRANCH   5   6
ATOM      6  C   UNL     1     175.167 179.666 186.069  1.00  0.00    -0.000 C 
BRANCH   6   7
ATOM      7  C   UNL     1     173.642 179.877 186.100  1.00  0.00    -0.000 C 
BRANCH   7   8
ATOM      8  C   UNL     1     173.026 179.607 187.484  1.00  0.00    -0.000 C 
BRANCH   8   9
ATOM      9  C   UNL     1     171.496 179.784 187.505  1.00  0.00    -0.000 C 
BRANCH   9  10
ATOM     10  C   UNL     1     170.675 178.487 187.346  1.00  0.00    -0.000 C 
BRANCH  10  11
ATOM     11  C   UNL     1     171.365 177.209 187.855  1.00  0.00    -0.003 C 
ATOM     12  C   UNL     1     170.858 175.945 187.162  1.00  0.00     0.004 C 
ENDBRANCH  10  11
ENDBRANCH   9  10
ENDBRANCH   8   9
ENDBRANCH   7   8
ENDBRANCH   6   7
ENDBRANCH   5   6
ENDBRANCH   4   5
ENDBRANCH   3   4
ENDBRANCH   2   3
ENDBRANCH   1   2
BRANCH   1  13
ATOM     13  C   UNL     1     173.969 176.691 184.355  1.00  0.00     0.000 C 
BRANCH  13  14
ATOM     14  C   UNL     1     174.934 176.461 183.176  1.00  0.00     0.000 C 
BRANCH  14  15
ATOM     15  C   UNL     1     175.968 177.592 182.990  1.00  0.00     0.000 C 
BRANCH  15  16
ATOM     16  C   UNL     1     175.324 178.892 182.483  1.00  0.00     0.000 C 
BRANCH  16  17
ATOM     17  C   UNL     1     174.898 178.801 181.007  1.00  0.00     0.000 C 
BRANCH  17  18
ATOM     18  C   UNL     1     173.496 179.384 180.763  1.00  0.00     0.000 C 
BRANCH  18  19
ATOM     19  C   UNL     1     172.756 179.730 182.068  1.00  0.00     0.000 C 
BRANCH  19  20
ATOM     20  C   UNL     1     171.220 179.719 181.962  1.00  0.00     0.006 C 
BRANCH  20  21
ATOM     21  C   UNL     1     170.581 178.514 182.663  1.00  0.00     0.053 C 
BRANCH  21  22
ATOM     22  C   UNL     1     169.750 178.961 183.824  1.00  0.00     0.041 C 
ATOM     23  O   UNL     1     169.881 180.125 184.287  1.00  0.00    -0.550 OA
ATOM     24  O   UNL     1     168.798 178.106 184.368  1.00  0.00    -0.550 OA
ENDBRANCH  21  22
ENDBRANCH  20  21
ENDBRANCH  19  20
ENDBRANCH  18  19
ENDBRANCH  17  18
ENDBRANCH  16  17
ENDBRANCH  15  16
ENDBRANCH  14  15
ENDBRANCH  13  14
ENDBRANCH   1  13
TORSDOF 20
ENDMDL
MODEL 2
REMARK VINA RESULT:    -3.695      9.189     12.420
REMARK INTER + INTRA:         -11.701
REMARK INTER:                  -7.805
REMARK INTRA:                  -3.897
REMARK UNBOUND:                -3.685
REMARK SMILES CCCCCCCCCCCCCCCCCCCCCC(=O)[O-]
REMARK SMILES IDX 12 1 11 2 10 3 9 4 8 5 7 6 6 7 5 8 4 9 3 10 2 11 1 12 13 13
REMARK SMILES IDX 14 14 15 15 16 16 17 17 18 18 19 19 20 20 21 21 22 22 23 23
REMARK SMILES IDX 24 24
REMARK H PARENT
REMARK Flexibility Score: inf
ROOT
ATOM      1  C   UNL     1     164.686 175.689 185.328  1.00  0.00     0.000 C 
ENDROOT
BRANCH   1   2
ATOM      2  C   UNL     1     163.754 174.513 185.673  1.00  0.00     0.000 C 
BRANCH   2   3
ATOM      3  C   UNL     1     163.730 174.192 187.179  1.00  0.00     0.000 C 
BRANCH   3   4
ATOM      4  C   UNL     1     162.478 173.433 187.660  1.00  0.00    -0.000 C 
BRANCH   4   5
ATOM      5  C   UNL     1     161.184 174.247 187.488  1.00  0.00    -0.000 C 
BRANCH   5   6
ATOM      6  C   UNL     1     160.149 173.549 186.588  1.00  0.00    -0.000 C 
BRANCH   6   7
ATOM      7  C   UNL     1     160.610 172.221 185.958  1.00  0.00    -0.000 C 
BRANCH   7   8
ATOM      8  C   UNL     1     160.246 172.104 184.468  1.00  0.00    -0.000 C 
BRANCH   8   9
ATOM      9  C   UNL     1     160.863 173.224 183.609  1.00  0.00    -0.000 C 
BRANCH   9  10
ATOM     10  C   UNL     1     159.875 173.984 182.700  1.00  0.00    -0.000 C 
BRANCH  10  11
ATOM     11  C   UNL     1     160.354 174.208 181.255  1.00  0.00    -0.003 C 
ATOM     12  C   UNL     1     161.417 173.200 180.819  1.00  0.00     0.004 C 
ENDBRANCH  10  11
ENDBRANCH   9  10
ENDBRANCH   8   9
ENDBRANCH   7   8
ENDBRANCH   6   7
ENDBRANCH   5   6
ENDBRANCH   4   5
ENDBRANCH   3   4
ENDBRANCH   2   3
ENDBRANCH   1   2
BRANCH   1  13
ATOM     13  C   UNL     1     164.879 176.654 186.510  1.00  0.00     0.000 C 
BRANCH  13  14
ATOM     14  C   UNL     1     164.613 178.137 186.184  1.00  0.00     0.000 C 
BRANCH  14  15
ATOM     15  C   UNL     1     163.433 178.744 186.972  1.00  0.00     0.000 C 
BRANCH  15  16
ATOM     16  C   UNL     1     162.723 177.702 187.851  1.00  0.00     0.000 C 
BRANCH  16  17
ATOM     17  C   UNL     1     161.192 177.851 187.820  1.00  0.00     0.000 C 
BRANCH  17  18
ATOM     18  C   UNL     1     160.670 178.264 186.434  1.00  0.00     0.000 C 
BRANCH  18  19
ATOM     19  C   UNL     1     160.629 177.092 185.436  1.00  0.00     0.000 C 
BRANCH  19  20
ATOM     20  C   UNL     1     160.783 177.495 183.959  1.00  0.00     0.006 C 
BRANCH  20  21
ATOM     21  C   UNL     1     162.011 176.863 183.291  1.00  0.00     0.053 C 
BRANCH  21  22
ATOM     22  C   UNL     1     162.737 177.875 182.463  1.00  0.00     0.041 C 
ATOM     23  O   UNL     1     163.992 177.963 182.527  1.00  0.00    -0.550 OA
ATOM     24  O   UNL     1     162.033 178.693 181.587  1.00  0.00    -0.550 OA
ENDBRANCH  21  22
ENDBRANCH  20  21
ENDBRANCH  19  20
ENDBRANCH  18  19
ENDBRANCH  17  18
ENDBRANCH  16  17
ENDBRANCH  15  16
ENDBRANCH  14  15
ENDBRANCH  13  14
ENDBRANCH   1  13
TORSDOF 20
ENDMDL
MODEL 3
REMARK VINA RESULT:    -3.666      8.982     12.832
REMARK INTER + INTRA:         -11.637
REMARK INTER:                  -8.263
REMARK INTRA:                  -3.374
REMARK UNBOUND:                -3.685
REMARK SMILES CCCCCCCCCCCCCCCCCCCCCC(=O)[O-]
REMARK SMILES IDX 12 1 11 2 10 3 9 4 8 5 7 6 6 7 5 8 4 9 3 10 2 11 1 12 13 13
REMARK SMILES IDX 14 14 15 15 16 16 17 17 18 18 19 19 20 20 21 21 22 22 23 23
REMARK SMILES IDX 24 24
REMARK H PARENT
REMARK Flexibility Score: inf
ROOT
ATOM      1  C   UNL     1     160.756 177.467 183.161  1.00  0.00     0.000 C 
ENDROOT
BRANCH   1   2
ATOM      2  C   UNL     1     160.524 176.050 182.606  1.00  0.00     0.000 C 
BRANCH   2   3
ATOM      3  C   UNL     1     160.745 174.952 183.664  1.00  0.00     0.000 C 
BRANCH   3   4
ATOM      4  C   UNL     1     162.124 174.264 183.605  1.00  0.00    -0.000 C 
BRANCH   4   5
ATOM      5  C   UNL     1     163.240 175.109 184.242  1.00  0.00    -0.000 C 
BRANCH   5   6
ATOM      6  C   UNL     1     164.227 175.682 183.208  1.00  0.00    -0.000 C 
BRANCH   6   7
ATOM      7  C   UNL     1     164.588 177.168 183.391  1.00  0.00    -0.000 C 
BRANCH   7   8
ATOM      8  C   UNL     1     164.452 177.645 184.848  1.00  0.00    -0.000 C 
BRANCH   8   9
ATOM      9  C   UNL     1     165.811 177.839 185.545  1.00  0.00    -0.000 C 
BRANCH   9  10
ATOM     10  C   UNL     1     165.983 177.090 186.884  1.00  0.00    -0.000 C 
BRANCH  10  11
ATOM     11  C   UNL     1     166.105 175.561 186.767  1.00  0.00    -0.003 C 
ATOM     12  C   UNL     1     164.840 174.829 187.212  1.00  0.00     0.004 C 
ENDBRANCH  10  11
ENDBRANCH   9  10
ENDBRANCH   8   9
ENDBRANCH   7   8
ENDBRANCH   6   7
ENDBRANCH   5   6
ENDBRANCH   4   5
ENDBRANCH   3   4
ENDBRANCH   2   3
ENDBRANCH   1   2
BRANCH   1  13
ATOM     13  C   UNL     1     160.158 177.656 184.566  1.00  0.00     0.000 C 
BRANCH  13  14
ATOM     14  C   UNL     1     161.183 178.000 185.664  1.00  0.00     0.000 C 
BRANCH  14  15
ATOM     15  C   UNL     1     160.591 177.996 187.090  1.00  0.00     0.000 C 
BRANCH  15  16
ATOM     16  C   UNL     1     161.301 176.992 188.013  1.00  0.00     0.000 C 
BRANCH  16  17
ATOM     17  C   UNL     1     161.367 175.580 187.407  1.00  0.00     0.000 C 
BRANCH  17  18
ATOM     18  C   UNL     1     159.980 174.926 187.288  1.00  0.00     0.000 C 
BRANCH  18  19
ATOM     19  C   UNL     1     160.053 173.433 186.920  1.00  0.00     0.000 C 
BRANCH  19  20
ATOM     20  C   UNL     1     161.242 172.673 187.534  1.00  0.00     0.006 C 
BRANCH  20  21
ATOM     21  C   UNL     1     160.837 171.329 188.153  1.00  0.00     0.053 C 
BRANCH  21  22
ATOM     22  C   UNL     1     161.121 170.207 187.205  1.00  0.00     0.041 C 
ATOM     23  O   UNL     1     162.222 169.597 187.257  1.00  0.00    -0.550 OA
ATOM     24  O   UNL     1     160.153 169.804 186.292  1.00  0.00    -0.550 OA
ENDBRANCH  21  22
ENDBRANCH  20  21
ENDBRANCH  19  20
ENDBRANCH  18  19
ENDBRANCH  17  18
ENDBRANCH  16  17
ENDBRANCH  15  16
ENDBRANCH  14  15
ENDBRANCH  13  14
ENDBRANCH   1  13
TORSDOF 20
ENDMDL
MODEL 4
REMARK VINA RESULT:    -3.658      9.889     12.740
REMARK INTER + INTRA:         -11.620
REMARK INTER:                  -7.608
REMARK INTRA:                  -4.011
REMARK UNBOUND:                -3.685
REMARK SMILES CCCCCCCCCCCCCCCCCCCCCC(=O)[O-]
REMARK SMILES IDX 12 1 11 2 10 3 9 4 8 5 7 6 6 7 5 8 4 9 3 10 2 11 1 12 13 13
REMARK SMILES IDX 14 14 15 15 16 16 17 17 18 18 19 19 20 20 21 21 22 22 23 23
REMARK SMILES IDX 24 24
REMARK H PARENT
REMARK Flexibility Score: inf
ROOT
ATOM      1  C   UNL     1     164.389 177.136 187.061  1.00  0.00     0.000 C 
ENDROOT
BRANCH   1   2
ATOM      2  C   UNL     1     164.183 176.455 185.696  1.00  0.00     0.000 C 
BRANCH   2   3
ATOM      3  C   UNL     1     163.649 175.016 185.822  1.00  0.00     0.000 C 
BRANCH   3   4
ATOM      4  C   UNL     1     164.108 174.263 187.086  1.00  0.00    -0.000 C 
BRANCH   4   5
ATOM      5  C   UNL     1     162.937 173.654 187.876  1.00  0.00    -0.000 C 
BRANCH   5   6
ATOM      6  C   UNL     1     161.574 174.259 187.495  1.00  0.00    -0.000 C 
BRANCH   6   7
ATOM      7  C   UNL     1     160.402 173.262 187.432  1.00  0.00    -0.000 C 
BRANCH   7   8
ATOM      8  C   UNL     1     160.368 172.456 186.122  1.00  0.00    -0.000 C 
BRANCH   8   9
ATOM      9  C   UNL     1     160.935 171.032 186.277  1.00  0.00    -0.000 C 
BRANCH   9  10
ATOM     10  C   UNL     1     162.383 170.838 185.781  1.00  0.00    -0.000 C 
BRANCH  10  11
ATOM     11  C   UNL     1     162.611 171.143 184.289  1.00  0.00    -0.003 C 
ATOM     12  C   UNL     1     163.945 171.839 184.023  1.00  0.00     0.004 C 
ENDBRANCH  10  11
ENDBRANCH   9  10
ENDBRANCH   8   9
ENDBRANCH   7   8
ENDBRANCH   6   7
ENDBRANCH   5   6
ENDBRANCH   4   5
ENDBRANCH   3   4
ENDBRANCH   2   3
ENDBRANCH   1   2
BRANCH   1  13
ATOM     13  C   UNL     1     163.308 178.189 187.365  1.00  0.00     0.000 C 
BRANCH  13  14
ATOM     14  C   UNL     1     162.176 177.705 188.290  1.00  0.00     0.000 C 
BRANCH  14  15
ATOM     15  C   UNL     1     160.772 177.800 187.656  1.00  0.00     0.000 C 
BRANCH  15  16
ATOM     16  C   UNL     1     160.830 178.161 186.163  1.00  0.00     0.000 C 
BRANCH  16  17
ATOM     17  C   UNL     1     160.564 176.950 185.253  1.00  0.00     0.000 C 
BRANCH  17  18
ATOM     18  C   UNL     1     160.381 177.351 183.780  1.00  0.00     0.000 C 
BRANCH  18  19
ATOM     19  C   UNL     1     160.225 176.138 182.844  1.00  0.00     0.000 C 
BRANCH  19  20
ATOM     20  C   UNL     1     160.884 174.843 183.351  1.00  0.00     0.006 C 
BRANCH  20  21
ATOM     21  C   UNL     1     160.262 173.578 182.744  1.00  0.00     0.053 C 
BRANCH  21  22
ATOM     22  C   UNL     1     160.898 173.260 181.428  1.00  0.00     0.041 C 
ATOM     23  O   UNL     1     160.183 172.970 180.432  1.00  0.00    -0.550 OA
ATOM     24  O   UNL     1     162.280 173.326 181.288  1.00  0.00    -0.550 OA
ENDBRANCH  21  22
ENDBRANCH  20  21
ENDBRANCH  19  20
ENDBRANCH  18  19
ENDBRANCH  17  18
ENDBRANCH  16  17
ENDBRANCH  15  16
ENDBRANCH  14  15
ENDBRANCH  13  14
ENDBRANCH   1  13
TORSDOF 20
ENDMDL
MODEL 5
REMARK VINA RESULT:    -3.636      8.482     12.367
REMARK INTER + INTRA:         -11.572
REMARK INTER:                  -8.121
REMARK INTRA:                  -3.451
REMARK UNBOUND:                -3.685
REMARK SMILES CCCCCCCCCCCCCCCCCCCCCC(=O)[O-]
REMARK SMILES IDX 12 1 11 2 10 3 9 4 8 5 7 6 6 7 5 8 4 9 3 10 2 11 1 12 13 13
REMARK SMILES IDX 14 14 15 15 16 16 17 17 18 18 19 19 20 20 21 21 22 22 23 23
REMARK SMILES IDX 24 24
REMARK H PARENT
REMARK Flexibility Score: inf
ROOT
ATOM      1  C   UNL     1     161.602 178.211 186.512  1.00  0.00     0.000 C 
ENDROOT
BRANCH   1   2
ATOM      2  C   UNL     1     160.270 178.190 185.741  1.00  0.00     0.000 C 
BRANCH   2   3
ATOM      3  C   UNL     1     160.413 177.618 184.317  1.00  0.00     0.000 C 
BRANCH   3   4
ATOM      4  C   UNL     1     161.829 177.128 183.956  1.00  0.00    -0.000 C 
BRANCH   4   5
ATOM      5  C   UNL     1     161.827 175.750 183.273  1.00  0.00    -0.000 C 
BRANCH   5   6
ATOM      6  C   UNL     1     160.713 174.822 183.791  1.00  0.00    -0.000 C 
BRANCH   6   7
ATOM      7  C   UNL     1     161.132 173.362 184.043  1.00  0.00    -0.000 C 
BRANCH   7   8
ATOM      8  C   UNL     1     160.119 172.585 184.902  1.00  0.00    -0.000 C 
BRANCH   8   9
ATOM      9  C   UNL     1     160.657 171.225 185.384  1.00  0.00    -0.000 C 
BRANCH   9  10
ATOM     10  C   UNL     1     161.866 171.292 186.342  1.00  0.00    -0.000 C 
BRANCH  10  11
ATOM     11  C   UNL     1     161.671 170.581 187.693  1.00  0.00    -0.003 C 
ATOM     12  C   UNL     1     160.641 171.274 188.584  1.00  0.00     0.004 C 
ENDBRANCH  10  11
ENDBRANCH   9  10
ENDBRANCH   8   9
ENDBRANCH   7   8
ENDBRANCH   6   7
ENDBRANCH   5   6
ENDBRANCH   4   5
ENDBRANCH   3   4
ENDBRANCH   2   3
ENDBRANCH   1   2
BRANCH   1  13
ATOM     13  C   UNL     1     161.536 177.414 187.826  1.00  0.00     0.000 C 
BRANCH  13  14
ATOM     14  C   UNL     1     160.611 176.182 187.790  1.00  0.00     0.000 C 
BRANCH  14  15
ATOM     15  C   UNL     1     161.324 174.882 187.362  1.00  0.00     0.000 C 
BRANCH  15  16
ATOM     16  C   UNL     1     162.819 174.892 187.721  1.00  0.00     0.000 C 
BRANCH  16  17
ATOM     17  C   UNL     1     163.707 174.419 186.557  1.00  0.00     0.000 C 
BRANCH  17  18
ATOM     18  C   UNL     1     164.500 175.571 185.917  1.00  0.00     0.000 C 
BRANCH  18  19
ATOM     19  C   UNL     1     165.700 176.018 186.771  1.00  0.00     0.000 C 
BRANCH  19  20
ATOM     20  C   UNL     1     166.006 177.525 186.717  1.00  0.00     0.006 C 
BRANCH  20  21
ATOM     21  C   UNL     1     167.353 177.886 187.356  1.00  0.00     0.053 C 
BRANCH  21  22
ATOM     22  C   UNL     1     168.432 177.923 186.322  1.00  0.00     0.041 C 
ATOM     23  O   UNL     1     168.881 176.851 185.836  1.00  0.00    -0.550 OA
ATOM     24  O   UNL     1     168.915 179.143 185.862  1.00  0.00    -0.550 OA
ENDBRANCH  21  22
ENDBRANCH  20  21
ENDBRANCH  19  20
ENDBRANCH  18  19
ENDBRANCH  17  18
ENDBRANCH  16  17
ENDBRANCH  15  16
ENDBRANCH  14  15
ENDBRANCH  13  14
ENDBRANCH   1  13
TORSDOF 20
ENDMDL
MODEL 6
REMARK VINA RESULT:    -3.617     10.563     13.101
REMARK INTER + INTRA:         -11.531
REMARK INTER:                  -8.153
REMARK INTRA:                  -3.378
REMARK UNBOUND:                -3.685
REMARK SMILES CCCCCCCCCCCCCCCCCCCCCC(=O)[O-]
REMARK SMILES IDX 12 1 11 2 10 3 9 4 8 5 7 6 6 7 5 8 4 9 3 10 2 11 1 12 13 13
REMARK SMILES IDX 14 14 15 15 16 16 17 17 18 18 19 19 20 20 21 21 22 22 23 23
REMARK SMILES IDX 24 24
REMARK H PARENT
REMARK Flexibility Score: inf
ROOT
ATOM      1  C   UNL     1     164.081 175.882 187.122  1.00  0.00     0.000 C 
ENDROOT
BRANCH   1   2
ATOM      2  C   UNL     1     163.116 174.837 187.708  1.00  0.00     0.000 C 
BRANCH   2   3
ATOM      3  C   UNL     1     162.223 174.182 186.638  1.00  0.00     0.000 C 
BRANCH   3   4
ATOM      4  C   UNL     1     160.714 174.451 186.801  1.00  0.00    -0.000 C 
BRANCH   4   5
ATOM      5  C   UNL     1     159.987 173.332 187.566  1.00  0.00    -0.000 C 
BRANCH   5   6
ATOM      6  C   UNL     1     160.652 171.954 187.392  1.00  0.00    -0.000 C 
BRANCH   6   7
ATOM      7  C   UNL     1     160.773 171.112 188.676  1.00  0.00    -0.000 C 
BRANCH   7   8
ATOM      8  C   UNL     1     162.177 171.169 189.301  1.00  0.00    -0.000 C 
BRANCH   8   9
ATOM      9  C   UNL     1     163.303 170.969 188.269  1.00  0.00    -0.000 C 
BRANCH   9  10
ATOM     10  C   UNL     1     163.360 169.576 187.610  1.00  0.00    -0.000 C 
BRANCH  10  11
ATOM     11  C   UNL     1     163.387 169.580 186.071  1.00  0.00    -0.003 C 
ATOM     12  C   UNL     1     164.099 170.802 185.493  1.00  0.00     0.004 C 
ENDBRANCH  10  11
ENDBRANCH   9  10
ENDBRANCH   8   9
ENDBRANCH   7   8
ENDBRANCH   6   7
ENDBRANCH   5   6
ENDBRANCH   4   5
ENDBRANCH   3   4
ENDBRANCH   2   3
ENDBRANCH   1   2
BRANCH   1  13
ATOM     13  C   UNL     1     163.683 177.323 187.485  1.00  0.00     0.000 C 
BRANCH  13  14
ATOM     14  C   UNL     1     162.383 177.448 188.304  1.00  0.00     0.000 C 
BRANCH  14  15
ATOM     15  C   UNL     1     161.202 178.044 187.508  1.00  0.00     0.000 C 
BRANCH  15  16
ATOM     16  C   UNL     1     161.492 178.111 185.999  1.00  0.00     0.000 C 
BRANCH  16  17
ATOM     17  C   UNL     1     160.207 178.153 185.155  1.00  0.00     0.000 C 
BRANCH  17  18
ATOM     18  C   UNL     1     160.209 177.104 184.030  1.00  0.00     0.000 C 
BRANCH  18  19
ATOM     19  C   UNL     1     161.592 176.465 183.810  1.00  0.00     0.000 C 
BRANCH  19  20
ATOM     20  C   UNL     1     161.577 175.152 183.007  1.00  0.00     0.006 C 
BRANCH  20  21
ATOM     21  C   UNL     1     160.222 174.435 183.060  1.00  0.00     0.053 C 
BRANCH  21  22
ATOM     22  C   UNL     1     160.312 173.091 182.410  1.00  0.00     0.041 C 
ATOM     23  O   UNL     1     160.657 172.083 183.082  1.00  0.00    -0.550 OA
ATOM     24  O   UNL     1     159.974 172.942 181.069  1.00  0.00    -0.550 OA
ENDBRANCH  21  22
ENDBRANCH  20  21
ENDBRANCH  19  20
ENDBRANCH  18  19
ENDBRANCH  17  18
ENDBRANCH  16  17
ENDBRANCH  15  16
ENDBRANCH  14  15
ENDBRANCH  13  14
ENDBRANCH   1  13
TORSDOF 20
ENDMDL
MODEL 7
REMARK VINA RESULT:    -3.598     10.871     12.915
REMARK INTER + INTRA:         -11.490
REMARK INTER:                  -7.848
REMARK INTRA:                  -3.643
REMARK UNBOUND:                -3.685
REMARK SMILES CCCCCCCCCCCCCCCCCCCCCC(=O)[O-]
REMARK SMILES IDX 12 1 11 2 10 3 9 4 8 5 7 6 6 7 5 8 4 9 3 10 2 11 1 12 13 13
REMARK SMILES IDX 14 14 15 15 16 16 17 17 18 18 19 19 20 20 21 21 22 22 23 23
REMARK SMILES IDX 24 24
REMARK H PARENT
REMARK Flexibility Score: inf
ROOT
ATOM      1  C   UNL     1     161.223 177.798 187.521  1.00  0.00     0.000 C 
ENDROOT
BRANCH   1   2
ATOM      2  C   UNL     1     162.400 177.155 188.276  1.00  0.00     0.000 C 
BRANCH   2   3
ATOM      3  C   UNL     1     163.492 176.616 187.332  1.00  0.00     0.000 C 
BRANCH   3   4
ATOM      4  C   UNL     1     163.793 175.112 187.481  1.00  0.00    -0.000 C 
BRANCH   4   5
ATOM      5  C   UNL     1     164.015 174.411 186.130  1.00  0.00    -0.000 C 
BRANCH   5   6
ATOM      6  C   UNL     1     162.936 174.757 185.087  1.00  0.00    -0.000 C 
BRANCH   6   7
ATOM      7  C   UNL     1     162.152 173.557 184.524  1.00  0.00    -0.000 C 
BRANCH   7   8
ATOM      8  C   UNL     1     160.683 173.531 184.980  1.00  0.00    -0.000 C 
BRANCH   8   9
ATOM      9  C   UNL     1     160.420 174.424 186.208  1.00  0.00    -0.000 C 
BRANCH   9  10
ATOM     10  C   UNL     1     160.208 173.675 187.540  1.00  0.00    -0.000 C 
BRANCH  10  11
ATOM     11  C   UNL     1     160.618 172.192 187.530  1.00  0.00    -0.003 C 
ATOM     12  C   UNL     1     161.984 171.949 188.169  1.00  0.00     0.004 C 
ENDBRANCH  10  11
ENDBRANCH   9  10
ENDBRANCH   8   9
ENDBRANCH   7   8
ENDBRANCH   6   7
ENDBRANCH   5   6
ENDBRANCH   4   5
ENDBRANCH   3   4
ENDBRANCH   2   3
ENDBRANCH   1   2
BRANCH   1  13
ATOM     13  C   UNL     1     161.524 178.009 186.027  1.00  0.00     0.000 C 
BRANCH  13  14
ATOM     14  C   UNL     1     160.282 178.217 185.140  1.00  0.00     0.000 C 
BRANCH  14  15
ATOM     15  C   UNL     1     160.211 177.254 183.935  1.00  0.00     0.000 C 
BRANCH  15  16
ATOM     16  C   UNL     1     161.519 177.234 183.128  1.00  0.00     0.000 C 
BRANCH  16  17
ATOM     17  C   UNL     1     161.331 176.650 181.717  1.00  0.00     0.000 C 
BRANCH  17  18
ATOM     18  C   UNL     1     160.298 175.511 181.686  1.00  0.00     0.000 C 
BRANCH  18  19
ATOM     19  C   UNL     1     160.875 174.195 181.133  1.00  0.00     0.000 C 
BRANCH  19  20
ATOM     20  C   UNL     1     161.714 174.346 179.851  1.00  0.00     0.006 C 
BRANCH  20  21
ATOM     21  C   UNL     1     160.862 174.647 178.611  1.00  0.00     0.053 C 
BRANCH  21  22
ATOM     22  C   UNL     1     160.540 173.384 177.876  1.00  0.00     0.041 C 
ATOM     23  O   UNL     1     159.875 173.425 176.807  1.00  0.00    -0.550 OA
ATOM     24  O   UNL     1     161.012 172.164 178.348  1.00  0.00    -0.550 OA
ENDBRANCH  21  22
ENDBRANCH  20  21
ENDBRANCH  19  20
ENDBRANCH  18  19
ENDBRANCH  17  18
ENDBRANCH  16  17
ENDBRANCH  15  16
ENDBRANCH  14  15
ENDBRANCH  13  14
ENDBRANCH   1  13
TORSDOF 20
ENDMDL
MODEL 8
REMARK VINA RESULT:    -3.590      9.433     12.901
REMARK INTER + INTRA:         -11.472
REMARK INTER:                  -8.189
REMARK INTRA:                  -3.284
REMARK UNBOUND:                -3.685
REMARK SMILES CCCCCCCCCCCCCCCCCCCCCC(=O)[O-]
REMARK SMILES IDX 12 1 11 2 10 3 9 4 8 5 7 6 6 7 5 8 4 9 3 10 2 11 1 12 13 13
REMARK SMILES IDX 14 14 15 15 16 16 17 17 18 18 19 19 20 20 21 21 22 22 23 23
REMARK SMILES IDX 24 24
REMARK H PARENT
REMARK Flexibility Score: inf
ROOT
ATOM      1  C   UNL     1     161.150 178.244 185.813  1.00  0.00     0.000 C 
ENDROOT
BRANCH   1   2
ATOM      2  C   UNL     1     160.739 177.955 187.268  1.00  0.00     0.000 C 
BRANCH   2   3
ATOM      3  C   UNL     1     161.934 177.565 188.159  1.00  0.00     0.000 C 
BRANCH   3   4
ATOM      4  C   UNL     1     163.319 177.816 187.530  1.00  0.00    -0.000 C 
BRANCH   4   5
ATOM      5  C   UNL     1     163.981 176.528 187.011  1.00  0.00    -0.000 C 
BRANCH   5   6
ATOM      6  C   UNL     1     164.959 176.781 185.848  1.00  0.00    -0.000 C 
BRANCH   6   7
ATOM      7  C   UNL     1     164.636 178.002 184.966  1.00  0.00    -0.000 C 
BRANCH   7   8
ATOM      8  C   UNL     1     164.348 177.626 183.502  1.00  0.00    -0.000 C 
BRANCH   8   9
ATOM      9  C   UNL     1     164.990 176.288 183.088  1.00  0.00    -0.000 C 
BRANCH   9  10
ATOM     10  C   UNL     1     164.102 175.364 182.228  1.00  0.00    -0.000 C 
BRANCH  10  11
ATOM     11  C   UNL     1     163.245 176.080 181.170  1.00  0.00    -0.003 C 
ATOM     12  C   UNL     1     163.240 175.358 179.823  1.00  0.00     0.004 C 
ENDBRANCH  10  11
ENDBRANCH   9  10
ENDBRANCH   8   9
ENDBRANCH   7   8
ENDBRANCH   6   7
ENDBRANCH   5   6
ENDBRANCH   4   5
ENDBRANCH   3   4
ENDBRANCH   2   3
ENDBRANCH   1   2
BRANCH   1  13
ATOM     13  C   UNL     1     160.173 177.634 184.792  1.00  0.00     0.000 C 
BRANCH  13  14
ATOM     14  C   UNL     1     160.772 176.523 183.908  1.00  0.00     0.000 C 
BRANCH  14  15
ATOM     15  C   UNL     1     161.550 175.451 184.701  1.00  0.00     0.000 C 
BRANCH  15  16
ATOM     16  C   UNL     1     160.646 174.296 185.161  1.00  0.00     0.000 C 
BRANCH  16  17
ATOM     17  C   UNL     1     160.279 174.393 186.651  1.00  0.00     0.000 C 
BRANCH  17  18
ATOM     18  C   UNL     1     161.430 173.950 187.570  1.00  0.00     0.000 C 
BRANCH  18  19
ATOM     19  C   UNL     1     161.903 172.513 187.285  1.00  0.00     0.000 C 
BRANCH  19  20
ATOM     20  C   UNL     1     161.627 171.506 188.416  1.00  0.00     0.006 C 
BRANCH  20  21
ATOM     21  C   UNL     1     160.667 170.385 187.997  1.00  0.00     0.053 C 
BRANCH  21  22
ATOM     22  C   UNL     1     160.985 169.911 186.614  1.00  0.00     0.041 C 
ATOM     23  O   UNL     1     160.219 170.193 185.655  1.00  0.00    -0.550 OA
ATOM     24  O   UNL     1     162.151 169.192 186.375  1.00  0.00    -0.550 OA
ENDBRANCH  21  22
ENDBRANCH  20  21
ENDBRANCH  19  20
ENDBRANCH  18  19
ENDBRANCH  17  18
ENDBRANCH  16  17
ENDBRANCH  15  16
ENDBRANCH  14  15
ENDBRANCH  13  14
ENDBRANCH   1  13
TORSDOF 20
ENDMDL
MODEL 9
REMARK VINA RESULT:    -3.582      9.648     13.030
REMARK INTER + INTRA:         -11.455
REMARK INTER:                  -7.567
REMARK INTRA:                  -3.888
REMARK UNBOUND:                -3.685
REMARK SMILES CCCCCCCCCCCCCCCCCCCCCC(=O)[O-]
REMARK SMILES IDX 12 1 11 2 10 3 9 4 8 5 7 6 6 7 5 8 4 9 3 10 2 11 1 12 13 13
REMARK SMILES IDX 14 14 15 15 16 16 17 17 18 18 19 19 20 20 21 21 22 22 23 23
REMARK SMILES IDX 24 24
REMARK H PARENT
REMARK Flexibility Score: inf
ROOT
ATOM      1  C   UNL     1     161.759 174.358 184.887  1.00  0.00     0.000 C 
ENDROOT
BRANCH   1   2
ATOM      2  C   UNL     1     160.738 175.300 185.552  1.00  0.00     0.000 C 
BRANCH   2   3
ATOM      3  C   UNL     1     160.619 176.655 184.830  1.00  0.00     0.000 C 
BRANCH   3   4
ATOM      4  C   UNL     1     160.620 177.886 185.759  1.00  0.00    -0.000 C 
BRANCH   4   5
ATOM      5  C   UNL     1     160.630 177.508 187.250  1.00  0.00    -0.000 C 
BRANCH   5   6
ATOM      6  C   UNL     1     161.936 177.904 187.962  1.00  0.00    -0.000 C 
BRANCH   6   7
ATOM      7  C   UNL     1     162.961 176.768 188.142  1.00  0.00    -0.000 C 
BRANCH   7   8
ATOM      8  C   UNL     1     164.100 176.816 187.109  1.00  0.00    -0.000 C 
BRANCH   8   9
ATOM      9  C   UNL     1     164.271 178.207 186.469  1.00  0.00    -0.000 C 
BRANCH   9  10
ATOM     10  C   UNL     1     164.053 178.267 184.942  1.00  0.00    -0.000 C 
BRANCH  10  11
ATOM     11  C   UNL     1     164.357 176.962 184.186  1.00  0.00    -0.003 C 
ATOM     12  C   UNL     1     163.855 176.982 182.743  1.00  0.00     0.004 C 
ENDBRANCH  10  11
ENDBRANCH   9  10
ENDBRANCH   8   9
ENDBRANCH   7   8
ENDBRANCH   6   7
ENDBRANCH   5   6
ENDBRANCH   4   5
ENDBRANCH   3   4
ENDBRANCH   2   3
ENDBRANCH   1   2
BRANCH   1  13
ATOM     13  C   UNL     1     162.675 173.664 185.909  1.00  0.00     0.000 C 
BRANCH  13  14
ATOM     14  C   UNL     1     162.034 173.413 187.288  1.00  0.00     0.000 C 
BRANCH  14  15
ATOM     15  C   UNL     1     162.940 172.630 188.261  1.00  0.00     0.000 C 
BRANCH  15  16
ATOM     16  C   UNL     1     162.299 171.309 188.718  1.00  0.00     0.000 C 
BRANCH  16  17
ATOM     17  C   UNL     1     160.855 171.150 188.213  1.00  0.00     0.000 C 
BRANCH  17  18
ATOM     18  C   UNL     1     160.687 169.932 187.289  1.00  0.00     0.000 C 
BRANCH  18  19
ATOM     19  C   UNL     1     160.680 170.310 185.797  1.00  0.00     0.000 C 
BRANCH  19  20
ATOM     20  C   UNL     1     161.987 169.998 185.045  1.00  0.00     0.006 C 
BRANCH  20  21
ATOM     21  C   UNL     1     161.801 169.932 183.524  1.00  0.00     0.053 C 
BRANCH  21  22
ATOM     22  C   UNL     1     162.116 171.253 182.898  1.00  0.00     0.041 C 
ATOM     23  O   UNL     1     161.208 171.921 182.336  1.00  0.00    -0.550 OA
ATOM     24  O   UNL     1     163.405 171.770 182.974  1.00  0.00    -0.550 OA
ENDBRANCH  21  22
ENDBRANCH  20  21
ENDBRANCH  19  20
ENDBRANCH  18  19
ENDBRANCH  17  18
ENDBRANCH  16  17
ENDBRANCH  15  16
ENDBRANCH  14  15
ENDBRANCH  13  14
ENDBRANCH   1  13
TORSDOF 20
ENDMDL
