MODEL 1
REMARK VINA RESULT:    -3.892      0.000      0.000
REMARK INTER + INTRA:          -5.975
REMARK INTER:                  -5.939
REMARK INTRA:                  -0.036
REMARK UNBOUND:                -0.036
REMARK SMILES CC1=CCC[C@@H](C)C(=O)C[C@H](C(C)C)C(=O)C1
REMARK SMILES IDX 8 1 9 2 6 3 7 4 5 5 4 6 3 7 2 8 1 9 10 11 11 12 15 13 16 14
REMARK SMILES IDX 17 15 12 17 13 18 14 19
REMARK H PARENT
REMARK Flexibility Score: 70.00
ROOT
ATOM      1  C   UNL     1      11.027 -11.849  17.974  1.00  0.00     0.136 C 
ATOM      2  O   UNL     1       9.961 -11.970  18.561  1.00  0.00    -0.299 OA
ENDROOT
BRANCH   1   3
ATOM      3  C   UNL     1      11.889 -10.629  18.227  1.00  0.00     0.053 C 
ATOM      4  C   UNL     1      11.579 -10.092  19.630  1.00  0.00     0.016 C 
BRANCH   3   5
ATOM      5  C   UNL     1      11.675  -9.515  17.173  1.00  0.00     0.015 C 
BRANCH   5   6
ATOM      6  C   UNL     1      12.570  -9.642  15.930  1.00  0.00     0.028 C 
BRANCH   6   7
ATOM      7  C   UNL     1      11.779  -9.735  14.647  1.00  0.00    -0.028 C 
ATOM      8  C   UNL     1      11.558 -10.861  13.930  1.00  0.00    -0.070 CG0
ATOM      9  C   UNL     1      10.867 -10.717  12.594  1.00  0.00     0.039 C 
ATOM     10  G   UNL     1      12.057 -12.232  14.353  1.00  0.00     0.000 G0
ENDBRANCH   6   7
ENDBRANCH   5   6
ENDBRANCH   3   5
ENDBRANCH   1   3
BRANCH   1  11
ATOM     11  C   UNL     1      11.529 -12.990  17.119  1.00  0.00     0.087 C 
BRANCH  11  12
ATOM     12  C   UNL     1      10.484 -13.473  16.075  1.00  0.00     0.066 C 
BRANCH  12  13
ATOM     13  C   UNL     1      10.971 -13.225  14.646  1.00  0.00     0.140 C 
ATOM     14  O   UNL     1      10.468 -13.826  13.708  1.00  0.00    -0.299 OA
BRANCH  13  15
ATOM     15  C   UNL     1      12.076 -12.240  14.345  1.00  0.00     0.106 CG0
ATOM     16  G   UNL     1      11.540 -10.877  13.945  1.00  0.00     0.000 G0
ENDBRANCH  13  15
ENDBRANCH  12  13
BRANCH  12  17
ATOM     17  C   UNL     1      10.049 -14.960  16.301  1.00  0.00    -0.006 C 
ATOM     18  C   UNL     1       9.371 -15.161  17.666  1.00  0.00     0.008 C 
ATOM     19  C   UNL     1      11.202 -15.965  16.126  1.00  0.00     0.008 C 
ENDBRANCH  12  17
ENDBRANCH  11  12
ENDBRANCH   1  11
TORSDOF 1
ENDMDL
MODEL 2
REMARK VINA RESULT:    -3.456     17.741     19.430
REMARK INTER + INTRA:          -5.310
REMARK INTER:                  -5.934
REMARK INTRA:                   0.625
REMARK UNBOUND:                -0.036
REMARK SMILES CC1=CCC[C@@H](C)C(=O)C[C@H](C(C)C)C(=O)C1
REMARK SMILES IDX 8 1 9 2 6 3 7 4 5 5 4 6 3 7 2 8 1 9 10 11 11 12 15 13 16 14
REMARK SMILES IDX 17 15 12 17 13 18 14 19
REMARK H PARENT
REMARK Flexibility Score: 70.00
ROOT
ATOM      1  C   UNL     1      -1.602 -25.846  13.842  1.00  0.00     0.136 C 
ATOM      2  O   UNL     1      -2.731 -26.283  14.017  1.00  0.00    -0.299 OA
ENDROOT
BRANCH   1   3
ATOM      3  C   UNL     1      -0.965 -24.967  14.900  1.00  0.00     0.053 C 
ATOM      4  C   UNL     1      -1.334 -23.507  14.612  1.00  0.00     0.016 C 
BRANCH   3   5
ATOM      5  C   UNL     1       0.574 -25.124  14.961  1.00  0.00     0.015 C 
BRANCH   5   6
ATOM      6  C   UNL     1       1.069 -26.065  16.071  1.00  0.00     0.028 C 
BRANCH   6   7
ATOM      7  C   UNL     1      -0.054 -26.831  16.730  1.00  0.00    -0.028 C 
ATOM      8  C   UNL     1      -0.496 -28.058  16.371  1.00  0.00    -0.070 CG0
ATOM      9  C   UNL     1      -1.730 -28.588  17.062  1.00  0.00     0.039 C 
ATOM     10  G   UNL     1       0.123 -28.873  15.249  1.00  0.00     0.000 G0
ENDBRANCH   6   7
ENDBRANCH   5   6
ENDBRANCH   3   5
ENDBRANCH   1   3
BRANCH   1  11
ATOM     11  C   UNL     1      -0.813 -26.311  12.641  1.00  0.00     0.087 C 
BRANCH  11  12
ATOM     12  C   UNL     1       0.170 -27.470  12.971  1.00  0.00     0.066 C 
BRANCH  12  13
ATOM     13  C   UNL     1      -0.484 -28.509  13.884  1.00  0.00     0.140 C 
ATOM     14  O   UNL     1      -1.510 -29.078  13.538  1.00  0.00    -0.299 OA
BRANCH  13  15
ATOM     15  C   UNL     1       0.105 -28.867  15.227  1.00  0.00     0.106 CG0
ATOM     16  G   UNL     1      -0.519 -28.072  16.361  1.00  0.00     0.000 G0
ENDBRANCH  13  15
ENDBRANCH  12  13
BRANCH  12  17
ATOM     17  C   UNL     1       0.790 -28.118  11.687  1.00  0.00    -0.006 C 
ATOM     18  C   UNL     1       1.909 -29.116  12.029  1.00  0.00     0.008 C 
ATOM     19  C   UNL     1       1.292 -27.084  10.664  1.00  0.00     0.008 C 
ENDBRANCH  12  17
ENDBRANCH  11  12
ENDBRANCH   1  11
TORSDOF 1
ENDMDL
MODEL 3
REMARK VINA RESULT:    -3.437     17.096     19.918
REMARK INTER + INTRA:          -5.281
REMARK INTER:                  -5.103
REMARK INTRA:                  -0.178
REMARK UNBOUND:                -0.036
REMARK SMILES CC1=CCC[C@@H](C)C(=O)C[C@H](C(C)C)C(=O)C1
REMARK SMILES IDX 8 1 9 2 6 3 7 4 5 5 4 6 3 7 2 8 1 9 10 11 11 12 15 13 16 14
REMARK SMILES IDX 17 15 12 17 13 18 14 19
REMARK H PARENT
REMARK Flexibility Score: 70.00
ROOT
ATOM      1  C   UNL     1      -2.523 -26.867  13.317  1.00  0.00     0.136 C 
ATOM      2  O   UNL     1      -3.590 -26.299  13.130  1.00  0.00    -0.299 OA
ENDROOT
BRANCH   1   3
ATOM      3  C   UNL     1      -2.459 -28.380  13.264  1.00  0.00     0.053 C 
ATOM      4  C   UNL     1      -3.183 -28.858  12.000  1.00  0.00     0.016 C 
BRANCH   3   5
ATOM      5  C   UNL     1      -3.077 -29.050  14.516  1.00  0.00     0.015 C 
BRANCH   5   6
ATOM      6  C   UNL     1      -2.307 -28.784  15.819  1.00  0.00     0.028 C 
BRANCH   6   7
ATOM      7  C   UNL     1      -0.839 -29.124  15.710  1.00  0.00    -0.028 C 
ATOM      8  C   UNL     1       0.191 -28.317  16.055  1.00  0.00    -0.070 CG0
ATOM      9  C   UNL     1       1.589 -28.787  15.727  1.00  0.00     0.039 C 
ATOM     10  G   UNL     1       0.004 -26.935  16.655  1.00  0.00     0.000 G0
ENDBRANCH   6   7
ENDBRANCH   5   6
ENDBRANCH   3   5
ENDBRANCH   1   3
BRANCH   1  11
ATOM     11  C   UNL     1      -1.265 -26.041  13.452  1.00  0.00     0.087 C 
BRANCH  11  12
ATOM     12  C   UNL     1      -1.135 -25.353  14.841  1.00  0.00     0.066 C 
BRANCH  12  13
ATOM     13  C   UNL     1       0.100 -25.852  15.593  1.00  0.00     0.140 C 
ATOM     14  O   UNL     1       1.204 -25.387  15.346  1.00  0.00    -0.299 OA
BRANCH  13  15
ATOM     15  C   UNL     1       0.003 -26.921  16.655  1.00  0.00     0.106 CG0
ATOM     16  G   UNL     1       0.184 -28.317  16.085  1.00  0.00     0.000 G0
ENDBRANCH  13  15
ENDBRANCH  12  13
BRANCH  12  17
ATOM     17  C   UNL     1      -1.179 -23.791  14.746  1.00  0.00    -0.006 C 
ATOM     18  C   UNL     1      -1.249 -23.132  16.133  1.00  0.00     0.008 C 
ATOM     19  C   UNL     1      -2.314 -23.266  13.848  1.00  0.00     0.008 C 
ENDBRANCH  12  17
ENDBRANCH  11  12
ENDBRANCH   1  11
TORSDOF 1
ENDMDL
MODEL 4
REMARK VINA RESULT:    -3.405     17.696     19.897
REMARK INTER + INTRA:          -5.233
REMARK INTER:                  -5.337
REMARK INTRA:                   0.104
REMARK UNBOUND:                -0.036
REMARK SMILES CC1=CCC[C@@H](C)C(=O)C[C@H](C(C)C)C(=O)C1
REMARK SMILES IDX 8 1 9 2 6 3 7 4 5 5 4 6 3 7 2 8 1 9 10 11 11 12 15 13 16 14
REMARK SMILES IDX 17 15 12 17 13 18 14 19
REMARK H PARENT
REMARK Flexibility Score: 70.00
ROOT
ATOM      1  C   UNL     1      -1.062 -25.251  13.851  1.00  0.00     0.136 C 
ATOM      2  O   UNL     1      -1.806 -24.481  14.442  1.00  0.00    -0.299 OA
ENDROOT
BRANCH   1   3
ATOM      3  C   UNL     1       0.439 -25.120  14.015  1.00  0.00     0.053 C 
ATOM      4  C   UNL     1       1.111 -25.493  12.688  1.00  0.00     0.016 C 
BRANCH   3   5
ATOM      5  C   UNL     1       0.996 -26.002  15.159  1.00  0.00     0.015 C 
BRANCH   5   6
ATOM      6  C   UNL     1       0.267 -25.828  16.502  1.00  0.00     0.028 C 
BRANCH   6   7
ATOM      7  C   UNL     1      -0.039 -27.145  17.174  1.00  0.00    -0.028 C 
ATOM      8  C   UNL     1      -1.180 -27.861  17.036  1.00  0.00    -0.070 CG0
ATOM      9  C   UNL     1      -1.353 -29.079  17.912  1.00  0.00     0.039 C 
ATOM     10  G   UNL     1      -2.322 -27.443  16.126  1.00  0.00     0.000 G0
ENDBRANCH   6   7
ENDBRANCH   5   6
ENDBRANCH   3   5
ENDBRANCH   1   3
BRANCH   1  11
ATOM     11  C   UNL     1      -1.661 -26.408  13.086  1.00  0.00     0.087 C 
BRANCH  11  12
ATOM     12  C   UNL     1      -1.307 -27.792  13.701  1.00  0.00     0.066 C 
BRANCH  12  13
ATOM     13  C   UNL     1      -2.296 -28.179  14.803  1.00  0.00     0.140 C 
ATOM     14  O   UNL     1      -3.097 -29.085  14.624  1.00  0.00    -0.299 OA
BRANCH  13  15
ATOM     15  C   UNL     1      -2.319 -27.466  16.134  1.00  0.00     0.106 CG0
ATOM     16  G   UNL     1      -1.163 -27.878  17.029  1.00  0.00     0.000 G0
ENDBRANCH  13  15
ENDBRANCH  12  13
BRANCH  12  17
ATOM     17  C   UNL     1      -1.160 -28.914  12.618  1.00  0.00    -0.006 C 
ATOM     18  C   UNL     1       0.275 -29.002  12.073  1.00  0.00     0.008 C 
ATOM     19  C   UNL     1      -2.164 -28.776  11.459  1.00  0.00     0.008 C 
ENDBRANCH  12  17
ENDBRANCH  11  12
ENDBRANCH   1  11
TORSDOF 1
ENDMDL
MODEL 5
REMARK VINA RESULT:    -3.342      1.879      3.093
REMARK INTER + INTRA:          -5.136
REMARK INTER:                  -5.254
REMARK INTRA:                   0.118
REMARK UNBOUND:                -0.036
REMARK SMILES CC1=CCC[C@@H](C)C(=O)C[C@H](C(C)C)C(=O)C1
REMARK SMILES IDX 8 1 9 2 6 3 7 4 5 5 4 6 3 7 2 8 1 9 10 11 11 12 15 13 16 14
REMARK SMILES IDX 17 15 12 17 13 18 14 19
REMARK H PARENT
REMARK Flexibility Score: 70.00
ROOT
ATOM      1  C   UNL     1      10.300 -14.297  15.972  1.00  0.00     0.136 C 
ATOM      2  O   UNL     1       9.124 -14.390  15.649  1.00  0.00    -0.299 OA
ENDROOT
BRANCH   1   3
ATOM      3  C   UNL     1      10.666 -14.104  17.429  1.00  0.00     0.053 C 
ATOM      4  C   UNL     1       9.669 -14.886  18.293  1.00  0.00     0.016 C 
BRANCH   3   5
ATOM      5  C   UNL     1      10.679 -12.614  17.851  1.00  0.00     0.015 C 
BRANCH   5   6
ATOM      6  C   UNL     1      11.747 -11.766  17.141  1.00  0.00     0.028 C 
BRANCH   6   7
ATOM      7  C   UNL     1      11.155 -10.783  16.160  1.00  0.00    -0.028 C 
ATOM      8  C   UNL     1      11.326 -10.799  14.818  1.00  0.00    -0.070 CG0
ATOM      9  C   UNL     1      10.772  -9.638  14.026  1.00  0.00     0.039 C 
ATOM     10  G   UNL     1      12.127 -11.866  14.091  1.00  0.00     0.000 G0
ENDBRANCH   6   7
ENDBRANCH   5   6
ENDBRANCH   3   5
ENDBRANCH   1   3
BRANCH   1  11
ATOM     11  C   UNL     1      11.368 -14.524  14.927  1.00  0.00     0.087 C 
BRANCH  11  12
ATOM     12  C   UNL     1      10.905 -14.143  13.492  1.00  0.00     0.066 C 
BRANCH  12  13
ATOM     13  C   UNL     1      11.282 -12.700  13.152  1.00  0.00     0.140 C 
ATOM     14  O   UNL     1      10.889 -12.186  12.114  1.00  0.00    -0.299 OA
BRANCH  13  15
ATOM     15  C   UNL     1      12.140 -11.867  14.073  1.00  0.00     0.106 CG0
ATOM     16  G   UNL     1      11.332 -10.828  14.832  1.00  0.00     0.000 G0
ENDBRANCH  13  15
ENDBRANCH  12  13
BRANCH  12  17
ATOM     17  C   UNL     1      11.408 -15.156  12.408  1.00  0.00    -0.006 C 
ATOM     18  C   UNL     1      10.292 -16.110  11.950  1.00  0.00     0.008 C 
ATOM     19  C   UNL     1      12.646 -15.957  12.850  1.00  0.00     0.008 C 
ENDBRANCH  12  17
ENDBRANCH  11  12
ENDBRANCH   1  11
TORSDOF 1
ENDMDL
MODEL 6
REMARK VINA RESULT:    -3.197     17.396     19.543
REMARK INTER + INTRA:          -4.915
REMARK INTER:                  -5.156
REMARK INTRA:                   0.241
REMARK UNBOUND:                -0.036
REMARK SMILES CC1=CCC[C@@H](C)C(=O)C[C@H](C(C)C)C(=O)C1
REMARK SMILES IDX 8 1 9 2 6 3 7 4 5 5 4 6 3 7 2 8 1 9 10 11 11 12 15 13 16 14
REMARK SMILES IDX 17 15 12 17 13 18 14 19
REMARK H PARENT
REMARK Flexibility Score: 70.00
ROOT
ATOM      1  C   UNL     1      -2.230 -25.381  14.183  1.00  0.00     0.136 C 
ATOM      2  O   UNL     1      -2.959 -24.704  13.472  1.00  0.00    -0.299 OA
ENDROOT
BRANCH   1   3
ATOM      3  C   UNL     1      -1.049 -24.736  14.879  1.00  0.00     0.053 C 
ATOM      4  C   UNL     1      -1.537 -23.479  15.610  1.00  0.00     0.016 C 
BRANCH   3   5
ATOM      5  C   UNL     1       0.096 -24.370  13.902  1.00  0.00     0.015 C 
BRANCH   5   6
ATOM      6  C   UNL     1       1.130 -25.489  13.695  1.00  0.00     0.028 C 
BRANCH   6   7
ATOM      7  C   UNL     1       0.946 -26.220  12.387  1.00  0.00    -0.028 C 
ATOM      8  C   UNL     1       0.765 -27.553  12.240  1.00  0.00    -0.070 CG0
ATOM      9  C   UNL     1       0.751 -28.108  10.836  1.00  0.00     0.039 C 
ATOM     10  G   UNL     1       0.680 -28.517  13.411  1.00  0.00     0.000 G0
ENDBRANCH   6   7
ENDBRANCH   5   6
ENDBRANCH   3   5
ENDBRANCH   1   3
BRANCH   1  11
ATOM     11  C   UNL     1      -2.608 -26.816  14.467  1.00  0.00     0.087 C 
BRANCH  11  12
ATOM     12  C   UNL     1      -1.884 -27.831  13.537  1.00  0.00     0.066 C 
BRANCH  12  13
ATOM     13  C   UNL     1      -0.615 -28.379  14.193  1.00  0.00     0.140 C 
ATOM     14  O   UNL     1      -0.617 -28.697  15.373  1.00  0.00    -0.299 OA
BRANCH  13  15
ATOM     15  C   UNL     1       0.670 -28.544  13.417  1.00  0.00     0.106 CG0
ATOM     16  G   UNL     1       0.763 -27.584  12.244  1.00  0.00     0.000 G0
ENDBRANCH  13  15
ENDBRANCH  12  13
BRANCH  12  17
ATOM     17  C   UNL     1      -2.832 -28.974  13.039  1.00  0.00    -0.006 C 
ATOM     18  C   UNL     1      -2.799 -29.125  11.510  1.00  0.00     0.008 C 
ATOM     19  C   UNL     1      -4.284 -28.818  13.528  1.00  0.00     0.008 C 
ENDBRANCH  12  17
ENDBRANCH  11  12
ENDBRANCH   1  11
TORSDOF 1
ENDMDL
MODEL 7
REMARK VINA RESULT:    -3.130      1.922      3.041
REMARK INTER + INTRA:          -4.813
REMARK INTER:                  -4.974
REMARK INTRA:                   0.161
REMARK UNBOUND:                -0.036
REMARK SMILES CC1=CCC[C@@H](C)C(=O)C[C@H](C(C)C)C(=O)C1
REMARK SMILES IDX 8 1 9 2 6 3 7 4 5 5 4 6 3 7 2 8 1 9 10 11 11 12 15 13 16 14
REMARK SMILES IDX 17 15 12 17 13 18 14 19
REMARK H PARENT
REMARK Flexibility Score: 70.00
ROOT
ATOM      1  C   UNL     1      10.515 -14.838  16.684  1.00  0.00     0.136 C 
ATOM      2  O   UNL     1       9.480 -15.274  16.199  1.00  0.00    -0.299 OA
ENDROOT
BRANCH   1   3
ATOM      3  C   UNL     1      10.449 -13.857  17.837  1.00  0.00     0.053 C 
ATOM      4  C   UNL     1       9.193 -14.155  18.663  1.00  0.00     0.016 C 
BRANCH   3   5
ATOM      5  C   UNL     1      10.439 -12.382  17.368  1.00  0.00     0.015 C 
BRANCH   5   6
ATOM      6  C   UNL     1      11.704 -11.953  16.606  1.00  0.00     0.028 C 
BRANCH   6   7
ATOM      7  C   UNL     1      11.434 -11.645  15.153  1.00  0.00    -0.028 C 
ATOM      8  C   UNL     1      11.941 -12.315  14.091  1.00  0.00    -0.070 CG0
ATOM      9  C   UNL     1      11.669 -11.756  12.715  1.00  0.00     0.039 C 
ATOM     10  G   UNL     1      12.845 -13.528  14.225  1.00  0.00     0.000 G0
ENDBRANCH   6   7
ENDBRANCH   5   6
ENDBRANCH   3   5
ENDBRANCH   1   3
BRANCH   1  11
ATOM     11  C   UNL     1      11.838 -15.400  16.217  1.00  0.00     0.087 C 
BRANCH  11  12
ATOM     12  C   UNL     1      11.795 -15.920  14.752  1.00  0.00     0.066 C 
BRANCH  12  13
ATOM     13  C   UNL     1      12.202 -14.827  13.763  1.00  0.00     0.140 C 
ATOM     14  O   UNL     1      12.000 -14.970  12.565  1.00  0.00    -0.299 OA
BRANCH  13  15
ATOM     15  C   UNL     1      12.860 -13.547  14.221  1.00  0.00     0.106 CG0
ATOM     16  G   UNL     1      11.939 -12.347  14.090  1.00  0.00     0.000 G0
ENDBRANCH  13  15
ENDBRANCH  12  13
BRANCH  12  17
ATOM     17  C   UNL     1      12.624 -17.234  14.555  1.00  0.00    -0.006 C 
ATOM     18  C   UNL     1      11.982 -18.169  13.517  1.00  0.00     0.008 C 
ATOM     19  C   UNL     1      12.883 -17.994  15.869  1.00  0.00     0.008 C 
ENDBRANCH  12  17
ENDBRANCH  11  12
ENDBRANCH   1  11
TORSDOF 1
ENDMDL
MODEL 8
REMARK VINA RESULT:    -2.876     17.735     19.511
REMARK INTER + INTRA:          -4.425
REMARK INTER:                  -5.450
REMARK INTRA:                   1.025
REMARK UNBOUND:                -0.036
REMARK SMILES CC1=CCC[C@@H](C)C(=O)C[C@H](C(C)C)C(=O)C1
REMARK SMILES IDX 8 1 9 2 6 3 7 4 5 5 4 6 3 7 2 8 1 9 10 11 11 12 15 13 16 14
REMARK SMILES IDX 17 15 12 17 13 18 14 19
REMARK H PARENT
REMARK Flexibility Score: 70.00
ROOT
ATOM      1  C   UNL     1      -2.078 -25.892  14.525  1.00  0.00     0.136 C 
ATOM      2  O   UNL     1      -2.781 -25.664  13.551  1.00  0.00    -0.299 OA
ENDROOT
BRANCH   1   3
ATOM      3  C   UNL     1      -0.796 -25.110  14.725  1.00  0.00     0.053 C 
ATOM      4  C   UNL     1      -1.125 -23.807  15.463  1.00  0.00     0.016 C 
BRANCH   3   5
ATOM      5  C   UNL     1      -0.071 -24.797  13.392  1.00  0.00     0.015 C 
BRANCH   5   6
ATOM      6  C   UNL     1       1.109 -25.731  13.081  1.00  0.00     0.028 C 
BRANCH   6   7
ATOM      7  C   UNL     1       0.767 -26.781  12.052  1.00  0.00    -0.028 C 
ATOM      8  C   UNL     1       0.304 -28.026  12.311  1.00  0.00    -0.070 CG0
ATOM      9  C   UNL     1       0.165 -28.979  11.147  1.00  0.00     0.039 C 
ATOM     10  G   UNL     1       0.019 -28.536  13.713  1.00  0.00     0.000 G0
ENDBRANCH   6   7
ENDBRANCH   5   6
ENDBRANCH   3   5
ENDBRANCH   1   3
BRANCH   1  11
ATOM     11  C   UNL     1      -2.578 -26.846  15.585  1.00  0.00     0.087 C 
BRANCH  11  12
ATOM     12  C   UNL     1      -1.932 -28.257  15.485  1.00  0.00     0.066 C 
BRANCH  12  13
ATOM     13  C   UNL     1      -1.448 -28.547  14.063  1.00  0.00     0.140 C 
ATOM     14  O   UNL     1      -2.252 -28.767  13.169  1.00  0.00    -0.299 OA
BRANCH  13  15
ATOM     15  C   UNL     1       0.021 -28.571  13.715  1.00  0.00     0.106 CG0
ATOM     16  G   UNL     1       0.291 -28.037  12.318  1.00  0.00     0.000 G0
ENDBRANCH  13  15
ENDBRANCH  12  13
BRANCH  12  17
ATOM     17  C   UNL     1      -0.805 -28.481  16.549  1.00  0.00    -0.006 C 
ATOM     18  C   UNL     1      -1.353 -29.101  17.845  1.00  0.00     0.008 C 
ATOM     19  C   UNL     1      -0.004 -27.205  16.866  1.00  0.00     0.008 C 
ENDBRANCH  12  17
ENDBRANCH  11  12
ENDBRANCH   1  11
TORSDOF 1
ENDMDL
MODEL 9
REMARK VINA RESULT:    -2.846     17.457     20.014
REMARK INTER + INTRA:          -4.379
REMARK INTER:                  -4.929
REMARK INTRA:                   0.550
REMARK UNBOUND:                -0.036
REMARK SMILES CC1=CCC[C@@H](C)C(=O)C[C@H](C(C)C)C(=O)C1
REMARK SMILES IDX 8 1 9 2 6 3 7 4 5 5 4 6 3 7 2 8 1 9 10 11 11 12 15 13 16 14
REMARK SMILES IDX 17 15 12 17 13 18 14 19
REMARK H PARENT
REMARK Flexibility Score: 70.00
ROOT
ATOM      1  C   UNL     1       0.942 -26.434  12.363  1.00  0.00     0.136 C 
ATOM      2  O   UNL     1       0.887 -25.214  12.301  1.00  0.00    -0.299 OA
ENDROOT
BRANCH   1   3
ATOM      3  C   UNL     1       1.575 -27.216  11.230  1.00  0.00     0.053 C 
ATOM      4  C   UNL     1       2.189 -26.225  10.234  1.00  0.00     0.016 C 
BRANCH   3   5
ATOM      5  C   UNL     1       0.568 -28.142  10.505  1.00  0.00     0.015 C 
BRANCH   5   6
ATOM      6  C   UNL     1      -0.166 -29.124  11.433  1.00  0.00     0.028 C 
BRANCH   6   7
ATOM      7  C   UNL     1      -1.660 -28.902  11.454  1.00  0.00    -0.028 C 
ATOM      8  C   UNL     1      -2.427 -28.768  12.561  1.00  0.00    -0.070 CG0
ATOM      9  C   UNL     1      -3.924 -28.702  12.372  1.00  0.00     0.039 C 
ATOM     10  G   UNL     1      -1.866 -28.783  13.972  1.00  0.00     0.000 G0
ENDBRANCH   6   7
ENDBRANCH   5   6
ENDBRANCH   3   5
ENDBRANCH   1   3
BRANCH   1  11
ATOM     11  C   UNL     1       0.507 -27.125  13.635  1.00  0.00     0.087 C 
BRANCH  11  12
ATOM     12  C   UNL     1      -0.696 -26.424  14.328  1.00  0.00     0.066 C 
BRANCH  12  13
ATOM     13  C   UNL     1      -1.831 -27.412  14.602  1.00  0.00     0.140 C 
ATOM     14  O   UNL     1      -2.750 -27.106  15.348  1.00  0.00    -0.299 OA
BRANCH  13  15
ATOM     15  C   UNL     1      -1.860 -28.782  13.969  1.00  0.00     0.106 CG0
ATOM     16  G   UNL     1      -2.437 -28.757  12.564  1.00  0.00     0.000 G0
ENDBRANCH  13  15
ENDBRANCH  12  13
BRANCH  12  17
ATOM     17  C   UNL     1      -0.275 -25.636  15.614  1.00  0.00    -0.006 C 
ATOM     18  C   UNL     1      -1.006 -24.288  15.729  1.00  0.00     0.008 C 
ATOM     19  C   UNL     1       1.246 -25.429  15.731  1.00  0.00     0.008 C 
ENDBRANCH  12  17
ENDBRANCH  11  12
ENDBRANCH   1  11
TORSDOF 1
ENDMDL
