MODEL 1
REMARK VINA RESULT:    -5.022      0.000      0.000
REMARK INTER + INTRA:          -5.670
REMARK INTER:                  -5.462
REMARK INTRA:                  -0.208
REMARK UNBOUND:                -0.208
REMARK SMILES O=C([O-])c1ccccc1O
REMARK SMILES IDX 4 1 9 2 5 3 8 4 6 5 7 6 2 7 1 8 3 9 10 10
REMARK H PARENT 10 11
REMARK Flexibility Score: inf
ROOT
ATOM      1  C   UNL     1     -33.402  11.414 -35.665  1.00  0.00     0.039 A 
ATOM      2  C   UNL     1     -33.707  10.032 -35.736  1.00  0.00     0.124 A 
ATOM      3  C   UNL     1     -33.339  12.161 -36.858  1.00  0.00     0.014 A 
ATOM      4  C   UNL     1     -33.878   9.424 -36.987  1.00  0.00     0.047 A 
ATOM      5  C   UNL     1     -33.532  11.543 -38.095  1.00  0.00     0.001 A 
ATOM      6  C   UNL     1     -33.792  10.174 -38.160  1.00  0.00     0.004 A 
ENDROOT
BRANCH   1   7
ATOM      7  C   UNL     1     -33.108  12.098 -34.386  1.00  0.00     0.075 C 
ATOM      8  O   UNL     1     -33.739  13.140 -34.066  1.00  0.00    -0.545 OA
ATOM      9  O   UNL     1     -32.092  11.643 -33.554  1.00  0.00    -0.545 OA
ENDBRANCH   1   7
BRANCH   2  10
ATOM     10  O   UNL     1     -33.886   9.241 -34.598  1.00  0.00    -0.507 OA
ATOM     11  H   UNL     1     -34.782   9.102 -34.154  1.00  0.00     0.293 HD
ENDBRANCH   2  10
TORSDOF 2
ENDMDL
MODEL 2
REMARK VINA RESULT:    -4.969      2.883      3.731
REMARK INTER + INTRA:          -5.612
REMARK INTER:                  -5.367
REMARK INTRA:                  -0.245
REMARK UNBOUND:                -0.208
REMARK SMILES O=C([O-])c1ccccc1O
REMARK SMILES IDX 4 1 9 2 5 3 8 4 6 5 7 6 2 7 1 8 3 9 10 10
REMARK H PARENT 10 11
REMARK Flexibility Score: inf
ROOT
ATOM      1  C   UNL     1     -33.026  11.318 -37.257  1.00  0.00     0.039 A 
ATOM      2  C   UNL     1     -32.046  10.302 -37.123  1.00  0.00     0.124 A 
ATOM      3  C   UNL     1     -33.522  11.943 -36.097  1.00  0.00     0.014 A 
ATOM      4  C   UNL     1     -31.639   9.897 -35.845  1.00  0.00     0.047 A 
ATOM      5  C   UNL     1     -33.090  11.542 -34.832  1.00  0.00     0.001 A 
ATOM      6  C   UNL     1     -32.157  10.513 -34.705  1.00  0.00     0.004 A 
ENDROOT
BRANCH   1   7
ATOM      7  C   UNL     1     -33.575  11.722 -38.570  1.00  0.00     0.075 C 
ATOM      8  O   UNL     1     -34.077  12.868 -38.721  1.00  0.00    -0.545 OA
ATOM      9  O   UNL     1     -33.609  10.827 -39.633  1.00  0.00    -0.545 OA
ENDBRANCH   1   7
BRANCH   2  10
ATOM     10  O   UNL     1     -31.430   9.700 -38.223  1.00  0.00    -0.507 OA
ATOM     11  H   UNL     1     -31.285  10.172 -39.105  1.00  0.00     0.293 HD
ENDBRANCH   2  10
TORSDOF 2
ENDMDL
MODEL 3
REMARK VINA RESULT:    -4.890      2.263      3.579
REMARK INTER + INTRA:          -5.526
REMARK INTER:                  -5.286
REMARK INTRA:                  -0.241
REMARK UNBOUND:                -0.208
REMARK SMILES O=C([O-])c1ccccc1O
REMARK SMILES IDX 4 1 9 2 5 3 8 4 6 5 7 6 2 7 1 8 3 9 10 10
REMARK H PARENT 10 11
REMARK Flexibility Score: inf
ROOT
ATOM      1  C   UNL     1     -33.108  10.825 -36.302  1.00  0.00     0.039 A 
ATOM      2  C   UNL     1     -32.267  10.080 -35.438  1.00  0.00     0.124 A 
ATOM      3  C   UNL     1     -33.590  12.076 -35.873  1.00  0.00     0.014 A 
ATOM      4  C   UNL     1     -31.984  10.569 -34.156  1.00  0.00     0.047 A 
ATOM      5  C   UNL     1     -33.281  12.559 -34.600  1.00  0.00     0.001 A 
ATOM      6  C   UNL     1     -32.488  11.802 -33.738  1.00  0.00     0.004 A 
ENDROOT
BRANCH   1   7
ATOM      7  C   UNL     1     -33.530  10.321 -37.628  1.00  0.00     0.075 C 
ATOM      8  O   UNL     1     -33.509  11.082 -38.631  1.00  0.00    -0.545 OA
ATOM      9  O   UNL     1     -34.018   9.028 -37.774  1.00  0.00    -0.545 OA
ENDBRANCH   1   7
BRANCH   2  10
ATOM     10  O   UNL     1     -31.667   8.879 -35.823  1.00  0.00    -0.507 OA
ATOM     11  H   UNL     1     -31.574   8.588 -36.786  1.00  0.00     0.293 HD
ENDBRANCH   2  10
TORSDOF 2
ENDMDL
MODEL 4
REMARK VINA RESULT:    -4.693      2.671      4.086
REMARK INTER + INTRA:          -5.312
REMARK INTER:                  -5.080
REMARK INTRA:                  -0.232
REMARK UNBOUND:                -0.208
REMARK SMILES O=C([O-])c1ccccc1O
REMARK SMILES IDX 4 1 9 2 5 3 8 4 6 5 7 6 2 7 1 8 3 9 10 10
REMARK H PARENT 10 11
REMARK Flexibility Score: inf
ROOT
ATOM      1  C   UNL     1     -32.477  10.449 -36.828  1.00  0.00     0.039 A 
ATOM      2  C   UNL     1     -33.207  11.664 -36.792  1.00  0.00     0.124 A 
ATOM      3  C   UNL     1     -32.004   9.902 -35.620  1.00  0.00     0.014 A 
ATOM      4  C   UNL     1     -33.390  12.326 -35.571  1.00  0.00     0.047 A 
ATOM      5  C   UNL     1     -32.213  10.564 -34.409  1.00  0.00     0.001 A 
ATOM      6  C   UNL     1     -32.897  11.780 -34.385  1.00  0.00     0.004 A 
ENDROOT
BRANCH   1   7
ATOM      7  C   UNL     1     -32.158   9.752 -38.094  1.00  0.00     0.075 C 
ATOM      8  O   UNL     1     -32.940   9.837 -39.078  1.00  0.00    -0.545 OA
ATOM      9  O   UNL     1     -31.034   8.941 -38.196  1.00  0.00    -0.545 OA
ENDBRANCH   1   7
BRANCH   2  10
ATOM     10  O   UNL     1     -33.794  12.223 -37.930  1.00  0.00    -0.507 OA
ATOM     11  H   UNL     1     -34.664  11.894 -38.324  1.00  0.00     0.293 HD
ENDBRANCH   2  10
TORSDOF 2
ENDMDL
MODEL 5
REMARK VINA RESULT:    -4.630      3.630      5.163
REMARK INTER + INTRA:          -5.244
REMARK INTER:                  -4.991
REMARK INTRA:                  -0.253
REMARK UNBOUND:                -0.208
REMARK SMILES O=C([O-])c1ccccc1O
REMARK SMILES IDX 4 1 9 2 5 3 8 4 6 5 7 6 2 7 1 8 3 9 10 10
REMARK H PARENT 10 11
REMARK Flexibility Score: inf
ROOT
ATOM      1  C   UNL     1     -33.891  10.757 -39.105  1.00  0.00     0.039 A 
ATOM      2  C   UNL     1     -34.015  12.143 -38.835  1.00  0.00     0.124 A 
ATOM      3  C   UNL     1     -33.422   9.904 -38.087  1.00  0.00     0.014 A 
ATOM      4  C   UNL     1     -33.614  12.645 -37.591  1.00  0.00     0.047 A 
ATOM      5  C   UNL     1     -33.046  10.418 -36.845  1.00  0.00     0.001 A 
ATOM      6  C   UNL     1     -33.132  11.789 -36.599  1.00  0.00     0.004 A 
ENDROOT
BRANCH   1   7
ATOM      7  C   UNL     1     -34.199  10.175 -40.430  1.00  0.00     0.075 C 
ATOM      8  O   UNL     1     -33.378   9.398 -40.986  1.00  0.00    -0.545 OA
ATOM      9  O   UNL     1     -35.360  10.526 -41.108  1.00  0.00    -0.545 OA
ENDBRANCH   1   7
BRANCH   2  10
ATOM     10  O   UNL     1     -34.563  13.042 -39.753  1.00  0.00    -0.507 OA
ATOM     11  H   UNL     1     -34.333  13.040 -40.737  1.00  0.00     0.293 HD
ENDBRANCH   2  10
TORSDOF 2
ENDMDL
MODEL 6
REMARK VINA RESULT:    -4.502      1.525      2.287
REMARK INTER + INTRA:          -5.105
REMARK INTER:                  -4.862
REMARK INTRA:                  -0.243
REMARK UNBOUND:                -0.208
REMARK SMILES O=C([O-])c1ccccc1O
REMARK SMILES IDX 4 1 9 2 5 3 8 4 6 5 7 6 2 7 1 8 3 9 10 10
REMARK H PARENT 10 11
REMARK Flexibility Score: inf
ROOT
ATOM      1  C   UNL     1     -32.764  11.130 -35.322  1.00  0.00     0.039 A 
ATOM      2  C   UNL     1     -33.119  11.336 -36.679  1.00  0.00     0.124 A 
ATOM      3  C   UNL     1     -32.199   9.896 -34.945  1.00  0.00     0.014 A 
ATOM      4  C   UNL     1     -32.961  10.295 -37.602  1.00  0.00     0.047 A 
ATOM      5  C   UNL     1     -32.030   8.876 -35.882  1.00  0.00     0.001 A 
ATOM      6  C   UNL     1     -32.419   9.071 -37.207  1.00  0.00     0.004 A 
ENDROOT
BRANCH   1   7
ATOM      7  C   UNL     1     -32.999  12.150 -34.276  1.00  0.00     0.075 C 
ATOM      8  O   UNL     1     -33.974  12.942 -34.372  1.00  0.00    -0.545 OA
ATOM      9  O   UNL     1     -32.116  12.295 -33.212  1.00  0.00    -0.545 OA
ENDBRANCH   1   7
BRANCH   2  10
ATOM     10  O   UNL     1     -33.591  12.562 -37.155  1.00  0.00    -0.507 OA
ATOM     11  H   UNL     1     -34.273  13.123 -36.664  1.00  0.00     0.293 HD
ENDBRANCH   2  10
TORSDOF 2
ENDMDL
MODEL 7
REMARK VINA RESULT:    -4.497      1.343      2.696
REMARK INTER + INTRA:          -5.099
REMARK INTER:                  -4.850
REMARK INTRA:                  -0.249
REMARK UNBOUND:                -0.208
REMARK SMILES O=C([O-])c1ccccc1O
REMARK SMILES IDX 4 1 9 2 5 3 8 4 6 5 7 6 2 7 1 8 3 9 10 10
REMARK H PARENT 10 11
REMARK Flexibility Score: inf
ROOT
ATOM      1  C   UNL     1     -33.670  10.302 -36.626  1.00  0.00     0.039 A 
ATOM      2  C   UNL     1     -33.510  11.699 -36.807  1.00  0.00     0.124 A 
ATOM      3  C   UNL     1     -33.883   9.488 -37.755  1.00  0.00     0.014 A 
ATOM      4  C   UNL     1     -33.629  12.249 -38.090  1.00  0.00     0.047 A 
ATOM      5  C   UNL     1     -33.978  10.051 -39.030  1.00  0.00     0.001 A 
ATOM      6  C   UNL     1     -33.861  11.430 -39.197  1.00  0.00     0.004 A 
ENDROOT
BRANCH   1   7
ATOM      7  C   UNL     1     -33.659   9.669 -35.289  1.00  0.00     0.075 C 
ATOM      8  O   UNL     1     -34.612   8.926 -34.933  1.00  0.00    -0.545 OA
ATOM      9  O   UNL     1     -32.638   9.935 -34.384  1.00  0.00    -0.545 OA
ENDBRANCH   1   7
BRANCH   2  10
ATOM     10  O   UNL     1     -33.198  12.563 -35.755  1.00  0.00    -0.507 OA
ATOM     11  H   UNL     1     -33.223  12.287 -34.784  1.00  0.00     0.293 HD
ENDBRANCH   2  10
TORSDOF 2
ENDMDL
MODEL 8
REMARK VINA RESULT:    -4.354      2.153      3.154
REMARK INTER + INTRA:          -4.944
REMARK INTER:                  -4.729
REMARK INTRA:                  -0.215
REMARK UNBOUND:                -0.208
REMARK SMILES O=C([O-])c1ccccc1O
REMARK SMILES IDX 4 1 9 2 5 3 8 4 6 5 7 6 2 7 1 8 3 9 10 10
REMARK H PARENT 10 11
REMARK Flexibility Score: inf
ROOT
ATOM      1  C   UNL     1     -33.660  11.234 -37.096  1.00  0.00     0.039 A 
ATOM      2  C   UNL     1     -33.623  11.309 -35.681  1.00  0.00     0.124 A 
ATOM      3  C   UNL     1     -34.000  10.010 -37.704  1.00  0.00     0.014 A 
ATOM      4  C   UNL     1     -33.861  10.158 -34.919  1.00  0.00     0.047 A 
ATOM      5  C   UNL     1     -34.255   8.877 -36.930  1.00  0.00     0.001 A 
ATOM      6  C   UNL     1     -34.176   8.947 -35.539  1.00  0.00     0.004 A 
ENDROOT
BRANCH   1   7
ATOM      7  C   UNL     1     -33.318  12.384 -37.962  1.00  0.00     0.075 C 
ATOM      8  O   UNL     1     -34.107  12.746 -38.874  1.00  0.00    -0.545 OA
ATOM      9  O   UNL     1     -32.099  13.038 -37.827  1.00  0.00    -0.545 OA
ENDBRANCH   1   7
BRANCH   2  10
ATOM     10  O   UNL     1     -33.392  12.505 -34.997  1.00  0.00    -0.507 OA
ATOM     11  H   UNL     1     -32.731  12.593 -34.238  1.00  0.00     0.293 HD
ENDBRANCH   2  10
TORSDOF 2
ENDMDL
MODEL 9
REMARK VINA RESULT:    -4.239      1.564      2.437
REMARK INTER + INTRA:          -4.818
REMARK INTER:                  -4.636
REMARK INTRA:                  -0.182
REMARK UNBOUND:                -0.208
REMARK SMILES O=C([O-])c1ccccc1O
REMARK SMILES IDX 4 1 9 2 5 3 8 4 6 5 7 6 2 7 1 8 3 9 10 10
REMARK H PARENT 10 11
REMARK Flexibility Score: inf
ROOT
ATOM      1  C   UNL     1     -32.875  10.873 -36.462  1.00  0.00     0.039 A 
ATOM      2  C   UNL     1     -32.988  10.235 -37.723  1.00  0.00     0.124 A 
ATOM      3  C   UNL     1     -33.255  12.224 -36.345  1.00  0.00     0.014 A 
ATOM      4  C   UNL     1     -33.415  10.972 -38.836  1.00  0.00     0.047 A 
ATOM      5  C   UNL     1     -33.698  12.937 -37.460  1.00  0.00     0.001 A 
ATOM      6  C   UNL     1     -33.768  12.316 -38.707  1.00  0.00     0.004 A 
ENDROOT
BRANCH   1   7
ATOM      7  C   UNL     1     -32.335  10.183 -35.270  1.00  0.00     0.075 C 
ATOM      8  O   UNL     1     -32.118   8.943 -35.300  1.00  0.00    -0.545 OA
ATOM      9  O   UNL     1     -32.123  10.876 -34.083  1.00  0.00    -0.545 OA
ENDBRANCH   1   7
BRANCH   2  10
ATOM     10  O   UNL     1     -32.726   8.875 -37.905  1.00  0.00    -0.507 OA
ATOM     11  H   UNL     1     -32.953   8.374 -38.753  1.00  0.00     0.293 HD
ENDBRANCH   2  10
TORSDOF 2
ENDMDL
