MODEL 1
REMARK VINA RESULT:    -5.679      0.000      0.000
REMARK INTER + INTRA:          -8.279
REMARK INTER:                  -7.671
REMARK INTRA:                  -0.607
REMARK UNBOUND:                -0.607
REMARK SMILES COc1ccc(-c2cc(=O)c3c(OC)c(OC)c(OC)c(OC)c3o2)cc1
REMARK SMILES IDX 7 1 8 2 9 3 10 4 11 5 24 6 25 7 21 8 18 9 15 10 12 11 6 12
REMARK SMILES IDX 3 13 4 14 27 15 5 16 26 17 2 18 1 19 22 20 23 21 13 22 14 23
REMARK SMILES IDX 19 24 20 25 16 26 17 27
REMARK H PARENT
REMARK Flexibility Score: inf
ROOT
ATOM      1  C   UNL     1      25.609   3.962 -16.658  1.00  0.00     0.138 A 
ATOM      2  C   UNL     1      25.963   3.507 -15.380  1.00  0.00     0.100 A 
ATOM      3  C   UNL     1      26.148   4.431 -14.352  1.00  0.00     0.197 A 
ATOM      4  O   UNL     1      26.465   4.004 -13.210  1.00  0.00    -0.289 OA
ATOM      5  C   UNL     1      25.985   5.813 -14.609  1.00  0.00     0.115 A 
ATOM      6  C   UNL     1      25.650   6.189 -15.928  1.00  0.00     0.188 A 
ATOM      7  O   UNL     1      25.478   5.266 -16.872  1.00  0.00    -0.452 OA
ATOM      8  C   UNL     1      25.480   7.531 -16.265  1.00  0.00     0.209 A 
ATOM      9  C   UNL     1      25.714   8.532 -15.303  1.00  0.00     0.211 A 
ATOM     10  C   UNL     1      25.979   8.179 -13.956  1.00  0.00     0.208 A 
ATOM     11  C   UNL     1      26.126   6.807 -13.608  1.00  0.00     0.179 A 
ENDROOT
BRANCH   1  12
ATOM     12  C   UNL     1      25.389   3.027 -17.793  1.00  0.00     0.018 A 
ATOM     13  C   UNL     1      24.932   1.290 -19.973  1.00  0.00     0.118 A 
ATOM     14  C   UNL     1      24.876   2.684 -20.149  1.00  0.00     0.047 A 
ATOM     15  C   UNL     1      25.208   0.775 -18.702  1.00  0.00     0.047 A 
ATOM     16  C   UNL     1      25.098   3.542 -19.068  1.00  0.00     0.016 A 
ATOM     17  C   UNL     1      25.432   1.630 -17.619  1.00  0.00     0.016 A 
BRANCH  13  18
ATOM     18  O   UNL     1      24.715   0.388 -21.026  1.00  0.00    -0.497 OA
ATOM     19  C   UNL     1      25.327  -0.894 -21.125  1.00  0.00     0.278 C 
ENDBRANCH  13  18
ENDBRANCH   1  12
BRANCH   8  20
ATOM     20  O   UNL     1      25.076   7.836 -17.572  1.00  0.00    -0.490 OA
ATOM     21  C   UNL     1      25.994   8.137 -18.619  1.00  0.00     0.278 C 
ENDBRANCH   8  20
BRANCH  11  22
ATOM     22  O   UNL     1      26.408   6.378 -12.293  1.00  0.00    -0.492 OA
ATOM     23  C   UNL     1      25.502   6.279 -11.198  1.00  0.00     0.278 C 
ENDBRANCH  11  22
BRANCH   9  24
ATOM     24  O   UNL     1      25.725   9.873 -15.693  1.00  0.00    -0.490 OA
ATOM     25  C   UNL     1      24.531  10.643 -15.777  1.00  0.00     0.279 C 
ENDBRANCH   9  24
BRANCH  10  26
ATOM     26  O   UNL     1      26.121   9.148 -12.945  1.00  0.00    -0.490 OA
ATOM     27  C   UNL     1      25.079   9.794 -12.221  1.00  0.00     0.278 C 
ENDBRANCH  10  26
TORSDOF 6
ENDMDL
MODEL 2
REMARK VINA RESULT:    -5.640      2.151      7.571
REMARK INTER + INTRA:          -8.226
REMARK INTER:                  -7.563
REMARK INTRA:                  -0.663
REMARK UNBOUND:                -0.607
REMARK SMILES COc1ccc(-c2cc(=O)c3c(OC)c(OC)c(OC)c(OC)c3o2)cc1
REMARK SMILES IDX 7 1 8 2 9 3 10 4 11 5 24 6 25 7 21 8 18 9 15 10 12 11 6 12
REMARK SMILES IDX 3 13 4 14 27 15 5 16 26 17 2 18 1 19 22 20 23 21 13 22 14 23
REMARK SMILES IDX 19 24 20 25 16 26 17 27
REMARK H PARENT
REMARK Flexibility Score: inf
ROOT
ATOM      1  C   UNL     1      25.833   7.083 -13.965  1.00  0.00     0.138 A 
ATOM      2  C   UNL     1      26.052   8.379 -14.451  1.00  0.00     0.100 A 
ATOM      3  C   UNL     1      26.226   8.576 -15.821  1.00  0.00     0.197 A 
ATOM      4  O   UNL     1      26.420   9.748 -16.241  1.00  0.00    -0.289 OA
ATOM      5  C   UNL     1      26.187   7.469 -16.702  1.00  0.00     0.115 A 
ATOM      6  C   UNL     1      25.984   6.195 -16.129  1.00  0.00     0.188 A 
ATOM      7  O   UNL     1      25.817   6.062 -14.815  1.00  0.00    -0.452 OA
ATOM      8  C   UNL     1      25.941   5.054 -16.928  1.00  0.00     0.209 A 
ATOM      9  C   UNL     1      26.173   5.156 -18.313  1.00  0.00     0.211 A 
ATOM     10  C   UNL     1      26.306   6.429 -18.922  1.00  0.00     0.208 A 
ATOM     11  C   UNL     1      26.323   7.596 -18.108  1.00  0.00     0.179 A 
ENDROOT
BRANCH   1  12
ATOM     12  C   UNL     1      25.634   6.809 -12.518  1.00  0.00     0.018 A 
ATOM     13  C   UNL     1      25.256   6.350  -9.756  1.00  0.00     0.118 A 
ATOM     14  C   UNL     1      24.736   7.506 -10.363  1.00  0.00     0.047 A 
ATOM     15  C   UNL     1      25.971   5.434 -10.535  1.00  0.00     0.047 A 
ATOM     16  C   UNL     1      24.927   7.734 -11.729  1.00  0.00     0.016 A 
ATOM     17  C   UNL     1      26.163   5.659 -11.902  1.00  0.00     0.016 A 
BRANCH  13  18
ATOM     18  O   UNL     1      25.091   6.077  -8.390  1.00  0.00    -0.497 OA
ATOM     19  C   UNL     1      25.791   5.057  -7.684  1.00  0.00     0.278 C 
ENDBRANCH  13  18
ENDBRANCH   1  12
BRANCH   8  20
ATOM     20  O   UNL     1      25.664   3.827 -16.310  1.00  0.00    -0.490 OA
ATOM     21  C   UNL     1      24.368   3.235 -16.301  1.00  0.00     0.278 C 
ENDBRANCH   8  20
BRANCH  11  22
ATOM     22  O   UNL     1      26.469   8.896 -18.639  1.00  0.00    -0.492 OA
ATOM     23  C   UNL     1      25.533   9.622 -19.429  1.00  0.00     0.278 C 
ENDBRANCH  11  22
BRANCH   9  24
ATOM     24  O   UNL     1      26.315   3.994 -19.075  1.00  0.00    -0.490 OA
ATOM     25  C   UNL     1      25.236   3.452 -19.830  1.00  0.00     0.279 C 
ENDBRANCH   9  24
BRANCH  10  26
ATOM     26  O   UNL     1      26.441   6.579 -20.315  1.00  0.00    -0.490 OA
ATOM     27  C   UNL     1      27.654   6.651 -21.058  1.00  0.00     0.278 C 
ENDBRANCH  10  26
TORSDOF 6
ENDMDL
MODEL 3
REMARK VINA RESULT:    -5.599      2.008      8.203
REMARK INTER + INTRA:          -8.171
REMARK INTER:                  -7.546
REMARK INTRA:                  -0.625
REMARK UNBOUND:                -0.607
REMARK SMILES COc1ccc(-c2cc(=O)c3c(OC)c(OC)c(OC)c(OC)c3o2)cc1
REMARK SMILES IDX 7 1 8 2 9 3 10 4 11 5 24 6 25 7 21 8 18 9 15 10 12 11 6 12
REMARK SMILES IDX 3 13 4 14 27 15 5 16 26 17 2 18 1 19 22 20 23 21 13 22 14 23
REMARK SMILES IDX 19 24 20 25 16 26 17 27
REMARK H PARENT
REMARK Flexibility Score: inf
ROOT
ATOM      1  C   UNL     1      25.463   7.227 -13.854  1.00  0.00     0.138 A 
ATOM      2  C   UNL     1      25.628   8.251 -14.797  1.00  0.00     0.100 A 
ATOM      3  C   UNL     1      25.842   7.921 -16.136  1.00  0.00     0.197 A 
ATOM      4  O   UNL     1      25.987   8.854 -16.970  1.00  0.00    -0.289 OA
ATOM      5  C   UNL     1      25.898   6.562 -16.526  1.00  0.00     0.115 A 
ATOM      6  C   UNL     1      25.744   5.592 -15.510  1.00  0.00     0.188 A 
ATOM      7  O   UNL     1      25.536   5.961 -14.248  1.00  0.00    -0.452 OA
ATOM      8  C   UNL     1      25.795   4.233 -15.811  1.00  0.00     0.209 A 
ATOM      9  C   UNL     1      26.074   3.813 -17.126  1.00  0.00     0.211 A 
ATOM     10  C   UNL     1      26.159   4.763 -18.175  1.00  0.00     0.208 A 
ATOM     11  C   UNL     1      26.080   6.150 -17.870  1.00  0.00     0.179 A 
ENDROOT
BRANCH   1  12
ATOM     12  C   UNL     1      25.224   7.514 -12.416  1.00  0.00     0.018 A 
ATOM     13  C   UNL     1      24.750   8.002  -9.674  1.00  0.00     0.118 A 
ATOM     14  C   UNL     1      25.168   6.732 -10.109  1.00  0.00     0.047 A 
ATOM     15  C   UNL     1      24.563   9.018 -10.617  1.00  0.00     0.047 A 
ATOM     16  C   UNL     1      25.398   6.491 -11.467  1.00  0.00     0.016 A 
ATOM     17  C   UNL     1      24.793   8.780 -11.976  1.00  0.00     0.016 A 
BRANCH  13  18
ATOM     18  O   UNL     1      24.506   8.293  -8.323  1.00  0.00    -0.497 OA
ATOM     19  C   UNL     1      24.439   9.609  -7.784  1.00  0.00     0.278 C 
ENDBRANCH  13  18
ENDBRANCH   1  12
BRANCH   8  20
ATOM     20  O   UNL     1      25.564   3.319 -14.774  1.00  0.00    -0.490 OA
ATOM     21  C   UNL     1      26.601   2.803 -13.945  1.00  0.00     0.278 C 
ENDBRANCH   8  20
BRANCH  11  22
ATOM     22  O   UNL     1      26.174   7.156 -18.857  1.00  0.00    -0.492 OA
ATOM     23  C   UNL     1      27.300   7.471 -19.671  1.00  0.00     0.278 C 
ENDBRANCH  11  22
BRANCH   9  24
ATOM     24  O   UNL     1      26.309   2.460 -17.383  1.00  0.00    -0.490 OA
ATOM     25  C   UNL     1      25.262   1.572 -17.761  1.00  0.00     0.279 C 
ENDBRANCH   9  24
BRANCH  10  26
ATOM     26  O   UNL     1      26.338   4.378 -19.517  1.00  0.00    -0.490 OA
ATOM     27  C   UNL     1      25.322   4.130 -20.483  1.00  0.00     0.278 C 
ENDBRANCH  10  26
TORSDOF 6
ENDMDL
MODEL 4
REMARK VINA RESULT:    -5.432      1.124      1.220
REMARK INTER + INTRA:          -7.945
REMARK INTER:                  -7.352
REMARK INTRA:                  -0.593
REMARK UNBOUND:                -0.607
REMARK SMILES COc1ccc(-c2cc(=O)c3c(OC)c(OC)c(OC)c(OC)c3o2)cc1
REMARK SMILES IDX 7 1 8 2 9 3 10 4 11 5 24 6 25 7 21 8 18 9 15 10 12 11 6 12
REMARK SMILES IDX 3 13 4 14 27 15 5 16 26 17 2 18 1 19 22 20 23 21 13 22 14 23
REMARK SMILES IDX 19 24 20 25 16 26 17 27
REMARK H PARENT
REMARK Flexibility Score: inf
ROOT
ATOM      1  C   UNL     1      25.815   4.204 -16.291  1.00  0.00     0.138 A 
ATOM      2  C   UNL     1      26.041   4.122 -14.910  1.00  0.00     0.100 A 
ATOM      3  C   UNL     1      26.107   5.293 -14.156  1.00  0.00     0.197 A 
ATOM      4  O   UNL     1      26.310   5.200 -12.915  1.00  0.00    -0.289 OA
ATOM      5  C   UNL     1      25.953   6.549 -14.790  1.00  0.00     0.115 A 
ATOM      6  C   UNL     1      25.750   6.545 -16.187  1.00  0.00     0.188 A 
ATOM      7  O   UNL     1      25.689   5.398 -16.860  1.00  0.00    -0.452 OA
ATOM      8  C   UNL     1      25.598   7.740 -16.887  1.00  0.00     0.209 A 
ATOM      9  C   UNL     1      25.718   8.971 -16.213  1.00  0.00     0.211 A 
ATOM     10  C   UNL     1      25.847   9.001 -14.802  1.00  0.00     0.208 A 
ATOM     11  C   UNL     1      25.976   7.778 -14.085  1.00  0.00     0.179 A 
ENDROOT
BRANCH   1  12
ATOM     12  C   UNL     1      25.726   2.993 -17.147  1.00  0.00     0.018 A 
ATOM     13  C   UNL     1      25.500   0.705 -18.788  1.00  0.00     0.118 A 
ATOM     14  C   UNL     1      24.821   1.890 -19.121  1.00  0.00     0.047 A 
ATOM     15  C   UNL     1      26.281   0.670 -17.629  1.00  0.00     0.047 A 
ATOM     16  C   UNL     1      24.931   3.020 -18.305  1.00  0.00     0.016 A 
ATOM     17  C   UNL     1      26.393   1.799 -16.811  1.00  0.00     0.016 A 
BRANCH  13  18
ATOM     18  O   UNL     1      25.420  -0.455 -19.574  1.00  0.00    -0.497 OA
ATOM     19  C   UNL     1      25.124  -0.464 -20.966  1.00  0.00     0.278 C 
ENDBRANCH  13  18
ENDBRANCH   1  12
BRANCH   8  20
ATOM     20  O   UNL     1      25.328   7.670 -18.261  1.00  0.00    -0.490 OA
ATOM     21  C   UNL     1      24.008   7.586 -18.790  1.00  0.00     0.278 C 
ENDBRANCH   8  20
BRANCH  11  22
ATOM     22  O   UNL     1      26.127   7.728 -12.682  1.00  0.00    -0.492 OA
ATOM     23  C   UNL     1      25.106   7.838 -11.694  1.00  0.00     0.278 C 
ENDBRANCH  11  22
BRANCH   9  24
ATOM     24  O   UNL     1      25.751  10.158 -16.947  1.00  0.00    -0.490 OA
ATOM     25  C   UNL     1      24.568  10.889 -17.253  1.00  0.00     0.279 C 
ENDBRANCH   9  24
BRANCH  10  26
ATOM     26  O   UNL     1      25.871  10.210 -14.081  1.00  0.00    -0.490 OA
ATOM     27  C   UNL     1      24.752  10.944 -13.597  1.00  0.00     0.278 C 
ENDBRANCH  10  26
TORSDOF 6
ENDMDL
MODEL 5
REMARK VINA RESULT:    -5.341      1.768      7.650
REMARK INTER + INTRA:          -7.822
REMARK INTER:                  -7.280
REMARK INTRA:                  -0.542
REMARK UNBOUND:                -0.607
REMARK SMILES COc1ccc(-c2cc(=O)c3c(OC)c(OC)c(OC)c(OC)c3o2)cc1
REMARK SMILES IDX 7 1 8 2 9 3 10 4 11 5 24 6 25 7 21 8 18 9 15 10 12 11 6 12
REMARK SMILES IDX 3 13 4 14 27 15 5 16 26 17 2 18 1 19 22 20 23 21 13 22 14 23
REMARK SMILES IDX 19 24 20 25 16 26 17 27
REMARK H PARENT
REMARK Flexibility Score: inf
ROOT
ATOM      1  C   UNL     1      25.614   6.399 -14.338  1.00  0.00     0.138 A 
ATOM      2  C   UNL     1      26.004   5.163 -13.803  1.00  0.00     0.100 A 
ATOM      3  C   UNL     1      26.081   4.049 -14.640  1.00  0.00     0.197 A 
ATOM      4  O   UNL     1      26.435   2.947 -14.142  1.00  0.00    -0.289 OA
ATOM      5  C   UNL     1      25.761   4.175 -16.012  1.00  0.00     0.115 A 
ATOM      6  C   UNL     1      25.356   5.450 -16.465  1.00  0.00     0.188 A 
ATOM      7  O   UNL     1      25.305   6.482 -15.627  1.00  0.00    -0.452 OA
ATOM      8  C   UNL     1      25.016   5.655 -17.801  1.00  0.00     0.209 A 
ATOM      9  C   UNL     1      25.003   4.570 -18.698  1.00  0.00     0.211 A 
ATOM     10  C   UNL     1      25.475   3.298 -18.286  1.00  0.00     0.208 A 
ATOM     11  C   UNL     1      25.847   3.097 -16.928  1.00  0.00     0.179 A 
ENDROOT
BRANCH   1  12
ATOM     12  C   UNL     1      25.520   7.623 -13.500  1.00  0.00     0.018 A 
ATOM     13  C   UNL     1      25.290   9.927 -11.883  1.00  0.00     0.118 A 
ATOM     14  C   UNL     1      24.861   8.677 -11.405  1.00  0.00     0.047 A 
ATOM     15  C   UNL     1      25.822  10.018 -13.173  1.00  0.00     0.047 A 
ATOM     16  C   UNL     1      24.973   7.538 -12.208  1.00  0.00     0.016 A 
ATOM     17  C   UNL     1      25.935   8.880 -13.979  1.00  0.00     0.016 A 
BRANCH  13  18
ATOM     18  O   UNL     1      25.199  11.099 -11.116  1.00  0.00    -0.497 OA
ATOM     19  C   UNL     1      25.121  11.125  -9.694  1.00  0.00     0.278 C 
ENDBRANCH  13  18
ENDBRANCH   1  12
BRANCH   8  20
ATOM     20  O   UNL     1      24.692   6.957 -18.207  1.00  0.00    -0.490 OA
ATOM     21  C   UNL     1      25.621   7.824 -18.851  1.00  0.00     0.278 C 
ENDBRANCH   8  20
BRANCH  11  22
ATOM     22  O   UNL     1      26.309   1.856 -16.438  1.00  0.00    -0.492 OA
ATOM     23  C   UNL     1      27.354   1.046 -16.970  1.00  0.00     0.278 C 
ENDBRANCH  11  22
BRANCH   9  24
ATOM     24  O   UNL     1      24.483   4.744 -19.983  1.00  0.00    -0.490 OA
ATOM     25  C   UNL     1      25.324   4.874 -21.125  1.00  0.00     0.279 C 
ENDBRANCH   9  24
BRANCH  10  26
ATOM     26  O   UNL     1      25.570   2.213 -19.178  1.00  0.00    -0.490 OA
ATOM     27  C   UNL     1      24.537   1.301 -19.535  1.00  0.00     0.278 C 
ENDBRANCH  10  26
TORSDOF 6
ENDMDL
MODEL 6
REMARK VINA RESULT:    -5.257      3.001      7.750
REMARK INTER + INTRA:          -7.708
REMARK INTER:                  -7.029
REMARK INTRA:                  -0.679
REMARK UNBOUND:                -0.607
REMARK SMILES COc1ccc(-c2cc(=O)c3c(OC)c(OC)c(OC)c(OC)c3o2)cc1
REMARK SMILES IDX 7 1 8 2 9 3 10 4 11 5 24 6 25 7 21 8 18 9 15 10 12 11 6 12
REMARK SMILES IDX 3 13 4 14 27 15 5 16 26 17 2 18 1 19 22 20 23 21 13 22 14 23
REMARK SMILES IDX 19 24 20 25 16 26 17 27
REMARK H PARENT
REMARK Flexibility Score: inf
ROOT
ATOM      1  C   UNL     1      24.900   7.703 -12.692  1.00  0.00     0.138 A 
ATOM      2  C   UNL     1      24.308   8.928 -13.028  1.00  0.00     0.100 A 
ATOM      3  C   UNL     1      24.207   9.295 -14.370  1.00  0.00     0.197 A 
ATOM      4  O   UNL     1      23.671  10.400 -14.653  1.00  0.00    -0.289 OA
ATOM      5  C   UNL     1      24.708   8.435 -15.375  1.00  0.00     0.115 A 
ATOM      6  C   UNL     1      25.310   7.229 -14.951  1.00  0.00     0.188 A 
ATOM      7  O   UNL     1      25.375   6.923 -13.658  1.00  0.00    -0.452 OA
ATOM      8  C   UNL     1      25.835   6.332 -15.879  1.00  0.00     0.209 A 
ATOM      9  C   UNL     1      25.834   6.655 -17.250  1.00  0.00     0.211 A 
ATOM     10  C   UNL     1      25.172   7.822 -17.706  1.00  0.00     0.208 A 
ATOM     11  C   UNL     1      24.613   8.725 -16.759  1.00  0.00     0.179 A 
ENDROOT
BRANCH   1  12
ATOM     12  C   UNL     1      25.030   7.252 -11.282  1.00  0.00     0.018 A 
ATOM     13  C   UNL     1      25.293   6.452  -8.586  1.00  0.00     0.118 A 
ATOM     14  C   UNL     1      24.877   7.757  -8.904  1.00  0.00     0.047 A 
ATOM     15  C   UNL     1      25.584   5.559  -9.622  1.00  0.00     0.047 A 
ATOM     16  C   UNL     1      24.751   8.153 -10.239  1.00  0.00     0.016 A 
ATOM     17  C   UNL     1      25.458   5.951 -10.958  1.00  0.00     0.016 A 
BRANCH  13  18
ATOM     18  O   UNL     1      25.435   6.008  -7.263  1.00  0.00    -0.497 OA
ATOM     19  C   UNL     1      26.054   4.782  -6.888  1.00  0.00     0.278 C 
ENDBRANCH  13  18
ENDBRANCH   1  12
BRANCH   8  20
ATOM     20  O   UNL     1      26.353   5.120 -15.403  1.00  0.00    -0.490 OA
ATOM     21  C   UNL     1      25.642   3.887 -15.475  1.00  0.00     0.278 C 
ENDBRANCH   8  20
BRANCH  11  22
ATOM     22  O   UNL     1      23.955   9.917 -17.136  1.00  0.00    -0.492 OA
ATOM     23  C   UNL     1      22.679  10.045 -17.757  1.00  0.00     0.278 C 
ENDBRANCH  11  22
BRANCH   9  24
ATOM     24  O   UNL     1      26.526   5.842 -18.150  1.00  0.00    -0.490 OA
ATOM     25  C   UNL     1      27.867   6.120 -18.540  1.00  0.00     0.279 C 
ENDBRANCH   9  24
BRANCH  10  26
ATOM     26  O   UNL     1      25.064   8.131 -19.076  1.00  0.00    -0.490 OA
ATOM     27  C   UNL     1      24.193   7.527 -20.026  1.00  0.00     0.278 C 
ENDBRANCH  10  26
TORSDOF 6
ENDMDL
MODEL 7
REMARK VINA RESULT:    -5.156      3.996      7.984
REMARK INTER + INTRA:          -7.572
REMARK INTER:                  -6.910
REMARK INTRA:                  -0.662
REMARK UNBOUND:                -0.607
REMARK SMILES COc1ccc(-c2cc(=O)c3c(OC)c(OC)c(OC)c(OC)c3o2)cc1
REMARK SMILES IDX 7 1 8 2 9 3 10 4 11 5 24 6 25 7 21 8 18 9 15 10 12 11 6 12
REMARK SMILES IDX 3 13 4 14 27 15 5 16 26 17 2 18 1 19 22 20 23 21 13 22 14 23
REMARK SMILES IDX 19 24 20 25 16 26 17 27
REMARK H PARENT
REMARK Flexibility Score: inf
ROOT
ATOM      1  C   UNL     1      23.899   8.084 -11.915  1.00  0.00     0.138 A 
ATOM      2  C   UNL     1      22.617   8.651 -11.930  1.00  0.00     0.100 A 
ATOM      3  C   UNL     1      22.087   9.115 -13.134  1.00  0.00     0.197 A 
ATOM      4  O   UNL     1      20.933   9.620 -13.128  1.00  0.00    -0.289 OA
ATOM      5  C   UNL     1      22.848   9.017 -14.323  1.00  0.00     0.115 A 
ATOM      6  C   UNL     1      24.139   8.454 -14.218  1.00  0.00     0.188 A 
ATOM      7  O   UNL     1      24.595   8.020 -13.045  1.00  0.00    -0.452 OA
ATOM      8  C   UNL     1      24.955   8.330 -15.341  1.00  0.00     0.209 A 
ATOM      9  C   UNL     1      24.524   8.835 -16.583  1.00  0.00     0.211 A 
ATOM     10  C   UNL     1      23.206   9.336 -16.730  1.00  0.00     0.208 A 
ATOM     11  C   UNL     1      22.365   9.438 -15.587  1.00  0.00     0.179 A 
ENDROOT
BRANCH   1  12
ATOM     12  C   UNL     1      24.515   7.565 -10.667  1.00  0.00     0.018 A 
ATOM     13  C   UNL     1      25.667   6.520  -8.309  1.00  0.00     0.118 A 
ATOM     14  C   UNL     1      25.629   5.750  -9.484  1.00  0.00     0.047 A 
ATOM     15  C   UNL     1      25.119   7.807  -8.320  1.00  0.00     0.047 A 
ATOM     16  C   UNL     1      25.055   6.267 -10.649  1.00  0.00     0.016 A 
ATOM     17  C   UNL     1      24.544   8.327  -9.483  1.00  0.00     0.016 A 
BRANCH  13  18
ATOM     18  O   UNL     1      26.231   6.046  -7.115  1.00  0.00    -0.497 OA
ATOM     19  C   UNL     1      25.925   4.786  -6.525  1.00  0.00     0.278 C 
ENDBRANCH  13  18
ENDBRANCH   1  12
BRANCH   8  20
ATOM     20  O   UNL     1      26.196   7.698 -15.187  1.00  0.00    -0.490 OA
ATOM     21  C   UNL     1      26.386   6.300 -15.384  1.00  0.00     0.278 C 
ENDBRANCH   8  20
BRANCH  11  22
ATOM     22  O   UNL     1      21.048   9.944 -15.650  1.00  0.00    -0.492 OA
ATOM     23  C   UNL     1      19.916   9.344 -16.273  1.00  0.00     0.278 C 
ENDBRANCH  11  22
BRANCH   9  24
ATOM     24  O   UNL     1      25.415   8.877 -17.657  1.00  0.00    -0.490 OA
ATOM     25  C   UNL     1      25.462   7.846 -18.638  1.00  0.00     0.279 C 
ENDBRANCH   9  24
BRANCH  10  26
ATOM     26  O   UNL     1      22.704   9.759 -17.975  1.00  0.00    -0.490 OA
ATOM     27  C   UNL     1      22.796  11.062 -18.541  1.00  0.00     0.278 C 
ENDBRANCH  10  26
TORSDOF 6
ENDMDL
MODEL 8
REMARK VINA RESULT:    -5.147      2.159      7.403
REMARK INTER + INTRA:          -7.559
REMARK INTER:                  -7.060
REMARK INTRA:                  -0.500
REMARK UNBOUND:                -0.607
REMARK SMILES COc1ccc(-c2cc(=O)c3c(OC)c(OC)c(OC)c(OC)c3o2)cc1
REMARK SMILES IDX 7 1 8 2 9 3 10 4 11 5 24 6 25 7 21 8 18 9 15 10 12 11 6 12
REMARK SMILES IDX 3 13 4 14 27 15 5 16 26 17 2 18 1 19 22 20 23 21 13 22 14 23
REMARK SMILES IDX 19 24 20 25 16 26 17 27
REMARK H PARENT
REMARK Flexibility Score: inf
ROOT
ATOM      1  C   UNL     1      25.780   6.493 -13.821  1.00  0.00     0.138 A 
ATOM      2  C   UNL     1      25.744   5.139 -14.182  1.00  0.00     0.100 A 
ATOM      3  C   UNL     1      26.065   4.770 -15.488  1.00  0.00     0.197 A 
ATOM      4  O   UNL     1      26.028   3.548 -15.793  1.00  0.00    -0.289 OA
ATOM      5  C   UNL     1      26.416   5.761 -16.434  1.00  0.00     0.115 A 
ATOM      6  C   UNL     1      26.407   7.103 -15.996  1.00  0.00     0.188 A 
ATOM      7  O   UNL     1      26.099   7.402 -14.736  1.00  0.00    -0.452 OA
ATOM      8  C   UNL     1      26.732   8.139 -16.870  1.00  0.00     0.209 A 
ATOM      9  C   UNL     1      27.004   7.860 -18.223  1.00  0.00     0.211 A 
ATOM     10  C   UNL     1      27.091   6.517 -18.669  1.00  0.00     0.208 A 
ATOM     11  C   UNL     1      26.785   5.459 -17.769  1.00  0.00     0.179 A 
ENDROOT
BRANCH   1  12
ATOM     12  C   UNL     1      25.457   6.949 -12.444  1.00  0.00     0.018 A 
ATOM     13  C   UNL     1      24.825   7.759  -9.813  1.00  0.00     0.118 A 
ATOM     14  C   UNL     1      25.327   6.469 -10.059  1.00  0.00     0.047 A 
ATOM     15  C   UNL     1      24.634   8.633 -10.888  1.00  0.00     0.047 A 
ATOM     16  C   UNL     1      25.635   6.069 -11.363  1.00  0.00     0.016 A 
ATOM     17  C   UNL     1      24.942   8.236 -12.193  1.00  0.00     0.016 A 
BRANCH  13  18
ATOM     18  O   UNL     1      24.500   8.207  -8.523  1.00  0.00    -0.497 OA
ATOM     19  C   UNL     1      24.769   9.518  -8.036  1.00  0.00     0.278 C 
ENDBRANCH  13  18
ENDBRANCH   1  12
BRANCH   8  20
ATOM     20  O   UNL     1      26.776   9.443 -16.358  1.00  0.00    -0.490 OA
ATOM     21  C   UNL     1      25.629  10.283 -16.268  1.00  0.00     0.278 C 
ENDBRANCH   8  20
BRANCH  11  22
ATOM     22  O   UNL     1      26.831   4.099 -18.145  1.00  0.00    -0.492 OA
ATOM     23  C   UNL     1      25.848   3.363 -18.867  1.00  0.00     0.278 C 
ENDBRANCH  11  22
BRANCH   9  24
ATOM     24  O   UNL     1      27.144   8.912 -19.129  1.00  0.00    -0.490 OA
ATOM     25  C   UNL     1      26.027   9.474 -19.811  1.00  0.00     0.279 C 
ENDBRANCH   9  24
BRANCH  10  26
ATOM     26  O   UNL     1      27.457   6.193 -19.990  1.00  0.00    -0.490 OA
ATOM     27  C   UNL     1      26.600   6.121 -21.125  1.00  0.00     0.278 C 
ENDBRANCH  10  26
TORSDOF 6
ENDMDL
MODEL 9
REMARK VINA RESULT:    -5.109      1.993      2.372
REMARK INTER + INTRA:          -7.509
REMARK INTER:                  -6.955
REMARK INTRA:                  -0.554
REMARK UNBOUND:                -0.607
REMARK SMILES COc1ccc(-c2cc(=O)c3c(OC)c(OC)c(OC)c(OC)c3o2)cc1
REMARK SMILES IDX 7 1 8 2 9 3 10 4 11 5 24 6 25 7 21 8 18 9 15 10 12 11 6 12
REMARK SMILES IDX 3 13 4 14 27 15 5 16 26 17 2 18 1 19 22 20 23 21 13 22 14 23
REMARK SMILES IDX 19 24 20 25 16 26 17 27
REMARK H PARENT
REMARK Flexibility Score: inf
ROOT
ATOM      1  C   UNL     1      24.702   4.802 -17.037  1.00  0.00     0.138 A 
ATOM      2  C   UNL     1      25.659   4.814 -16.013  1.00  0.00     0.100 A 
ATOM      3  C   UNL     1      25.754   5.928 -15.178  1.00  0.00     0.197 A 
ATOM      4  O   UNL     1      26.620   5.921 -14.263  1.00  0.00    -0.289 OA
ATOM      5  C   UNL     1      24.892   7.032 -15.375  1.00  0.00     0.115 A 
ATOM      6  C   UNL     1      23.970   6.948 -16.442  1.00  0.00     0.188 A 
ATOM      7  O   UNL     1      23.916   5.860 -17.207  1.00  0.00    -0.452 OA
ATOM      8  C   UNL     1      23.092   7.997 -16.708  1.00  0.00     0.209 A 
ATOM      9  C   UNL     1      23.166   9.185 -15.955  1.00  0.00     0.211 A 
ATOM     10  C   UNL     1      24.030   9.265 -14.834  1.00  0.00     0.208 A 
ATOM     11  C   UNL     1      24.908   8.183 -14.548  1.00  0.00     0.179 A 
ENDROOT
BRANCH   1  12
ATOM     12  C   UNL     1      24.546   3.643 -17.954  1.00  0.00     0.018 A 
ATOM     13  C   UNL     1      24.255   1.401 -19.648  1.00  0.00     0.118 A 
ATOM     14  C   UNL     1      23.749   1.373 -18.337  1.00  0.00     0.047 A 
ATOM     15  C   UNL     1      24.912   2.550 -20.100  1.00  0.00     0.047 A 
ATOM     16  C   UNL     1      23.897   2.482 -17.498  1.00  0.00     0.016 A 
ATOM     17  C   UNL     1      25.062   3.661 -19.263  1.00  0.00     0.016 A 
BRANCH  13  18
ATOM     18  O   UNL     1      24.131   0.315 -20.527  1.00  0.00    -0.497 OA
ATOM     19  C   UNL     1      25.230  -0.425 -21.050  1.00  0.00     0.278 C 
ENDBRANCH  13  18
ENDBRANCH   1  12
BRANCH   8  20
ATOM     20  O   UNL     1      22.152   7.826 -17.734  1.00  0.00    -0.490 OA
ATOM     21  C   UNL     1      20.805   7.428 -17.496  1.00  0.00     0.278 C 
ENDBRANCH   8  20
BRANCH  11  22
ATOM     22  O   UNL     1      25.809   8.197 -13.461  1.00  0.00    -0.492 OA
ATOM     23  C   UNL     1      25.513   7.982 -12.084  1.00  0.00     0.278 C 
ENDBRANCH  11  22
BRANCH   9  24
ATOM     24  O   UNL     1      22.416  10.296 -16.345  1.00  0.00    -0.490 OA
ATOM     25  C   UNL     1      21.118  10.552 -15.817  1.00  0.00     0.279 C 
ENDBRANCH   9  24
BRANCH  10  26
ATOM     26  O   UNL     1      24.063  10.397 -13.998  1.00  0.00    -0.490 OA
ATOM     27  C   UNL     1      23.209  10.674 -12.893  1.00  0.00     0.278 C 
ENDBRANCH  10  26
TORSDOF 6
ENDMDL
