MODEL 1
REMARK VINA RESULT:    -5.147      0.000      0.000
REMARK INTER + INTRA:          -5.711
REMARK INTER:                  -5.448
REMARK INTRA:                  -0.263
REMARK UNBOUND:                -0.263
REMARK SMILES O=c1cc(-c2ccccc2)oc2ccccc12
REMARK SMILES IDX 4 1 3 2 2 3 1 4 17 5 16 6 15 7 14 8 13 9 12 10 11 11 5 12
REMARK SMILES IDX 8 13 7 14 9 15 6 16 10 17
REMARK H PARENT
REMARK Flexibility Score: inf
ROOT
ATOM      1  C   UNL     1     140.571 151.416 120.361  1.00  0.00     0.138 A 
ATOM      2  C   UNL     1     141.927 151.634 120.038  1.00  0.00     0.100 A 
ATOM      3  C   UNL     1     142.472 152.912 120.184  1.00  0.00     0.193 A 
ATOM      4  O   UNL     1     143.684 153.107 119.895  1.00  0.00    -0.289 OA
ATOM      5  C   UNL     1     141.665 153.957 120.651  1.00  0.00     0.065 A 
ATOM      6  C   UNL     1     142.151 155.266 120.821  1.00  0.00     0.016 A 
ATOM      7  C   UNL     1     141.302 156.274 121.291  1.00  0.00     0.001 A 
ATOM      8  C   UNL     1     139.969 155.985 121.592  1.00  0.00     0.004 A 
ATOM      9  C   UNL     1     139.476 154.687 121.425  1.00  0.00     0.048 A 
ATOM     10  C   UNL     1     140.317 153.672 120.957  1.00  0.00     0.138 A 
ATOM     11  O   UNL     1     139.840 152.441 120.801  1.00  0.00    -0.456 OA
ENDROOT
BRANCH   1  12
ATOM     12  C   UNL     1     139.908 150.081 120.233  1.00  0.00     0.017 A 
ATOM     13  C   UNL     1     138.586 147.594 120.051  1.00  0.00     0.000 A 
ATOM     14  C   UNL     1     138.041 148.619 120.822  1.00  0.00     0.001 A 
ATOM     15  C   UNL     1     139.786 147.798 119.370  1.00  0.00     0.001 A 
ATOM     16  C   UNL     1     138.694 149.852 120.915  1.00  0.00     0.012 A 
ATOM     17  C   UNL     1     140.445 149.029 119.456  1.00  0.00     0.012 A 
ENDBRANCH   1  12
TORSDOF 1
ENDMDL
MODEL 2
REMARK VINA RESULT:    -4.983      1.493      2.889
REMARK INTER + INTRA:          -5.536
REMARK INTER:                  -5.276
REMARK INTRA:                  -0.260
REMARK UNBOUND:                -0.263
REMARK SMILES O=c1cc(-c2ccccc2)oc2ccccc12
REMARK SMILES IDX 4 1 3 2 2 3 1 4 17 5 16 6 15 7 14 8 13 9 12 10 11 11 5 12
REMARK SMILES IDX 8 13 7 14 9 15 6 16 10 17
REMARK H PARENT
REMARK Flexibility Score: inf
ROOT
ATOM      1  C   UNL     1     139.562 150.526 120.454  1.00  0.00     0.138 A 
ATOM      2  C   UNL     1     138.691 151.590 120.773  1.00  0.00     0.100 A 
ATOM      3  C   UNL     1     139.188 152.894 120.828  1.00  0.00     0.193 A 
ATOM      4  O   UNL     1     138.410 153.845 121.113  1.00  0.00    -0.289 OA
ATOM      5  C   UNL     1     140.545 153.127 120.564  1.00  0.00     0.065 A 
ATOM      6  C   UNL     1     141.109 154.415 120.602  1.00  0.00     0.016 A 
ATOM      7  C   UNL     1     142.471 154.592 120.330  1.00  0.00     0.001 A 
ATOM      8  C   UNL     1     143.273 153.491 120.020  1.00  0.00     0.004 A 
ATOM      9  C   UNL     1     142.721 152.207 119.981  1.00  0.00     0.048 A 
ATOM     10  C   UNL     1     141.362 152.019 120.250  1.00  0.00     0.138 A 
ATOM     11  O   UNL     1     140.846 150.795 120.211  1.00  0.00    -0.456 OA
ENDROOT
BRANCH   1  12
ATOM     12  C   UNL     1     139.112 149.102 120.374  1.00  0.00     0.017 A 
ATOM     13  C   UNL     1     138.340 146.395 120.165  1.00  0.00     0.000 A 
ATOM     14  C   UNL     1     139.479 146.849 119.503  1.00  0.00     0.001 A 
ATOM     15  C   UNL     1     137.581 147.281 120.931  1.00  0.00     0.001 A 
ATOM     16  C   UNL     1     139.864 148.190 119.604  1.00  0.00     0.012 A 
ATOM     17  C   UNL     1     137.960 148.623 121.039  1.00  0.00     0.012 A 
ENDBRANCH   1  12
TORSDOF 1
ENDMDL
MODEL 3
REMARK VINA RESULT:    -4.981      1.459      2.620
REMARK INTER + INTRA:          -5.535
REMARK INTER:                  -5.275
REMARK INTRA:                  -0.260
REMARK UNBOUND:                -0.263
REMARK SMILES O=c1cc(-c2ccccc2)oc2ccccc12
REMARK SMILES IDX 4 1 3 2 2 3 1 4 17 5 16 6 15 7 14 8 13 9 12 10 11 11 5 12
REMARK SMILES IDX 8 13 7 14 9 15 6 16 10 17
REMARK H PARENT
REMARK Flexibility Score: inf
ROOT
ATOM      1  C   UNL     1     139.607 150.517 120.422  1.00  0.00     0.138 A 
ATOM      2  C   UNL     1     138.695 151.545 120.745  1.00  0.00     0.100 A 
ATOM      3  C   UNL     1     139.146 152.863 120.836  1.00  0.00     0.193 A 
ATOM      4  O   UNL     1     138.331 153.781 121.124  1.00  0.00    -0.289 OA
ATOM      5  C   UNL     1     140.498 153.146 120.602  1.00  0.00     0.065 A 
ATOM      6  C   UNL     1     141.018 154.452 120.676  1.00  0.00     0.016 A 
ATOM      7  C   UNL     1     142.377 154.680 120.434  1.00  0.00     0.001 A 
ATOM      8  C   UNL     1     143.222 153.614 120.118  1.00  0.00     0.004 A 
ATOM      9  C   UNL     1     142.715 152.313 120.042  1.00  0.00     0.048 A 
ATOM     10  C   UNL     1     141.358 152.074 120.282  1.00  0.00     0.138 A 
ATOM     11  O   UNL     1     140.885 150.834 120.208  1.00  0.00    -0.456 OA
ENDROOT
BRANCH   1  12
ATOM     12  C   UNL     1     139.207 149.081 120.305  1.00  0.00     0.017 A 
ATOM     13  C   UNL     1     138.373 146.389 120.140  1.00  0.00     0.000 A 
ATOM     14  C   UNL     1     137.623 147.309 120.871  1.00  0.00     0.001 A 
ATOM     15  C   UNL     1     139.536 146.801 119.490  1.00  0.00     0.001 A 
ATOM     16  C   UNL     1     138.034 148.642 120.955  1.00  0.00     0.012 A 
ATOM     17  C   UNL     1     139.954 148.134 119.567  1.00  0.00     0.012 A 
ENDBRANCH   1  12
TORSDOF 1
ENDMDL
MODEL 4
REMARK VINA RESULT:    -4.945      1.785      6.416
REMARK INTER + INTRA:          -5.497
REMARK INTER:                  -5.253
REMARK INTRA:                  -0.243
REMARK UNBOUND:                -0.263
REMARK SMILES O=c1cc(-c2ccccc2)oc2ccccc12
REMARK SMILES IDX 4 1 3 2 2 3 1 4 17 5 16 6 15 7 14 8 13 9 12 10 11 11 5 12
REMARK SMILES IDX 8 13 7 14 9 15 6 16 10 17
REMARK H PARENT
REMARK Flexibility Score: inf
ROOT
ATOM      1  C   UNL     1     139.849 151.028 120.590  1.00  0.00     0.138 A 
ATOM      2  C   UNL     1     138.740 151.043 121.463  1.00  0.00     0.100 A 
ATOM      3  C   UNL     1     137.968 149.890 121.616  1.00  0.00     0.193 A 
ATOM      4  O   UNL     1     136.978 149.905 122.397  1.00  0.00    -0.289 OA
ATOM      5  C   UNL     1     138.307 148.733 120.902  1.00  0.00     0.065 A 
ATOM      6  C   UNL     1     137.572 147.538 121.011  1.00  0.00     0.016 A 
ATOM      7  C   UNL     1     137.954 146.411 120.275  1.00  0.00     0.001 A 
ATOM      8  C   UNL     1     139.065 146.468 119.430  1.00  0.00     0.004 A 
ATOM      9  C   UNL     1     139.801 147.651 119.315  1.00  0.00     0.048 A 
ATOM     10  C   UNL     1     139.428 148.783 120.046  1.00  0.00     0.138 A 
ATOM     11  O   UNL     1     140.134 149.904 119.930  1.00  0.00    -0.456 OA
ENDROOT
BRANCH   1  12
ATOM     12  C   UNL     1     140.727 152.218 120.368  1.00  0.00     0.017 A 
ATOM     13  C   UNL     1     142.304 154.520 119.940  1.00  0.00     0.000 A 
ATOM     14  C   UNL     1     140.913 154.614 119.931  1.00  0.00     0.001 A 
ATOM     15  C   UNL     1     142.915 153.285 120.161  1.00  0.00     0.001 A 
ATOM     16  C   UNL     1     140.130 153.476 120.142  1.00  0.00     0.012 A 
ATOM     17  C   UNL     1     142.139 152.142 120.374  1.00  0.00     0.012 A 
ENDBRANCH   1  12
TORSDOF 1
ENDMDL
MODEL 5
REMARK VINA RESULT:    -4.929      2.846      4.729
REMARK INTER + INTRA:          -5.480
REMARK INTER:                  -5.254
REMARK INTRA:                  -0.226
REMARK UNBOUND:                -0.263
REMARK SMILES O=c1cc(-c2ccccc2)oc2ccccc12
REMARK SMILES IDX 4 1 3 2 2 3 1 4 17 5 16 6 15 7 14 8 13 9 12 10 11 11 5 12
REMARK SMILES IDX 8 13 7 14 9 15 6 16 10 17
REMARK H PARENT
REMARK Flexibility Score: inf
ROOT
ATOM      1  C   UNL     1     138.801 147.182 120.230  1.00  0.00     0.138 A 
ATOM      2  C   UNL     1     139.917 147.654 119.506  1.00  0.00     0.100 A 
ATOM      3  C   UNL     1     140.222 149.017 119.522  1.00  0.00     0.193 A 
ATOM      4  O   UNL     1     141.219 149.438 118.875  1.00  0.00    -0.289 OA
ATOM      5  C   UNL     1     139.417 149.895 120.259  1.00  0.00     0.065 A 
ATOM      6  C   UNL     1     139.669 151.278 120.318  1.00  0.00     0.016 A 
ATOM      7  C   UNL     1     138.833 152.112 121.069  1.00  0.00     0.001 A 
ATOM      8  C   UNL     1     137.746 151.575 121.762  1.00  0.00     0.004 A 
ATOM      9  C   UNL     1     137.487 150.202 121.709  1.00  0.00     0.048 A 
ATOM     10  C   UNL     1     138.317 149.360 120.962  1.00  0.00     0.138 A 
ATOM     11  O   UNL     1     138.063 148.056 120.917  1.00  0.00    -0.456 OA
ENDROOT
BRANCH   1  12
ATOM     12  C   UNL     1     138.405 145.741 120.266  1.00  0.00     0.017 A 
ATOM     13  C   UNL     1     137.687 143.016 120.428  1.00  0.00     0.000 A 
ATOM     14  C   UNL     1     138.263 143.652 121.526  1.00  0.00     0.001 A 
ATOM     15  C   UNL     1     137.465 143.728 119.249  1.00  0.00     0.001 A 
ATOM     16  C   UNL     1     138.620 145.001 121.448  1.00  0.00     0.012 A 
ATOM     17  C   UNL     1     137.818 145.079 119.164  1.00  0.00     0.012 A 
ENDBRANCH   1  12
TORSDOF 1
ENDMDL
MODEL 6
REMARK VINA RESULT:    -4.824      1.388      5.830
REMARK INTER + INTRA:          -5.368
REMARK INTER:                  -5.142
REMARK INTRA:                  -0.226
REMARK UNBOUND:                -0.263
REMARK SMILES O=c1cc(-c2ccccc2)oc2ccccc12
REMARK SMILES IDX 4 1 3 2 2 3 1 4 17 5 16 6 15 7 14 8 13 9 12 10 11 11 5 12
REMARK SMILES IDX 8 13 7 14 9 15 6 16 10 17
REMARK H PARENT
REMARK Flexibility Score: inf
ROOT
ATOM      1  C   UNL     1     140.944 152.320 120.330  1.00  0.00     0.138 A 
ATOM      2  C   UNL     1     141.852 151.453 119.685  1.00  0.00     0.100 A 
ATOM      3  C   UNL     1     141.491 150.124 119.455  1.00  0.00     0.193 A 
ATOM      4  O   UNL     1     142.302 149.350 118.878  1.00  0.00    -0.289 OA
ATOM      5  C   UNL     1     140.230 149.671 119.866  1.00  0.00     0.065 A 
ATOM      6  C   UNL     1     139.803 148.346 119.664  1.00  0.00     0.016 A 
ATOM      7  C   UNL     1     138.534 147.945 120.095  1.00  0.00     0.001 A 
ATOM      8  C   UNL     1     137.686 148.858 120.726  1.00  0.00     0.004 A 
ATOM      9  C   UNL     1     138.102 150.177 120.932  1.00  0.00     0.048 A 
ATOM     10  C   UNL     1     139.369 150.589 120.505  1.00  0.00     0.138 A 
ATOM     11  O   UNL     1     139.755 151.844 120.705  1.00  0.00    -0.456 OA
ENDROOT
BRANCH   1  12
ATOM     12  C   UNL     1     141.251 153.755 120.615  1.00  0.00     0.017 A 
ATOM     13  C   UNL     1     141.768 156.491 121.083  1.00  0.00     0.000 A 
ATOM     14  C   UNL     1     140.874 156.110 120.083  1.00  0.00     0.001 A 
ATOM     15  C   UNL     1     142.407 155.518 121.852  1.00  0.00     0.001 A 
ATOM     16  C   UNL     1     140.617 154.756 119.849  1.00  0.00     0.012 A 
ATOM     17  C   UNL     1     142.153 154.161 121.625  1.00  0.00     0.012 A 
ENDBRANCH   1  12
TORSDOF 1
ENDMDL
MODEL 7
REMARK VINA RESULT:    -4.698      1.608      6.168
REMARK INTER + INTRA:          -5.235
REMARK INTER:                  -4.971
REMARK INTRA:                  -0.264
REMARK UNBOUND:                -0.263
REMARK SMILES O=c1cc(-c2ccccc2)oc2ccccc12
REMARK SMILES IDX 4 1 3 2 2 3 1 4 17 5 16 6 15 7 14 8 13 9 12 10 11 11 5 12
REMARK SMILES IDX 8 13 7 14 9 15 6 16 10 17
REMARK H PARENT
REMARK Flexibility Score: inf
ROOT
ATOM      1  C   UNL     1     141.149 154.973 120.905  1.00  0.00     0.138 A 
ATOM      2  C   UNL     1     142.497 154.835 120.510  1.00  0.00     0.100 A 
ATOM      3  C   UNL     1     142.967 153.590 120.089  1.00  0.00     0.193 A 
ATOM      4  O   UNL     1     144.172 153.467 119.736  1.00  0.00    -0.289 OA
ATOM      5  C   UNL     1     142.093 152.495 120.063  1.00  0.00     0.065 A 
ATOM      6  C   UNL     1     142.502 151.214 119.650  1.00  0.00     0.016 A 
ATOM      7  C   UNL     1     141.588 150.155 119.643  1.00  0.00     0.001 A 
ATOM      8  C   UNL     1     140.267 150.364 120.047  1.00  0.00     0.004 A 
ATOM      9  C   UNL     1     139.851 151.634 120.460  1.00  0.00     0.048 A 
ATOM     10  C   UNL     1     140.757 152.700 120.470  1.00  0.00     0.138 A 
ATOM     11  O   UNL     1     140.353 153.903 120.865  1.00  0.00    -0.456 OA
ENDROOT
BRANCH   1  12
ATOM     12  C   UNL     1     140.565 156.269 121.369  1.00  0.00     0.017 A 
ATOM     13  C   UNL     1     139.542 158.763 122.208  1.00  0.00     0.000 A 
ATOM     14  C   UNL     1     140.777 158.695 121.565  1.00  0.00     0.001 A 
ATOM     15  C   UNL     1     138.812 157.596 122.437  1.00  0.00     0.001 A 
ATOM     16  C   UNL     1     141.286 157.462 121.148  1.00  0.00     0.012 A 
ATOM     17  C   UNL     1     139.314 156.358 122.022  1.00  0.00     0.012 A 
ENDBRANCH   1  12
TORSDOF 1
ENDMDL
MODEL 8
REMARK VINA RESULT:    -4.694      1.714      2.485
REMARK INTER + INTRA:          -5.231
REMARK INTER:                  -5.001
REMARK INTRA:                  -0.230
REMARK UNBOUND:                -0.263
REMARK SMILES O=c1cc(-c2ccccc2)oc2ccccc12
REMARK SMILES IDX 4 1 3 2 2 3 1 4 17 5 16 6 15 7 14 8 13 9 12 10 11 11 5 12
REMARK SMILES IDX 8 13 7 14 9 15 6 16 10 17
REMARK H PARENT
REMARK Flexibility Score: inf
ROOT
ATOM      1  C   UNL     1     141.336 153.192 120.283  1.00  0.00     0.138 A 
ATOM      2  C   UNL     1     142.189 153.670 121.301  1.00  0.00     0.100 A 
ATOM      3  C   UNL     1     142.256 155.041 121.556  1.00  0.00     0.193 A 
ATOM      4  O   UNL     1     143.018 155.467 122.466  1.00  0.00    -0.289 OA
ATOM      5  C   UNL     1     141.474 155.923 120.799  1.00  0.00     0.065 A 
ATOM      6  C   UNL     1     141.495 157.314 121.005  1.00  0.00     0.016 A 
ATOM      7  C   UNL     1     140.693 158.151 120.221  1.00  0.00     0.001 A 
ATOM      8  C   UNL     1     139.871 157.609 119.230  1.00  0.00     0.004 A 
ATOM      9  C   UNL     1     139.845 156.227 119.017  1.00  0.00     0.048 A 
ATOM     10  C   UNL     1     140.641 155.381 119.796  1.00  0.00     0.138 A 
ATOM     11  O   UNL     1     140.610 154.070 119.587  1.00  0.00    -0.456 OA
ENDROOT
BRANCH   1  12
ATOM     12  C   UNL     1     141.204 151.742 119.944  1.00  0.00     0.017 A 
ATOM     13  C   UNL     1     140.861 149.007 119.334  1.00  0.00     0.000 A 
ATOM     14  C   UNL     1     139.801 149.743 119.861  1.00  0.00     0.001 A 
ATOM     15  C   UNL     1     142.092 149.624 119.109  1.00  0.00     0.001 A 
ATOM     16  C   UNL     1     139.968 151.097 120.165  1.00  0.00     0.012 A 
ATOM     17  C   UNL     1     142.267 150.979 119.408  1.00  0.00     0.012 A 
ENDBRANCH   1  12
TORSDOF 1
ENDMDL
MODEL 9
REMARK VINA RESULT:    -4.459      1.402      2.509
REMARK INTER + INTRA:          -4.982
REMARK INTER:                  -4.746
REMARK INTRA:                  -0.236
REMARK UNBOUND:                -0.263
REMARK SMILES O=c1cc(-c2ccccc2)oc2ccccc12
REMARK SMILES IDX 4 1 3 2 2 3 1 4 17 5 16 6 15 7 14 8 13 9 12 10 11 11 5 12
REMARK SMILES IDX 8 13 7 14 9 15 6 16 10 17
REMARK H PARENT
REMARK Flexibility Score: inf
ROOT
ATOM      1  C   UNL     1     139.661 151.982 119.949  1.00  0.00     0.138 A 
ATOM      2  C   UNL     1     138.821 152.927 119.322  1.00  0.00     0.100 A 
ATOM      3  C   UNL     1     139.109 154.288 119.436  1.00  0.00     0.193 A 
ATOM      4  O   UNL     1     138.358 155.132 118.875  1.00  0.00    -0.289 OA
ATOM      5  C   UNL     1     140.229 154.696 120.172  1.00  0.00     0.065 A 
ATOM      6  C   UNL     1     140.576 156.051 120.327  1.00  0.00     0.016 A 
ATOM      7  C   UNL     1     141.706 156.405 121.072  1.00  0.00     0.001 A 
ATOM      8  C   UNL     1     142.493 155.415 121.666  1.00  0.00     0.004 A 
ATOM      9  C   UNL     1     142.156 154.066 121.518  1.00  0.00     0.048 A 
ATOM     10  C   UNL     1     141.029 153.702 120.775  1.00  0.00     0.138 A 
ATOM     11  O   UNL     1     140.716 152.417 120.640  1.00  0.00    -0.456 OA
ENDROOT
BRANCH   1  12
ATOM     12  C   UNL     1     139.425 150.507 119.877  1.00  0.00     0.017 A 
ATOM     13  C   UNL     1     139.069 147.712 119.702  1.00  0.00     0.000 A 
ATOM     14  C   UNL     1     140.259 148.294 119.266  1.00  0.00     0.001 A 
ATOM     15  C   UNL     1     138.054 148.514 120.225  1.00  0.00     0.001 A 
ATOM     16  C   UNL     1     140.437 149.677 119.351  1.00  0.00     0.012 A 
ATOM     17  C   UNL     1     138.226 149.900 120.315  1.00  0.00     0.012 A 
ENDBRANCH   1  12
TORSDOF 1
ENDMDL
