MODEL 1
REMARK VINA RESULT:     1.551      0.000      0.000
REMARK INTER + INTRA:           8.784
REMARK INTER:                   4.090
REMARK INTRA:                   4.694
REMARK UNBOUND:                 4.694
REMARK SMILES CCCCCCCCCCCCCCCCCCCCCCCCCCCCCC(=O)[O-]
REMARK SMILES IDX 16 1 17 2 18 3 19 4 20 5 21 6 22 7 23 8 24 9 25 10 26 11
REMARK SMILES IDX 27 12 28 13 29 14 30 15 31 16 32 17 15 18 14 19 13 20 12 21
REMARK SMILES IDX 11 22 10 23 9 24 8 25 7 26 6 27 5 28 4 29 3 30 2 31 1 32
REMARK H PARENT
REMARK Flexibility Score: inf
ROOT
ATOM      1  C   UNL     1     121.493  69.526  -0.343  1.00  0.00     0.000 C 
ENDROOT
BRANCH   1   2
ATOM      2  C   UNL     1     120.540  69.727   0.854  1.00  0.00     0.000 C 
BRANCH   2   3
ATOM      3  C   UNL     1     120.826  70.955   1.746  1.00  0.00     0.000 C 
BRANCH   3   4
ATOM      4  C   UNL     1     121.448  72.164   1.026  1.00  0.00     0.000 C 
BRANCH   4   5
ATOM      5  C   UNL     1     121.396  73.450   1.867  1.00  0.00     0.000 C 
BRANCH   5   6
ATOM      6  C   UNL     1     121.037  73.176   3.336  1.00  0.00     0.000 C 
BRANCH   6   7
ATOM      7  C   UNL     1     120.254  71.864   3.515  1.00  0.00     0.000 C 
BRANCH   7   8
ATOM      8  C   UNL     1     119.924  71.560   4.985  1.00  0.00     0.000 C 
BRANCH   8   9
ATOM      9  C   UNL     1     120.927  70.635   5.702  1.00  0.00     0.000 C 
BRANCH   9  10
ATOM     10  C   UNL     1     122.406  70.985   5.429  1.00  0.00     0.000 C 
BRANCH  10  11
ATOM     11  C   UNL     1     123.011  71.855   6.545  1.00  0.00     0.000 C 
BRANCH  11  12
ATOM     12  C   UNL     1     122.166  73.101   6.853  1.00  0.00     0.000 C 
BRANCH  12  13
ATOM     13  C   UNL     1     121.111  72.845   7.941  1.00  0.00     0.006 C 
BRANCH  13  14
ATOM     14  C   UNL     1     121.539  73.470   9.275  1.00  0.00     0.053 C 
BRANCH  14  15
ATOM     15  C   UNL     1     120.522  73.220  10.345  1.00  0.00     0.041 C 
ATOM     16  O   UNL     1     120.139  74.158  11.094  1.00  0.00    -0.550 OA
ATOM     17  O   UNL     1     119.978  71.952  10.502  1.00  0.00    -0.550 OA
ENDBRANCH  14  15
ENDBRANCH  13  14
ENDBRANCH  12  13
ENDBRANCH  11  12
ENDBRANCH  10  11
ENDBRANCH   9  10
ENDBRANCH   8   9
ENDBRANCH   7   8
ENDBRANCH   6   7
ENDBRANCH   5   6
ENDBRANCH   4   5
ENDBRANCH   3   4
ENDBRANCH   2   3
ENDBRANCH   1   2
BRANCH   1  18
ATOM     18  C   UNL     1     120.850  69.734  -1.731  1.00  0.00     0.000 C 
BRANCH  18  19
ATOM     19  C   UNL     1     119.875  68.616  -2.146  1.00  0.00     0.000 C 
BRANCH  19  20
ATOM     20  C   UNL     1     120.329  67.188  -1.788  1.00  0.00     0.000 C 
BRANCH  20  21
ATOM     21  C   UNL     1     120.347  66.194  -2.963  1.00  0.00     0.000 C 
BRANCH  21  22
ATOM     22  C   UNL     1     120.496  66.880  -4.333  1.00  0.00     0.000 C 
BRANCH  22  23
ATOM     23  C   UNL     1     120.267  65.913  -5.505  1.00  0.00     0.000 C 
BRANCH  23  24
ATOM     24  C   UNL     1     120.676  66.515  -6.863  1.00  0.00    -0.000 C 
BRANCH  24  25
ATOM     25  C   UNL     1     121.447  65.513  -7.746  1.00  0.00    -0.000 C 
BRANCH  25  26
ATOM     26  C   UNL     1     122.161  66.161  -8.947  1.00  0.00    -0.000 C 
BRANCH  26  27
ATOM     27  C   UNL     1     121.925  67.674  -9.040  1.00  0.00    -0.000 C 
BRANCH  27  28
ATOM     28  C   UNL     1     120.427  67.999  -9.104  1.00  0.00    -0.000 C 
BRANCH  28  29
ATOM     29  C   UNL     1     119.879  68.555  -7.777  1.00  0.00    -0.000 C 
BRANCH  29  30
ATOM     30  C   UNL     1     120.734  69.667  -7.135  1.00  0.00    -0.000 C 
BRANCH  30  31
ATOM     31  C   UNL     1     119.952  70.579  -6.167  1.00  0.00    -0.003 C 
ATOM     32  C   UNL     1     120.143  70.183  -4.702  1.00  0.00     0.004 C 
ENDBRANCH  30  31
ENDBRANCH  29  30
ENDBRANCH  28  29
ENDBRANCH  27  28
ENDBRANCH  26  27
ENDBRANCH  25  26
ENDBRANCH  24  25
ENDBRANCH  23  24
ENDBRANCH  22  23
ENDBRANCH  21  22
ENDBRANCH  20  21
ENDBRANCH  19  20
ENDBRANCH  18  19
ENDBRANCH   1  18
TORSDOF 28
ENDMDL
MODEL 2
REMARK VINA RESULT:     1.650      1.251      2.560
REMARK INTER + INTRA:           9.045
REMARK INTER:                   4.869
REMARK INTRA:                   4.176
REMARK UNBOUND:                 4.694
REMARK SMILES CCCCCCCCCCCCCCCCCCCCCCCCCCCCCC(=O)[O-]
REMARK SMILES IDX 16 1 17 2 18 3 19 4 20 5 21 6 22 7 23 8 24 9 25 10 26 11
REMARK SMILES IDX 27 12 28 13 29 14 30 15 31 16 32 17 15 18 14 19 13 20 12 21
REMARK SMILES IDX 11 22 10 23 9 24 8 25 7 26 6 27 5 28 4 29 3 30 2 31 1 32
REMARK H PARENT
REMARK Flexibility Score: inf
ROOT
ATOM      1  C   UNL     1     121.646  70.178   0.255  1.00  0.00     0.000 C 
ENDROOT
BRANCH   1   2
ATOM      2  C   UNL     1     121.327  71.560   0.864  1.00  0.00     0.000 C 
BRANCH   2   3
ATOM      3  C   UNL     1     120.039  71.642   1.712  1.00  0.00     0.000 C 
BRANCH   3   4
ATOM      4  C   UNL     1     119.933  72.866   2.636  1.00  0.00     0.000 C 
BRANCH   4   5
ATOM      5  C   UNL     1     121.251  73.180   3.364  1.00  0.00     0.000 C 
BRANCH   5   6
ATOM      6  C   UNL     1     122.263  72.027   3.266  1.00  0.00     0.000 C 
BRANCH   6   7
ATOM      7  C   UNL     1     122.887  71.677   4.628  1.00  0.00     0.000 C 
BRANCH   7   8
ATOM      8  C   UNL     1     122.179  70.504   5.326  1.00  0.00     0.000 C 
BRANCH   8   9
ATOM      9  C   UNL     1     120.677  70.365   5.010  1.00  0.00     0.000 C 
BRANCH   9  10
ATOM     10  C   UNL     1     119.889  71.687   5.125  1.00  0.00     0.000 C 
BRANCH  10  11
ATOM     11  C   UNL     1     120.460  72.608   6.217  1.00  0.00     0.000 C 
BRANCH  11  12
ATOM     12  C   UNL     1     121.246  71.842   7.292  1.00  0.00     0.000 C 
BRANCH  12  13
ATOM     13  C   UNL     1     120.534  71.839   8.654  1.00  0.00     0.006 C 
BRANCH  13  14
ATOM     14  C   UNL     1     119.876  73.196   8.929  1.00  0.00     0.053 C 
BRANCH  14  15
ATOM     15  C   UNL     1     120.513  73.885  10.096  1.00  0.00     0.041 C 
ATOM     16  O   UNL     1     120.512  75.143  10.174  1.00  0.00    -0.550 OA
ATOM     17  O   UNL     1     121.089  73.136  11.113  1.00  0.00    -0.550 OA
ENDBRANCH  14  15
ENDBRANCH  13  14
ENDBRANCH  12  13
ENDBRANCH  11  12
ENDBRANCH  10  11
ENDBRANCH   9  10
ENDBRANCH   8   9
ENDBRANCH   7   8
ENDBRANCH   6   7
ENDBRANCH   5   6
ENDBRANCH   4   5
ENDBRANCH   3   4
ENDBRANCH   2   3
ENDBRANCH   1   2
BRANCH   1  18
ATOM     18  C   UNL     1     121.896  70.180  -1.270  1.00  0.00     0.000 C 
BRANCH  18  19
ATOM     19  C   UNL     1     120.772  69.520  -2.091  1.00  0.00     0.000 C 
BRANCH  19  20
ATOM     20  C   UNL     1     120.165  70.405  -3.196  1.00  0.00     0.000 C 
BRANCH  20  21
ATOM     21  C   UNL     1     120.356  69.882  -4.631  1.00  0.00     0.000 C 
BRANCH  21  22
ATOM     22  C   UNL     1     119.938  68.411  -4.798  1.00  0.00     0.000 C 
BRANCH  22  23
ATOM     23  C   UNL     1     120.768  67.458  -3.925  1.00  0.00     0.000 C 
BRANCH  23  24
ATOM     24  C   UNL     1     121.351  66.274  -4.722  1.00  0.00    -0.000 C 
BRANCH  24  25
ATOM     25  C   UNL     1     120.566  64.966  -4.496  1.00  0.00    -0.000 C 
BRANCH  25  26
ATOM     26  C   UNL     1     120.118  64.276  -5.798  1.00  0.00    -0.000 C 
BRANCH  26  27
ATOM     27  C   UNL     1     119.906  65.260  -6.956  1.00  0.00    -0.000 C 
BRANCH  27  28
ATOM     28  C   UNL     1     120.617  64.780  -8.229  1.00  0.00    -0.000 C 
BRANCH  28  29
ATOM     29  C   UNL     1     121.227  65.936  -9.042  1.00  0.00    -0.000 C 
BRANCH  29  30
ATOM     30  C   UNL     1     122.099  66.915  -8.230  1.00  0.00    -0.000 C 
BRANCH  30  31
ATOM     31  C   UNL     1     121.533  68.348  -8.159  1.00  0.00    -0.003 C 
ATOM     32  C   UNL     1     120.114  68.449  -8.721  1.00  0.00     0.004 C 
ENDBRANCH  30  31
ENDBRANCH  29  30
ENDBRANCH  28  29
ENDBRANCH  27  28
ENDBRANCH  26  27
ENDBRANCH  25  26
ENDBRANCH  24  25
ENDBRANCH  23  24
ENDBRANCH  22  23
ENDBRANCH  21  22
ENDBRANCH  20  21
ENDBRANCH  19  20
ENDBRANCH  18  19
ENDBRANCH   1  18
TORSDOF 28
ENDMDL
MODEL 3
REMARK VINA RESULT:     3.362      4.412     12.886
REMARK INTER + INTRA:          13.559
REMARK INTER:                  11.659
REMARK INTRA:                   1.900
REMARK UNBOUND:                 4.694
REMARK SMILES CCCCCCCCCCCCCCCCCCCCCCCCCCCCCC(=O)[O-]
REMARK SMILES IDX 16 1 17 2 18 3 19 4 20 5 21 6 22 7 23 8 24 9 25 10 26 11
REMARK SMILES IDX 27 12 28 13 29 14 30 15 31 16 32 17 15 18 14 19 13 20 12 21
REMARK SMILES IDX 11 22 10 23 9 24 8 25 7 26 6 27 5 28 4 29 3 30 2 31 1 32
REMARK H PARENT
REMARK Flexibility Score: inf
ROOT
ATOM      1  C   UNL     1     122.617  69.738  -2.351  1.00  0.00     0.000 C 
ENDROOT
BRANCH   1   2
ATOM      2  C   UNL     1     121.357  69.811  -3.239  1.00  0.00     0.000 C 
BRANCH   2   3
ATOM      3  C   UNL     1     120.155  68.960  -2.776  1.00  0.00     0.000 C 
BRANCH   3   4
ATOM      4  C   UNL     1     119.897  67.681  -3.591  1.00  0.00     0.000 C 
BRANCH   4   5
ATOM      5  C   UNL     1     121.134  66.772  -3.681  1.00  0.00     0.000 C 
BRANCH   5   6
ATOM      6  C   UNL     1     120.898  65.549  -4.581  1.00  0.00     0.000 C 
BRANCH   6   7
ATOM      7  C   UNL     1     122.070  65.296  -5.545  1.00  0.00     0.000 C 
BRANCH   7   8
ATOM      8  C   UNL     1     121.858  64.057  -6.431  1.00  0.00     0.000 C 
BRANCH   8   9
ATOM      9  C   UNL     1     121.228  64.339  -7.809  1.00  0.00     0.000 C 
BRANCH   9  10
ATOM     10  C   UNL     1     119.990  65.260  -7.754  1.00  0.00     0.000 C 
BRANCH  10  11
ATOM     11  C   UNL     1     119.886  66.165  -8.993  1.00  0.00     0.000 C 
BRANCH  11  12
ATOM     12  C   UNL     1     120.939  67.285  -9.004  1.00  0.00     0.000 C 
BRANCH  12  13
ATOM     13  C   UNL     1     120.338  68.663  -8.682  1.00  0.00     0.006 C 
BRANCH  13  14
ATOM     14  C   UNL     1     119.938  68.753  -7.204  1.00  0.00     0.053 C 
BRANCH  14  15
ATOM     15  C   UNL     1     120.466  70.004  -6.572  1.00  0.00     0.041 C 
ATOM     16  O   UNL     1     121.456  69.957  -5.794  1.00  0.00    -0.550 OA
ATOM     17  O   UNL     1     119.879  71.229  -6.862  1.00  0.00    -0.550 OA
ENDBRANCH  14  15
ENDBRANCH  13  14
ENDBRANCH  12  13
ENDBRANCH  11  12
ENDBRANCH  10  11
ENDBRANCH   9  10
ENDBRANCH   8   9
ENDBRANCH   7   8
ENDBRANCH   6   7
ENDBRANCH   5   6
ENDBRANCH   4   5
ENDBRANCH   3   4
ENDBRANCH   2   3
ENDBRANCH   1   2
BRANCH   1  18
ATOM     18  C   UNL     1     122.349  69.410  -0.865  1.00  0.00     0.000 C 
BRANCH  18  19
ATOM     19  C   UNL     1     120.863  69.483  -0.463  1.00  0.00     0.000 C 
BRANCH  19  20
ATOM     20  C   UNL     1     120.125  70.756  -0.921  1.00  0.00     0.000 C 
BRANCH  20  21
ATOM     21  C   UNL     1     120.334  71.990  -0.025  1.00  0.00     0.000 C 
BRANCH  21  22
ATOM     22  C   UNL     1     120.716  71.629   1.421  1.00  0.00     0.000 C 
BRANCH  22  23
ATOM     23  C   UNL     1     121.687  72.643   2.046  1.00  0.00     0.000 C 
BRANCH  23  24
ATOM     24  C   UNL     1     121.023  73.516   3.128  1.00  0.00    -0.000 C 
BRANCH  24  25
ATOM     25  C   UNL     1     121.297  72.999   4.555  1.00  0.00    -0.000 C 
BRANCH  25  26
ATOM     26  C   UNL     1     122.170  71.732   4.602  1.00  0.00    -0.000 C 
BRANCH  26  27
ATOM     27  C   UNL     1     121.934  70.887   5.861  1.00  0.00    -0.000 C 
BRANCH  27  28
ATOM     28  C   UNL     1     120.463  70.468   5.980  1.00  0.00    -0.000 C 
BRANCH  28  29
ATOM     29  C   UNL     1     119.875  70.743   7.377  1.00  0.00    -0.000 C 
BRANCH  29  30
ATOM     30  C   UNL     1     120.232  72.120   7.973  1.00  0.00    -0.000 C 
BRANCH  30  31
ATOM     31  C   UNL     1     120.283  72.140   9.515  1.00  0.00    -0.003 C 
ATOM     32  C   UNL     1     120.584  73.531  10.076  1.00  0.00     0.004 C 
ENDBRANCH  30  31
ENDBRANCH  29  30
ENDBRANCH  28  29
ENDBRANCH  27  28
ENDBRANCH  26  27
ENDBRANCH  25  26
ENDBRANCH  24  25
ENDBRANCH  23  24
ENDBRANCH  22  23
ENDBRANCH  21  22
ENDBRANCH  20  21
ENDBRANCH  19  20
ENDBRANCH  18  19
ENDBRANCH   1  18
TORSDOF 28
ENDMDL
