MODEL 1
REMARK VINA RESULT:    -5.023      0.000      0.000
REMARK INTER + INTRA:          -6.672
REMARK INTER:                  -6.051
REMARK INTRA:                  -0.621
REMARK UNBOUND:                -0.621
REMARK SMILES O=c1ccn([C@H]2O[C@H](CO)[C@H](O)[C@@H]2O)c(=O)[nH]1
REMARK SMILES IDX 6 1 13 2 11 3 8 4 7 5 5 6 3 7 4 8 2 9 17 10 1 11 15 12 16 14
REMARK SMILES IDX 14 15 12 17 9 19 10 20
REMARK H PARENT 17 13 14 16 12 18 10 21
REMARK Flexibility Score: inf
ROOT
ATOM      1  C   UNL     1      10.645 -12.362  17.643  1.00  0.00     0.255 C 
ATOM      2  C   UNL     1      10.274 -11.315  16.588  1.00  0.00     0.196 C 
ATOM      3  C   UNL     1      10.814 -10.038  17.189  1.00  0.00     0.179 C 
ATOM      4  C   UNL     1      12.019 -10.563  17.987  1.00  0.00     0.178 C 
ATOM      5  O   UNL     1      11.775 -11.905  18.363  1.00  0.00    -0.347 OA
ENDROOT
BRANCH   1   6
ATOM      6  N   UNL     1      10.907 -13.678  17.025  1.00  0.00    -0.271 N 
ATOM      7  C   UNL     1      12.113 -14.973  15.404  1.00  0.00     0.090 A 
ATOM      8  C   UNL     1      11.815 -13.753  16.005  1.00  0.00     0.099 A 
ATOM      9  C   UNL     1      11.477 -16.118  15.871  1.00  0.00     0.253 A 
ATOM     10  N   UNL     1      10.591 -16.028  16.896  1.00  0.00    -0.274 N 
ATOM     11  O   UNL     1      11.725 -17.236  15.344  1.00  0.00    -0.269 OA
ATOM     12  C   UNL     1      10.307 -14.831  17.479  1.00  0.00     0.330 A 
ATOM     13  H   UNL     1      10.122 -16.896  17.247  1.00  0.00     0.175 HD
ATOM     14  O   UNL     1       9.493 -14.797  18.442  1.00  0.00    -0.248 OA
ENDBRANCH   1   6
BRANCH   2  15
ATOM     15  O   UNL     1       8.896 -11.263  16.296  1.00  0.00    -0.386 OA
ATOM     16  H   UNL     1       8.510 -12.170  16.401  1.00  0.00     0.211 HD
ENDBRANCH   2  15
BRANCH   3  17
ATOM     17  O   UNL     1       9.865  -9.380  17.999  1.00  0.00    -0.387 OA
ATOM     18  H   UNL     1      10.109  -9.525  18.951  1.00  0.00     0.211 HD
ENDBRANCH   3  17
BRANCH   4  19
ATOM     19  C   UNL     1      12.382  -9.724  19.221  1.00  0.00     0.191 C 
BRANCH  19  20
ATOM     20  O   UNL     1      11.541 -10.034  20.300  1.00  0.00    -0.394 OA
ATOM     21  H   UNL     1      11.214 -10.958  20.149  1.00  0.00     0.210 HD
ENDBRANCH  19  20
ENDBRANCH   4  19
TORSDOF 5
ENDMDL
MODEL 2
REMARK VINA RESULT:    -4.950     16.586     18.177
REMARK INTER + INTRA:          -6.583
REMARK INTER:                  -5.959
REMARK INTRA:                  -0.624
REMARK UNBOUND:                -0.621
REMARK SMILES O=c1ccn([C@H]2O[C@H](CO)[C@H](O)[C@@H]2O)c(=O)[nH]1
REMARK SMILES IDX 6 1 13 2 11 3 8 4 7 5 5 6 3 7 4 8 2 9 17 10 1 11 15 12 16 14
REMARK SMILES IDX 14 15 12 17 9 19 10 20
REMARK H PARENT 17 13 14 16 12 18 10 21
REMARK Flexibility Score: inf
ROOT
ATOM      1  C   UNL     1       0.099 -26.145  12.738  1.00  0.00     0.255 C 
ATOM      2  C   UNL     1       0.876 -25.563  13.923  1.00  0.00     0.196 C 
ATOM      3  C   UNL     1      -0.165 -25.540  15.018  1.00  0.00     0.179 C 
ATOM      4  C   UNL     1      -1.041 -26.743  14.631  1.00  0.00     0.178 C 
ATOM      5  O   UNL     1      -0.961 -26.943  13.232  1.00  0.00    -0.347 OA
ENDROOT
BRANCH   1   6
ATOM      6  N   UNL     1       0.982 -26.928  11.848  1.00  0.00    -0.271 N 
ATOM      7  C   UNL     1       1.711 -29.076  11.067  1.00  0.00     0.090 A 
ATOM      8  C   UNL     1       0.916 -28.293  11.899  1.00  0.00     0.099 A 
ATOM      9  C   UNL     1       2.566 -28.441  10.172  1.00  0.00     0.253 A 
ATOM     10  N   UNL     1       2.605 -27.085  10.123  1.00  0.00    -0.274 N 
ATOM     11  O   UNL     1       3.299 -29.124   9.407  1.00  0.00    -0.269 OA
ATOM     12  C   UNL     1       1.822 -26.327  10.939  1.00  0.00     0.330 A 
ATOM     13  H   UNL     1       3.245 -26.614   9.440  1.00  0.00     0.175 HD
ATOM     14  O   UNL     1       1.876 -25.071  10.845  1.00  0.00    -0.248 OA
ENDBRANCH   1   6
BRANCH   2  15
ATOM     15  O   UNL     1       1.451 -24.303  13.664  1.00  0.00    -0.386 OA
ATOM     16  H   UNL     1       2.433 -24.409  13.577  1.00  0.00     0.211 HD
ENDBRANCH   2  15
BRANCH   3  17
ATOM     17  O   UNL     1      -0.884 -24.327  15.052  1.00  0.00    -0.387 OA
ATOM     18  H   UNL     1      -1.758 -24.467  14.600  1.00  0.00     0.211 HD
ENDBRANCH   3  17
BRANCH   4  19
ATOM     19  C   UNL     1      -2.509 -26.630  15.067  1.00  0.00     0.191 C 
BRANCH  19  20
ATOM     20  O   UNL     1      -2.602 -26.288  16.424  1.00  0.00    -0.394 OA
ATOM     21  H   UNL     1      -3.387 -26.774  16.787  1.00  0.00     0.210 HD
ENDBRANCH  19  20
ENDBRANCH   4  19
TORSDOF 5
ENDMDL
MODEL 3
REMARK VINA RESULT:    -4.900      1.842      5.858
REMARK INTER + INTRA:          -6.524
REMARK INTER:                  -5.819
REMARK INTRA:                  -0.706
REMARK UNBOUND:                -0.621
REMARK SMILES O=c1ccn([C@H]2O[C@H](CO)[C@H](O)[C@@H]2O)c(=O)[nH]1
REMARK SMILES IDX 6 1 13 2 11 3 8 4 7 5 5 6 3 7 4 8 2 9 17 10 1 11 15 12 16 14
REMARK SMILES IDX 14 15 12 17 9 19 10 20
REMARK H PARENT 17 13 14 16 12 18 10 21
REMARK Flexibility Score: inf
ROOT
ATOM      1  C   UNL     1      10.709 -15.086  15.708  1.00  0.00     0.255 C 
ATOM      2  C   UNL     1      12.004 -15.885  15.886  1.00  0.00     0.196 C 
ATOM      3  C   UNL     1      12.264 -16.403  14.491  1.00  0.00     0.179 C 
ATOM      4  C   UNL     1      11.652 -15.284  13.632  1.00  0.00     0.178 C 
ATOM      5  O   UNL     1      10.621 -14.650  14.364  1.00  0.00    -0.347 OA
ENDROOT
BRANCH   1   6
ATOM      6  N   UNL     1      10.649 -13.943  16.642  1.00  0.00    -0.271 N 
ATOM      7  C   UNL     1      11.071 -11.617  17.057  1.00  0.00     0.090 A 
ATOM      8  C   UNL     1      11.124 -12.730  16.223  1.00  0.00     0.099 A 
ATOM      9  C   UNL     1      10.513 -11.759  18.323  1.00  0.00     0.253 A 
ATOM     10  N   UNL     1      10.031 -12.966  18.716  1.00  0.00    -0.274 N 
ATOM     11  O   UNL     1      10.454 -10.769  19.100  1.00  0.00    -0.269 OA
ATOM     12  C   UNL     1      10.085 -14.049  17.893  1.00  0.00     0.330 A 
ATOM     13  H   UNL     1       9.605 -13.063  19.668  1.00  0.00     0.175 HD
ATOM     14  O   UNL     1       9.606 -15.146  18.292  1.00  0.00    -0.248 OA
ENDBRANCH   1   6
BRANCH   2  15
ATOM     15  O   UNL     1      11.918 -16.901  16.859  1.00  0.00    -0.386 OA
ATOM     16  H   UNL     1      11.959 -16.489  17.759  1.00  0.00     0.211 HD
ENDBRANCH   2  15
BRANCH   3  17
ATOM     17  O   UNL     1      11.665 -17.659  14.263  1.00  0.00    -0.387 OA
ATOM     18  H   UNL     1      11.983 -18.290  14.961  1.00  0.00     0.211 HD
ENDBRANCH   3  17
BRANCH   4  19
ATOM     19  C   UNL     1      11.125 -15.745  12.265  1.00  0.00     0.191 C 
BRANCH  19  20
ATOM     20  O   UNL     1       9.808 -16.216  12.370  1.00  0.00    -0.394 OA
ATOM     21  H   UNL     1       9.533 -16.080  13.314  1.00  0.00     0.210 HD
ENDBRANCH  19  20
ENDBRANCH   4  19
TORSDOF 5
ENDMDL
MODEL 4
REMARK VINA RESULT:    -4.867     17.738     19.136
REMARK INTER + INTRA:          -6.484
REMARK INTER:                  -5.956
REMARK INTRA:                  -0.528
REMARK UNBOUND:                -0.621
REMARK SMILES O=c1ccn([C@H]2O[C@H](CO)[C@H](O)[C@@H]2O)c(=O)[nH]1
REMARK SMILES IDX 6 1 13 2 11 3 8 4 7 5 5 6 3 7 4 8 2 9 17 10 1 11 15 12 16 14
REMARK SMILES IDX 14 15 12 17 9 19 10 20
REMARK H PARENT 17 13 14 16 12 18 10 21
REMARK Flexibility Score: inf
ROOT
ATOM      1  C   UNL     1       0.471 -27.205  13.101  1.00  0.00     0.255 C 
ATOM      2  C   UNL     1       0.245 -28.500  13.887  1.00  0.00     0.196 C 
ATOM      3  C   UNL     1      -0.819 -28.099  14.882  1.00  0.00     0.179 C 
ATOM      4  C   UNL     1      -1.585 -27.026  14.093  1.00  0.00     0.178 C 
ATOM      5  O   UNL     1      -0.708 -26.423  13.160  1.00  0.00    -0.347 OA
ENDROOT
BRANCH   1   6
ATOM      6  N   UNL     1       0.852 -27.485  11.701  1.00  0.00    -0.271 N 
ATOM      7  C   UNL     1       0.788 -28.979   9.824  1.00  0.00     0.090 A 
ATOM      8  C   UNL     1       0.473 -28.677  11.146  1.00  0.00     0.099 A 
ATOM      9  C   UNL     1       1.486 -28.039   9.074  1.00  0.00     0.253 A 
ATOM     10  N   UNL     1       1.839 -26.854   9.636  1.00  0.00    -0.274 N 
ATOM     11  O   UNL     1       1.788 -28.286   7.875  1.00  0.00    -0.269 OA
ATOM     12  C   UNL     1       1.524 -26.566  10.929  1.00  0.00     0.330 A 
ATOM     13  H   UNL     1       2.357 -26.148   9.062  1.00  0.00     0.175 HD
ATOM     14  O   UNL     1       1.854 -25.445  11.404  1.00  0.00    -0.248 OA
ENDBRANCH   1   6
BRANCH   2  15
ATOM     15  O   UNL     1       1.413 -29.015  14.485  1.00  0.00    -0.386 OA
ATOM     16  H   UNL     1       1.170 -29.795  15.047  1.00  0.00     0.211 HD
ENDBRANCH   2  15
BRANCH   3  17
ATOM     17  O   UNL     1      -0.272 -27.609  16.086  1.00  0.00    -0.387 OA
ATOM     18  H   UNL     1      -0.914 -26.963  16.483  1.00  0.00     0.211 HD
ENDBRANCH   3  17
BRANCH   4  19
ATOM     19  C   UNL     1      -2.256 -25.952  14.962  1.00  0.00     0.191 C 
BRANCH  19  20
ATOM     20  O   UNL     1      -2.832 -26.523  16.106  1.00  0.00    -0.394 OA
ATOM     21  H   UNL     1      -3.487 -25.864  16.453  1.00  0.00     0.210 HD
ENDBRANCH  19  20
ENDBRANCH   4  19
TORSDOF 5
ENDMDL
MODEL 5
REMARK VINA RESULT:    -4.681      2.732      4.394
REMARK INTER + INTRA:          -6.260
REMARK INTER:                  -5.600
REMARK INTRA:                  -0.660
REMARK UNBOUND:                -0.621
REMARK SMILES O=c1ccn([C@H]2O[C@H](CO)[C@H](O)[C@@H]2O)c(=O)[nH]1
REMARK SMILES IDX 6 1 13 2 11 3 8 4 7 5 5 6 3 7 4 8 2 9 17 10 1 11 15 12 16 14
REMARK SMILES IDX 14 15 12 17 9 19 10 20
REMARK H PARENT 17 13 14 16 12 18 10 21
REMARK Flexibility Score: inf
ROOT
ATOM      1  C   UNL     1      11.304 -15.215  15.211  1.00  0.00     0.255 C 
ATOM      2  C   UNL     1      10.260 -15.470  16.302  1.00  0.00     0.196 C 
ATOM      3  C   UNL     1       9.918 -14.072  16.762  1.00  0.00     0.179 C 
ATOM      4  C   UNL     1      10.132 -13.266  15.471  1.00  0.00     0.178 C 
ATOM      5  O   UNL     1      11.093 -13.925  14.667  1.00  0.00    -0.347 OA
ENDROOT
BRANCH   1   6
ATOM      6  N   UNL     1      11.245 -16.250  14.158  1.00  0.00    -0.271 N 
ATOM      7  C   UNL     1      10.478 -16.913  11.983  1.00  0.00     0.090 A 
ATOM      8  C   UNL     1      10.546 -15.980  13.014  1.00  0.00     0.099 A 
ATOM      9  C   UNL     1      11.147 -18.122  12.134  1.00  0.00     0.253 A 
ATOM     10  N   UNL     1      11.851 -18.367  13.269  1.00  0.00    -0.274 N 
ATOM     11  O   UNL     1      11.101 -18.987  11.218  1.00  0.00    -0.269 OA
ATOM     12  C   UNL     1      11.914 -17.447  14.271  1.00  0.00     0.330 A 
ATOM     13  H   UNL     1      12.359 -19.276  13.372  1.00  0.00     0.175 HD
ATOM     14  O   UNL     1      12.597 -17.708  15.299  1.00  0.00    -0.248 OA
ENDBRANCH   1   6
BRANCH   2  15
ATOM     15  O   UNL     1      10.713 -16.311  17.339  1.00  0.00    -0.386 OA
ATOM     16  H   UNL     1      11.321 -15.796  17.928  1.00  0.00     0.211 HD
ENDBRANCH   2  15
BRANCH   3  17
ATOM     17  O   UNL     1      10.741 -13.638  17.822  1.00  0.00    -0.387 OA
ATOM     18  H   UNL     1      11.690 -13.740  17.546  1.00  0.00     0.211 HD
ENDBRANCH   3  17
BRANCH   4  19
ATOM     19  C   UNL     1      10.540 -11.802  15.692  1.00  0.00     0.191 C 
BRANCH  19  20
ATOM     20  O   UNL     1       9.583 -11.129  16.467  1.00  0.00    -0.394 OA
ATOM     21  H   UNL     1      10.075 -10.697  17.212  1.00  0.00     0.210 HD
ENDBRANCH  19  20
ENDBRANCH   4  19
TORSDOF 5
ENDMDL
MODEL 6
REMARK VINA RESULT:    -4.651     18.381     19.397
REMARK INTER + INTRA:          -6.224
REMARK INTER:                  -5.544
REMARK INTRA:                  -0.680
REMARK UNBOUND:                -0.621
REMARK SMILES O=c1ccn([C@H]2O[C@H](CO)[C@H](O)[C@@H]2O)c(=O)[nH]1
REMARK SMILES IDX 6 1 13 2 11 3 8 4 7 5 5 6 3 7 4 8 2 9 17 10 1 11 15 12 16 14
REMARK SMILES IDX 14 15 12 17 9 19 10 20
REMARK H PARENT 17 13 14 16 12 18 10 21
REMARK Flexibility Score: inf
ROOT
ATOM      1  C   UNL     1      -1.082 -27.607  13.715  1.00  0.00     0.255 C 
ATOM      2  C   UNL     1      -1.794 -26.254  13.634  1.00  0.00     0.196 C 
ATOM      3  C   UNL     1      -1.560 -25.676  15.011  1.00  0.00     0.179 C 
ATOM      4  C   UNL     1      -0.201 -26.297  15.374  1.00  0.00     0.178 C 
ATOM      5  O   UNL     1      -0.057 -27.527  14.689  1.00  0.00    -0.347 OA
ENDROOT
BRANCH   1   6
ATOM      6  N   UNL     1      -0.535 -28.007  12.402  1.00  0.00    -0.271 N 
ATOM      7  C   UNL     1       1.322 -28.037  10.883  1.00  0.00     0.090 A 
ATOM      8  C   UNL     1       0.754 -27.665  12.098  1.00  0.00     0.099 A 
ATOM      9  C   UNL     1       0.556 -28.776   9.988  1.00  0.00     0.253 A 
ATOM     10  N   UNL     1      -0.716 -29.122  10.313  1.00  0.00    -0.274 N 
ATOM     11  O   UNL     1       1.043 -29.125   8.879  1.00  0.00    -0.269 OA
ATOM     12  C   UNL     1      -1.263 -28.755  11.505  1.00  0.00     0.330 A 
ATOM     13  H   UNL     1      -1.284 -29.685   9.638  1.00  0.00     0.175 HD
ATOM     14  O   UNL     1      -2.441 -29.116  11.775  1.00  0.00    -0.248 OA
ENDBRANCH   1   6
BRANCH   2  15
ATOM     15  O   UNL     1      -3.156 -26.346  13.285  1.00  0.00    -0.386 OA
ATOM     16  H   UNL     1      -3.657 -26.741  14.044  1.00  0.00     0.211 HD
ENDBRANCH   2  15
BRANCH   3  17
ATOM     17  O   UNL     1      -2.581 -26.021  15.920  1.00  0.00    -0.387 OA
ATOM     18  H   UNL     1      -3.404 -25.522  15.671  1.00  0.00     0.211 HD
ENDBRANCH   3  17
BRANCH   4  19
ATOM     19  C   UNL     1       0.026 -26.499  16.880  1.00  0.00     0.191 C 
BRANCH  19  20
ATOM     20  O   UNL     1      -0.823 -27.495  17.384  1.00  0.00    -0.394 OA
ATOM     21  H   UNL     1      -1.237 -27.939  16.599  1.00  0.00     0.210 HD
ENDBRANCH  19  20
ENDBRANCH   4  19
TORSDOF 5
ENDMDL
MODEL 7
REMARK VINA RESULT:    -4.598      2.234      3.335
REMARK INTER + INTRA:          -6.160
REMARK INTER:                  -5.506
REMARK INTRA:                  -0.654
REMARK UNBOUND:                -0.621
REMARK SMILES O=c1ccn([C@H]2O[C@H](CO)[C@H](O)[C@@H]2O)c(=O)[nH]1
REMARK SMILES IDX 6 1 13 2 11 3 8 4 7 5 5 6 3 7 4 8 2 9 17 10 1 11 15 12 16 14
REMARK SMILES IDX 14 15 12 17 9 19 10 20
REMARK H PARENT 17 13 14 16 12 18 10 21
REMARK Flexibility Score: inf
ROOT
ATOM      1  C   UNL     1      10.389 -14.445  15.488  1.00  0.00     0.255 C 
ATOM      2  C   UNL     1      11.226 -13.198  15.188  1.00  0.00     0.196 C 
ATOM      3  C   UNL     1      10.962 -12.327  16.393  1.00  0.00     0.179 C 
ATOM      4  C   UNL     1      10.731 -13.383  17.487  1.00  0.00     0.178 C 
ATOM      5  O   UNL     1      10.235 -14.566  16.890  1.00  0.00    -0.347 OA
ENDROOT
BRANCH   1   6
ATOM      6  N   UNL     1      11.008 -15.659  14.915  1.00  0.00    -0.271 N 
ATOM      7  C   UNL     1      12.287 -17.659  15.261  1.00  0.00     0.090 A 
ATOM      8  C   UNL     1      11.704 -16.492  15.747  1.00  0.00     0.099 A 
ATOM      9  C   UNL     1      12.137 -17.968  13.914  1.00  0.00     0.253 A 
ATOM     10  N   UNL     1      11.427 -17.139  13.106  1.00  0.00    -0.274 N 
ATOM     11  O   UNL     1      12.656 -19.017  13.445  1.00  0.00    -0.269 OA
ATOM     12  C   UNL     1      10.858 -16.000  13.591  1.00  0.00     0.330 A 
ATOM     13  H   UNL     1      11.311 -17.382  12.095  1.00  0.00     0.175 HD
ATOM     14  O   UNL     1      10.190 -15.270  12.809  1.00  0.00    -0.248 OA
ENDBRANCH   1   6
BRANCH   2  15
ATOM     15  O   UNL     1      10.907 -12.578  13.962  1.00  0.00    -0.386 OA
ATOM     16  H   UNL     1      10.455 -13.237  13.376  1.00  0.00     0.211 HD
ENDBRANCH   2  15
BRANCH   3  17
ATOM     17  O   UNL     1       9.852 -11.476  16.210  1.00  0.00    -0.387 OA
ATOM     18  H   UNL     1       9.101 -11.816  16.765  1.00  0.00     0.211 HD
ENDBRANCH   3  17
BRANCH   4  19
ATOM     19  C   UNL     1       9.802 -12.932  18.623  1.00  0.00     0.191 C 
BRANCH  19  20
ATOM     20  O   UNL     1      10.151 -11.652  19.076  1.00  0.00    -0.394 OA
ATOM     21  H   UNL     1      11.013 -11.747  19.559  1.00  0.00     0.210 HD
ENDBRANCH  19  20
ENDBRANCH   4  19
TORSDOF 5
ENDMDL
MODEL 8
REMARK VINA RESULT:    -4.340      2.884      6.758
REMARK INTER + INTRA:          -5.849
REMARK INTER:                  -5.186
REMARK INTRA:                  -0.662
REMARK UNBOUND:                -0.621
REMARK SMILES O=c1ccn([C@H]2O[C@H](CO)[C@H](O)[C@@H]2O)c(=O)[nH]1
REMARK SMILES IDX 6 1 13 2 11 3 8 4 7 5 5 6 3 7 4 8 2 9 17 10 1 11 15 12 16 14
REMARK SMILES IDX 14 15 12 17 9 19 10 20
REMARK H PARENT 17 13 14 16 12 18 10 21
REMARK Flexibility Score: inf
ROOT
ATOM      1  C   UNL     1      11.619 -15.826  14.094  1.00  0.00     0.255 C 
ATOM      2  C   UNL     1      10.519 -16.093  13.062  1.00  0.00     0.196 C 
ATOM      3  C   UNL     1      11.033 -17.319  12.344  1.00  0.00     0.179 C 
ATOM      4  C   UNL     1      11.824 -18.017  13.462  1.00  0.00     0.178 C 
ATOM      5  O   UNL     1      12.281 -17.044  14.383  1.00  0.00    -0.347 OA
ENDROOT
BRANCH   1   6
ATOM      6  N   UNL     1      11.068 -15.219  15.323  1.00  0.00    -0.271 N 
ATOM      7  C   UNL     1      10.329 -15.499  17.589  1.00  0.00     0.090 A 
ATOM      8  C   UNL     1      10.828 -16.026  16.401  1.00  0.00     0.099 A 
ATOM      9  C   UNL     1      10.092 -14.131  17.663  1.00  0.00     0.253 A 
ATOM     10  N   UNL     1      10.353 -13.341  16.589  1.00  0.00    -0.274 N 
ATOM     11  O   UNL     1       9.639 -13.625  18.725  1.00  0.00    -0.269 OA
ATOM     12  C   UNL     1      10.842 -13.866  15.432  1.00  0.00     0.330 A 
ATOM     13  H   UNL     1      10.179 -12.311  16.655  1.00  0.00     0.175 HD
ATOM     14  O   UNL     1      11.089 -13.093  14.466  1.00  0.00    -0.248 OA
ENDBRANCH   1   6
BRANCH   2  15
ATOM     15  O   UNL     1      10.263 -15.003  12.206  1.00  0.00    -0.386 OA
ATOM     16  H   UNL     1      10.260 -14.168  12.740  1.00  0.00     0.211 HD
ENDBRANCH   2  15
BRANCH   3  17
ATOM     17  O   UNL     1      11.831 -16.994  11.228  1.00  0.00    -0.387 OA
ATOM     18  H   UNL     1      12.079 -16.034  11.288  1.00  0.00     0.211 HD
ENDBRANCH   3  17
BRANCH   4  19
ATOM     19  C   UNL     1      13.000 -18.876  12.971  1.00  0.00     0.191 C 
BRANCH  19  20
ATOM     20  O   UNL     1      12.567 -19.825  12.034  1.00  0.00    -0.394 OA
ATOM     21  H   UNL     1      11.703 -19.495  11.674  1.00  0.00     0.210 HD
ENDBRANCH  19  20
ENDBRANCH   4  19
TORSDOF 5
ENDMDL
