MODEL 1
REMARK VINA RESULT:    -3.521      0.000      0.000
REMARK INTER + INTRA:          -7.877
REMARK INTER:                  -6.197
REMARK INTRA:                  -1.680
REMARK UNBOUND:                -1.680
REMARK SMILES CCCCCCCCCCCCCCC(=O)[O-]
REMARK SMILES IDX 9 1 10 2 11 3 12 4 13 5 14 6 15 7 16 8 17 9 8 10 7 11 6 12
REMARK SMILES IDX 5 13 4 14 3 15 2 16 1 17
REMARK H PARENT
REMARK Flexibility Score: inf
ROOT
ATOM      1  C   UNL     1     -95.104 149.215 238.692  1.00  0.00     0.000 C 
ENDROOT
BRANCH   1   2
ATOM      2  C   UNL     1     -96.447 149.918 238.944  1.00  0.00     0.000 C 
BRANCH   2   3
ATOM      3  C   UNL     1     -97.390 149.085 239.830  1.00  0.00     0.000 C 
BRANCH   3   4
ATOM      4  C   UNL     1     -98.872 149.379 239.552  1.00  0.00     0.000 C 
BRANCH   4   5
ATOM      5  C   UNL     1     -99.531 150.202 240.672  1.00  0.00     0.006 C 
BRANCH   5   6
ATOM      6  C   UNL     1     -98.671 150.244 241.943  1.00  0.00     0.053 C 
BRANCH   6   7
ATOM      7  C   UNL     1     -99.240 151.179 242.966  1.00  0.00     0.041 C 
ATOM      8  O   UNL     1     -98.492 151.690 243.841  1.00  0.00    -0.550 OA
ATOM      9  O   UNL     1    -100.589 151.510 242.935  1.00  0.00    -0.550 OA
ENDBRANCH   6   7
ENDBRANCH   5   6
ENDBRANCH   4   5
ENDBRANCH   3   4
ENDBRANCH   2   3
ENDBRANCH   1   2
BRANCH   1  10
ATOM     10  C   UNL     1     -95.192 147.692 238.879  1.00  0.00     0.000 C 
BRANCH  10  11
ATOM     11  C   UNL     1     -94.262 146.923 237.923  1.00  0.00    -0.000 C 
BRANCH  11  12
ATOM     12  C   UNL     1     -93.649 147.811 236.816  1.00  0.00    -0.000 C 
BRANCH  12  13
ATOM     13  C   UNL     1     -93.790 147.207 235.405  1.00  0.00    -0.000 C 
BRANCH  13  14
ATOM     14  C   UNL     1     -94.760 147.986 234.497  1.00  0.00    -0.000 C 
BRANCH  14  15
ATOM     15  C   UNL     1     -95.317 149.248 235.175  1.00  0.00    -0.000 C 
BRANCH  15  16
ATOM     16  C   UNL     1     -96.850 149.242 235.168  1.00  0.00    -0.003 C 
ATOM     17  C   UNL     1     -97.401 148.007 235.876  1.00  0.00     0.004 C 
ENDBRANCH  15  16
ENDBRANCH  14  15
ENDBRANCH  13  14
ENDBRANCH  12  13
ENDBRANCH  11  12
ENDBRANCH  10  11
ENDBRANCH   1  10
TORSDOF 13
ENDMDL
MODEL 2
REMARK VINA RESULT:    -3.418      4.195      6.631
REMARK INTER + INTRA:          -7.696
REMARK INTER:                  -6.418
REMARK INTRA:                  -1.279
REMARK UNBOUND:                -1.680
REMARK SMILES CCCCCCCCCCCCCCC(=O)[O-]
REMARK SMILES IDX 9 1 10 2 11 3 12 4 13 5 14 6 15 7 16 8 17 9 8 10 7 11 6 12
REMARK SMILES IDX 5 13 4 14 3 15 2 16 1 17
REMARK H PARENT
REMARK Flexibility Score: inf
ROOT
ATOM      1  C   UNL     1     -96.815 149.367 234.893  1.00  0.00     0.000 C 
ENDROOT
BRANCH   1   2
ATOM      2  C   UNL     1     -97.138 150.268 233.690  1.00  0.00     0.000 C 
BRANCH   2   3
ATOM      3  C   UNL     1     -95.896 150.572 232.833  1.00  0.00     0.000 C 
BRANCH   3   4
ATOM      4  C   UNL     1     -95.718 152.075 232.567  1.00  0.00     0.000 C 
BRANCH   4   5
ATOM      5  C   UNL     1     -97.051 152.783 232.268  1.00  0.00     0.006 C 
BRANCH   5   6
ATOM      6  C   UNL     1     -97.246 154.038 233.129  1.00  0.00     0.053 C 
BRANCH   6   7
ATOM      7  C   UNL     1     -98.658 154.165 233.612  1.00  0.00     0.041 C 
ATOM      8  O   UNL     1     -99.235 153.182 234.147  1.00  0.00    -0.550 OA
ATOM      9  O   UNL     1     -99.327 155.378 233.499  1.00  0.00    -0.550 OA
ENDBRANCH   6   7
ENDBRANCH   5   6
ENDBRANCH   4   5
ENDBRANCH   3   4
ENDBRANCH   2   3
ENDBRANCH   1   2
BRANCH   1  10
ATOM     10  C   UNL     1     -95.343 149.464 235.324  1.00  0.00     0.000 C 
BRANCH  10  11
ATOM     11  C   UNL     1     -94.764 148.108 235.765  1.00  0.00    -0.000 C 
BRANCH  11  12
ATOM     12  C   UNL     1     -93.875 148.200 237.026  1.00  0.00    -0.000 C 
BRANCH  12  13
ATOM     13  C   UNL     1     -94.571 148.896 238.211  1.00  0.00    -0.000 C 
BRANCH  13  14
ATOM     14  C   UNL     1     -95.599 148.004 238.932  1.00  0.00    -0.000 C 
BRANCH  14  15
ATOM     15  C   UNL     1     -97.009 148.616 238.935  1.00  0.00    -0.000 C 
BRANCH  15  16
ATOM     16  C   UNL     1     -96.954 150.115 239.252  1.00  0.00    -0.003 C 
ATOM     17  C   UNL     1     -98.214 150.828 238.769  1.00  0.00     0.004 C 
ENDBRANCH  15  16
ENDBRANCH  14  15
ENDBRANCH  13  14
ENDBRANCH  12  13
ENDBRANCH  11  12
ENDBRANCH  10  11
ENDBRANCH   1  10
TORSDOF 13
ENDMDL
MODEL 3
REMARK VINA RESULT:    -3.418      1.579      2.285
REMARK INTER + INTRA:          -7.695
REMARK INTER:                  -5.868
REMARK INTRA:                  -1.827
REMARK UNBOUND:                -1.680
REMARK SMILES CCCCCCCCCCCCCCC(=O)[O-]
REMARK SMILES IDX 9 1 10 2 11 3 12 4 13 5 14 6 15 7 16 8 17 9 8 10 7 11 6 12
REMARK SMILES IDX 5 13 4 14 3 15 2 16 1 17
REMARK H PARENT
REMARK Flexibility Score: inf
ROOT
ATOM      1  C   UNL     1     -95.258 147.829 238.743  1.00  0.00     0.000 C 
ENDROOT
BRANCH   1   2
ATOM      2  C   UNL     1     -96.506 148.562 239.260  1.00  0.00     0.000 C 
BRANCH   2   3
ATOM      3  C   UNL     1     -96.434 150.082 239.028  1.00  0.00     0.000 C 
BRANCH   3   4
ATOM      4  C   UNL     1     -97.815 150.752 239.084  1.00  0.00     0.000 C 
BRANCH   4   5
ATOM      5  C   UNL     1     -98.956 149.738 239.274  1.00  0.00     0.006 C 
BRANCH   5   6
ATOM      6  C   UNL     1     -99.816 150.056 240.504  1.00  0.00     0.053 C 
BRANCH   6   7
ATOM      7  C   UNL     1     -99.022 149.973 241.772  1.00  0.00     0.041 C 
ATOM      8  O   UNL     1     -98.504 148.880 242.123  1.00  0.00    -0.550 OA
ATOM      9  O   UNL     1     -98.830 151.108 242.550  1.00  0.00    -0.550 OA
ENDBRANCH   6   7
ENDBRANCH   5   6
ENDBRANCH   4   5
ENDBRANCH   3   4
ENDBRANCH   2   3
ENDBRANCH   1   2
BRANCH   1  10
ATOM     10  C   UNL     1     -94.348 148.737 237.899  1.00  0.00     0.000 C 
BRANCH  10  11
ATOM     11  C   UNL     1     -93.753 148.011 236.680  1.00  0.00    -0.000 C 
BRANCH  11  12
ATOM     12  C   UNL     1     -94.583 148.197 235.388  1.00  0.00    -0.000 C 
BRANCH  12  13
ATOM     13  C   UNL     1     -95.640 149.312 235.500  1.00  0.00    -0.000 C 
BRANCH  13  14
ATOM     14  C   UNL     1     -97.088 148.802 235.385  1.00  0.00    -0.000 C 
BRANCH  14  15
ATOM     15  C   UNL     1     -98.027 149.836 234.744  1.00  0.00    -0.000 C 
BRANCH  15  16
ATOM     16  C   UNL     1     -99.214 150.143 235.665  1.00  0.00    -0.003 C 
ATOM     17  C   UNL     1     -99.599 151.618 235.596  1.00  0.00     0.004 C 
ENDBRANCH  15  16
ENDBRANCH  14  15
ENDBRANCH  13  14
ENDBRANCH  12  13
ENDBRANCH  11  12
ENDBRANCH  10  11
ENDBRANCH   1  10
TORSDOF 13
ENDMDL
MODEL 4
REMARK VINA RESULT:    -3.396      4.199      6.671
REMARK INTER + INTRA:          -7.656
REMARK INTER:                  -6.261
REMARK INTRA:                  -1.395
REMARK UNBOUND:                -1.680
REMARK SMILES CCCCCCCCCCCCCCC(=O)[O-]
REMARK SMILES IDX 9 1 10 2 11 3 12 4 13 5 14 6 15 7 16 8 17 9 8 10 7 11 6 12
REMARK SMILES IDX 5 13 4 14 3 15 2 16 1 17
REMARK H PARENT
REMARK Flexibility Score: inf
ROOT
ATOM      1  C   UNL     1     -95.714 149.044 235.640  1.00  0.00     0.000 C 
ENDROOT
BRANCH   1   2
ATOM      2  C   UNL     1     -95.342 149.169 234.154  1.00  0.00     0.000 C 
BRANCH   2   3
ATOM      3  C   UNL     1     -96.287 150.112 233.388  1.00  0.00     0.000 C 
BRANCH   3   4
ATOM      4  C   UNL     1     -95.529 151.136 232.530  1.00  0.00     0.000 C 
BRANCH   4   5
ATOM      5  C   UNL     1     -96.155 152.539 232.595  1.00  0.00     0.006 C 
BRANCH   5   6
ATOM      6  C   UNL     1     -97.674 152.486 232.805  1.00  0.00     0.053 C 
BRANCH   6   7
ATOM      7  C   UNL     1     -98.182 153.718 233.491  1.00  0.00     0.041 C 
ATOM      8  O   UNL     1     -99.338 153.733 233.992  1.00  0.00    -0.550 OA
ATOM      9  O   UNL     1     -97.369 154.839 233.602  1.00  0.00    -0.550 OA
ENDBRANCH   6   7
ENDBRANCH   5   6
ENDBRANCH   4   5
ENDBRANCH   3   4
ENDBRANCH   2   3
ENDBRANCH   1   2
BRANCH   1  10
ATOM     10  C   UNL     1     -94.489 148.793 236.535  1.00  0.00     0.000 C 
BRANCH  10  11
ATOM     11  C   UNL     1     -94.800 148.979 238.030  1.00  0.00    -0.000 C 
BRANCH  11  12
ATOM     12  C   UNL     1     -96.313 149.072 238.337  1.00  0.00    -0.000 C 
BRANCH  12  13
ATOM     13  C   UNL     1     -96.698 150.342 239.119  1.00  0.00    -0.000 C 
BRANCH  13  14
ATOM     14  C   UNL     1     -98.170 150.756 238.933  1.00  0.00    -0.000 C 
BRANCH  14  15
ATOM     15  C   UNL     1     -98.845 150.020 237.765  1.00  0.00    -0.000 C 
BRANCH  15  16
ATOM     16  C   UNL     1     -99.362 151.014 236.718  1.00  0.00    -0.003 C 
ATOM     17  C   UNL     1     -99.434 150.371 235.336  1.00  0.00     0.004 C 
ENDBRANCH  15  16
ENDBRANCH  14  15
ENDBRANCH  13  14
ENDBRANCH  12  13
ENDBRANCH  11  12
ENDBRANCH  10  11
ENDBRANCH   1  10
TORSDOF 13
ENDMDL
MODEL 5
REMARK VINA RESULT:    -3.388      3.236      4.728
REMARK INTER + INTRA:          -7.643
REMARK INTER:                  -6.728
REMARK INTRA:                  -0.915
REMARK UNBOUND:                -1.680
REMARK SMILES CCCCCCCCCCCCCCC(=O)[O-]
REMARK SMILES IDX 9 1 10 2 11 3 12 4 13 5 14 6 15 7 16 8 17 9 8 10 7 11 6 12
REMARK SMILES IDX 5 13 4 14 3 15 2 16 1 17
REMARK H PARENT
REMARK Flexibility Score: inf
ROOT
ATOM      1  C   UNL     1     -94.572 148.221 235.286  1.00  0.00     0.000 C 
ENDROOT
BRANCH   1   2
ATOM      2  C   UNL     1     -93.842 147.974 236.616  1.00  0.00     0.000 C 
BRANCH   2   3
ATOM      3  C   UNL     1     -94.492 148.724 237.792  1.00  0.00     0.000 C 
BRANCH   3   4
ATOM      4  C   UNL     1     -95.253 147.785 238.741  1.00  0.00     0.000 C 
BRANCH   4   5
ATOM      5  C   UNL     1     -96.535 148.425 239.301  1.00  0.00     0.006 C 
BRANCH   5   6
ATOM      6  C   UNL     1     -96.591 149.935 239.038  1.00  0.00     0.053 C 
BRANCH   6   7
ATOM      7  C   UNL     1     -97.950 150.497 239.323  1.00  0.00     0.041 C 
ATOM      8  O   UNL     1     -98.391 150.521 240.503  1.00  0.00    -0.550 OA
ATOM      9  O   UNL     1     -98.718 151.023 238.290  1.00  0.00    -0.550 OA
ENDBRANCH   6   7
ENDBRANCH   5   6
ENDBRANCH   4   5
ENDBRANCH   3   4
ENDBRANCH   2   3
ENDBRANCH   1   2
BRANCH   1  10
ATOM     10  C   UNL     1     -95.360 149.542 235.283  1.00  0.00     0.000 C 
BRANCH  10  11
ATOM     11  C   UNL     1     -96.267 149.687 234.050  1.00  0.00    -0.000 C 
BRANCH  11  12
ATOM     12  C   UNL     1     -95.484 149.806 232.722  1.00  0.00    -0.000 C 
BRANCH  12  13
ATOM     13  C   UNL     1     -95.831 151.077 231.923  1.00  0.00    -0.000 C 
BRANCH  13  14
ATOM     14  C   UNL     1     -95.909 152.347 232.790  1.00  0.00    -0.000 C 
BRANCH  14  15
ATOM     15  C   UNL     1     -97.237 153.100 232.615  1.00  0.00    -0.000 C 
BRANCH  15  16
ATOM     16  C   UNL     1     -97.268 154.365 233.481  1.00  0.00    -0.003 C 
ATOM     17  C   UNL     1     -98.021 155.493 232.782  1.00  0.00     0.004 C 
ENDBRANCH  15  16
ENDBRANCH  14  15
ENDBRANCH  13  14
ENDBRANCH  12  13
ENDBRANCH  11  12
ENDBRANCH  10  11
ENDBRANCH   1  10
TORSDOF 13
ENDMDL
MODEL 6
REMARK VINA RESULT:    -3.361      0.920      1.950
REMARK INTER + INTRA:          -7.595
REMARK INTER:                  -6.421
REMARK INTRA:                  -1.174
REMARK UNBOUND:                -1.680
REMARK SMILES CCCCCCCCCCCCCCC(=O)[O-]
REMARK SMILES IDX 9 1 10 2 11 3 12 4 13 5 14 6 15 7 16 8 17 9 8 10 7 11 6 12
REMARK SMILES IDX 5 13 4 14 3 15 2 16 1 17
REMARK H PARENT
REMARK Flexibility Score: inf
ROOT
ATOM      1  C   UNL     1     -96.912 150.179 239.064  1.00  0.00     0.000 C 
ENDROOT
BRANCH   1   2
ATOM      2  C   UNL     1     -97.874 149.187 239.738  1.00  0.00     0.000 C 
BRANCH   2   3
ATOM      3  C   UNL     1     -98.319 149.657 241.134  1.00  0.00     0.000 C 
BRANCH   3   4
ATOM      4  C   UNL     1     -99.796 150.078 241.170  1.00  0.00     0.000 C 
BRANCH   4   5
ATOM      5  C   UNL     1    -100.197 150.714 242.513  1.00  0.00     0.006 C 
BRANCH   5   6
ATOM      6  C   UNL     1     -98.997 151.338 243.238  1.00  0.00     0.053 C 
BRANCH   6   7
ATOM      7  C   UNL     1     -99.382 152.584 243.976  1.00  0.00     0.041 C 
ATOM      8  O   UNL     1    -100.430 153.208 243.661  1.00  0.00    -0.550 OA
ATOM      9  O   UNL     1     -98.601 153.038 245.031  1.00  0.00    -0.550 OA
ENDBRANCH   6   7
ENDBRANCH   5   6
ENDBRANCH   4   5
ENDBRANCH   3   4
ENDBRANCH   2   3
ENDBRANCH   1   2
BRANCH   1  10
ATOM     10  C   UNL     1     -95.573 149.530 238.677  1.00  0.00     0.000 C 
BRANCH  10  11
ATOM     11  C   UNL     1     -95.528 148.026 238.998  1.00  0.00    -0.000 C 
BRANCH  11  12
ATOM     12  C   UNL     1     -94.623 147.219 238.039  1.00  0.00    -0.000 C 
BRANCH  12  13
ATOM     13  C   UNL     1     -93.860 148.104 237.034  1.00  0.00    -0.000 C 
BRANCH  13  14
ATOM     14  C   UNL     1     -93.693 147.456 235.647  1.00  0.00    -0.000 C 
BRANCH  14  15
ATOM     15  C   UNL     1     -94.806 147.865 234.669  1.00  0.00    -0.000 C 
BRANCH  15  16
ATOM     16  C   UNL     1     -95.355 149.255 235.014  1.00  0.00    -0.003 C 
ATOM     17  C   UNL     1     -96.865 149.212 235.234  1.00  0.00     0.004 C 
ENDBRANCH  15  16
ENDBRANCH  14  15
ENDBRANCH  13  14
ENDBRANCH  12  13
ENDBRANCH  11  12
ENDBRANCH  10  11
ENDBRANCH   1  10
TORSDOF 13
ENDMDL
MODEL 7
REMARK VINA RESULT:    -3.333      2.132      3.767
REMARK INTER + INTRA:          -7.546
REMARK INTER:                  -5.836
REMARK INTRA:                  -1.711
REMARK UNBOUND:                -1.680
REMARK SMILES CCCCCCCCCCCCCCC(=O)[O-]
REMARK SMILES IDX 9 1 10 2 11 3 12 4 13 5 14 6 15 7 16 8 17 9 8 10 7 11 6 12
REMARK SMILES IDX 5 13 4 14 3 15 2 16 1 17
REMARK H PARENT
REMARK Flexibility Score: inf
ROOT
ATOM      1  C   UNL     1     -94.901 149.330 235.846  1.00  0.00     0.000 C 
ENDROOT
BRANCH   1   2
ATOM      2  C   UNL     1     -94.175 148.726 237.058  1.00  0.00     0.000 C 
BRANCH   2   3
ATOM      3  C   UNL     1     -95.119 148.488 238.251  1.00  0.00     0.000 C 
BRANCH   3   4
ATOM      4  C   UNL     1     -95.905 149.749 238.640  1.00  0.00     0.000 C 
BRANCH   4   5
ATOM      5  C   UNL     1     -97.414 149.484 238.783  1.00  0.00     0.006 C 
BRANCH   5   6
ATOM      6  C   UNL     1     -98.103 150.524 239.676  1.00  0.00     0.053 C 
BRANCH   6   7
ATOM      7  C   UNL     1     -98.366 149.988 241.050  1.00  0.00     0.041 C 
ATOM      8  O   UNL     1     -98.917 150.714 241.919  1.00  0.00    -0.550 OA
ATOM      9  O   UNL     1     -98.030 148.676 241.362  1.00  0.00    -0.550 OA
ENDBRANCH   6   7
ENDBRANCH   5   6
ENDBRANCH   4   5
ENDBRANCH   3   4
ENDBRANCH   2   3
ENDBRANCH   1   2
BRANCH   1  10
ATOM     10  C   UNL     1     -95.200 148.286 234.758  1.00  0.00     0.000 C 
BRANCH  10  11
ATOM     11  C   UNL     1     -96.672 148.303 234.309  1.00  0.00    -0.000 C 
BRANCH  11  12
ATOM     12  C   UNL     1     -97.592 149.115 235.249  1.00  0.00    -0.000 C 
BRANCH  12  13
ATOM     13  C   UNL     1     -98.425 150.181 234.513  1.00  0.00    -0.000 C 
BRANCH  13  14
ATOM     14  C   UNL     1     -97.900 150.507 233.102  1.00  0.00    -0.000 C 
BRANCH  14  15
ATOM     15  C   UNL     1     -97.268 151.905 233.018  1.00  0.00    -0.000 C 
BRANCH  15  16
ATOM     16  C   UNL     1     -95.745 151.810 232.869  1.00  0.00    -0.003 C 
ATOM     17  C   UNL     1     -95.356 150.728 231.866  1.00  0.00     0.004 C 
ENDBRANCH  15  16
ENDBRANCH  14  15
ENDBRANCH  13  14
ENDBRANCH  12  13
ENDBRANCH  11  12
ENDBRANCH  10  11
ENDBRANCH   1  10
TORSDOF 13
ENDMDL
MODEL 8
REMARK VINA RESULT:    -3.326      1.636      3.368
REMARK INTER + INTRA:          -7.533
REMARK INTER:                  -5.231
REMARK INTRA:                  -2.302
REMARK UNBOUND:                -1.680
REMARK SMILES CCCCCCCCCCCCCCC(=O)[O-]
REMARK SMILES IDX 9 1 10 2 11 3 12 4 13 5 14 6 15 7 16 8 17 9 8 10 7 11 6 12
REMARK SMILES IDX 5 13 4 14 3 15 2 16 1 17
REMARK H PARENT
REMARK Flexibility Score: inf
ROOT
ATOM      1  C   UNL     1     -93.690 147.916 236.747  1.00  0.00     0.000 C 
ENDROOT
BRANCH   1   2
ATOM      2  C   UNL     1     -94.241 146.969 237.825  1.00  0.00     0.000 C 
BRANCH   2   3
ATOM      3  C   UNL     1     -95.132 147.696 238.848  1.00  0.00     0.000 C 
BRANCH   3   4
ATOM      4  C   UNL     1     -95.145 149.218 238.640  1.00  0.00     0.000 C 
BRANCH   4   5
ATOM      5  C   UNL     1     -96.502 149.851 238.994  1.00  0.00     0.006 C 
BRANCH   5   6
ATOM      6  C   UNL     1     -97.396 148.894 239.795  1.00  0.00     0.053 C 
BRANCH   6   7
ATOM      7  C   UNL     1     -98.598 149.594 240.350  1.00  0.00     0.041 C 
ATOM      8  O   UNL     1     -98.458 150.607 241.085  1.00  0.00    -0.550 OA
ATOM      9  O   UNL     1     -99.874 149.144 240.033  1.00  0.00    -0.550 OA
ENDBRANCH   6   7
ENDBRANCH   5   6
ENDBRANCH   4   5
ENDBRANCH   3   4
ENDBRANCH   2   3
ENDBRANCH   1   2
BRANCH   1  10
ATOM     10  C   UNL     1     -93.715 147.288 235.344  1.00  0.00     0.000 C 
BRANCH  10  11
ATOM     11  C   UNL     1     -94.895 147.789 234.492  1.00  0.00    -0.000 C 
BRANCH  11  12
ATOM     12  C   UNL     1     -95.392 149.195 234.897  1.00  0.00    -0.000 C 
BRANCH  12  13
ATOM     13  C   UNL     1     -96.871 149.217 235.328  1.00  0.00    -0.000 C 
BRANCH  13  14
ATOM     14  C   UNL     1     -97.394 147.848 235.802  1.00  0.00    -0.000 C 
BRANCH  14  15
ATOM     15  C   UNL     1     -98.730 147.957 236.554  1.00  0.00    -0.000 C 
BRANCH  15  16
ATOM     16  C   UNL     1     -99.251 149.399 236.539  1.00  0.00    -0.003 C 
ATOM     17  C   UNL     1    -100.716 149.451 236.114  1.00  0.00     0.004 C 
ENDBRANCH  15  16
ENDBRANCH  14  15
ENDBRANCH  13  14
ENDBRANCH  12  13
ENDBRANCH  11  12
ENDBRANCH  10  11
ENDBRANCH   1  10
TORSDOF 13
ENDMDL
MODEL 9
REMARK VINA RESULT:    -3.297      4.098      6.706
REMARK INTER + INTRA:          -7.483
REMARK INTER:                  -6.311
REMARK INTRA:                  -1.173
REMARK UNBOUND:                -1.680
REMARK SMILES CCCCCCCCCCCCCCC(=O)[O-]
REMARK SMILES IDX 9 1 10 2 11 3 12 4 13 5 14 6 15 7 16 8 17 9 8 10 7 11 6 12
REMARK SMILES IDX 5 13 4 14 3 15 2 16 1 17
REMARK H PARENT
REMARK Flexibility Score: inf
ROOT
ATOM      1  C   UNL     1     -94.251 148.017 235.303  1.00  0.00     0.000 C 
ENDROOT
BRANCH   1   2
ATOM      2  C   UNL     1     -95.040 149.336 235.340  1.00  0.00     0.000 C 
BRANCH   2   3
ATOM      3  C   UNL     1     -96.473 149.180 234.799  1.00  0.00     0.000 C 
BRANCH   3   4
ATOM      4  C   UNL     1     -96.704 149.977 233.506  1.00  0.00     0.000 C 
BRANCH   4   5
ATOM      5  C   UNL     1     -95.702 151.132 233.338  1.00  0.00     0.006 C 
BRANCH   5   6
ATOM      6  C   UNL     1     -96.134 152.118 232.245  1.00  0.00     0.053 C 
BRANCH   6   7
ATOM      7  C   UNL     1     -97.187 153.064 232.736  1.00  0.00     0.041 C 
ATOM      8  O   UNL     1     -96.857 154.126 233.328  1.00  0.00    -0.550 OA
ATOM      9  O   UNL     1     -98.530 152.788 232.514  1.00  0.00    -0.550 OA
ENDBRANCH   6   7
ENDBRANCH   5   6
ENDBRANCH   4   5
ENDBRANCH   3   4
ENDBRANCH   2   3
ENDBRANCH   1   2
BRANCH   1  10
ATOM     10  C   UNL     1     -93.724 147.607 236.687  1.00  0.00     0.000 C 
BRANCH  10  11
ATOM     11  C   UNL     1     -94.212 148.541 237.808  1.00  0.00    -0.000 C 
BRANCH  11  12
ATOM     12  C   UNL     1     -95.053 147.819 238.887  1.00  0.00    -0.000 C 
BRANCH  12  13
ATOM     13  C   UNL     1     -96.460 148.422 239.065  1.00  0.00    -0.000 C 
BRANCH  13  14
ATOM     14  C   UNL     1     -96.559 149.894 238.624  1.00  0.00    -0.000 C 
BRANCH  14  15
ATOM     15  C   UNL     1     -97.711 150.639 239.316  1.00  0.00    -0.000 C 
BRANCH  15  16
ATOM     16  C   UNL     1     -98.159 149.898 240.582  1.00  0.00    -0.003 C 
ATOM     17  C   UNL     1     -99.674 149.715 240.607  1.00  0.00     0.004 C 
ENDBRANCH  15  16
ENDBRANCH  14  15
ENDBRANCH  13  14
ENDBRANCH  12  13
ENDBRANCH  11  12
ENDBRANCH  10  11
ENDBRANCH   1  10
TORSDOF 13
ENDMDL
