MODEL 1
REMARK VINA RESULT:    -4.844      0.000      0.000
REMARK INTER + INTRA:          -5.127
REMARK INTER:                  -5.127
REMARK INTRA:                   0.000
REMARK UNBOUND:                 0.000
REMARK SMILES O=c1ccc2cc(O)c(O)cc2o1
REMARK SMILES IDX 4 1 3 2 2 3 1 4 13 5 12 6 11 7 9 8 7 9 6 10 5 11 8 12 10 14
REMARK H PARENT 8 13 10 15
REMARK Flexibility Score: inf
ROOT
ATOM      1  C   UNL     1      19.646 -43.455   7.277  1.00  0.00     0.019 A 
ATOM      2  C   UNL     1      20.437 -42.577   8.015  1.00  0.00     0.094 A 
ATOM      3  C   UNL     1      21.743 -42.955   8.344  1.00  0.00     0.336 A 
ATOM      4  O   UNL     1      22.474 -42.176   9.011  1.00  0.00    -0.246 OA
ATOM      5  O   UNL     1      22.221 -44.135   7.957  1.00  0.00    -0.423 OA
ATOM      6  C   UNL     1      21.499 -45.003   7.251  1.00  0.00     0.142 A 
ATOM      7  C   UNL     1      22.054 -46.229   6.871  1.00  0.00     0.098 A 
ATOM      8  C   UNL     1      21.297 -47.146   6.127  1.00  0.00     0.161 A 
ATOM      9  C   UNL     1      19.980 -46.835   5.761  1.00  0.00     0.158 A 
ATOM     10  C   UNL     1      19.418 -45.607   6.138  1.00  0.00     0.062 A 
ATOM     11  C   UNL     1      20.173 -44.689   6.883  1.00  0.00     0.022 A 
ENDROOT
BRANCH   9  12
ATOM     12  O   UNL     1      19.235 -47.753   5.022  1.00  0.00    -0.504 OA
ATOM     13  H   UNL     1      19.648 -48.609   4.669  1.00  0.00     0.293 HD
ENDBRANCH   9  12
BRANCH   8  14
ATOM     14  O   UNL     1      21.848 -48.370   5.748  1.00  0.00    -0.504 OA
ATOM     15  H   UNL     1      22.564 -48.823   6.303  1.00  0.00     0.293 HD
ENDBRANCH   8  14
TORSDOF 2
ENDMDL
MODEL 2
REMARK VINA RESULT:    -4.762      1.771      2.402
REMARK INTER + INTRA:          -5.040
REMARK INTER:                  -5.040
REMARK INTRA:                   0.000
REMARK UNBOUND:                 0.000
REMARK SMILES O=c1ccc2cc(O)c(O)cc2o1
REMARK SMILES IDX 4 1 3 2 2 3 1 4 13 5 12 6 11 7 9 8 7 9 6 10 5 11 8 12 10 14
REMARK H PARENT 8 13 10 15
REMARK Flexibility Score: inf
ROOT
ATOM      1  C   UNL     1      20.715 -42.599   8.392  1.00  0.00     0.019 A 
ATOM      2  C   UNL     1      22.101 -42.463   8.330  1.00  0.00     0.094 A 
ATOM      3  C   UNL     1      22.869 -43.547   7.892  1.00  0.00     0.336 A 
ATOM      4  O   UNL     1      24.122 -43.444   7.829  1.00  0.00    -0.246 OA
ATOM      5  O   UNL     1      22.284 -44.690   7.541  1.00  0.00    -0.423 OA
ATOM      6  C   UNL     1      20.965 -44.862   7.586  1.00  0.00     0.142 A 
ATOM      7  C   UNL     1      20.406 -46.085   7.204  1.00  0.00     0.098 A 
ATOM      8  C   UNL     1      19.016 -46.271   7.249  1.00  0.00     0.161 A 
ATOM      9  C   UNL     1      18.183 -45.228   7.678  1.00  0.00     0.158 A 
ATOM     10  C   UNL     1      18.737 -43.998   8.061  1.00  0.00     0.062 A 
ATOM     11  C   UNL     1      20.126 -43.811   8.017  1.00  0.00     0.022 A 
ENDROOT
BRANCH   9  12
ATOM     12  O   UNL     1      16.802 -45.422   7.720  1.00  0.00    -0.504 OA
ATOM     13  H   UNL     1      16.398 -46.351   7.716  1.00  0.00     0.293 HD
ENDBRANCH   9  12
BRANCH   8  14
ATOM     14  O   UNL     1      18.456 -47.490   6.870  1.00  0.00    -0.504 OA
ATOM     15  H   UNL     1      17.901 -47.579   6.028  1.00  0.00     0.293 HD
ENDBRANCH   8  14
TORSDOF 2
ENDMDL
MODEL 3
REMARK VINA RESULT:    -4.694      1.849      3.149
REMARK INTER + INTRA:          -4.969
REMARK INTER:                  -4.969
REMARK INTRA:                   0.000
REMARK UNBOUND:                 0.000
REMARK SMILES O=c1ccc2cc(O)c(O)cc2o1
REMARK SMILES IDX 4 1 3 2 2 3 1 4 13 5 12 6 11 7 9 8 7 9 6 10 5 11 8 12 10 14
REMARK H PARENT 8 13 10 15
REMARK Flexibility Score: inf
ROOT
ATOM      1  C   UNL     1      23.389 -44.570   7.962  1.00  0.00     0.019 A 
ATOM      2  C   UNL     1      24.125 -43.477   8.416  1.00  0.00     0.094 A 
ATOM      3  C   UNL     1      23.478 -42.247   8.580  1.00  0.00     0.336 A 
ATOM      4  O   UNL     1      24.125 -41.247   8.990  1.00  0.00    -0.246 OA
ATOM      5  O   UNL     1      22.182 -42.125   8.306  1.00  0.00    -0.423 OA
ATOM      6  C   UNL     1      21.444 -43.143   7.870  1.00  0.00     0.142 A 
ATOM      7  C   UNL     1      20.085 -42.956   7.598  1.00  0.00     0.098 A 
ATOM      8  C   UNL     1      19.303 -44.026   7.139  1.00  0.00     0.161 A 
ATOM      9  C   UNL     1      19.884 -45.289   6.951  1.00  0.00     0.158 A 
ATOM     10  C   UNL     1      21.245 -45.483   7.222  1.00  0.00     0.062 A 
ATOM     11  C   UNL     1      22.028 -44.414   7.681  1.00  0.00     0.022 A 
ENDROOT
BRANCH   9  12
ATOM     12  O   UNL     1      19.098 -46.347   6.494  1.00  0.00    -0.504 OA
ATOM     13  H   UNL     1      18.401 -46.784   7.086  1.00  0.00     0.293 HD
ENDBRANCH   9  12
BRANCH   8  14
ATOM     14  O   UNL     1      17.948 -43.842   6.867  1.00  0.00    -0.504 OA
ATOM     15  H   UNL     1      17.536 -42.918   6.829  1.00  0.00     0.293 HD
ENDBRANCH   8  14
TORSDOF 2
ENDMDL
MODEL 4
REMARK VINA RESULT:    -4.497      2.600      3.401
REMARK INTER + INTRA:          -4.759
REMARK INTER:                  -4.759
REMARK INTRA:                   0.000
REMARK UNBOUND:                 0.000
REMARK SMILES O=c1ccc2cc(O)c(O)cc2o1
REMARK SMILES IDX 4 1 3 2 2 3 1 4 13 5 12 6 11 7 9 8 7 9 6 10 5 11 8 12 10 14
REMARK H PARENT 8 13 10 15
REMARK Flexibility Score: inf
ROOT
ATOM      1  C   UNL     1      21.814 -45.681   8.694  1.00  0.00     0.019 A 
ATOM      2  C   UNL     1      22.581 -44.559   8.383  1.00  0.00     0.094 A 
ATOM      3  C   UNL     1      21.944 -43.425   7.867  1.00  0.00     0.336 A 
ATOM      4  O   UNL     1      22.618 -42.402   7.579  1.00  0.00    -0.246 OA
ATOM      5  O   UNL     1      20.627 -43.420   7.677  1.00  0.00    -0.423 OA
ATOM      6  C   UNL     1      19.859 -44.470   7.960  1.00  0.00     0.142 A 
ATOM      7  C   UNL     1      18.479 -44.407   7.740  1.00  0.00     0.098 A 
ATOM      8  C   UNL     1      17.666 -45.510   8.038  1.00  0.00     0.161 A 
ATOM      9  C   UNL     1      18.236 -46.681   8.558  1.00  0.00     0.158 A 
ATOM     10  C   UNL     1      19.618 -46.750   8.782  1.00  0.00     0.062 A 
ATOM     11  C   UNL     1      20.432 -45.648   8.485  1.00  0.00     0.022 A 
ENDROOT
BRANCH   9  12
ATOM     12  O   UNL     1      17.419 -47.773   8.851  1.00  0.00    -0.504 OA
ATOM     13  H   UNL     1      16.988 -48.324   8.117  1.00  0.00     0.293 HD
ENDBRANCH   9  12
BRANCH   8  14
ATOM     14  O   UNL     1      16.290 -45.450   7.818  1.00  0.00    -0.504 OA
ATOM     15  H   UNL     1      15.630 -45.823   8.490  1.00  0.00     0.293 HD
ENDBRANCH   8  14
TORSDOF 2
ENDMDL
MODEL 5
REMARK VINA RESULT:    -4.401      2.595      4.895
REMARK INTER + INTRA:          -4.658
REMARK INTER:                  -4.658
REMARK INTRA:                   0.000
REMARK UNBOUND:                 0.000
REMARK SMILES O=c1ccc2cc(O)c(O)cc2o1
REMARK SMILES IDX 4 1 3 2 2 3 1 4 13 5 12 6 11 7 9 8 7 9 6 10 5 11 8 12 10 14
REMARK H PARENT 8 13 10 15
REMARK Flexibility Score: inf
ROOT
ATOM      1  C   UNL     1      19.655 -49.054   6.860  1.00  0.00     0.019 A 
ATOM      2  C   UNL     1      20.757 -49.471   6.114  1.00  0.00     0.094 A 
ATOM      3  C   UNL     1      21.486 -48.518   5.393  1.00  0.00     0.336 A 
ATOM      4  O   UNL     1      22.484 -48.874   4.714  1.00  0.00    -0.246 OA
ATOM      5  O   UNL     1      21.131 -47.236   5.421  1.00  0.00    -0.423 OA
ATOM      6  C   UNL     1      20.086 -46.797   6.119  1.00  0.00     0.142 A 
ATOM      7  C   UNL     1      19.761 -45.437   6.111  1.00  0.00     0.098 A 
ATOM      8  C   UNL     1      18.661 -44.970   6.846  1.00  0.00     0.161 A 
ATOM      9  C   UNL     1      17.884 -45.868   7.592  1.00  0.00     0.158 A 
ATOM     10  C   UNL     1      18.206 -47.232   7.605  1.00  0.00     0.062 A 
ATOM     11  C   UNL     1      19.304 -47.701   6.871  1.00  0.00     0.022 A 
ENDROOT
BRANCH   9  12
ATOM     12  O   UNL     1      16.792 -45.394   8.320  1.00  0.00    -0.504 OA
ATOM     13  H   UNL     1      15.884 -45.268   7.889  1.00  0.00     0.293 HD
ENDBRANCH   9  12
BRANCH   8  14
ATOM     14  O   UNL     1      18.334 -43.615   6.838  1.00  0.00    -0.504 OA
ATOM     15  H   UNL     1      18.788 -42.964   6.209  1.00  0.00     0.293 HD
ENDBRANCH   8  14
TORSDOF 2
ENDMDL
MODEL 6
REMARK VINA RESULT:    -4.370      1.053      2.265
REMARK INTER + INTRA:          -4.625
REMARK INTER:                  -4.625
REMARK INTRA:                   0.000
REMARK UNBOUND:                 0.000
REMARK SMILES O=c1ccc2cc(O)c(O)cc2o1
REMARK SMILES IDX 4 1 3 2 2 3 1 4 13 5 12 6 11 7 9 8 7 9 6 10 5 11 8 12 10 14
REMARK H PARENT 8 13 10 15
REMARK Flexibility Score: inf
ROOT
ATOM      1  C   UNL     1      22.780 -44.899   7.893  1.00  0.00     0.019 A 
ATOM      2  C   UNL     1      22.371 -43.678   8.426  1.00  0.00     0.094 A 
ATOM      3  C   UNL     1      21.062 -43.241   8.194  1.00  0.00     0.336 A 
ATOM      4  O   UNL     1      20.673 -42.141   8.666  1.00  0.00    -0.246 OA
ATOM      5  O   UNL     1      20.222 -43.983   7.475  1.00  0.00    -0.423 OA
ATOM      6  C   UNL     1      20.573 -45.153   6.948  1.00  0.00     0.142 A 
ATOM      7  C   UNL     1      19.647 -45.890   6.201  1.00  0.00     0.098 A 
ATOM      8  C   UNL     1      20.012 -47.124   5.645  1.00  0.00     0.161 A 
ATOM      9  C   UNL     1      21.308 -47.625   5.836  1.00  0.00     0.158 A 
ATOM     10  C   UNL     1      22.240 -46.892   6.584  1.00  0.00     0.062 A 
ATOM     11  C   UNL     1      21.878 -45.657   7.141  1.00  0.00     0.022 A 
ENDROOT
BRANCH   9  12
ATOM     12  O   UNL     1      21.661 -48.853   5.278  1.00  0.00    -0.504 OA
ATOM     13  H   UNL     1      21.998 -48.925   4.325  1.00  0.00     0.293 HD
ENDBRANCH   9  12
BRANCH   8  14
ATOM     14  O   UNL     1      19.091 -47.860   4.899  1.00  0.00    -0.504 OA
ATOM     15  H   UNL     1      18.706 -48.731   5.244  1.00  0.00     0.293 HD
ENDBRANCH   8  14
TORSDOF 2
ENDMDL
MODEL 7
REMARK VINA RESULT:    -4.320      2.429      4.340
REMARK INTER + INTRA:          -4.573
REMARK INTER:                  -4.573
REMARK INTRA:                   0.000
REMARK UNBOUND:                 0.000
REMARK SMILES O=c1ccc2cc(O)c(O)cc2o1
REMARK SMILES IDX 4 1 3 2 2 3 1 4 13 5 12 6 11 7 9 8 7 9 6 10 5 11 8 12 10 14
REMARK H PARENT 8 13 10 15
REMARK Flexibility Score: inf
ROOT
ATOM      1  C   UNL     1      18.728 -44.009   7.453  1.00  0.00     0.019 A 
ATOM      2  C   UNL     1      17.867 -45.075   7.711  1.00  0.00     0.094 A 
ATOM      3  C   UNL     1      18.365 -46.203   8.374  1.00  0.00     0.336 A 
ATOM      4  O   UNL     1      17.605 -47.176   8.616  1.00  0.00    -0.246 OA
ATOM      5  O   UNL     1      19.640 -46.254   8.752  1.00  0.00    -0.423 OA
ATOM      6  C   UNL     1      20.494 -45.258   8.524  1.00  0.00     0.142 A 
ATOM      7  C   UNL     1      21.824 -45.368   8.944  1.00  0.00     0.098 A 
ATOM      8  C   UNL     1      22.727 -44.321   8.708  1.00  0.00     0.161 A 
ATOM      9  C   UNL     1      22.299 -43.160   8.048  1.00  0.00     0.158 A 
ATOM     10  C   UNL     1      20.967 -43.044   7.625  1.00  0.00     0.062 A 
ATOM     11  C   UNL     1      20.063 -44.090   7.860  1.00  0.00     0.022 A 
ENDROOT
BRANCH   9  12
ATOM     12  O   UNL     1      23.204 -42.125   7.817  1.00  0.00    -0.504 OA
ATOM     13  H   UNL     1      24.059 -42.276   7.293  1.00  0.00     0.293 HD
ENDBRANCH   9  12
BRANCH   8  14
ATOM     14  O   UNL     1      24.053 -44.428   9.125  1.00  0.00    -0.504 OA
ATOM     15  H   UNL     1      24.775 -44.783   8.510  1.00  0.00     0.293 HD
ENDBRANCH   8  14
TORSDOF 2
ENDMDL
MODEL 8
REMARK VINA RESULT:    -4.315      2.252      4.585
REMARK INTER + INTRA:          -4.567
REMARK INTER:                  -4.567
REMARK INTRA:                   0.000
REMARK UNBOUND:                 0.000
REMARK SMILES O=c1ccc2cc(O)c(O)cc2o1
REMARK SMILES IDX 4 1 3 2 2 3 1 4 13 5 12 6 11 7 9 8 7 9 6 10 5 11 8 12 10 14
REMARK H PARENT 8 13 10 15
REMARK Flexibility Score: inf
ROOT
ATOM      1  C   UNL     1      19.403 -46.739   7.525  1.00  0.00     0.019 A 
ATOM      2  C   UNL     1      18.018 -46.664   7.663  1.00  0.00     0.094 A 
ATOM      3  C   UNL     1      17.439 -45.447   8.039  1.00  0.00     0.336 A 
ATOM      4  O   UNL     1      16.190 -45.359   8.169  1.00  0.00    -0.246 OA
ATOM      5  O   UNL     1      18.201 -44.378   8.259  1.00  0.00    -0.423 OA
ATOM      6  C   UNL     1      19.526 -44.407   8.139  1.00  0.00     0.142 A 
ATOM      7  C   UNL     1      20.277 -43.252   8.383  1.00  0.00     0.098 A 
ATOM      8  C   UNL     1      21.673 -43.278   8.257  1.00  0.00     0.161 A 
ATOM      9  C   UNL     1      22.322 -44.464   7.884  1.00  0.00     0.158 A 
ATOM     10  C   UNL     1      21.576 -45.625   7.636  1.00  0.00     0.062 A 
ATOM     11  C   UNL     1      20.180 -45.601   7.763  1.00  0.00     0.022 A 
ENDROOT
BRANCH   9  12
ATOM     12  O   UNL     1      23.711 -44.480   7.761  1.00  0.00    -0.504 OA
ATOM     13  H   UNL     1      24.306 -43.968   8.403  1.00  0.00     0.293 HD
ENDBRANCH   9  12
BRANCH   8  14
ATOM     14  O   UNL     1      22.423 -42.128   8.501  1.00  0.00    -0.504 OA
ATOM     15  H   UNL     1      22.666 -41.487   7.756  1.00  0.00     0.293 HD
ENDBRANCH   8  14
TORSDOF 2
ENDMDL
MODEL 9
REMARK VINA RESULT:    -4.313      1.743      1.764
REMARK INTER + INTRA:          -4.565
REMARK INTER:                  -4.565
REMARK INTRA:                   0.000
REMARK UNBOUND:                 0.000
REMARK SMILES O=c1ccc2cc(O)c(O)cc2o1
REMARK SMILES IDX 4 1 3 2 2 3 1 4 13 5 12 6 11 7 9 8 7 9 6 10 5 11 8 12 10 14
REMARK H PARENT 8 13 10 15
REMARK Flexibility Score: inf
ROOT
ATOM      1  C   UNL     1      19.713 -43.285   8.158  1.00  0.00     0.019 A 
ATOM      2  C   UNL     1      20.856 -42.497   8.038  1.00  0.00     0.094 A 
ATOM      3  C   UNL     1      22.084 -43.119   7.788  1.00  0.00     0.336 A 
ATOM      4  O   UNL     1      23.129 -42.426   7.676  1.00  0.00    -0.246 OA
ATOM      5  O   UNL     1      22.157 -44.443   7.668  1.00  0.00    -0.423 OA
ATOM      6  C   UNL     1      21.090 -45.231   7.777  1.00  0.00     0.142 A 
ATOM      7  C   UNL     1      21.227 -46.616   7.642  1.00  0.00     0.098 A 
ATOM      8  C   UNL     1      20.105 -47.451   7.755  1.00  0.00     0.161 A 
ATOM      9  C   UNL     1      18.841 -46.897   8.005  1.00  0.00     0.158 A 
ATOM     10  C   UNL     1      18.697 -45.509   8.141  1.00  0.00     0.062 A 
ATOM     11  C   UNL     1      19.818 -44.673   8.028  1.00  0.00     0.022 A 
ENDROOT
BRANCH   9  12
ATOM     12  O   UNL     1      17.732 -47.735   8.116  1.00  0.00    -0.504 OA
ATOM     13  H   UNL     1      17.665 -48.597   7.589  1.00  0.00     0.293 HD
ENDBRANCH   9  12
BRANCH   8  14
ATOM     14  O   UNL     1      20.239 -48.832   7.621  1.00  0.00    -0.504 OA
ATOM     15  H   UNL     1      19.707 -49.352   6.934  1.00  0.00     0.293 HD
ENDBRANCH   8  14
TORSDOF 2
ENDMDL
