MODEL 1
REMARK VINA RESULT:    -2.184      0.000      0.000
REMARK INTER + INTRA:          -2.184
REMARK INTER:                  -2.184
REMARK INTRA:                   0.000
REMARK UNBOUND:                 0.000
REMARK SMILES CC(=O)[O-]
REMARK SMILES IDX 1 1 2 2 3 3 4 4
REMARK H PARENT
REMARK Flexibility Score: inf
ROOT
ATOM      1  C   UNL     1      44.136  63.711  12.178  1.00  0.00     0.063 C 
ATOM      2  C   UNL     1      44.812  62.397  12.377  1.00  0.00     0.038 C 
ATOM      3  O   UNL     1      45.014  61.635  11.394  1.00  0.00    -0.550 OA
ATOM      4  O   UNL     1      45.173  61.986  13.653  1.00  0.00    -0.550 OA
ENDROOT
TORSDOF 0
ENDMDL
MODEL 2
REMARK VINA RESULT:    -2.174      2.102      2.205
REMARK INTER + INTRA:          -2.174
REMARK INTER:                  -2.174
REMARK INTRA:                   0.000
REMARK UNBOUND:                 0.000
REMARK SMILES CC(=O)[O-]
REMARK SMILES IDX 1 1 2 2 3 3 4 4
REMARK H PARENT
REMARK Flexibility Score: inf
ROOT
ATOM      1  C   UNL     1      42.810  61.474  13.734  1.00  0.00     0.063 C 
ATOM      2  C   UNL     1      44.255  61.137  13.579  1.00  0.00     0.038 C 
ATOM      3  O   UNL     1      44.606  59.947  13.364  1.00  0.00    -0.550 OA
ATOM      4  O   UNL     1      45.219  62.126  13.724  1.00  0.00    -0.550 OA
ENDROOT
TORSDOF 0
ENDMDL
MODEL 3
REMARK VINA RESULT:    -2.131     16.849     17.312
REMARK INTER + INTRA:          -2.131
REMARK INTER:                  -2.131
REMARK INTRA:                   0.000
REMARK UNBOUND:                 0.000
REMARK SMILES CC(=O)[O-]
REMARK SMILES IDX 1 1 2 2 3 3 4 4
REMARK H PARENT
REMARK Flexibility Score: inf
ROOT
ATOM      1  C   UNL     1      42.440  78.545   5.936  1.00  0.00     0.063 C 
ATOM      2  C   UNL     1      41.886  77.684   4.852  1.00  0.00     0.038 C 
ATOM      3  O   UNL     1      40.751  77.931   4.366  1.00  0.00    -0.550 OA
ATOM      4  O   UNL     1      42.598  76.576   4.411  1.00  0.00    -0.550 OA
ENDROOT
TORSDOF 0
ENDMDL
MODEL 4
REMARK VINA RESULT:    -2.128      1.414      2.081
REMARK INTER + INTRA:          -2.128
REMARK INTER:                  -2.128
REMARK INTRA:                   0.000
REMARK UNBOUND:                 0.000
REMARK SMILES CC(=O)[O-]
REMARK SMILES IDX 1 1 2 2 3 3 4 4
REMARK H PARENT
REMARK Flexibility Score: inf
ROOT
ATOM      1  C   UNL     1      44.943  61.453  11.441  1.00  0.00     0.063 C 
ATOM      2  C   UNL     1      44.868  62.428  12.566  1.00  0.00     0.038 C 
ATOM      3  O   UNL     1      45.210  62.081  13.728  1.00  0.00    -0.550 OA
ATOM      4  O   UNL     1      44.373  63.707  12.347  1.00  0.00    -0.550 OA
ENDROOT
TORSDOF 0
ENDMDL
MODEL 5
REMARK VINA RESULT:    -2.122      9.056      9.546
REMARK INTER + INTRA:          -2.122
REMARK INTER:                  -2.122
REMARK INTRA:                   0.000
REMARK UNBOUND:                 0.000
REMARK SMILES CC(=O)[O-]
REMARK SMILES IDX 1 1 2 2 3 3 4 4
REMARK H PARENT
REMARK Flexibility Score: inf
ROOT
ATOM      1  C   UNL     1      46.636  60.530  22.616  1.00  0.00     0.063 C 
ATOM      2  C   UNL     1      46.097  60.012  21.325  1.00  0.00     0.038 C 
ATOM      3  O   UNL     1      44.859  59.827  21.186  1.00  0.00    -0.550 OA
ATOM      4  O   UNL     1      46.964  59.681  20.292  1.00  0.00    -0.550 OA
ENDROOT
TORSDOF 0
ENDMDL
MODEL 6
REMARK VINA RESULT:    -2.121      1.466      1.794
REMARK INTER + INTRA:          -2.121
REMARK INTER:                  -2.121
REMARK INTRA:                   0.000
REMARK UNBOUND:                 0.000
REMARK SMILES CC(=O)[O-]
REMARK SMILES IDX 1 1 2 2 3 3 4 4
REMARK H PARENT
REMARK Flexibility Score: inf
ROOT
ATOM      1  C   UNL     1      44.953  61.850  13.481  1.00  0.00     0.063 C 
ATOM      2  C   UNL     1      44.557  62.612  12.262  1.00  0.00     0.038 C 
ATOM      3  O   UNL     1      44.440  62.019  11.157  1.00  0.00    -0.550 OA
ATOM      4  O   UNL     1      44.370  63.986  12.330  1.00  0.00    -0.550 OA
ENDROOT
TORSDOF 0
ENDMDL
MODEL 7
REMARK VINA RESULT:    -2.045      2.451      2.926
REMARK INTER + INTRA:          -2.045
REMARK INTER:                  -2.045
REMARK INTRA:                   0.000
REMARK UNBOUND:                 0.000
REMARK SMILES CC(=O)[O-]
REMARK SMILES IDX 1 1 2 2 3 3 4 4
REMARK H PARENT
REMARK Flexibility Score: inf
ROOT
ATOM      1  C   UNL     1      44.624  63.150  12.619  1.00  0.00     0.063 C 
ATOM      2  C   UNL     1      43.303  63.690  12.188  1.00  0.00     0.038 C 
ATOM      3  O   UNL     1      42.257  63.380  12.817  1.00  0.00    -0.550 OA
ATOM      4  O   UNL     1      43.216  64.495  11.060  1.00  0.00    -0.550 OA
ENDROOT
TORSDOF 0
ENDMDL
MODEL 8
REMARK VINA RESULT:    -1.988      9.917     10.554
REMARK INTER + INTRA:          -1.988
REMARK INTER:                  -1.988
REMARK INTRA:                   0.000
REMARK UNBOUND:                 0.000
REMARK SMILES CC(=O)[O-]
REMARK SMILES IDX 1 1 2 2 3 3 4 4
REMARK H PARENT
REMARK Flexibility Score: inf
ROOT
ATOM      1  C   UNL     1      50.256  60.461  21.944  1.00  0.00     0.063 C 
ATOM      2  C   UNL     1      50.707  59.985  20.605  1.00  0.00     0.038 C 
ATOM      3  O   UNL     1      51.438  58.964  20.511  1.00  0.00    -0.550 OA
ATOM      4  O   UNL     1      50.367  60.697  19.463  1.00  0.00    -0.550 OA
ENDROOT
TORSDOF 0
ENDMDL
