MODEL 1
REMARK VINA RESULT:    -3.994      0.000      0.000
REMARK INTER + INTRA:         -10.067
REMARK INTER:                  -7.264
REMARK INTRA:                  -2.803
REMARK UNBOUND:                -2.803
REMARK SMILES CCCCCCCCCCCCCC[C@H](C)C(=O)[O-]
REMARK SMILES IDX 9 1 10 2 11 3 12 4 13 5 14 6 15 7 16 8 17 9 18 10 19 11 8 12
REMARK SMILES IDX 7 13 6 14 5 15 4 16 3 17 2 18 1 19
REMARK H PARENT
REMARK Flexibility Score: inf
ROOT
ATOM      1  C   UNL     1      -7.261 -10.848  15.672  1.00  0.00     0.000 C 
ENDROOT
BRANCH   1   2
ATOM      2  C   UNL     1      -7.340 -12.379  15.497  1.00  0.00     0.000 C 
BRANCH   2   3
ATOM      3  C   UNL     1      -6.470 -13.124  16.524  1.00  0.00     0.000 C 
BRANCH   3   4
ATOM      4  C   UNL     1      -7.302 -13.845  17.595  1.00  0.00     0.000 C 
BRANCH   4   5
ATOM      5  C   UNL     1      -8.711 -14.218  17.099  1.00  0.00     0.001 C 
BRANCH   5   6
ATOM      6  C   UNL     1      -9.823 -13.609  17.983  1.00  0.00     0.009 C 
BRANCH   6   7
ATOM      7  C   UNL     1     -10.813 -12.679  17.242  1.00  0.00     0.032 C 
ATOM      8  C   UNL     1     -11.716 -11.884  18.194  1.00  0.00     0.014 C 
BRANCH   7   9
ATOM      9  C   UNL     1     -11.607 -13.432  16.205  1.00  0.00     0.044 C 
ATOM     10  O   UNL     1     -12.170 -14.525  16.483  1.00  0.00    -0.550 OA
ATOM     11  O   UNL     1     -11.682 -12.939  14.908  1.00  0.00    -0.550 OA
ENDBRANCH   7   9
ENDBRANCH   6   7
ENDBRANCH   5   6
ENDBRANCH   4   5
ENDBRANCH   3   4
ENDBRANCH   2   3
ENDBRANCH   1   2
BRANCH   1  12
ATOM     12  C   UNL     1      -8.637 -10.160  15.719  1.00  0.00     0.000 C 
BRANCH  12  13
ATOM     13  C   UNL     1      -8.537  -8.634  15.882  1.00  0.00    -0.000 C 
BRANCH  13  14
ATOM     14  C   UNL     1      -8.493  -8.200  17.355  1.00  0.00    -0.000 C 
BRANCH  14  15
ATOM     15  C   UNL     1      -9.545  -8.914  18.217  1.00  0.00    -0.000 C 
BRANCH  15  16
ATOM     16  C   UNL     1      -8.924  -9.429  19.525  1.00  0.00    -0.000 C 
BRANCH  16  17
ATOM     17  C   UNL     1      -8.021 -10.653  19.311  1.00  0.00    -0.000 C 
BRANCH  17  18
ATOM     18  C   UNL     1      -6.629 -10.478  19.937  1.00  0.00    -0.003 C 
ATOM     19  C   UNL     1      -5.555 -10.346  18.861  1.00  0.00     0.004 C 
ENDBRANCH  17  18
ENDBRANCH  16  17
ENDBRANCH  15  16
ENDBRANCH  14  15
ENDBRANCH  13  14
ENDBRANCH  12  13
ENDBRANCH   1  12
TORSDOF 14
ENDMDL
MODEL 2
REMARK VINA RESULT:    -3.920      3.045      5.531
REMARK INTER + INTRA:          -9.932
REMARK INTER:                  -7.794
REMARK INTRA:                  -2.138
REMARK UNBOUND:                -2.803
REMARK SMILES CCCCCCCCCCCCCC[C@H](C)C(=O)[O-]
REMARK SMILES IDX 9 1 10 2 11 3 12 4 13 5 14 6 15 7 16 8 17 9 18 10 19 11 8 12
REMARK SMILES IDX 7 13 6 14 5 15 4 16 3 17 2 18 1 19
REMARK H PARENT
REMARK Flexibility Score: inf
ROOT
ATOM      1  C   UNL     1      -7.536 -13.482  16.456  1.00  0.00     0.000 C 
ENDROOT
BRANCH   1   2
ATOM      2  C   UNL     1      -6.189 -12.731  16.508  1.00  0.00     0.000 C 
BRANCH   2   3
ATOM      3  C   UNL     1      -6.198 -11.467  15.631  1.00  0.00     0.000 C 
BRANCH   3   4
ATOM      4  C   UNL     1      -6.990 -10.312  16.264  1.00  0.00     0.000 C 
BRANCH   4   5
ATOM      5  C   UNL     1      -8.251  -9.948  15.460  1.00  0.00     0.001 C 
BRANCH   5   6
ATOM      6  C   UNL     1      -9.293  -9.193  16.317  1.00  0.00     0.009 C 
BRANCH   6   7
ATOM      7  C   UNL     1      -8.789  -8.734  17.705  1.00  0.00     0.032 C 
ATOM      8  C   UNL     1      -9.766  -9.073  18.839  1.00  0.00     0.014 C 
BRANCH   7   9
ATOM      9  C   UNL     1      -8.410  -7.274  17.700  1.00  0.00     0.044 C 
ATOM     10  O   UNL     1      -8.837  -6.489  18.589  1.00  0.00    -0.550 OA
ATOM     11  O   UNL     1      -7.616  -6.775  16.676  1.00  0.00    -0.550 OA
ENDBRANCH   7   9
ENDBRANCH   6   7
ENDBRANCH   5   6
ENDBRANCH   4   5
ENDBRANCH   3   4
ENDBRANCH   2   3
ENDBRANCH   1   2
BRANCH   1  12
ATOM     12  C   UNL     1      -7.867 -14.245  17.750  1.00  0.00     0.000 C 
BRANCH  12  13
ATOM     13  C   UNL     1      -9.119 -13.703  18.460  1.00  0.00    -0.000 C 
BRANCH  13  14
ATOM     14  C   UNL     1      -9.770 -12.537  17.699  1.00  0.00    -0.000 C 
BRANCH  14  15
ATOM     15  C   UNL     1     -11.279 -12.734  17.488  1.00  0.00    -0.000 C 
BRANCH  15  16
ATOM     16  C   UNL     1     -11.549 -13.920  16.549  1.00  0.00    -0.000 C 
BRANCH  16  17
ATOM     17  C   UNL     1     -12.138 -13.485  15.198  1.00  0.00    -0.000 C 
BRANCH  17  18
ATOM     18  C   UNL     1     -11.254 -13.888  14.009  1.00  0.00    -0.003 C 
ATOM     19  C   UNL     1      -9.964 -13.073  13.982  1.00  0.00     0.004 C 
ENDBRANCH  17  18
ENDBRANCH  16  17
ENDBRANCH  15  16
ENDBRANCH  14  15
ENDBRANCH  13  14
ENDBRANCH  12  13
ENDBRANCH   1  12
TORSDOF 14
ENDMDL
MODEL 3
REMARK VINA RESULT:    -3.864      2.872      5.248
REMARK INTER + INTRA:          -9.829
REMARK INTER:                  -7.630
REMARK INTRA:                  -2.198
REMARK UNBOUND:                -2.803
REMARK SMILES CCCCCCCCCCCCCC[C@H](C)C(=O)[O-]
REMARK SMILES IDX 9 1 10 2 11 3 12 4 13 5 14 6 15 7 16 8 17 9 18 10 19 11 8 12
REMARK SMILES IDX 7 13 6 14 5 15 4 16 3 17 2 18 1 19
REMARK H PARENT
REMARK Flexibility Score: inf
ROOT
ATOM      1  C   UNL     1      -9.611 -12.813  14.306  1.00  0.00     0.000 C 
ENDROOT
BRANCH   1   2
ATOM      2  C   UNL     1      -8.628 -11.884  15.050  1.00  0.00     0.000 C 
BRANCH   2   3
ATOM      3  C   UNL     1      -9.296 -10.569  15.488  1.00  0.00     0.000 C 
BRANCH   3   4
ATOM      4  C   UNL     1      -8.353  -9.360  15.380  1.00  0.00     0.000 C 
BRANCH   4   5
ATOM      5  C   UNL     1      -8.474  -8.405  16.582  1.00  0.00     0.001 C 
BRANCH   5   6
ATOM      6  C   UNL     1      -9.281  -9.029  17.745  1.00  0.00     0.009 C 
BRANCH   6   7
ATOM      7  C   UNL     1      -9.221  -8.245  19.076  1.00  0.00     0.032 C 
ATOM      8  C   UNL     1      -8.890  -6.758  18.882  1.00  0.00     0.014 C 
BRANCH   7   9
ATOM      9  C   UNL     1      -8.296  -8.906  20.066  1.00  0.00     0.044 C 
ATOM     10  O   UNL     1      -7.106  -9.186  19.759  1.00  0.00    -0.550 OA
ATOM     11  O   UNL     1      -8.774  -9.258  21.322  1.00  0.00    -0.550 OA
ENDBRANCH   7   9
ENDBRANCH   6   7
ENDBRANCH   5   6
ENDBRANCH   4   5
ENDBRANCH   3   4
ENDBRANCH   2   3
ENDBRANCH   1   2
BRANCH   1  12
ATOM     12  C   UNL     1     -11.084 -12.586  14.688  1.00  0.00     0.000 C 
BRANCH  12  13
ATOM     13  C   UNL     1     -11.809 -13.887  15.071  1.00  0.00    -0.000 C 
BRANCH  13  14
ATOM     14  C   UNL     1     -11.639 -14.242  16.557  1.00  0.00    -0.000 C 
BRANCH  14  15
ATOM     15  C   UNL     1     -11.517 -13.001  17.454  1.00  0.00    -0.000 C 
BRANCH  15  16
ATOM     16  C   UNL     1     -10.137 -12.947  18.127  1.00  0.00    -0.000 C 
BRANCH  16  17
ATOM     17  C   UNL     1      -9.291 -14.198  17.848  1.00  0.00    -0.000 C 
BRANCH  17  18
ATOM     18  C   UNL     1      -7.782 -13.914  17.899  1.00  0.00    -0.003 C 
ATOM     19  C   UNL     1      -7.505 -12.496  18.388  1.00  0.00     0.004 C 
ENDBRANCH  17  18
ENDBRANCH  16  17
ENDBRANCH  15  16
ENDBRANCH  14  15
ENDBRANCH  13  14
ENDBRANCH  12  13
ENDBRANCH   1  12
TORSDOF 14
ENDMDL
MODEL 4
REMARK VINA RESULT:    -3.828      2.967      5.588
REMARK INTER + INTRA:          -9.764
REMARK INTER:                  -7.211
REMARK INTRA:                  -2.553
REMARK UNBOUND:                -2.803
REMARK SMILES CCCCCCCCCCCCCC[C@H](C)C(=O)[O-]
REMARK SMILES IDX 9 1 10 2 11 3 12 4 13 5 14 6 15 7 16 8 17 9 18 10 19 11 8 12
REMARK SMILES IDX 7 13 6 14 5 15 4 16 3 17 2 18 1 19
REMARK H PARENT
REMARK Flexibility Score: inf
ROOT
ATOM      1  C   UNL     1      -6.523 -11.750  16.288  1.00  0.00     0.000 C 
ENDROOT
BRANCH   1   2
ATOM      2  C   UNL     1      -7.120 -10.440  15.732  1.00  0.00     0.000 C 
BRANCH   2   3
ATOM      3  C   UNL     1      -8.619 -10.578  15.416  1.00  0.00     0.000 C 
BRANCH   3   4
ATOM      4  C   UNL     1      -9.499  -9.690  16.311  1.00  0.00     0.000 C 
BRANCH   4   5
ATOM      5  C   UNL     1      -9.906 -10.390  17.620  1.00  0.00     0.001 C 
BRANCH   5   6
ATOM      6  C   UNL     1      -9.972  -9.407  18.812  1.00  0.00     0.009 C 
BRANCH   6   7
ATOM      7  C   UNL     1      -8.647  -9.237  19.592  1.00  0.00     0.032 C 
ATOM      8  C   UNL     1      -7.827 -10.532  19.671  1.00  0.00     0.014 C 
BRANCH   7   9
ATOM      9  C   UNL     1      -8.881  -8.632  20.953  1.00  0.00     0.044 C 
ATOM     10  O   UNL     1      -9.626  -9.198  21.798  1.00  0.00    -0.550 OA
ATOM     11  O   UNL     1      -8.306  -7.407  21.266  1.00  0.00    -0.550 OA
ENDBRANCH   7   9
ENDBRANCH   6   7
ENDBRANCH   5   6
ENDBRANCH   4   5
ENDBRANCH   3   4
ENDBRANCH   2   3
ENDBRANCH   1   2
BRANCH   1  12
ATOM     12  C   UNL     1      -6.726 -12.963  15.362  1.00  0.00     0.000 C 
BRANCH  12  13
ATOM     13  C   UNL     1      -7.651 -14.030  15.970  1.00  0.00    -0.000 C 
BRANCH  13  14
ATOM     14  C   UNL     1      -7.813 -13.874  17.491  1.00  0.00    -0.000 C 
BRANCH  14  15
ATOM     15  C   UNL     1      -9.269 -14.032  17.953  1.00  0.00    -0.000 C 
BRANCH  15  16
ATOM     16  C   UNL     1     -10.179 -14.414  16.774  1.00  0.00    -0.000 C 
BRANCH  16  17
ATOM     17  C   UNL     1     -11.451 -13.556  16.703  1.00  0.00    -0.000 C 
BRANCH  17  18
ATOM     18  C   UNL     1     -11.943 -13.345  15.264  1.00  0.00    -0.003 C 
ATOM     19  C   UNL     1     -10.778 -13.354  14.278  1.00  0.00     0.004 C 
ENDBRANCH  17  18
ENDBRANCH  16  17
ENDBRANCH  15  16
ENDBRANCH  14  15
ENDBRANCH  13  14
ENDBRANCH  12  13
ENDBRANCH   1  12
TORSDOF 14
ENDMDL
MODEL 5
REMARK VINA RESULT:    -3.806      3.519      6.763
REMARK INTER + INTRA:          -9.725
REMARK INTER:                  -7.851
REMARK INTRA:                  -1.874
REMARK UNBOUND:                -2.803
REMARK SMILES CCCCCCCCCCCCCC[C@H](C)C(=O)[O-]
REMARK SMILES IDX 9 1 10 2 11 3 12 4 13 5 14 6 15 7 16 8 17 9 18 10 19 11 8 12
REMARK SMILES IDX 7 13 6 14 5 15 4 16 3 17 2 18 1 19
REMARK H PARENT
REMARK Flexibility Score: inf
ROOT
ATOM      1  C   UNL     1     -10.148 -11.474  17.796  1.00  0.00     0.000 C 
ENDROOT
BRANCH   1   2
ATOM      2  C   UNL     1     -10.156 -10.095  18.489  1.00  0.00     0.000 C 
BRANCH   2   3
ATOM      3  C   UNL     1      -9.326  -9.056  17.717  1.00  0.00     0.000 C 
BRANCH   3   4
ATOM      4  C   UNL     1      -9.159  -9.414  16.232  1.00  0.00     0.000 C 
BRANCH   4   5
ATOM      5  C   UNL     1      -7.701  -9.285  15.752  1.00  0.00     0.001 C 
BRANCH   5   6
ATOM      6  C   UNL     1      -7.558  -8.289  14.579  1.00  0.00     0.009 C 
BRANCH   6   7
ATOM      7  C   UNL     1      -6.643  -7.075  14.860  1.00  0.00     0.032 C 
ATOM      8  C   UNL     1      -6.886  -6.448  16.240  1.00  0.00     0.014 C 
BRANCH   7   9
ATOM      9  C   UNL     1      -6.722  -6.055  13.753  1.00  0.00     0.044 C 
ATOM     10  O   UNL     1      -5.679  -5.615  13.197  1.00  0.00    -0.550 OA
ATOM     11  O   UNL     1      -7.959  -5.554  13.368  1.00  0.00    -0.550 OA
ENDBRANCH   7   9
ENDBRANCH   6   7
ENDBRANCH   5   6
ENDBRANCH   4   5
ENDBRANCH   3   4
ENDBRANCH   2   3
ENDBRANCH   1   2
BRANCH   1  12
ATOM     12  C   UNL     1      -8.892 -12.310  18.100  1.00  0.00     0.000 C 
BRANCH  12  13
ATOM     13  C   UNL     1      -8.685 -13.462  17.102  1.00  0.00    -0.000 C 
BRANCH  13  14
ATOM     14  C   UNL     1      -7.825 -13.050  15.897  1.00  0.00    -0.000 C 
BRANCH  14  15
ATOM     15  C   UNL     1      -8.472 -13.417  14.553  1.00  0.00    -0.000 C 
BRANCH  15  16
ATOM     16  C   UNL     1      -9.846 -12.746  14.406  1.00  0.00    -0.000 C 
BRANCH  16  17
ATOM     17  C   UNL     1     -10.969 -13.752  14.112  1.00  0.00    -0.000 C 
BRANCH  17  18
ATOM     18  C   UNL     1     -12.170 -13.591  15.056  1.00  0.00    -0.003 C 
ATOM     19  C   UNL     1     -12.107 -14.594  16.203  1.00  0.00     0.004 C 
ENDBRANCH  17  18
ENDBRANCH  16  17
ENDBRANCH  15  16
ENDBRANCH  14  15
ENDBRANCH  13  14
ENDBRANCH  12  13
ENDBRANCH   1  12
TORSDOF 14
ENDMDL
MODEL 6
REMARK VINA RESULT:    -3.804      1.505      2.956
REMARK INTER + INTRA:          -9.720
REMARK INTER:                  -7.278
REMARK INTRA:                  -2.442
REMARK UNBOUND:                -2.803
REMARK SMILES CCCCCCCCCCCCCC[C@H](C)C(=O)[O-]
REMARK SMILES IDX 9 1 10 2 11 3 12 4 13 5 14 6 15 7 16 8 17 9 18 10 19 11 8 12
REMARK SMILES IDX 7 13 6 14 5 15 4 16 3 17 2 18 1 19
REMARK H PARENT
REMARK Flexibility Score: inf
ROOT
ATOM      1  C   UNL     1      -6.833 -12.518  18.012  1.00  0.00     0.000 C 
ENDROOT
BRANCH   1   2
ATOM      2  C   UNL     1      -6.287 -11.566  16.926  1.00  0.00     0.000 C 
BRANCH   2   3
ATOM      3  C   UNL     1      -6.733 -11.984  15.515  1.00  0.00     0.000 C 
BRANCH   3   4
ATOM      4  C   UNL     1      -6.795 -13.510  15.340  1.00  0.00     0.000 C 
BRANCH   4   5
ATOM      5  C   UNL     1      -8.085 -13.973  14.638  1.00  0.00     0.001 C 
BRANCH   5   6
ATOM      6  C   UNL     1      -9.236 -14.226  15.637  1.00  0.00     0.009 C 
BRANCH   6   7
ATOM      7  C   UNL     1     -10.535 -13.436  15.353  1.00  0.00     0.032 C 
ATOM      8  C   UNL     1     -10.282 -11.947  15.077  1.00  0.00     0.014 C 
BRANCH   7   9
ATOM      9  C   UNL     1     -11.559 -13.645  16.439  1.00  0.00     0.044 C 
ATOM     10  O   UNL     1     -11.643 -12.853  17.416  1.00  0.00    -0.550 OA
ATOM     11  O   UNL     1     -12.394 -14.755  16.389  1.00  0.00    -0.550 OA
ENDBRANCH   7   9
ENDBRANCH   6   7
ENDBRANCH   5   6
ENDBRANCH   4   5
ENDBRANCH   3   4
ENDBRANCH   2   3
ENDBRANCH   1   2
BRANCH   1  12
ATOM     12  C   UNL     1      -8.254 -12.165  18.484  1.00  0.00     0.000 C 
BRANCH  12  13
ATOM     13  C   UNL     1      -8.398 -10.690  18.897  1.00  0.00    -0.000 C 
BRANCH  13  14
ATOM     14  C   UNL     1      -9.475  -9.953  18.085  1.00  0.00    -0.000 C 
BRANCH  14  15
ATOM     15  C   UNL     1      -9.346  -8.425  18.178  1.00  0.00    -0.000 C 
BRANCH  15  16
ATOM     16  C   UNL     1      -8.353  -7.894  17.132  1.00  0.00    -0.000 C 
BRANCH  16  17
ATOM     17  C   UNL     1      -8.407  -8.678  15.812  1.00  0.00    -0.000 C 
BRANCH  17  18
ATOM     18  C   UNL     1      -7.495  -8.079  14.731  1.00  0.00    -0.003 C 
ATOM     19  C   UNL     1      -6.025  -8.346  15.042  1.00  0.00     0.004 C 
ENDBRANCH  17  18
ENDBRANCH  16  17
ENDBRANCH  15  16
ENDBRANCH  14  15
ENDBRANCH  13  14
ENDBRANCH  12  13
ENDBRANCH   1  12
TORSDOF 14
ENDMDL
MODEL 7
REMARK VINA RESULT:    -3.766      1.487      3.327
REMARK INTER + INTRA:          -9.652
REMARK INTER:                  -7.052
REMARK INTRA:                  -2.600
REMARK UNBOUND:                -2.803
REMARK SMILES CCCCCCCCCCCCCC[C@H](C)C(=O)[O-]
REMARK SMILES IDX 9 1 10 2 11 3 12 4 13 5 14 6 15 7 16 8 17 9 18 10 19 11 8 12
REMARK SMILES IDX 7 13 6 14 5 15 4 16 3 17 2 18 1 19
REMARK H PARENT
REMARK Flexibility Score: inf
ROOT
ATOM      1  C   UNL     1      -9.069  -8.968  16.604  1.00  0.00     0.000 C 
ENDROOT
BRANCH   1   2
ATOM      2  C   UNL     1      -9.396  -8.620  18.071  1.00  0.00     0.000 C 
BRANCH   2   3
ATOM      3  C   UNL     1     -10.161  -9.752  18.777  1.00  0.00     0.000 C 
BRANCH   3   4
ATOM      4  C   UNL     1      -9.981 -11.112  18.084  1.00  0.00     0.000 C 
BRANCH   4   5
ATOM      5  C   UNL     1     -11.312 -11.864  17.902  1.00  0.00     0.001 C 
BRANCH   5   6
ATOM      6  C   UNL     1     -11.143 -13.161  17.077  1.00  0.00     0.009 C 
BRANCH   6   7
ATOM      7  C   UNL     1     -11.133 -12.963  15.543  1.00  0.00     0.032 C 
ATOM      8  C   UNL     1     -12.429 -13.435  14.869  1.00  0.00     0.014 C 
BRANCH   7   9
ATOM      9  C   UNL     1      -9.910 -13.580  14.914  1.00  0.00     0.044 C 
ATOM     10  O   UNL     1      -9.617 -13.361  13.707  1.00  0.00    -0.550 OA
ATOM     11  O   UNL     1      -9.116 -14.442  15.660  1.00  0.00    -0.550 OA
ENDBRANCH   7   9
ENDBRANCH   6   7
ENDBRANCH   5   6
ENDBRANCH   4   5
ENDBRANCH   3   4
ENDBRANCH   2   3
ENDBRANCH   1   2
BRANCH   1  12
ATOM     12  C   UNL     1      -7.710  -8.426  16.128  1.00  0.00     0.000 C 
BRANCH  12  13
ATOM     13  C   UNL     1      -6.833  -9.505  15.471  1.00  0.00    -0.000 C 
BRANCH  13  14
ATOM     14  C   UNL     1      -7.459 -10.906  15.555  1.00  0.00    -0.000 C 
BRANCH  14  15
ATOM     15  C   UNL     1      -6.452 -11.982  15.989  1.00  0.00    -0.000 C 
BRANCH  15  16
ATOM     16  C   UNL     1      -6.748 -12.463  17.417  1.00  0.00    -0.000 C 
BRANCH  16  17
ATOM     17  C   UNL     1      -5.807 -11.842  18.460  1.00  0.00    -0.000 C 
BRANCH  17  18
ATOM     18  C   UNL     1      -6.529 -10.868  19.403  1.00  0.00    -0.003 C 
ATOM     19  C   UNL     1      -5.971  -9.455  19.267  1.00  0.00     0.004 C 
ENDBRANCH  17  18
ENDBRANCH  16  17
ENDBRANCH  15  16
ENDBRANCH  14  15
ENDBRANCH  13  14
ENDBRANCH  12  13
ENDBRANCH   1  12
TORSDOF 14
ENDMDL
MODEL 8
REMARK VINA RESULT:    -3.753      2.974      5.436
REMARK INTER + INTRA:          -9.629
REMARK INTER:                  -7.089
REMARK INTRA:                  -2.540
REMARK UNBOUND:                -2.803
REMARK SMILES CCCCCCCCCCCCCC[C@H](C)C(=O)[O-]
REMARK SMILES IDX 9 1 10 2 11 3 12 4 13 5 14 6 15 7 16 8 17 9 18 10 19 11 8 12
REMARK SMILES IDX 7 13 6 14 5 15 4 16 3 17 2 18 1 19
REMARK H PARENT
REMARK Flexibility Score: inf
ROOT
ATOM      1  C   UNL     1      -8.422 -10.701  15.519  1.00  0.00     0.000 C 
ENDROOT
BRANCH   1   2
ATOM      2  C   UNL     1      -7.670 -12.049  15.517  1.00  0.00     0.000 C 
BRANCH   2   3
ATOM      3  C   UNL     1      -6.375 -11.989  16.345  1.00  0.00     0.000 C 
BRANCH   3   4
ATOM      4  C   UNL     1      -6.536 -12.609  17.743  1.00  0.00     0.000 C 
BRANCH   4   5
ATOM      5  C   UNL     1      -6.168 -11.628  18.871  1.00  0.00     0.001 C 
BRANCH   5   6
ATOM      6  C   UNL     1      -7.415 -11.090  19.609  1.00  0.00     0.009 C 
BRANCH   6   7
ATOM      7  C   UNL     1      -7.760  -9.611  19.318  1.00  0.00     0.032 C 
ATOM      8  C   UNL     1      -6.623  -8.858  18.613  1.00  0.00     0.014 C 
BRANCH   7   9
ATOM      9  C   UNL     1      -8.227  -8.897  20.560  1.00  0.00     0.044 C 
ATOM     10  O   UNL     1      -8.577  -7.687  20.523  1.00  0.00    -0.550 OA
ATOM     11  O   UNL     1      -8.229  -9.568  21.777  1.00  0.00    -0.550 OA
ENDBRANCH   7   9
ENDBRANCH   6   7
ENDBRANCH   5   6
ENDBRANCH   4   5
ENDBRANCH   3   4
ENDBRANCH   2   3
ENDBRANCH   1   2
BRANCH   1  12
ATOM     12  C   UNL     1      -9.922 -10.832  15.833  1.00  0.00     0.000 C 
BRANCH  12  13
ATOM     13  C   UNL     1     -10.206 -11.010  17.334  1.00  0.00    -0.000 C 
BRANCH  13  14
ATOM     14  C   UNL     1     -11.017 -12.280  17.635  1.00  0.00    -0.000 C 
BRANCH  14  15
ATOM     15  C   UNL     1     -10.150 -13.547  17.662  1.00  0.00    -0.000 C 
BRANCH  15  16
ATOM     16  C   UNL     1     -10.437 -14.433  16.441  1.00  0.00    -0.000 C 
BRANCH  16  17
ATOM     17  C   UNL     1     -11.919 -14.422  16.034  1.00  0.00    -0.000 C 
BRANCH  17  18
ATOM     18  C   UNL     1     -12.158 -13.718  14.691  1.00  0.00    -0.003 C 
ATOM     19  C   UNL     1     -10.915 -13.779  13.808  1.00  0.00     0.004 C 
ENDBRANCH  17  18
ENDBRANCH  16  17
ENDBRANCH  15  16
ENDBRANCH  14  15
ENDBRANCH  13  14
ENDBRANCH  12  13
ENDBRANCH   1  12
TORSDOF 14
ENDMDL
MODEL 9
REMARK VINA RESULT:    -3.707      1.640      3.390
REMARK INTER + INTRA:          -9.544
REMARK INTER:                  -7.070
REMARK INTRA:                  -2.474
REMARK UNBOUND:                -2.803
REMARK SMILES CCCCCCCCCCCCCC[C@H](C)C(=O)[O-]
REMARK SMILES IDX 9 1 10 2 11 3 12 4 13 5 14 6 15 7 16 8 17 9 18 10 19 11 8 12
REMARK SMILES IDX 7 13 6 14 5 15 4 16 3 17 2 18 1 19
REMARK H PARENT
REMARK Flexibility Score: inf
ROOT
ATOM      1  C   UNL     1      -7.019 -11.039  19.398  1.00  0.00     0.000 C 
ENDROOT
BRANCH   1   2
ATOM      2  C   UNL     1      -7.251 -11.674  18.011  1.00  0.00     0.000 C 
BRANCH   2   3
ATOM      3  C   UNL     1      -6.882 -10.715  16.867  1.00  0.00     0.000 C 
BRANCH   3   4
ATOM      4  C   UNL     1      -7.722 -10.950  15.602  1.00  0.00     0.000 C 
BRANCH   4   5
ATOM      5  C   UNL     1      -9.217 -10.651  15.819  1.00  0.00     0.001 C 
BRANCH   5   6
ATOM      6  C   UNL     1     -10.127 -11.735  15.196  1.00  0.00     0.009 C 
BRANCH   6   7
ATOM      7  C   UNL     1     -10.856 -12.641  16.214  1.00  0.00     0.032 C 
ATOM      8  C   UNL     1     -10.870 -12.057  17.634  1.00  0.00     0.014 C 
BRANCH   7   9
ATOM      9  C   UNL     1     -10.319 -14.049  16.186  1.00  0.00     0.044 C 
ATOM     10  O   UNL     1     -11.087 -15.036  16.025  1.00  0.00    -0.550 OA
ATOM     11  O   UNL     1      -8.962 -14.269  16.386  1.00  0.00    -0.550 OA
ENDBRANCH   7   9
ENDBRANCH   6   7
ENDBRANCH   5   6
ENDBRANCH   4   5
ENDBRANCH   3   4
ENDBRANCH   2   3
ENDBRANCH   1   2
BRANCH   1  12
ATOM     12  C   UNL     1      -7.470  -9.570  19.487  1.00  0.00     0.000 C 
BRANCH  12  13
ATOM     13  C   UNL     1      -9.000  -9.412  19.455  1.00  0.00    -0.000 C 
BRANCH  13  14
ATOM     14  C   UNL     1      -9.454  -8.263  18.540  1.00  0.00    -0.000 C 
BRANCH  14  15
ATOM     15  C   UNL     1      -8.824  -6.915  18.921  1.00  0.00    -0.000 C 
BRANCH  15  16
ATOM     16  C   UNL     1      -7.848  -6.441  17.834  1.00  0.00    -0.000 C 
BRANCH  16  17
ATOM     17  C   UNL     1      -7.989  -7.231  16.524  1.00  0.00    -0.000 C 
BRANCH  17  18
ATOM     18  C   UNL     1      -6.920  -6.854  15.487  1.00  0.00    -0.003 C 
ATOM     19  C   UNL     1      -7.232  -7.470  14.127  1.00  0.00     0.004 C 
ENDBRANCH  17  18
ENDBRANCH  16  17
ENDBRANCH  15  16
ENDBRANCH  14  15
ENDBRANCH  13  14
ENDBRANCH  12  13
ENDBRANCH   1  12
TORSDOF 14
ENDMDL
