MODEL 1
REMARK VINA RESULT:    -4.396      0.000      0.000
REMARK INTER + INTRA:          -7.861
REMARK INTER:                  -6.966
REMARK INTRA:                  -0.895
REMARK UNBOUND:                -0.895
REMARK SMILES CCCCCCCCCCCC(=O)[O-]
REMARK SMILES IDX 7 1 8 2 9 3 10 4 11 5 12 6 13 7 14 8 6 9 5 10 4 11 3 12 2 13
REMARK SMILES IDX 1 14
REMARK H PARENT
REMARK Flexibility Score: inf
ROOT
ATOM      1  C   UNL     1      -1.708   2.477  -4.127  1.00  0.00     0.000 C 
ENDROOT
BRANCH   1   2
ATOM      2  C   UNL     1      -0.495   3.364  -4.443  1.00  0.00     0.000 C 
BRANCH   2   3
ATOM      3  C   UNL     1       0.247   3.756  -3.160  1.00  0.00     0.000 C 
BRANCH   3   4
ATOM      4  C   UNL     1       1.762   3.564  -3.317  1.00  0.00     0.006 C 
BRANCH   4   5
ATOM      5  C   UNL     1       2.163   2.112  -3.042  1.00  0.00     0.053 C 
BRANCH   5   6
ATOM      6  C   UNL     1       3.598   1.890  -3.400  1.00  0.00     0.041 C 
ATOM      7  O   UNL     1       4.475   1.834  -2.498  1.00  0.00    -0.550 OA
ATOM      8  O   UNL     1       3.962   1.696  -4.726  1.00  0.00    -0.550 OA
ENDBRANCH   5   6
ENDBRANCH   4   5
ENDBRANCH   3   4
ENDBRANCH   2   3
ENDBRANCH   1   2
BRANCH   1   9
ATOM      9  C   UNL     1      -1.866   2.203  -2.622  1.00  0.00     0.000 C 
BRANCH   9  10
ATOM     10  C   UNL     1      -3.247   2.621  -2.088  1.00  0.00    -0.000 C 
BRANCH  10  11
ATOM     11  C   UNL     1      -4.326   2.629  -3.184  1.00  0.00    -0.000 C 
BRANCH  11  12
ATOM     12  C   UNL     1      -5.200   1.361  -3.164  1.00  0.00    -0.000 C 
BRANCH  12  13
ATOM     13  C   UNL     1      -4.703   0.290  -4.149  1.00  0.00    -0.003 C 
ATOM     14  C   UNL     1      -3.944  -0.841  -3.457  1.00  0.00     0.004 C 
ENDBRANCH  12  13
ENDBRANCH  11  12
ENDBRANCH  10  11
ENDBRANCH   9  10
ENDBRANCH   1   9
TORSDOF 10
ENDMDL
MODEL 2
REMARK VINA RESULT:    -4.232      1.267      2.270
REMARK INTER + INTRA:          -7.601
REMARK INTER:                  -6.985
REMARK INTRA:                  -0.616
REMARK UNBOUND:                -0.895
REMARK SMILES CCCCCCCCCCCC(=O)[O-]
REMARK SMILES IDX 7 1 8 2 9 3 10 4 11 5 12 6 13 7 14 8 6 9 5 10 4 11 3 12 2 13
REMARK SMILES IDX 1 14
REMARK H PARENT
REMARK Flexibility Score: inf
ROOT
ATOM      1  C   UNL     1      -1.023   3.094  -3.595  1.00  0.00     0.000 C 
ENDROOT
BRANCH   1   2
ATOM      2  C   UNL     1       0.334   3.534  -3.026  1.00  0.00     0.000 C 
BRANCH   2   3
ATOM      3  C   UNL     1       1.486   3.022  -3.900  1.00  0.00     0.000 C 
BRANCH   3   4
ATOM      4  C   UNL     1       2.362   2.026  -3.129  1.00  0.00     0.006 C 
BRANCH   4   5
ATOM      5  C   UNL     1       3.646   1.712  -3.903  1.00  0.00     0.053 C 
BRANCH   5   6
ATOM      6  C   UNL     1       4.817   2.398  -3.273  1.00  0.00     0.041 C 
ATOM      7  O   UNL     1       5.339   1.929  -2.227  1.00  0.00    -0.550 OA
ATOM      8  O   UNL     1       5.363   3.528  -3.867  1.00  0.00    -0.550 OA
ENDBRANCH   5   6
ENDBRANCH   4   5
ENDBRANCH   3   4
ENDBRANCH   2   3
ENDBRANCH   1   2
BRANCH   1   9
ATOM      9  C   UNL     1      -1.932   2.452  -2.533  1.00  0.00     0.000 C 
BRANCH   9  10
ATOM     10  C   UNL     1      -2.723   1.252  -3.080  1.00  0.00    -0.000 C 
BRANCH  10  11
ATOM     11  C   UNL     1      -4.164   1.622  -3.467  1.00  0.00    -0.000 C 
BRANCH  11  12
ATOM     12  C   UNL     1      -4.710   2.810  -2.654  1.00  0.00    -0.000 C 
BRANCH  12  13
ATOM     13  C   UNL     1      -5.514   3.793  -3.519  1.00  0.00    -0.003 C 
ATOM     14  C   UNL     1      -4.635   4.577  -4.492  1.00  0.00     0.004 C 
ENDBRANCH  12  13
ENDBRANCH  11  12
ENDBRANCH  10  11
ENDBRANCH   9  10
ENDBRANCH   1   9
TORSDOF 10
ENDMDL
MODEL 3
REMARK VINA RESULT:    -4.200      0.990      2.082
REMARK INTER + INTRA:          -7.550
REMARK INTER:                  -6.769
REMARK INTRA:                  -0.782
REMARK UNBOUND:                -0.895
REMARK SMILES CCCCCCCCCCCC(=O)[O-]
REMARK SMILES IDX 7 1 8 2 9 3 10 4 11 5 12 6 13 7 14 8 6 9 5 10 4 11 3 12 2 13
REMARK SMILES IDX 1 14
REMARK H PARENT
REMARK Flexibility Score: inf
ROOT
ATOM      1  C   UNL     1      -2.921   2.652  -2.172  1.00  0.00     0.000 C 
ENDROOT
BRANCH   1   2
ATOM      2  C   UNL     1      -1.534   2.285  -2.719  1.00  0.00     0.000 C 
BRANCH   2   3
ATOM      3  C   UNL     1      -1.402   2.685  -4.193  1.00  0.00     0.000 C 
BRANCH   3   4
ATOM      4  C   UNL     1       0.006   3.212  -4.500  1.00  0.00     0.006 C 
BRANCH   4   5
ATOM      5  C   UNL     1       0.857   3.275  -3.228  1.00  0.00     0.053 C 
BRANCH   5   6
ATOM      6  C   UNL     1       2.219   2.711  -3.482  1.00  0.00     0.041 C 
ATOM      7  O   UNL     1       3.040   3.339  -4.201  1.00  0.00    -0.550 OA
ATOM      8  O   UNL     1       2.599   1.516  -2.887  1.00  0.00    -0.550 OA
ENDBRANCH   5   6
ENDBRANCH   4   5
ENDBRANCH   3   4
ENDBRANCH   2   3
ENDBRANCH   1   2
BRANCH   1   9
ATOM      9  C   UNL     1      -3.949   2.908  -3.286  1.00  0.00     0.000 C 
BRANCH   9  10
ATOM     10  C   UNL     1      -5.348   2.375  -2.932  1.00  0.00    -0.000 C 
BRANCH  10  11
ATOM     11  C   UNL     1      -5.597   0.961  -3.481  1.00  0.00    -0.000 C 
BRANCH  11  12
ATOM     12  C   UNL     1      -4.372   0.385  -4.215  1.00  0.00    -0.000 C 
BRANCH  12  13
ATOM     13  C   UNL     1      -3.746  -0.803  -3.468  1.00  0.00    -0.003 C 
ATOM     14  C   UNL     1      -4.043  -2.144  -4.138  1.00  0.00     0.004 C 
ENDBRANCH  12  13
ENDBRANCH  11  12
ENDBRANCH  10  11
ENDBRANCH   9  10
ENDBRANCH   1   9
TORSDOF 10
ENDMDL
MODEL 4
REMARK VINA RESULT:    -4.176      1.409      1.915
REMARK INTER + INTRA:          -7.511
REMARK INTER:                  -6.763
REMARK INTRA:                  -0.749
REMARK UNBOUND:                -0.895
REMARK SMILES CCCCCCCCCCCC(=O)[O-]
REMARK SMILES IDX 7 1 8 2 9 3 10 4 11 5 12 6 13 7 14 8 6 9 5 10 4 11 3 12 2 13
REMARK SMILES IDX 1 14
REMARK H PARENT
REMARK Flexibility Score: inf
ROOT
ATOM      1  C   UNL     1       0.049   2.976  -4.250  1.00  0.00     0.000 C 
ENDROOT
BRANCH   1   2
ATOM      2  C   UNL     1       0.970   4.145  -4.628  1.00  0.00     0.000 C 
BRANCH   2   3
ATOM      3  C   UNL     1       2.017   3.707  -5.659  1.00  0.00     0.000 C 
BRANCH   3   4
ATOM      4  C   UNL     1       3.413   3.628  -5.029  1.00  0.00     0.006 C 
BRANCH   4   5
ATOM      5  C   UNL     1       3.843   2.172  -4.827  1.00  0.00     0.053 C 
BRANCH   5   6
ATOM      6  C   UNL     1       3.878   1.835  -3.370  1.00  0.00     0.041 C 
ATOM      7  O   UNL     1       2.821   1.508  -2.769  1.00  0.00    -0.550 OA
ATOM      8  O   UNL     1       5.087   1.834  -2.686  1.00  0.00    -0.550 OA
ENDBRANCH   5   6
ENDBRANCH   4   5
ENDBRANCH   3   4
ENDBRANCH   2   3
ENDBRANCH   1   2
BRANCH   1   9
ATOM      9  C   UNL     1      -0.401   3.025  -2.780  1.00  0.00     0.000 C 
BRANCH   9  10
ATOM     10  C   UNL     1      -1.854   2.556  -2.592  1.00  0.00    -0.000 C 
BRANCH  10  11
ATOM     11  C   UNL     1      -2.716   2.788  -3.843  1.00  0.00    -0.000 C 
BRANCH  11  12
ATOM     12  C   UNL     1      -3.312   1.484  -4.403  1.00  0.00    -0.000 C 
BRANCH  12  13
ATOM     13  C   UNL     1      -3.439   0.389  -3.333  1.00  0.00    -0.003 C 
ATOM     14  C   UNL     1      -3.989  -0.922  -3.892  1.00  0.00     0.004 C 
ENDBRANCH  12  13
ENDBRANCH  11  12
ENDBRANCH  10  11
ENDBRANCH   9  10
ENDBRANCH   1   9
TORSDOF 10
ENDMDL
MODEL 5
REMARK VINA RESULT:    -4.165      1.315      2.137
REMARK INTER + INTRA:          -7.494
REMARK INTER:                  -6.784
REMARK INTRA:                  -0.710
REMARK UNBOUND:                -0.895
REMARK SMILES CCCCCCCCCCCC(=O)[O-]
REMARK SMILES IDX 7 1 8 2 9 3 10 4 11 5 12 6 13 7 14 8 6 9 5 10 4 11 3 12 2 13
REMARK SMILES IDX 1 14
REMARK H PARENT
REMARK Flexibility Score: inf
ROOT
ATOM      1  C   UNL     1      -0.850   2.980  -3.071  1.00  0.00     0.000 C 
ENDROOT
BRANCH   1   2
ATOM      2  C   UNL     1       0.675   2.821  -3.011  1.00  0.00     0.000 C 
BRANCH   2   3
ATOM      3  C   UNL     1       1.336   3.387  -4.274  1.00  0.00     0.000 C 
BRANCH   3   4
ATOM      4  C   UNL     1       2.730   2.782  -4.487  1.00  0.00     0.006 C 
BRANCH   4   5
ATOM      5  C   UNL     1       3.137   1.910  -3.296  1.00  0.00     0.053 C 
BRANCH   5   6
ATOM      6  C   UNL     1       4.288   2.528  -2.566  1.00  0.00     0.041 C 
ATOM      7  O   UNL     1       5.329   1.856  -2.340  1.00  0.00    -0.550 OA
ATOM      8  O   UNL     1       4.231   3.860  -2.177  1.00  0.00    -0.550 OA
ENDBRANCH   5   6
ENDBRANCH   4   5
ENDBRANCH   3   4
ENDBRANCH   2   3
ENDBRANCH   1   2
BRANCH   1   9
ATOM      9  C   UNL     1      -1.389   2.998  -4.512  1.00  0.00     0.000 C 
BRANCH   9  10
ATOM     10  C   UNL     1      -2.573   2.037  -4.712  1.00  0.00    -0.000 C 
BRANCH  10  11
ATOM     11  C   UNL     1      -2.847   1.173  -3.470  1.00  0.00    -0.000 C 
BRANCH  11  12
ATOM     12  C   UNL     1      -4.319   0.733  -3.367  1.00  0.00    -0.000 C 
BRANCH  12  13
ATOM     13  C   UNL     1      -5.297   1.907  -3.533  1.00  0.00    -0.003 C 
ATOM     14  C   UNL     1      -5.124   2.976  -2.455  1.00  0.00     0.004 C 
ENDBRANCH  12  13
ENDBRANCH  11  12
ENDBRANCH  10  11
ENDBRANCH   9  10
ENDBRANCH   1   9
TORSDOF 10
ENDMDL
MODEL 6
REMARK VINA RESULT:    -4.163      1.705      2.473
REMARK INTER + INTRA:          -7.492
REMARK INTER:                  -6.669
REMARK INTRA:                  -0.823
REMARK UNBOUND:                -0.895
REMARK SMILES CCCCCCCCCCCC(=O)[O-]
REMARK SMILES IDX 7 1 8 2 9 3 10 4 11 5 12 6 13 7 14 8 6 9 5 10 4 11 3 12 2 13
REMARK SMILES IDX 1 14
REMARK H PARENT
REMARK Flexibility Score: inf
ROOT
ATOM      1  C   UNL     1      -1.146   2.233  -2.944  1.00  0.00     0.000 C 
ENDROOT
BRANCH   1   2
ATOM      2  C   UNL     1      -0.048   3.298  -2.822  1.00  0.00     0.000 C 
BRANCH   2   3
ATOM      3  C   UNL     1       1.135   2.974  -3.742  1.00  0.00     0.000 C 
BRANCH   3   4
ATOM      4  C   UNL     1       2.158   2.077  -3.032  1.00  0.00     0.006 C 
BRANCH   4   5
ATOM      5  C   UNL     1       3.362   1.797  -3.935  1.00  0.00     0.053 C 
BRANCH   5   6
ATOM      6  C   UNL     1       4.599   2.417  -3.365  1.00  0.00     0.041 C 
ATOM      7  O   UNL     1       5.166   3.367  -3.967  1.00  0.00    -0.550 OA
ATOM      8  O   UNL     1       5.098   1.980  -2.145  1.00  0.00    -0.550 OA
ENDBRANCH   5   6
ENDBRANCH   4   5
ENDBRANCH   3   4
ENDBRANCH   2   3
ENDBRANCH   1   2
BRANCH   1   9
ATOM      9  C   UNL     1      -2.405   2.582  -2.133  1.00  0.00     0.000 C 
BRANCH   9  10
ATOM     10  C   UNL     1      -3.634   2.825  -3.024  1.00  0.00    -0.000 C 
BRANCH  10  11
ATOM     11  C   UNL     1      -3.321   3.732  -4.226  1.00  0.00    -0.000 C 
BRANCH  11  12
ATOM     12  C   UNL     1      -3.851   3.162  -5.554  1.00  0.00    -0.000 C 
BRANCH  12  13
ATOM     13  C   UNL     1      -2.770   2.404  -6.341  1.00  0.00    -0.003 C 
ATOM     14  C   UNL     1      -1.462   3.186  -6.449  1.00  0.00     0.004 C 
ENDBRANCH  12  13
ENDBRANCH  11  12
ENDBRANCH  10  11
ENDBRANCH   9  10
ENDBRANCH   1   9
TORSDOF 10
ENDMDL
MODEL 7
REMARK VINA RESULT:    -4.090      3.825      7.057
REMARK INTER + INTRA:          -7.376
REMARK INTER:                  -6.810
REMARK INTRA:                  -0.566
REMARK UNBOUND:                -0.895
REMARK SMILES CCCCCCCCCCCC(=O)[O-]
REMARK SMILES IDX 7 1 8 2 9 3 10 4 11 5 12 6 13 7 14 8 6 9 5 10 4 11 3 12 2 13
REMARK SMILES IDX 1 14
REMARK H PARENT
REMARK Flexibility Score: inf
ROOT
ATOM      1  C   UNL     1      -0.497   3.245  -4.275  1.00  0.00     0.000 C 
ENDROOT
BRANCH   1   2
ATOM      2  C   UNL     1      -1.835   2.508  -4.124  1.00  0.00     0.000 C 
BRANCH   2   3
ATOM      3  C   UNL     1      -2.087   2.123  -2.661  1.00  0.00     0.000 C 
BRANCH   3   4
ATOM      4  C   UNL     1      -3.490   2.548  -2.212  1.00  0.00     0.006 C 
BRANCH   4   5
ATOM      5  C   UNL     1      -4.484   2.479  -3.375  1.00  0.00     0.053 C 
BRANCH   5   6
ATOM      6  C   UNL     1      -5.232   1.183  -3.347  1.00  0.00     0.041 C 
ATOM      7  O   UNL     1      -6.491   1.179  -3.318  1.00  0.00    -0.550 OA
ATOM      8  O   UNL     1      -4.541  -0.020  -3.401  1.00  0.00    -0.550 OA
ENDBRANCH   5   6
ENDBRANCH   4   5
ENDBRANCH   3   4
ENDBRANCH   2   3
ENDBRANCH   1   2
BRANCH   1   9
ATOM      9  C   UNL     1       0.414   3.080  -3.047  1.00  0.00     0.000 C 
BRANCH   9  10
ATOM     10  C   UNL     1       1.906   3.205  -3.398  1.00  0.00    -0.000 C 
BRANCH  10  11
ATOM     11  C   UNL     1       2.683   1.903  -3.142  1.00  0.00    -0.000 C 
BRANCH  11  12
ATOM     12  C   UNL     1       3.927   1.767  -4.038  1.00  0.00    -0.000 C 
BRANCH  12  13
ATOM     13  C   UNL     1       3.926   2.775  -5.200  1.00  0.00    -0.003 C 
ATOM     14  C   UNL     1       4.078   2.103  -6.563  1.00  0.00     0.004 C 
ENDBRANCH  12  13
ENDBRANCH  11  12
ENDBRANCH  10  11
ENDBRANCH   9  10
ENDBRANCH   1   9
TORSDOF 10
ENDMDL
MODEL 8
REMARK VINA RESULT:    -4.045      1.202      1.883
REMARK INTER + INTRA:          -7.304
REMARK INTER:                  -6.515
REMARK INTRA:                  -0.789
REMARK UNBOUND:                -0.895
REMARK SMILES CCCCCCCCCCCC(=O)[O-]
REMARK SMILES IDX 7 1 8 2 9 3 10 4 11 5 12 6 13 7 14 8 6 9 5 10 4 11 3 12 2 13
REMARK SMILES IDX 1 14
REMARK H PARENT
REMARK Flexibility Score: inf
ROOT
ATOM      1  C   UNL     1      -1.169   3.024  -5.612  1.00  0.00     0.000 C 
ENDROOT
BRANCH   1   2
ATOM      2  C   UNL     1      -0.050   3.766  -6.357  1.00  0.00     0.000 C 
BRANCH   2   3
ATOM      3  C   UNL     1       0.951   4.382  -5.371  1.00  0.00     0.000 C 
BRANCH   3   4
ATOM      4  C   UNL     1       2.165   3.465  -5.172  1.00  0.00     0.006 C 
BRANCH   4   5
ATOM      5  C   UNL     1       2.460   3.261  -3.683  1.00  0.00     0.053 C 
BRANCH   5   6
ATOM      6  C   UNL     1       3.428   2.136  -3.492  1.00  0.00     0.041 C 
ATOM      7  O   UNL     1       3.803   1.448  -4.478  1.00  0.00    -0.550 OA
ATOM      8  O   UNL     1       3.952   1.876  -2.233  1.00  0.00    -0.550 OA
ENDBRANCH   5   6
ENDBRANCH   4   5
ENDBRANCH   3   4
ENDBRANCH   2   3
ENDBRANCH   1   2
BRANCH   1   9
ATOM      9  C   UNL     1      -1.499   3.661  -4.252  1.00  0.00     0.000 C 
BRANCH   9  10
ATOM     10  C   UNL     1      -1.204   2.719  -3.072  1.00  0.00    -0.000 C 
BRANCH  10  11
ATOM     11  C   UNL     1      -2.465   2.375  -2.262  1.00  0.00    -0.000 C 
BRANCH  11  12
ATOM     12  C   UNL     1      -3.764   2.640  -3.045  1.00  0.00    -0.000 C 
BRANCH  12  13
ATOM     13  C   UNL     1      -4.209   1.424  -3.873  1.00  0.00    -0.003 C 
ATOM     14  C   UNL     1      -3.669   0.106  -3.322  1.00  0.00     0.004 C 
ENDBRANCH  12  13
ENDBRANCH  11  12
ENDBRANCH  10  11
ENDBRANCH   9  10
ENDBRANCH   1   9
TORSDOF 10
ENDMDL
MODEL 9
REMARK VINA RESULT:    -3.936      1.933      3.017
REMARK INTER + INTRA:          -7.133
REMARK INTER:                  -6.621
REMARK INTRA:                  -0.511
REMARK UNBOUND:                -0.895
REMARK SMILES CCCCCCCCCCCC(=O)[O-]
REMARK SMILES IDX 7 1 8 2 9 3 10 4 11 5 12 6 13 7 14 8 6 9 5 10 4 11 3 12 2 13
REMARK SMILES IDX 1 14
REMARK H PARENT
REMARK Flexibility Score: inf
ROOT
ATOM      1  C   UNL     1       0.527   3.573  -2.934  1.00  0.00     0.000 C 
ENDROOT
BRANCH   1   2
ATOM      2  C   UNL     1       1.547   3.043  -3.952  1.00  0.00     0.000 C 
BRANCH   2   3
ATOM      3  C   UNL     1       2.616   2.188  -3.262  1.00  0.00     0.000 C 
BRANCH   3   4
ATOM      4  C   UNL     1       3.647   1.670  -4.275  1.00  0.00     0.006 C 
BRANCH   4   5
ATOM      5  C   UNL     1       4.192   2.813  -5.136  1.00  0.00     0.053 C 
BRANCH   5   6
ATOM      6  C   UNL     1       3.877   2.575  -6.579  1.00  0.00     0.041 C 
ATOM      7  O   UNL     1       3.156   3.390  -7.213  1.00  0.00    -0.550 OA
ATOM      8  O   UNL     1       4.420   1.480  -7.238  1.00  0.00    -0.550 OA
ENDBRANCH   5   6
ENDBRANCH   4   5
ENDBRANCH   3   4
ENDBRANCH   2   3
ENDBRANCH   1   2
BRANCH   1   9
ATOM      9  C   UNL     1      -0.797   2.792  -2.959  1.00  0.00     0.000 C 
BRANCH   9  10
ATOM     10  C   UNL     1      -1.372   2.648  -4.378  1.00  0.00    -0.000 C 
BRANCH  10  11
ATOM     11  C   UNL     1      -2.785   2.042  -4.384  1.00  0.00    -0.000 C 
BRANCH  11  12
ATOM     12  C   UNL     1      -3.318   1.767  -2.965  1.00  0.00    -0.000 C 
BRANCH  12  13
ATOM     13  C   UNL     1      -4.358   2.805  -2.517  1.00  0.00    -0.003 C 
ATOM     14  C   UNL     1      -5.189   3.347  -3.679  1.00  0.00     0.004 C 
ENDBRANCH  12  13
ENDBRANCH  11  12
ENDBRANCH  10  11
ENDBRANCH   9  10
ENDBRANCH   1   9
TORSDOF 10
ENDMDL
