MODEL 1
REMARK VINA RESULT:    -3.437      0.000      0.000
REMARK INTER + INTRA:          -4.098
REMARK INTER:                  -4.040
REMARK INTRA:                  -0.058
REMARK UNBOUND:                -0.058
REMARK SMILES CCCCC(=O)[O-]
REMARK SMILES IDX 4 1 5 2 6 3 7 4 3 5 2 6 1 7
REMARK H PARENT
REMARK Flexibility Score: inf
ROOT
ATOM      1  C   UNL     1       6.815  13.297  23.187  1.00  0.00     0.053 C 
ENDROOT
BRANCH   1   2
ATOM      2  C   UNL     1       7.624  14.191  22.298  1.00  0.00     0.041 C 
ATOM      3  O   UNL     1       7.179  15.319  21.961  1.00  0.00    -0.550 OA
ATOM      4  O   UNL     1       8.884  13.792  21.869  1.00  0.00    -0.550 OA
ENDBRANCH   1   2
BRANCH   1   5
ATOM      5  C   UNL     1       7.140  11.816  22.953  1.00  0.00     0.006 C 
BRANCH   5   6
ATOM      6  C   UNL     1       6.219  11.178  21.903  1.00  0.00    -0.003 C 
ATOM      7  C   UNL     1       4.874  10.791  22.514  1.00  0.00     0.004 C 
ENDBRANCH   5   6
ENDBRANCH   1   5
TORSDOF 3
ENDMDL
MODEL 2
REMARK VINA RESULT:    -3.312      1.188      1.448
REMARK INTER + INTRA:          -3.951
REMARK INTER:                  -3.903
REMARK INTRA:                  -0.048
REMARK UNBOUND:                -0.058
REMARK SMILES CCCCC(=O)[O-]
REMARK SMILES IDX 4 1 5 2 6 3 7 4 3 5 2 6 1 7
REMARK H PARENT
REMARK Flexibility Score: inf
ROOT
ATOM      1  C   UNL     1       7.562  13.192  21.827  1.00  0.00     0.053 C 
ENDROOT
BRANCH   1   2
ATOM      2  C   UNL     1       8.958  13.563  22.226  1.00  0.00     0.041 C 
ATOM      3  O   UNL     1       9.325  14.767  22.202  1.00  0.00    -0.550 OA
ATOM      4  O   UNL     1       9.842  12.582  22.658  1.00  0.00    -0.550 OA
ENDBRANCH   1   2
BRANCH   1   5
ATOM      5  C   UNL     1       6.740  12.695  23.023  1.00  0.00     0.006 C 
BRANCH   5   6
ATOM      6  C   UNL     1       6.453  11.188  22.943  1.00  0.00    -0.003 C 
ATOM      7  C   UNL     1       4.997  10.925  22.567  1.00  0.00     0.004 C 
ENDBRANCH   5   6
ENDBRANCH   1   5
TORSDOF 3
ENDMDL
MODEL 3
REMARK VINA RESULT:    -3.171      2.770      4.135
REMARK INTER + INTRA:          -3.785
REMARK INTER:                  -3.769
REMARK INTRA:                  -0.016
REMARK UNBOUND:                -0.058
REMARK SMILES CCCCC(=O)[O-]
REMARK SMILES IDX 4 1 5 2 6 3 7 4 3 5 2 6 1 7
REMARK H PARENT
REMARK Flexibility Score: inf
ROOT
ATOM      1  C   UNL     1       6.534  12.343  23.040  1.00  0.00     0.053 C 
ENDROOT
BRANCH   1   2
ATOM      2  C   UNL     1       5.913  11.030  22.673  1.00  0.00     0.041 C 
ATOM      3  O   UNL     1       6.632  10.006  22.535  1.00  0.00    -0.550 OA
ATOM      4  O   UNL     1       4.536  10.930  22.518  1.00  0.00    -0.550 OA
ENDBRANCH   1   2
BRANCH   1   5
ATOM      5  C   UNL     1       7.513  12.830  21.964  1.00  0.00     0.006 C 
BRANCH   5   6
ATOM      6  C   UNL     1       8.037  14.244  22.253  1.00  0.00    -0.003 C 
ATOM      7  C   UNL     1       9.563  14.280  22.237  1.00  0.00     0.004 C 
ENDBRANCH   5   6
ENDBRANCH   1   5
TORSDOF 3
ENDMDL
MODEL 4
REMARK VINA RESULT:    -3.156      1.926      2.231
REMARK INTER + INTRA:          -3.767
REMARK INTER:                  -3.666
REMARK INTRA:                  -0.102
REMARK UNBOUND:                -0.058
REMARK SMILES CCCCC(=O)[O-]
REMARK SMILES IDX 4 1 5 2 6 3 7 4 3 5 2 6 1 7
REMARK H PARENT
REMARK Flexibility Score: inf
ROOT
ATOM      1  C   UNL     1       7.381  12.970  21.605  1.00  0.00     0.053 C 
ENDROOT
BRANCH   1   2
ATOM      2  C   UNL     1       8.498  12.089  21.134  1.00  0.00     0.041 C 
ATOM      3  O   UNL     1       8.429  11.527  20.010  1.00  0.00    -0.550 OA
ATOM      4  O   UNL     1       9.629  11.917  21.922  1.00  0.00    -0.550 OA
ENDBRANCH   1   2
BRANCH   1   5
ATOM      5  C   UNL     1       6.787  12.477  22.931  1.00  0.00     0.006 C 
BRANCH   5   6
ATOM      6  C   UNL     1       6.364  11.003  22.865  1.00  0.00    -0.003 C 
ATOM      7  C   UNL     1       4.894  10.869  22.475  1.00  0.00     0.004 C 
ENDBRANCH   5   6
ENDBRANCH   1   5
TORSDOF 3
ENDMDL
MODEL 5
REMARK VINA RESULT:    -3.125     19.974     20.953
REMARK INTER + INTRA:          -3.731
REMARK INTER:                  -3.673
REMARK INTRA:                  -0.058
REMARK UNBOUND:                -0.058
REMARK SMILES CCCCC(=O)[O-]
REMARK SMILES IDX 4 1 5 2 6 3 7 4 3 5 2 6 1 7
REMARK H PARENT
REMARK Flexibility Score: inf
ROOT
ATOM      1  C   UNL     1      19.888  27.705  16.739  1.00  0.00     0.053 C 
ENDROOT
BRANCH   1   2
ATOM      2  C   UNL     1      18.832  28.433  15.965  1.00  0.00     0.041 C 
ATOM      3  O   UNL     1      19.076  29.565  15.471  1.00  0.00    -0.550 OA
ATOM      4  O   UNL     1      17.590  27.845  15.760  1.00  0.00    -0.550 OA
ENDBRANCH   1   2
BRANCH   1   5
ATOM      5  C   UNL     1      19.660  27.810  18.253  1.00  0.00     0.006 C 
BRANCH   5   6
ATOM      6  C   UNL     1      20.053  29.188  18.805  1.00  0.00    -0.003 C 
ATOM      7  C   UNL     1      21.519  29.215  19.227  1.00  0.00     0.004 C 
ENDBRANCH   5   6
ENDBRANCH   1   5
TORSDOF 3
ENDMDL
MODEL 6
REMARK VINA RESULT:    -3.097      2.357      3.100
REMARK INTER + INTRA:          -3.698
REMARK INTER:                  -3.601
REMARK INTRA:                  -0.098
REMARK UNBOUND:                -0.058
REMARK SMILES CCCCC(=O)[O-]
REMARK SMILES IDX 4 1 5 2 6 3 7 4 3 5 2 6 1 7
REMARK H PARENT
REMARK Flexibility Score: inf
ROOT
ATOM      1  C   UNL     1       8.073  10.772  21.528  1.00  0.00     0.053 C 
ENDROOT
BRANCH   1   2
ATOM      2  C   UNL     1       8.954  10.805  22.740  1.00  0.00     0.041 C 
ATOM      3  O   UNL     1       9.841  11.690  22.854  1.00  0.00    -0.550 OA
ATOM      4  O   UNL     1       8.771   9.878  23.758  1.00  0.00    -0.550 OA
ENDBRANCH   1   2
BRANCH   1   5
ATOM      5  C   UNL     1       7.020  11.887  21.558  1.00  0.00     0.006 C 
BRANCH   5   6
ATOM      6  C   UNL     1       6.099  11.783  22.782  1.00  0.00    -0.003 C 
ATOM      7  C   UNL     1       5.066  10.674  22.601  1.00  0.00     0.004 C 
ENDBRANCH   5   6
ENDBRANCH   1   5
TORSDOF 3
ENDMDL
MODEL 7
REMARK VINA RESULT:    -3.017      7.726      8.620
REMARK INTER + INTRA:          -3.604
REMARK INTER:                  -3.489
REMARK INTRA:                  -0.115
REMARK UNBOUND:                -0.058
REMARK SMILES CCCCC(=O)[O-]
REMARK SMILES IDX 4 1 5 2 6 3 7 4 3 5 2 6 1 7
REMARK H PARENT
REMARK Flexibility Score: inf
ROOT
ATOM      1  C   UNL     1      13.626  16.901  24.514  1.00  0.00     0.053 C 
ENDROOT
BRANCH   1   2
ATOM      2  C   UNL     1      14.119  18.018  23.647  1.00  0.00     0.041 C 
ATOM      3  O   UNL     1      13.612  18.209  22.510  1.00  0.00    -0.550 OA
ATOM      4  O   UNL     1      15.115  18.870  24.108  1.00  0.00    -0.550 OA
ENDBRANCH   1   2
BRANCH   1   5
ATOM      5  C   UNL     1      12.206  17.164  25.032  1.00  0.00     0.006 C 
BRANCH   5   6
ATOM      6  C   UNL     1      12.097  18.506  25.770  1.00  0.00    -0.003 C 
ATOM      7  C   UNL     1      11.033  19.398  25.135  1.00  0.00     0.004 C 
ENDBRANCH   5   6
ENDBRANCH   1   5
TORSDOF 3
ENDMDL
MODEL 8
REMARK VINA RESULT:    -2.994      8.171      9.062
REMARK INTER + INTRA:          -3.577
REMARK INTER:                  -3.520
REMARK INTRA:                  -0.057
REMARK UNBOUND:                -0.058
REMARK SMILES CCCCC(=O)[O-]
REMARK SMILES IDX 4 1 5 2 6 3 7 4 3 5 2 6 1 7
REMARK H PARENT
REMARK Flexibility Score: inf
ROOT
ATOM      1  C   UNL     1      14.417  18.441  24.135  1.00  0.00     0.053 C 
ENDROOT
BRANCH   1   2
ATOM      2  C   UNL     1      14.402  18.954  22.727  1.00  0.00     0.041 C 
ATOM      3  O   UNL     1      14.370  18.148  21.760  1.00  0.00    -0.550 OA
ATOM      4  O   UNL     1      14.389  20.322  22.485  1.00  0.00    -0.550 OA
ENDBRANCH   1   2
BRANCH   1   5
ATOM      5  C   UNL     1      13.832  17.026  24.233  1.00  0.00     0.006 C 
BRANCH   5   6
ATOM      6  C   UNL     1      12.820  16.895  25.380  1.00  0.00    -0.003 C 
ATOM      7  C   UNL     1      12.496  18.257  25.987  1.00  0.00     0.004 C 
ENDBRANCH   5   6
ENDBRANCH   1   5
TORSDOF 3
ENDMDL
MODEL 9
REMARK VINA RESULT:    -2.986     20.482     20.987
REMARK INTER + INTRA:          -3.568
REMARK INTER:                  -3.456
REMARK INTRA:                  -0.111
REMARK UNBOUND:                -0.058
REMARK SMILES CCCCC(=O)[O-]
REMARK SMILES IDX 4 1 5 2 6 3 7 4 3 5 2 6 1 7
REMARK H PARENT
REMARK Flexibility Score: inf
ROOT
ATOM      1  C   UNL     1      19.664  27.734  18.180  1.00  0.00     0.053 C 
ENDROOT
BRANCH   1   2
ATOM      2  C   UNL     1      20.190  29.044  18.682  1.00  0.00     0.041 C 
ATOM      3  O   UNL     1      19.460  30.070  18.661  1.00  0.00    -0.550 OA
ATOM      4  O   UNL     1      21.475  29.124  19.206  1.00  0.00    -0.550 OA
ENDBRANCH   1   2
BRANCH   1   5
ATOM      5  C   UNL     1      19.835  27.595  16.662  1.00  0.00     0.006 C 
BRANCH   5   6
ATOM      6  C   UNL     1      18.572  28.012  15.894  1.00  0.00    -0.003 C 
ATOM      7  C   UNL     1      18.771  29.356  15.197  1.00  0.00     0.004 C 
ENDBRANCH   5   6
ENDBRANCH   1   5
TORSDOF 3
ENDMDL
