MODEL 1
REMARK VINA RESULT:    -4.219      0.000      0.000
REMARK INTER + INTRA:          -6.447
REMARK INTER:                  -5.945
REMARK INTRA:                  -0.502
REMARK UNBOUND:                -0.502
REMARK SMILES CCCCCCCCC(=O)[O-]
REMARK SMILES IDX 6 1 7 2 8 3 9 4 10 5 11 6 5 7 4 8 3 9 2 10 1 11
REMARK H PARENT
REMARK Flexibility Score: inf
ROOT
ATOM      1  C   UNL     1      11.438 -21.793 -15.017  1.00  0.00     0.000 C 
ENDROOT
BRANCH   1   2
ATOM      2  C   UNL     1      11.832 -22.737 -13.870  1.00  0.00     0.006 C 
BRANCH   2   3
ATOM      3  C   UNL     1      11.269 -24.151 -14.062  1.00  0.00     0.053 C 
BRANCH   3   4
ATOM      4  C   UNL     1      12.350 -25.188 -14.034  1.00  0.00     0.041 C 
ATOM      5  O   UNL     1      12.102 -26.371 -14.388  1.00  0.00    -0.550 OA
ATOM      6  O   UNL     1      13.622 -24.857 -13.585  1.00  0.00    -0.550 OA
ENDBRANCH   3   4
ENDBRANCH   2   3
ENDBRANCH   1   2
BRANCH   1   7
ATOM      7  C   UNL     1      12.644 -20.979 -15.499  1.00  0.00     0.000 C 
BRANCH   7   8
ATOM      8  C   UNL     1      12.295 -19.488 -15.608  1.00  0.00    -0.000 C 
BRANCH   8   9
ATOM      9  C   UNL     1      11.088 -19.090 -14.741  1.00  0.00    -0.000 C 
BRANCH   9  10
ATOM     10  C   UNL     1      11.440 -18.314 -13.459  1.00  0.00    -0.003 C 
ATOM     11  C   UNL     1      11.351 -19.172 -12.198  1.00  0.00     0.004 C 
ENDBRANCH   9  10
ENDBRANCH   8   9
ENDBRANCH   7   8
ENDBRANCH   1   7
TORSDOF 7
ENDMDL
MODEL 2
REMARK VINA RESULT:    -4.215      3.344      5.729
REMARK INTER + INTRA:          -6.441
REMARK INTER:                  -6.058
REMARK INTRA:                  -0.383
REMARK UNBOUND:                -0.502
REMARK SMILES CCCCCCCCC(=O)[O-]
REMARK SMILES IDX 6 1 7 2 8 3 9 4 10 5 11 6 5 7 4 8 3 9 2 10 1 11
REMARK H PARENT
REMARK Flexibility Score: inf
ROOT
ATOM      1  C   UNL     1      12.959 -21.463 -14.539  1.00  0.00     0.000 C 
ENDROOT
BRANCH   1   2
ATOM      2  C   UNL     1      11.650 -20.997 -15.194  1.00  0.00     0.006 C 
BRANCH   2   3
ATOM      3  C   UNL     1      11.709 -19.528 -15.632  1.00  0.00     0.053 C 
BRANCH   3   4
ATOM      4  C   UNL     1      12.673 -19.323 -16.761  1.00  0.00     0.041 C 
ATOM      5  O   UNL     1      12.461 -19.860 -17.880  1.00  0.00    -0.550 OA
ATOM      6  O   UNL     1      13.822 -18.567 -16.568  1.00  0.00    -0.550 OA
ENDBRANCH   3   4
ENDBRANCH   2   3
ENDBRANCH   1   2
BRANCH   1   7
ATOM      7  C   UNL     1      12.777 -22.820 -13.850  1.00  0.00     0.000 C 
BRANCH   7   8
ATOM      8  C   UNL     1      11.402 -23.423 -14.173  1.00  0.00    -0.000 C 
BRANCH   8   9
ATOM      9  C   UNL     1      11.395 -24.960 -14.127  1.00  0.00    -0.000 C 
BRANCH   9  10
ATOM     10  C   UNL     1      12.786 -25.611 -14.024  1.00  0.00    -0.003 C 
ATOM     11  C   UNL     1      12.804 -27.063 -14.497  1.00  0.00     0.004 C 
ENDBRANCH   9  10
ENDBRANCH   8   9
ENDBRANCH   7   8
ENDBRANCH   1   7
TORSDOF 7
ENDMDL
MODEL 3
REMARK VINA RESULT:    -4.157      4.201      6.120
REMARK INTER + INTRA:          -6.359
REMARK INTER:                  -6.008
REMARK INTRA:                  -0.351
REMARK UNBOUND:                -0.502
REMARK SMILES CCCCCCCCC(=O)[O-]
REMARK SMILES IDX 6 1 7 2 8 3 9 4 10 5 11 6 5 7 4 8 3 9 2 10 1 11
REMARK H PARENT
REMARK Flexibility Score: inf
ROOT
ATOM      1  C   UNL     1      11.477 -19.601 -14.988  1.00  0.00     0.000 C 
ENDROOT
BRANCH   1   2
ATOM      2  C   UNL     1      12.769 -19.001 -14.412  1.00  0.00     0.006 C 
BRANCH   2   3
ATOM      3  C   UNL     1      13.381 -17.942 -15.338  1.00  0.00     0.053 C 
BRANCH   3   4
ATOM      4  C   UNL     1      13.983 -16.809 -14.565  1.00  0.00     0.041 C 
ATOM      5  O   UNL     1      13.244 -16.028 -13.909  1.00  0.00    -0.550 OA
ATOM      6  O   UNL     1      15.354 -16.594 -14.597  1.00  0.00    -0.550 OA
ENDBRANCH   3   4
ENDBRANCH   2   3
ENDBRANCH   1   2
BRANCH   1   7
ATOM      7  C   UNL     1      11.639 -21.102 -15.256  1.00  0.00     0.000 C 
BRANCH   7   8
ATOM      8  C   UNL     1      12.916 -21.645 -14.600  1.00  0.00    -0.000 C 
BRANCH   8   9
ATOM      9  C   UNL     1      12.707 -23.006 -13.914  1.00  0.00    -0.000 C 
BRANCH   9  10
ATOM     10  C   UNL     1      11.295 -23.597 -14.069  1.00  0.00    -0.003 C 
ATOM     11  C   UNL     1      11.294 -25.120 -14.197  1.00  0.00     0.004 C 
ENDBRANCH   9  10
ENDBRANCH   8   9
ENDBRANCH   7   8
ENDBRANCH   1   7
TORSDOF 7
ENDMDL
MODEL 4
REMARK VINA RESULT:    -4.103      1.434      2.271
REMARK INTER + INTRA:          -6.284
REMARK INTER:                  -5.879
REMARK INTRA:                  -0.405
REMARK UNBOUND:                -0.502
REMARK SMILES CCCCCCCCC(=O)[O-]
REMARK SMILES IDX 6 1 7 2 8 3 9 4 10 5 11 6 5 7 4 8 3 9 2 10 1 11
REMARK H PARENT
REMARK Flexibility Score: inf
ROOT
ATOM      1  C   UNL     1      12.316 -20.724 -15.406  1.00  0.00     0.000 C 
ENDROOT
BRANCH   1   2
ATOM      2  C   UNL     1      11.443 -21.952 -15.104  1.00  0.00     0.006 C 
BRANCH   2   3
ATOM      3  C   UNL     1      11.851 -22.648 -13.799  1.00  0.00     0.053 C 
BRANCH   3   4
ATOM      4  C   UNL     1      12.098 -24.112 -14.003  1.00  0.00     0.041 C 
ATOM      5  O   UNL     1      13.275 -24.557 -14.034  1.00  0.00    -0.550 OA
ATOM      6  O   UNL     1      11.029 -24.979 -14.192  1.00  0.00    -0.550 OA
ENDBRANCH   3   4
ENDBRANCH   2   3
ENDBRANCH   1   2
BRANCH   1   7
ATOM      7  C   UNL     1      11.470 -19.446 -15.452  1.00  0.00     0.000 C 
BRANCH   7   8
ATOM      8  C   UNL     1      11.311 -18.840 -14.050  1.00  0.00    -0.000 C 
BRANCH   8   9
ATOM      9  C   UNL     1      12.642 -18.349 -13.454  1.00  0.00    -0.000 C 
BRANCH   9  10
ATOM     10  C   UNL     1      12.924 -16.849 -13.650  1.00  0.00    -0.003 C 
ATOM     11  C   UNL     1      13.960 -16.573 -14.739  1.00  0.00     0.004 C 
ENDBRANCH   9  10
ENDBRANCH   8   9
ENDBRANCH   7   8
ENDBRANCH   1   7
TORSDOF 7
ENDMDL
MODEL 5
REMARK VINA RESULT:    -4.088      3.788      5.982
REMARK INTER + INTRA:          -6.263
REMARK INTER:                  -5.624
REMARK INTRA:                  -0.639
REMARK UNBOUND:                -0.502
REMARK SMILES CCCCCCCCC(=O)[O-]
REMARK SMILES IDX 6 1 7 2 8 3 9 4 10 5 11 6 5 7 4 8 3 9 2 10 1 11
REMARK H PARENT
REMARK Flexibility Score: inf
ROOT
ATOM      1  C   UNL     1      12.851 -18.718 -12.956  1.00  0.00     0.000 C 
ENDROOT
BRANCH   1   2
ATOM      2  C   UNL     1      13.372 -17.300 -12.675  1.00  0.00     0.006 C 
BRANCH   2   3
ATOM      3  C   UNL     1      13.566 -16.487 -13.961  1.00  0.00     0.053 C 
BRANCH   3   4
ATOM      4  C   UNL     1      14.698 -17.014 -14.788  1.00  0.00     0.041 C 
ATOM      5  O   UNL     1      15.889 -16.793 -14.445  1.00  0.00    -0.550 OA
ATOM      6  O   UNL     1      14.438 -17.720 -15.955  1.00  0.00    -0.550 OA
ENDBRANCH   3   4
ENDBRANCH   2   3
ENDBRANCH   1   2
BRANCH   1   7
ATOM      7  C   UNL     1      11.352 -18.699 -13.278  1.00  0.00     0.000 C 
BRANCH   7   8
ATOM      8  C   UNL     1      11.087 -19.213 -14.701  1.00  0.00    -0.000 C 
BRANCH   8   9
ATOM      9  C   UNL     1      12.081 -20.301 -15.140  1.00  0.00    -0.000 C 
BRANCH   9  10
ATOM     10  C   UNL     1      11.540 -21.740 -15.062  1.00  0.00    -0.003 C 
ATOM     11  C   UNL     1      11.877 -22.435 -13.744  1.00  0.00     0.004 C 
ENDBRANCH   9  10
ENDBRANCH   8   9
ENDBRANCH   7   8
ENDBRANCH   1   7
TORSDOF 7
ENDMDL
MODEL 6
REMARK VINA RESULT:    -4.085      4.881      6.432
REMARK INTER + INTRA:          -6.258
REMARK INTER:                  -5.447
REMARK INTRA:                  -0.811
REMARK UNBOUND:                -0.502
REMARK SMILES CCCCCCCCC(=O)[O-]
REMARK SMILES IDX 6 1 7 2 8 3 9 4 10 5 11 6 5 7 4 8 3 9 2 10 1 11
REMARK H PARENT
REMARK Flexibility Score: inf
ROOT
ATOM      1  C   UNL     1      13.368 -18.409 -11.316  1.00  0.00     0.000 C 
ENDROOT
BRANCH   1   2
ATOM      2  C   UNL     1      14.219 -17.184 -11.685  1.00  0.00     0.006 C 
BRANCH   2   3
ATOM      3  C   UNL     1      14.886 -17.333 -13.058  1.00  0.00     0.053 C 
BRANCH   3   4
ATOM      4  C   UNL     1      14.169 -16.546 -14.113  1.00  0.00     0.041 C 
ATOM      5  O   UNL     1      13.074 -15.985 -13.848  1.00  0.00    -0.550 OA
ATOM      6  O   UNL     1      14.695 -16.460 -15.395  1.00  0.00    -0.550 OA
ENDBRANCH   3   4
ENDBRANCH   2   3
ENDBRANCH   1   2
BRANCH   1   7
ATOM      7  C   UNL     1      11.917 -18.004 -11.028  1.00  0.00     0.000 C 
BRANCH   7   8
ATOM      8  C   UNL     1      10.947 -18.712 -11.984  1.00  0.00    -0.000 C 
BRANCH   8   9
ATOM      9  C   UNL     1      11.662 -19.423 -13.146  1.00  0.00    -0.000 C 
BRANCH   9  10
ATOM     10  C   UNL     1      11.190 -19.004 -14.550  1.00  0.00    -0.003 C 
ATOM     11  C   UNL     1      12.200 -19.340 -15.646  1.00  0.00     0.004 C 
ENDBRANCH   9  10
ENDBRANCH   8   9
ENDBRANCH   7   8
ENDBRANCH   1   7
TORSDOF 7
ENDMDL
MODEL 7
REMARK VINA RESULT:    -4.079      2.529      4.051
REMARK INTER + INTRA:          -6.250
REMARK INTER:                  -5.463
REMARK INTRA:                  -0.786
REMARK UNBOUND:                -0.502
REMARK SMILES CCCCCCCCC(=O)[O-]
REMARK SMILES IDX 6 1 7 2 8 3 9 4 10 5 11 6 5 7 4 8 3 9 2 10 1 11
REMARK H PARENT
REMARK Flexibility Score: inf
ROOT
ATOM      1  C   UNL     1      11.676 -19.140 -13.191  1.00  0.00     0.000 C 
ENDROOT
BRANCH   1   2
ATOM      2  C   UNL     1      11.033 -19.032 -14.582  1.00  0.00     0.006 C 
BRANCH   2   3
ATOM      3  C   UNL     1      11.853 -19.755 -15.658  1.00  0.00     0.053 C 
BRANCH   3   4
ATOM      4  C   UNL     1      12.197 -21.155 -15.249  1.00  0.00     0.041 C 
ATOM      5  O   UNL     1      11.295 -22.030 -15.167  1.00  0.00    -0.550 OA
ATOM      6  O   UNL     1      13.506 -21.485 -14.926  1.00  0.00    -0.550 OA
ENDBRANCH   3   4
ENDBRANCH   2   3
ENDBRANCH   1   2
BRANCH   1   7
ATOM      7  C   UNL     1      11.756 -17.767 -12.513  1.00  0.00     0.000 C 
BRANCH   7   8
ATOM      8  C   UNL     1      13.167 -17.175 -12.632  1.00  0.00    -0.000 C 
BRANCH   8   9
ATOM      9  C   UNL     1      13.304 -16.182 -13.800  1.00  0.00    -0.000 C 
BRANCH   9  10
ATOM     10  C   UNL     1      14.154 -16.686 -14.980  1.00  0.00    -0.003 C 
ATOM     11  C   UNL     1      14.934 -17.959 -14.656  1.00  0.00     0.004 C 
ENDBRANCH   9  10
ENDBRANCH   8   9
ENDBRANCH   7   8
ENDBRANCH   1   7
TORSDOF 7
ENDMDL
MODEL 8
REMARK VINA RESULT:    -4.045      3.969      5.283
REMARK INTER + INTRA:          -6.203
REMARK INTER:                  -5.419
REMARK INTRA:                  -0.783
REMARK UNBOUND:                -0.502
REMARK SMILES CCCCCCCCC(=O)[O-]
REMARK SMILES IDX 6 1 7 2 8 3 9 4 10 5 11 6 5 7 4 8 3 9 2 10 1 11
REMARK H PARENT
REMARK Flexibility Score: inf
ROOT
ATOM      1  C   UNL     1      11.154 -19.109 -14.867  1.00  0.00     0.000 C 
ENDROOT
BRANCH   1   2
ATOM      2  C   UNL     1      11.382 -19.234 -13.353  1.00  0.00     0.006 C 
BRANCH   2   3
ATOM      3  C   UNL     1      11.762 -17.895 -12.710  1.00  0.00     0.053 C 
BRANCH   3   4
ATOM      4  C   UNL     1      13.062 -17.982 -11.969  1.00  0.00     0.041 C 
ATOM      5  O   UNL     1      13.763 -19.025 -12.042  1.00  0.00    -0.550 OA
ATOM      6  O   UNL     1      13.482 -16.925 -11.172  1.00  0.00    -0.550 OA
ENDBRANCH   3   4
ENDBRANCH   2   3
ENDBRANCH   1   2
BRANCH   1   7
ATOM      7  C   UNL     1      12.267 -19.813 -15.651  1.00  0.00     0.000 C 
BRANCH   7   8
ATOM      8  C   UNL     1      13.172 -18.794 -16.359  1.00  0.00    -0.000 C 
BRANCH   8   9
ATOM      9  C   UNL     1      14.399 -18.397 -15.521  1.00  0.00    -0.000 C 
BRANCH   9  10
ATOM     10  C   UNL     1      14.487 -16.901 -15.171  1.00  0.00    -0.003 C 
ATOM     11  C   UNL     1      15.588 -16.587 -14.160  1.00  0.00     0.004 C 
ENDBRANCH   9  10
ENDBRANCH   8   9
ENDBRANCH   7   8
ENDBRANCH   1   7
TORSDOF 7
ENDMDL
MODEL 9
REMARK VINA RESULT:    -3.985      4.050      5.030
REMARK INTER + INTRA:          -6.117
REMARK INTER:                  -5.494
REMARK INTRA:                  -0.623
REMARK UNBOUND:                -0.502
REMARK SMILES CCCCCCCCC(=O)[O-]
REMARK SMILES IDX 6 1 7 2 8 3 9 4 10 5 11 6 5 7 4 8 3 9 2 10 1 11
REMARK H PARENT
REMARK Flexibility Score: inf
ROOT
ATOM      1  C   UNL     1      11.806 -19.795 -13.508  1.00  0.00     0.000 C 
ENDROOT
BRANCH   1   2
ATOM      2  C   UNL     1      11.300 -19.198 -14.830  1.00  0.00     0.006 C 
BRANCH   2   3
ATOM      3  C   UNL     1      11.780 -19.996 -16.049  1.00  0.00     0.053 C 
BRANCH   3   4
ATOM      4  C   UNL     1      12.779 -19.227 -16.859  1.00  0.00     0.041 C 
ATOM      5  O   UNL     1      13.596 -18.456 -16.290  1.00  0.00    -0.550 OA
ATOM      6  O   UNL     1      12.787 -19.337 -18.243  1.00  0.00    -0.550 OA
ENDBRANCH   3   4
ENDBRANCH   2   3
ENDBRANCH   1   2
BRANCH   1   7
ATOM      7  C   UNL     1      11.162 -19.094 -12.306  1.00  0.00     0.000 C 
BRANCH   7   8
ATOM      8  C   UNL     1      11.997 -17.886 -11.859  1.00  0.00    -0.000 C 
BRANCH   8   9
ATOM      9  C   UNL     1      13.511 -18.114 -12.010  1.00  0.00    -0.000 C 
BRANCH   9  10
ATOM     10  C   UNL     1      14.244 -17.054 -12.850  1.00  0.00    -0.003 C 
ATOM     11  C   UNL     1      13.300 -16.207 -13.702  1.00  0.00     0.004 C 
ENDBRANCH   9  10
ENDBRANCH   8   9
ENDBRANCH   7   8
ENDBRANCH   1   7
TORSDOF 7
ENDMDL
