MODEL 1
REMARK VINA RESULT:    -4.405      0.000      0.000
REMARK INTER + INTRA:          -6.399
REMARK INTER:                  -5.950
REMARK INTRA:                  -0.449
REMARK UNBOUND:                -0.449
REMARK SMILES C[C@H](O)[C@@H](O)[C@@H](O)[C@@H](O)C=O
REMARK SMILES IDX 4 1 2 2 1 3 3 4 6 6 8 7 10 8 11 9 9 10 7 12 5 14
REMARK H PARENT 3 5 9 11 7 13 5 15
REMARK Flexibility Score: inf
ROOT
ATOM      1  C   UNL     1       3.933  18.945  33.387  1.00  0.00     0.174 C 
ENDROOT
BRANCH   1   2
ATOM      2  C   UNL     1       5.065  18.021  32.837  1.00  0.00     0.142 C 
ATOM      3  C   UNL     1       5.339  16.786  33.703  1.00  0.00     0.041 C 
BRANCH   2   4
ATOM      4  O   UNL     1       6.259  18.732  32.636  1.00  0.00    -0.391 OA
ATOM      5  H   UNL     1       6.040  19.694  32.739  1.00  0.00     0.211 HD
ENDBRANCH   2   4
ENDBRANCH   1   2
BRANCH   1   6
ATOM      6  C   UNL     1       2.519  18.784  32.748  1.00  0.00     0.181 C 
BRANCH   6   7
ATOM      7  C   UNL     1       1.794  20.091  32.315  1.00  0.00     0.209 C 
BRANCH   7   8
ATOM      8  C   UNL     1       1.003  20.719  33.430  1.00  0.00     0.258 C 
ATOM      9  O   UNL     1       1.569  21.153  34.421  1.00  0.00    -0.300 OA
ENDBRANCH   7   8
BRANCH   7  10
ATOM     10  O   UNL     1       0.964  19.879  31.203  1.00  0.00    -0.383 OA
ATOM     11  H   UNL     1       1.446  20.238  30.413  1.00  0.00     0.211 HD
ENDBRANCH   7  10
ENDBRANCH   6   7
BRANCH   6  12
ATOM     12  O   UNL     1       1.688  18.120  33.669  1.00  0.00    -0.387 OA
ATOM     13  H   UNL     1       1.641  17.167  33.391  1.00  0.00     0.211 HD
ENDBRANCH   6  12
ENDBRANCH   1   6
BRANCH   1  14
ATOM     14  O   UNL     1       4.323  20.297  33.375  1.00  0.00    -0.388 OA
ATOM     15  H   UNL     1       3.776  20.749  32.681  1.00  0.00     0.211 HD
ENDBRANCH   1  14
TORSDOF 8
ENDMDL
MODEL 2
REMARK VINA RESULT:    -4.378      1.234      4.525
REMARK INTER + INTRA:          -6.363
REMARK INTER:                  -5.936
REMARK INTRA:                  -0.427
REMARK UNBOUND:                -0.449
REMARK SMILES C[C@H](O)[C@@H](O)[C@@H](O)[C@@H](O)C=O
REMARK SMILES IDX 4 1 2 2 1 3 3 4 6 6 8 7 10 8 11 9 9 10 7 12 5 14
REMARK H PARENT 3 5 9 11 7 13 5 15
REMARK Flexibility Score: inf
ROOT
ATOM      1  C   UNL     1       2.367  19.259  33.225  1.00  0.00     0.174 C 
ENDROOT
BRANCH   1   2
ATOM      2  C   UNL     1       1.643  20.169  32.182  1.00  0.00     0.142 C 
ATOM      3  C   UNL     1       0.548  21.057  32.783  1.00  0.00     0.041 C 
BRANCH   2   4
ATOM      4  O   UNL     1       1.115  19.418  31.121  1.00  0.00    -0.391 OA
ATOM      5  H   UNL     1       0.351  19.936  30.756  1.00  0.00     0.211 HD
ENDBRANCH   2   4
ENDBRANCH   1   2
BRANCH   1   6
ATOM      6  C   UNL     1       3.918  19.144  33.102  1.00  0.00     0.181 C 
BRANCH   6   7
ATOM      7  C   UNL     1       4.584  17.911  33.779  1.00  0.00     0.209 C 
BRANCH   7   8
ATOM      8  C   UNL     1       5.862  18.255  34.494  1.00  0.00     0.258 C 
ATOM      9  O   UNL     1       6.889  18.453  33.864  1.00  0.00    -0.300 OA
ENDBRANCH   7   8
BRANCH   7  10
ATOM     10  O   UNL     1       4.816  16.877  32.859  1.00  0.00    -0.383 OA
ATOM     11  H   UNL     1       4.408  16.057  33.241  1.00  0.00     0.211 HD
ENDBRANCH   7  10
ENDBRANCH   6   7
BRANCH   6  12
ATOM     12  O   UNL     1       4.495  20.300  33.658  1.00  0.00    -0.387 OA
ATOM     13  H   UNL     1       4.881  20.827  32.910  1.00  0.00     0.211 HD
ENDBRANCH   6  12
ENDBRANCH   1   6
BRANCH   1  14
ATOM     14  O   UNL     1       1.786  17.980  33.280  1.00  0.00    -0.388 OA
ATOM     15  H   UNL     1       2.464  17.338  32.940  1.00  0.00     0.211 HD
ENDBRANCH   1  14
TORSDOF 8
ENDMDL
MODEL 3
REMARK VINA RESULT:    -4.360      1.321      4.447
REMARK INTER + INTRA:          -6.339
REMARK INTER:                  -5.787
REMARK INTRA:                  -0.552
REMARK UNBOUND:                -0.449
REMARK SMILES C[C@H](O)[C@@H](O)[C@@H](O)[C@@H](O)C=O
REMARK SMILES IDX 4 1 2 2 1 3 3 4 6 6 8 7 10 8 11 9 9 10 7 12 5 14
REMARK H PARENT 3 5 9 11 7 13 5 15
REMARK Flexibility Score: inf
ROOT
ATOM      1  C   UNL     1       1.283  20.316  34.029  1.00  0.00     0.174 C 
ENDROOT
BRANCH   1   2
ATOM      2  C   UNL     1       0.932  21.066  32.706  1.00  0.00     0.142 C 
ATOM      3  C   UNL     1      -0.161  22.130  32.863  1.00  0.00     0.041 C 
BRANCH   2   4
ATOM      4  O   UNL     1       0.577  20.171  31.685  1.00  0.00    -0.391 OA
ATOM      5  H   UNL     1       1.303  20.204  31.009  1.00  0.00     0.211 HD
ENDBRANCH   2   4
ENDBRANCH   1   2
BRANCH   1   6
ATOM      6  C   UNL     1       2.317  19.152  33.925  1.00  0.00     0.181 C 
BRANCH   6   7
ATOM      7  C   UNL     1       3.667  19.475  33.224  1.00  0.00     0.209 C 
BRANCH   7   8
ATOM      8  C   UNL     1       4.558  18.272  33.083  1.00  0.00     0.258 C 
ATOM      9  O   UNL     1       4.526  17.378  33.915  1.00  0.00    -0.300 OA
ENDBRANCH   7   8
BRANCH   7  10
ATOM     10  O   UNL     1       4.359  20.505  33.881  1.00  0.00    -0.383 OA
ATOM     11  H   UNL     1       4.236  20.357  34.854  1.00  0.00     0.211 HD
ENDBRANCH   7  10
ENDBRANCH   6   7
BRANCH   6  12
ATOM     12  O   UNL     1       1.718  18.087  33.226  1.00  0.00    -0.387 OA
ATOM     13  H   UNL     1       1.957  18.192  32.267  1.00  0.00     0.211 HD
ENDBRANCH   6  12
ENDBRANCH   1   6
BRANCH   1  14
ATOM     14  O   UNL     1       0.124  19.880  34.697  1.00  0.00    -0.388 OA
ATOM     15  H   UNL     1      -0.631  20.425  34.352  1.00  0.00     0.211 HD
ENDBRANCH   1  14
TORSDOF 8
ENDMDL
MODEL 4
REMARK VINA RESULT:    -4.350     10.462     11.876
REMARK INTER + INTRA:          -6.326
REMARK INTER:                  -5.616
REMARK INTRA:                  -0.710
REMARK UNBOUND:                -0.449
REMARK SMILES C[C@H](O)[C@@H](O)[C@@H](O)[C@@H](O)C=O
REMARK SMILES IDX 4 1 2 2 1 3 3 4 6 6 8 7 10 8 11 9 9 10 7 12 5 14
REMARK H PARENT 3 5 9 11 7 13 5 15
REMARK Flexibility Score: inf
ROOT
ATOM      1  C   UNL     1      11.162  14.305  24.925  1.00  0.00     0.174 C 
ENDROOT
BRANCH   1   2
ATOM      2  C   UNL     1      12.045  13.892  26.144  1.00  0.00     0.142 C 
ATOM      3  C   UNL     1      13.512  13.625  25.790  1.00  0.00     0.041 C 
BRANCH   2   4
ATOM      4  O   UNL     1      11.511  12.780  26.814  1.00  0.00    -0.391 OA
ATOM      5  H   UNL     1      10.672  12.536  26.342  1.00  0.00     0.211 HD
ENDBRANCH   2   4
ENDBRANCH   1   2
BRANCH   1   6
ATOM      6  C   UNL     1       9.622  14.090  25.065  1.00  0.00     0.181 C 
BRANCH   6   7
ATOM      7  C   UNL     1       8.712  14.884  24.085  1.00  0.00     0.209 C 
BRANCH   7   8
ATOM      8  C   UNL     1       7.249  14.604  24.287  1.00  0.00     0.258 C 
ATOM      9  O   UNL     1       6.605  15.241  25.106  1.00  0.00    -0.300 OA
ENDBRANCH   7   8
BRANCH   7  10
ATOM     10  O   UNL     1       9.062  14.647  22.746  1.00  0.00    -0.383 OA
ATOM     11  H   UNL     1       9.241  13.675  22.664  1.00  0.00     0.211 HD
ENDBRANCH   7  10
ENDBRANCH   6   7
BRANCH   6  12
ATOM     12  O   UNL     1       9.243  14.437  26.375  1.00  0.00    -0.387 OA
ATOM     13  H   UNL     1       9.808  13.907  26.997  1.00  0.00     0.211 HD
ENDBRANCH   6  12
ENDBRANCH   1   6
BRANCH   1  14
ATOM     14  O   UNL     1      11.627  13.722  23.732  1.00  0.00    -0.388 OA
ATOM     15  H   UNL     1      12.594  13.531  23.861  1.00  0.00     0.211 HD
ENDBRANCH   1  14
TORSDOF 8
ENDMDL
MODEL 5
REMARK VINA RESULT:    -4.335     17.963     19.315
REMARK INTER + INTRA:          -6.304
REMARK INTER:                  -5.781
REMARK INTRA:                  -0.523
REMARK UNBOUND:                -0.449
REMARK SMILES C[C@H](O)[C@@H](O)[C@@H](O)[C@@H](O)C=O
REMARK SMILES IDX 4 1 2 2 1 3 3 4 6 6 8 7 10 8 11 9 9 10 7 12 5 14
REMARK H PARENT 3 5 9 11 7 13 5 15
REMARK Flexibility Score: inf
ROOT
ATOM      1  C   UNL     1       7.000  11.324  15.916  1.00  0.00     0.174 C 
ENDROOT
BRANCH   1   2
ATOM      2  C   UNL     1       6.314  10.239  15.028  1.00  0.00     0.142 C 
ATOM      3  C   UNL     1       4.800  10.423  14.875  1.00  0.00     0.041 C 
BRANCH   2   4
ATOM      4  O   UNL     1       6.588   8.944  15.493  1.00  0.00    -0.391 OA
ATOM      5  H   UNL     1       5.715   8.479  15.580  1.00  0.00     0.211 HD
ENDBRANCH   2   4
ENDBRANCH   1   2
BRANCH   1   6
ATOM      6  C   UNL     1       8.514  11.122  16.231  1.00  0.00     0.181 C 
BRANCH   6   7
ATOM      7  C   UNL     1       8.886  10.806  17.708  1.00  0.00     0.209 C 
BRANCH   7   8
ATOM      8  C   UNL     1       9.325  12.022  18.475  1.00  0.00     0.258 C 
ATOM      9  O   UNL     1       8.591  12.994  18.567  1.00  0.00    -0.300 OA
ENDBRANCH   7   8
BRANCH   7  10
ATOM     10  O   UNL     1       9.870   9.808  17.793  1.00  0.00    -0.383 OA
ATOM     11  H   UNL     1      10.269   9.876  18.699  1.00  0.00     0.211 HD
ENDBRANCH   7  10
ENDBRANCH   6   7
BRANCH   6  12
ATOM     12  O   UNL     1       9.206  12.289  15.858  1.00  0.00    -0.387 OA
ATOM     13  H   UNL     1       9.293  12.278  14.868  1.00  0.00     0.211 HD
ENDBRANCH   6  12
ENDBRANCH   1   6
BRANCH   1  14
ATOM     14  O   UNL     1       6.281  11.546  17.104  1.00  0.00    -0.388 OA
ATOM     15  H   UNL     1       6.940  11.816  17.796  1.00  0.00     0.211 HD
ENDBRANCH   1  14
TORSDOF 8
ENDMDL
MODEL 6
REMARK VINA RESULT:    -4.323     10.019     11.414
REMARK INTER + INTRA:          -6.289
REMARK INTER:                  -6.010
REMARK INTRA:                  -0.279
REMARK UNBOUND:                -0.449
REMARK SMILES C[C@H](O)[C@@H](O)[C@@H](O)[C@@H](O)C=O
REMARK SMILES IDX 4 1 2 2 1 3 3 4 6 6 8 7 10 8 11 9 9 10 7 12 5 14
REMARK H PARENT 3 5 9 11 7 13 5 15
REMARK Flexibility Score: inf
ROOT
ATOM      1  C   UNL     1       9.467  14.945  23.736  1.00  0.00     0.174 C 
ENDROOT
BRANCH   1   2
ATOM      2  C   UNL     1      10.934  14.759  24.239  1.00  0.00     0.142 C 
ATOM      3  C   UNL     1      11.897  14.227  23.171  1.00  0.00     0.041 C 
BRANCH   2   4
ATOM      4  O   UNL     1      10.988  13.938  25.376  1.00  0.00    -0.391 OA
ATOM      5  H   UNL     1      10.781  13.015  25.073  1.00  0.00     0.211 HD
ENDBRANCH   2   4
ENDBRANCH   1   2
BRANCH   1   6
ATOM      6  C   UNL     1       8.340  14.290  24.594  1.00  0.00     0.181 C 
BRANCH   6   7
ATOM      7  C   UNL     1       6.874  14.576  24.160  1.00  0.00     0.209 C 
BRANCH   7   8
ATOM      8  C   UNL     1       6.089  15.323  25.203  1.00  0.00     0.258 C 
ATOM      9  O   UNL     1       5.373  16.260  24.885  1.00  0.00    -0.300 OA
ENDBRANCH   7   8
BRANCH   7  10
ATOM     10  O   UNL     1       6.198  13.397  23.808  1.00  0.00    -0.383 OA
ATOM     11  H   UNL     1       6.815  12.645  24.001  1.00  0.00     0.211 HD
ENDBRANCH   7  10
ENDBRANCH   6   7
BRANCH   6  12
ATOM     12  O   UNL     1       8.484  14.727  25.924  1.00  0.00    -0.387 OA
ATOM     13  H   UNL     1       8.356  15.712  25.927  1.00  0.00     0.211 HD
ENDBRANCH   6  12
ENDBRANCH   1   6
BRANCH   1  14
ATOM     14  O   UNL     1       9.334  14.568  22.388  1.00  0.00    -0.388 OA
ATOM     15  H   UNL     1      10.109  14.953  21.901  1.00  0.00     0.211 HD
ENDBRANCH   1  14
TORSDOF 8
ENDMDL
MODEL 7
REMARK VINA RESULT:    -4.235      1.311      1.936
REMARK INTER + INTRA:          -6.170
REMARK INTER:                  -5.415
REMARK INTRA:                  -0.755
REMARK UNBOUND:                -0.449
REMARK SMILES C[C@H](O)[C@@H](O)[C@@H](O)[C@@H](O)C=O
REMARK SMILES IDX 4 1 2 2 1 3 3 4 6 6 8 7 10 8 11 9 9 10 7 12 5 14
REMARK H PARENT 3 5 9 11 7 13 5 15
REMARK Flexibility Score: inf
ROOT
ATOM      1  C   UNL     1       4.218  19.175  33.900  1.00  0.00     0.174 C 
ENDROOT
BRANCH   1   2
ATOM      2  C   UNL     1       4.334  17.677  34.322  1.00  0.00     0.142 C 
ATOM      3  C   UNL     1       5.389  16.888  33.539  1.00  0.00     0.041 C 
BRANCH   2   4
ATOM      4  O   UNL     1       3.096  17.021  34.240  1.00  0.00    -0.391 OA
ATOM      5  H   UNL     1       2.399  17.727  34.211  1.00  0.00     0.211 HD
ENDBRANCH   2   4
ENDBRANCH   1   2
BRANCH   1   6
ATOM      6  C   UNL     1       2.801  19.824  33.987  1.00  0.00     0.181 C 
BRANCH   6   7
ATOM      7  C   UNL     1       2.014  19.968  32.653  1.00  0.00     0.209 C 
BRANCH   7   8
ATOM      8  C   UNL     1       0.689  20.659  32.826  1.00  0.00     0.258 C 
ATOM      9  O   UNL     1       0.637  21.871  32.960  1.00  0.00    -0.300 OA
ENDBRANCH   7   8
BRANCH   7  10
ATOM     10  O   UNL     1       1.825  18.726  32.025  1.00  0.00    -0.383 OA
ATOM     11  H   UNL     1       2.075  18.030  32.687  1.00  0.00     0.211 HD
ENDBRANCH   7  10
ENDBRANCH   6   7
BRANCH   6  12
ATOM     12  O   UNL     1       2.934  21.109  34.545  1.00  0.00    -0.387 OA
ATOM     13  H   UNL     1       2.273  21.697  34.093  1.00  0.00     0.211 HD
ENDBRANCH   6  12
ENDBRANCH   1   6
BRANCH   1  14
ATOM     14  O   UNL     1       4.776  19.396  32.628  1.00  0.00    -0.388 OA
ATOM     15  H   UNL     1       4.037  19.315  31.969  1.00  0.00     0.211 HD
ENDBRANCH   1  14
TORSDOF 8
ENDMDL
MODEL 8
REMARK VINA RESULT:    -4.124      1.492      2.536
REMARK INTER + INTRA:          -6.020
REMARK INTER:                  -5.682
REMARK INTRA:                  -0.338
REMARK UNBOUND:                -0.449
REMARK SMILES C[C@H](O)[C@@H](O)[C@@H](O)[C@@H](O)C=O
REMARK SMILES IDX 4 1 2 2 1 3 3 4 6 6 8 7 10 8 11 9 9 10 7 12 5 14
REMARK H PARENT 3 5 9 11 7 13 5 15
REMARK Flexibility Score: inf
ROOT
ATOM      1  C   UNL     1       6.061  18.577  34.232  1.00  0.00     0.174 C 
ENDROOT
BRANCH   1   2
ATOM      2  C   UNL     1       6.466  18.009  32.835  1.00  0.00     0.142 C 
ATOM      3  C   UNL     1       6.322  16.488  32.715  1.00  0.00     0.041 C 
BRANCH   2   4
ATOM      4  O   UNL     1       7.770  18.390  32.482  1.00  0.00    -0.391 OA
ATOM      5  H   UNL     1       7.701  19.282  32.051  1.00  0.00     0.211 HD
ENDBRANCH   2   4
ENDBRANCH   1   2
BRANCH   1   6
ATOM      6  C   UNL     1       4.635  19.199  34.353  1.00  0.00     0.181 C 
BRANCH   6   7
ATOM      7  C   UNL     1       3.607  18.813  33.250  1.00  0.00     0.209 C 
BRANCH   7   8
ATOM      8  C   UNL     1       2.971  20.008  32.597  1.00  0.00     0.258 C 
ATOM      9  O   UNL     1       2.091  20.632  33.171  1.00  0.00    -0.300 OA
ENDBRANCH   7   8
BRANCH   7  10
ATOM     10  O   UNL     1       2.612  17.956  33.747  1.00  0.00    -0.383 OA
ATOM     11  H   UNL     1       2.735  17.082  33.295  1.00  0.00     0.211 HD
ENDBRANCH   7  10
ENDBRANCH   6   7
BRANCH   6  12
ATOM     12  O   UNL     1       4.759  20.601  34.347  1.00  0.00    -0.387 OA
ATOM     13  H   UNL     1       4.855  20.893  35.291  1.00  0.00     0.211 HD
ENDBRANCH   6  12
ENDBRANCH   1   6
BRANCH   1  14
ATOM     14  O   UNL     1       7.027  19.475  34.721  1.00  0.00    -0.388 OA
ATOM     15  H   UNL     1       7.807  19.423  34.109  1.00  0.00     0.211 HD
ENDBRANCH   1  14
TORSDOF 8
ENDMDL
MODEL 9
REMARK VINA RESULT:    -4.035      1.294      2.638
REMARK INTER + INTRA:          -5.900
REMARK INTER:                  -5.198
REMARK INTRA:                  -0.702
REMARK UNBOUND:                -0.449
REMARK SMILES C[C@H](O)[C@@H](O)[C@@H](O)[C@@H](O)C=O
REMARK SMILES IDX 4 1 2 2 1 3 3 4 6 6 8 7 10 8 11 9 9 10 7 12 5 14
REMARK H PARENT 3 5 9 11 7 13 5 15
REMARK Flexibility Score: inf
ROOT
ATOM      1  C   UNL     1       2.419  18.991  32.764  1.00  0.00     0.174 C 
ENDROOT
BRANCH   1   2
ATOM      2  C   UNL     1       3.828  19.246  33.386  1.00  0.00     0.142 C 
ATOM      3  C   UNL     1       4.915  18.291  32.880  1.00  0.00     0.041 C 
BRANCH   2   4
ATOM      4  O   UNL     1       3.786  19.214  34.788  1.00  0.00    -0.391 OA
ATOM      5  H   UNL     1       4.151  20.081  35.106  1.00  0.00     0.211 HD
ENDBRANCH   2   4
ENDBRANCH   1   2
BRANCH   1   6
ATOM      6  C   UNL     1       1.574  20.251  32.397  1.00  0.00     0.181 C 
BRANCH   6   7
ATOM      7  C   UNL     1       0.607  20.788  33.491  1.00  0.00     0.209 C 
BRANCH   7   8
ATOM      8  C   UNL     1       0.022  22.130  33.148  1.00  0.00     0.258 C 
ATOM      9  O   UNL     1      -0.859  22.224  32.308  1.00  0.00    -0.300 OA
ENDBRANCH   7   8
BRANCH   7  10
ATOM     10  O   UNL     1       1.229  20.847  34.748  1.00  0.00    -0.383 OA
ATOM     11  H   UNL     1       2.021  20.252  34.704  1.00  0.00     0.211 HD
ENDBRANCH   7  10
ENDBRANCH   6   7
BRANCH   6  12
ATOM     12  O   UNL     1       0.804  19.953  31.257  1.00  0.00    -0.387 OA
ATOM     13  H   UNL     1       1.057  20.605  30.551  1.00  0.00     0.211 HD
ENDBRANCH   6  12
ENDBRANCH   1   6
BRANCH   1  14
ATOM     14  O   UNL     1       1.660  18.109  33.554  1.00  0.00    -0.388 OA
ATOM     15  H   UNL     1       0.723  18.164  33.231  1.00  0.00     0.211 HD
ENDBRANCH   1  14
TORSDOF 8
ENDMDL
