MODEL 1
REMARK VINA RESULT:    -4.286      0.000      0.000
REMARK INTER + INTRA:          -4.680
REMARK INTER:                  -4.662
REMARK INTRA:                  -0.018
REMARK UNBOUND:                -0.018
REMARK SMILES OCc1ccco1
REMARK SMILES IDX 2 1 3 2 5 3 6 4 4 5 7 6 1 7
REMARK H PARENT 1 8
REMARK Flexibility Score: inf
ROOT
ATOM      1  C   UNL     1       3.413  22.092 -15.789  1.00  0.00     0.231 C 
ENDROOT
BRANCH   1   2
ATOM      2  C   UNL     1       2.511  22.384 -16.945  1.00  0.00     0.129 A 
ATOM      3  C   UNL     1       0.897  22.271 -18.430  1.00  0.00     0.042 A 
ATOM      4  C   UNL     1       1.753  23.319 -18.704  1.00  0.00     0.195 A 
ATOM      5  C   UNL     1       1.388  21.663 -17.295  1.00  0.00     0.048 A 
ATOM      6  O   UNL     1       2.707  23.359 -17.803  1.00  0.00    -0.467 OA
ENDBRANCH   1   2
BRANCH   1   7
ATOM      7  O   UNL     1       4.741  22.004 -16.226  1.00  0.00    -0.388 OA
ATOM      8  H   UNL     1       4.835  21.119 -16.667  1.00  0.00     0.211 HD
ENDBRANCH   1   7
TORSDOF 2
ENDMDL
MODEL 2
REMARK VINA RESULT:    -4.227      2.305      3.099
REMARK INTER + INTRA:          -4.616
REMARK INTER:                  -4.598
REMARK INTRA:                  -0.018
REMARK UNBOUND:                -0.018
REMARK SMILES OCc1ccco1
REMARK SMILES IDX 2 1 3 2 5 3 6 4 4 5 7 6 1 7
REMARK H PARENT 1 8
REMARK Flexibility Score: inf
ROOT
ATOM      1  C   UNL     1       1.507  23.108 -18.173  1.00  0.00     0.231 C 
ENDROOT
BRANCH   1   2
ATOM      2  C   UNL     1       1.894  22.054 -19.160  1.00  0.00     0.129 A 
ATOM      3  C   UNL     1       1.941  20.213 -20.356  1.00  0.00     0.042 A 
ATOM      4  C   UNL     1       3.029  21.015 -20.635  1.00  0.00     0.195 A 
ATOM      5  C   UNL     1       1.207  20.881 -19.400  1.00  0.00     0.048 A 
ATOM      6  O   UNL     1       2.975  22.104 -19.903  1.00  0.00    -0.467 OA
ENDBRANCH   1   2
BRANCH   1   7
ATOM      7  O   UNL     1       1.765  24.379 -18.702  1.00  0.00    -0.388 OA
ATOM      8  H   UNL     1       0.945  24.919 -18.555  1.00  0.00     0.211 HD
ENDBRANCH   1   7
TORSDOF 2
ENDMDL
MODEL 3
REMARK VINA RESULT:    -4.085     11.760     12.785
REMARK INTER + INTRA:          -4.461
REMARK INTER:                  -4.444
REMARK INTRA:                  -0.018
REMARK UNBOUND:                -0.018
REMARK SMILES OCc1ccco1
REMARK SMILES IDX 2 1 3 2 5 3 6 4 4 5 7 6 1 7
REMARK H PARENT 1 8
REMARK Flexibility Score: inf
ROOT
ATOM      1  C   UNL     1      -6.982  32.368 -16.064  1.00  0.00     0.231 C 
ENDROOT
BRANCH   1   2
ATOM      2  C   UNL     1      -5.943  32.190 -17.124  1.00  0.00     0.129 A 
ATOM      3  C   UNL     1      -4.904  32.133 -19.058  1.00  0.00     0.042 A 
ATOM      4  C   UNL     1      -4.099  31.648 -18.047  1.00  0.00     0.195 A 
ATOM      5  C   UNL     1      -6.097  32.482 -18.464  1.00  0.00     0.048 A 
ATOM      6  O   UNL     1      -4.748  31.691 -16.906  1.00  0.00    -0.467 OA
ENDBRANCH   1   2
BRANCH   1   7
ATOM      7  O   UNL     1      -7.211  31.153 -15.408  1.00  0.00    -0.388 OA
ATOM      8  H   UNL     1      -8.139  30.880 -15.632  1.00  0.00     0.211 HD
ENDBRANCH   1   7
TORSDOF 2
ENDMDL
MODEL 4
REMARK VINA RESULT:    -4.035      2.287      3.043
REMARK INTER + INTRA:          -4.407
REMARK INTER:                  -4.394
REMARK INTRA:                  -0.013
REMARK UNBOUND:                -0.018
REMARK SMILES OCc1ccco1
REMARK SMILES IDX 2 1 3 2 5 3 6 4 4 5 7 6 1 7
REMARK H PARENT 1 8
REMARK Flexibility Score: inf
ROOT
ATOM      1  C   UNL     1       1.846  20.366 -20.208  1.00  0.00     0.231 C 
ENDROOT
BRANCH   1   2
ATOM      2  C   UNL     1       1.903  21.475 -19.207  1.00  0.00     0.129 A 
ATOM      3  C   UNL     1       1.343  23.032 -17.764  1.00  0.00     0.042 A 
ATOM      4  C   UNL     1       2.707  23.021 -17.979  1.00  0.00     0.195 A 
ATOM      5  C   UNL     1       0.821  22.036 -18.559  1.00  0.00     0.048 A 
ATOM      6  O   UNL     1       3.010  22.084 -18.847  1.00  0.00    -0.467 OA
ENDBRANCH   1   2
BRANCH   1   7
ATOM      7  O   UNL     1       2.211  19.156 -19.604  1.00  0.00    -0.388 OA
ATOM      8  H   UNL     1       1.725  19.113 -18.739  1.00  0.00     0.211 HD
ENDBRANCH   1   7
TORSDOF 2
ENDMDL
MODEL 5
REMARK VINA RESULT:    -3.992      7.735      8.730
REMARK INTER + INTRA:          -4.360
REMARK INTER:                  -4.346
REMARK INTRA:                  -0.014
REMARK UNBOUND:                -0.018
REMARK SMILES OCc1ccco1
REMARK SMILES IDX 2 1 3 2 5 3 6 4 4 5 7 6 1 7
REMARK H PARENT 1 8
REMARK Flexibility Score: inf
ROOT
ATOM      1  C   UNL     1       7.748  23.048  -9.643  1.00  0.00     0.231 C 
ENDROOT
BRANCH   1   2
ATOM      2  C   UNL     1       8.012  23.982 -10.780  1.00  0.00     0.129 A 
ATOM      3  C   UNL     1       8.950  25.449 -12.118  1.00  0.00     0.042 A 
ATOM      4  C   UNL     1       7.681  25.121 -12.551  1.00  0.00     0.195 A 
ATOM      5  C   UNL     1       9.165  24.716 -10.971  1.00  0.00     0.048 A 
ATOM      6  O   UNL     1       7.146  24.247 -11.731  1.00  0.00    -0.467 OA
ENDBRANCH   1   2
BRANCH   1   7
ATOM      7  O   UNL     1       7.794  21.722 -10.091  1.00  0.00    -0.388 OA
ATOM      8  H   UNL     1       8.752  21.505 -10.237  1.00  0.00     0.211 HD
ENDBRANCH   1   7
TORSDOF 2
ENDMDL
MODEL 6
REMARK VINA RESULT:    -3.953      6.685      8.675
REMARK INTER + INTRA:          -4.318
REMARK INTER:                  -4.298
REMARK INTRA:                  -0.020
REMARK UNBOUND:                -0.018
REMARK SMILES OCc1ccco1
REMARK SMILES IDX 2 1 3 2 5 3 6 4 4 5 7 6 1 7
REMARK H PARENT 1 8
REMARK Flexibility Score: inf
ROOT
ATOM      1  C   UNL     1       6.573  25.234 -12.779  1.00  0.00     0.231 C 
ENDROOT
BRANCH   1   2
ATOM      2  C   UNL     1       7.488  24.750 -11.700  1.00  0.00     0.129 A 
ATOM      3  C   UNL     1       9.263  24.382 -10.460  1.00  0.00     0.042 A 
ATOM      4  C   UNL     1       8.174  23.676  -9.991  1.00  0.00     0.195 A 
ATOM      5  C   UNL     1       8.823  25.075 -11.566  1.00  0.00     0.048 A 
ATOM      6  O   UNL     1       7.131  23.913 -10.753  1.00  0.00    -0.467 OA
ENDBRANCH   1   2
BRANCH   1   7
ATOM      7  O   UNL     1       5.653  24.232 -13.112  1.00  0.00    -0.388 OA
ATOM      8  H   UNL     1       5.561  24.249 -14.101  1.00  0.00     0.211 HD
ENDBRANCH   1   7
TORSDOF 2
ENDMDL
MODEL 7
REMARK VINA RESULT:    -3.950     12.684     13.864
REMARK INTER + INTRA:          -4.315
REMARK INTER:                  -4.299
REMARK INTRA:                  -0.016
REMARK UNBOUND:                -0.018
REMARK SMILES OCc1ccco1
REMARK SMILES IDX 2 1 3 2 5 3 6 4 4 5 7 6 1 7
REMARK H PARENT 1 8
REMARK Flexibility Score: inf
ROOT
ATOM      1  C   UNL     1      -7.927  33.568 -17.752  1.00  0.00     0.231 C 
ENDROOT
BRANCH   1   2
ATOM      2  C   UNL     1      -6.645  32.798 -17.767  1.00  0.00     0.129 A 
ATOM      3  C   UNL     1      -4.895  31.644 -18.423  1.00  0.00     0.042 A 
ATOM      4  C   UNL     1      -4.917  31.776 -17.049  1.00  0.00     0.195 A 
ATOM      5  C   UNL     1      -6.013  32.302 -18.889  1.00  0.00     0.048 A 
ATOM      6  O   UNL     1      -5.974  32.466 -16.687  1.00  0.00    -0.467 OA
ENDBRANCH   1   2
BRANCH   1   7
ATOM      7  O   UNL     1      -8.416  33.709 -19.057  1.00  0.00    -0.388 OA
ATOM      8  H   UNL     1      -9.375  33.452 -19.029  1.00  0.00     0.211 HD
ENDBRANCH   1   7
TORSDOF 2
ENDMDL
MODEL 8
REMARK VINA RESULT:    -3.865      8.087      8.941
REMARK INTER + INTRA:          -4.222
REMARK INTER:                  -4.200
REMARK INTRA:                  -0.021
REMARK UNBOUND:                -0.018
REMARK SMILES OCc1ccco1
REMARK SMILES IDX 2 1 3 2 5 3 6 4 4 5 7 6 1 7
REMARK H PARENT 1 8
REMARK Flexibility Score: inf
ROOT
ATOM      1  C   UNL     1       9.450  24.721 -13.738  1.00  0.00     0.231 C 
ENDROOT
BRANCH   1   2
ATOM      2  C   UNL     1       9.075  24.330 -12.345  1.00  0.00     0.129 A 
ATOM      3  C   UNL     1       8.782  24.337 -10.168  1.00  0.00     0.042 A 
ATOM      4  C   UNL     1       8.384  23.135 -10.720  1.00  0.00     0.195 A 
ATOM      5  C   UNL     1       9.232  25.110 -11.217  1.00  0.00     0.048 A 
ATOM      6  O   UNL     1       8.574  23.160 -12.019  1.00  0.00    -0.467 OA
ENDBRANCH   1   2
BRANCH   1   7
ATOM      7  O   UNL     1       8.940  23.791 -14.652  1.00  0.00    -0.388 OA
ATOM      8  H   UNL     1       8.983  22.904 -14.207  1.00  0.00     0.211 HD
ENDBRANCH   1   7
TORSDOF 2
ENDMDL
MODEL 9
REMARK VINA RESULT:    -3.767      7.053      8.194
REMARK INTER + INTRA:          -4.116
REMARK INTER:                  -4.094
REMARK INTRA:                  -0.021
REMARK UNBOUND:                -0.018
REMARK SMILES OCc1ccco1
REMARK SMILES IDX 2 1 3 2 5 3 6 4 4 5 7 6 1 7
REMARK H PARENT 1 8
REMARK Flexibility Score: inf
ROOT
ATOM      1  C   UNL     1       7.257  24.631 -12.508  1.00  0.00     0.231 C 
ENDROOT
BRANCH   1   2
ATOM      2  C   UNL     1       7.625  26.060 -12.748  1.00  0.00     0.129 A 
ATOM      3  C   UNL     1       8.709  27.969 -12.802  1.00  0.00     0.042 A 
ATOM      4  C   UNL     1       7.434  28.107 -13.312  1.00  0.00     0.195 A 
ATOM      5  C   UNL     1       8.834  26.647 -12.434  1.00  0.00     0.048 A 
ATOM      6  O   UNL     1       6.810  26.953 -13.264  1.00  0.00    -0.467 OA
ENDBRANCH   1   2
BRANCH   1   7
ATOM      7  O   UNL     1       6.006  24.356 -13.074  1.00  0.00    -0.388 OA
ATOM      8  H   UNL     1       6.151  23.639 -13.746  1.00  0.00     0.211 HD
ENDBRANCH   1   7
TORSDOF 2
ENDMDL
