MODEL 1
REMARK VINA RESULT:    -6.337      0.000      0.000
REMARK INTER + INTRA:         -10.000
REMARK INTER:                  -8.745
REMARK INTRA:                  -1.255
REMARK UNBOUND:                -1.255
REMARK SMILES O=C([O-])[C@@H]1O[C@@H](Oc2cc3oc(-c4ccccc4)cc(=O)c3c(O)c2O)[C@H](O)[C@@H](O)[C@H]1O
REMARK SMILES IDX 7 1 6 2 4 3 31 4 5 5 29 6 27 7 2 8 1 9 3 10 32 11 30 13
REMARK SMILES IDX 28 15 8 17 25 18 9 19 23 20 10 21 22 22 11 23 20 24 12 25
REMARK SMILES IDX 19 26 21 27 26 28 24 30 13 32 14 33 18 34 15 35 17 36 16 37
REMARK H PARENT 32 12 30 14 28 16 26 29 24 31
REMARK Flexibility Score: inf
ROOT
ATOM      1  O   UNL     1      -4.136  93.282 -16.324  1.00  0.00    -0.458 OA
ENDROOT
BRANCH   1   2
ATOM      2  C   UNL     1      -3.980  93.387 -17.742  1.00  0.00     0.339 C 
ATOM      3  C   UNL     1      -4.739  92.390 -19.760  1.00  0.00     0.199 C 
ATOM      4  C   UNL     1      -3.322  91.869 -20.156  1.00  0.00     0.180 C 
ATOM      5  O   UNL     1      -4.919  92.511 -18.353  1.00  0.00    -0.328 OA
ATOM      6  C   UNL     1      -2.411  91.747 -18.922  1.00  0.00     0.181 C 
ATOM      7  C   UNL     1      -2.502  93.033 -18.081  1.00  0.00     0.214 C 
BRANCH   3   8
ATOM      8  C   UNL     1      -5.154  93.655 -20.482  1.00  0.00     0.073 C 
ATOM      9  O   UNL     1      -6.366  93.979 -20.585  1.00  0.00    -0.547 OA
ATOM     10  O   UNL     1      -4.188  94.428 -21.115  1.00  0.00    -0.547 OA
ENDBRANCH   3   8
BRANCH   4  11
ATOM     11  O   UNL     1      -3.435  90.622 -20.799  1.00  0.00    -0.387 OA
ATOM     12  H   UNL     1      -2.661  90.071 -20.504  1.00  0.00     0.211 HD
ENDBRANCH   4  11
BRANCH   6  13
ATOM     13  O   UNL     1      -2.797  90.631 -18.152  1.00  0.00    -0.387 OA
ATOM     14  H   UNL     1      -3.749  90.445 -18.376  1.00  0.00     0.211 HD
ENDBRANCH   6  13
BRANCH   7  15
ATOM     15  O   UNL     1      -1.918  94.105 -18.783  1.00  0.00    -0.384 OA
ATOM     16  H   UNL     1      -1.312  94.574 -18.148  1.00  0.00     0.211 HD
ENDBRANCH   7  15
ENDBRANCH   1   2
BRANCH   1  17
ATOM     17  C   UNL     1      -4.790  92.239 -15.650  1.00  0.00     0.172 A 
ATOM     18  C   UNL     1      -4.002  91.229 -15.084  1.00  0.00     0.201 A 
ATOM     19  C   UNL     1      -6.183  92.199 -15.506  1.00  0.00     0.098 A 
ATOM     20  C   UNL     1      -4.593  90.164 -14.383  1.00  0.00     0.176 A 
ATOM     21  C   UNL     1      -6.784  91.195 -14.741  1.00  0.00     0.146 A 
ATOM     22  C   UNL     1      -5.999  90.173 -14.149  1.00  0.00     0.111 A 
ATOM     23  O   UNL     1      -8.102  91.238 -14.555  1.00  0.00    -0.456 OA
ATOM     24  C   UNL     1      -6.669  89.253 -13.307  1.00  0.00     0.197 A 
ATOM     25  C   UNL     1      -8.761  90.367 -13.792  1.00  0.00     0.138 A 
ATOM     26  C   UNL     1      -8.052  89.335 -13.152  1.00  0.00     0.100 A 
ATOM     27  O   UNL     1      -6.049  88.376 -12.652  1.00  0.00    -0.289 OA
BRANCH  18  28
ATOM     28  O   UNL     1      -2.616  91.290 -15.250  1.00  0.00    -0.502 OA
ATOM     29  H   UNL     1      -2.181  91.804 -16.005  1.00  0.00     0.293 HD
ENDBRANCH  18  28
BRANCH  20  30
ATOM     30  O   UNL     1      -3.750  89.131 -13.955  1.00  0.00    -0.504 OA
ATOM     31  H   UNL     1      -3.898  88.151 -14.152  1.00  0.00     0.293 HD
ENDBRANCH  20  30
BRANCH  25  32
ATOM     32  C   UNL     1     -10.230  90.518 -13.631  1.00  0.00     0.017 A 
ATOM     33  C   UNL     1     -11.040  89.371 -13.517  1.00  0.00     0.012 A 
ATOM     34  C   UNL     1     -10.848  91.785 -13.634  1.00  0.00     0.012 A 
ATOM     35  C   UNL     1     -12.429  89.494 -13.375  1.00  0.00     0.001 A 
ATOM     36  C   UNL     1     -12.236  91.901 -13.494  1.00  0.00     0.001 A 
ATOM     37  C   UNL     1     -13.025  90.757 -13.361  1.00  0.00     0.000 A 
ENDBRANCH  25  32
ENDBRANCH   1  17
TORSDOF 9
ENDMDL
MODEL 2
REMARK VINA RESULT:    -6.318      4.355      5.006
REMARK INTER + INTRA:          -9.974
REMARK INTER:                  -8.583
REMARK INTRA:                  -1.390
REMARK UNBOUND:                -1.255
REMARK SMILES O=C([O-])[C@@H]1O[C@@H](Oc2cc3oc(-c4ccccc4)cc(=O)c3c(O)c2O)[C@H](O)[C@@H](O)[C@H]1O
REMARK SMILES IDX 7 1 6 2 4 3 31 4 5 5 29 6 27 7 2 8 1 9 3 10 32 11 30 13
REMARK SMILES IDX 28 15 8 17 25 18 9 19 23 20 10 21 22 22 11 23 20 24 12 25
REMARK SMILES IDX 19 26 21 27 26 28 24 30 13 32 14 33 18 34 15 35 17 36 16 37
REMARK H PARENT 32 12 30 14 28 16 26 29 24 31
REMARK Flexibility Score: inf
ROOT
ATOM      1  O   UNL     1      -3.746  92.518 -15.059  1.00  0.00    -0.458 OA
ENDROOT
BRANCH   1   2
ATOM      2  C   UNL     1      -4.444  92.996 -16.213  1.00  0.00     0.339 C 
ATOM      3  C   UNL     1      -6.382  92.548 -17.513  1.00  0.00     0.199 C 
ATOM      4  C   UNL     1      -5.565  92.181 -18.791  1.00  0.00     0.180 C 
ATOM      5  O   UNL     1      -5.677  92.290 -16.303  1.00  0.00    -0.328 OA
ATOM      6  C   UNL     1      -4.130  91.759 -18.429  1.00  0.00     0.181 C 
ATOM      7  C   UNL     1      -3.522  92.777 -17.447  1.00  0.00     0.214 C 
BRANCH   3   8
ATOM      8  C   UNL     1      -6.957  93.948 -17.531  1.00  0.00     0.073 C 
ATOM      9  O   UNL     1      -7.999  94.234 -16.883  1.00  0.00    -0.547 OA
ATOM     10  O   UNL     1      -6.376  94.916 -18.342  1.00  0.00    -0.547 OA
ENDBRANCH   3   8
BRANCH   4  11
ATOM     11  O   UNL     1      -6.212  91.145 -19.489  1.00  0.00    -0.387 OA
ATOM     12  H   UNL     1      -6.565  90.511 -18.809  1.00  0.00     0.211 HD
ENDBRANCH   4  11
BRANCH   6  13
ATOM     13  O   UNL     1      -4.141  90.471 -17.856  1.00  0.00    -0.387 OA
ATOM     14  H   UNL     1      -4.444  89.845 -18.567  1.00  0.00     0.211 HD
ENDBRANCH   6  13
BRANCH   7  15
ATOM     15  O   UNL     1      -3.320  94.008 -18.100  1.00  0.00    -0.384 OA
ATOM     16  H   UNL     1      -2.646  94.512 -17.569  1.00  0.00     0.211 HD
ENDBRANCH   7  15
ENDBRANCH   1   2
BRANCH   1  17
ATOM     17  C   UNL     1      -4.343  92.070 -13.871  1.00  0.00     0.172 A 
ATOM     18  C   UNL     1      -4.674  90.713 -13.776  1.00  0.00     0.201 A 
ATOM     19  C   UNL     1      -4.585  92.924 -12.787  1.00  0.00     0.098 A 
ATOM     20  C   UNL     1      -5.260  90.196 -12.608  1.00  0.00     0.176 A 
ATOM     21  C   UNL     1      -5.089  92.414 -11.587  1.00  0.00     0.146 A 
ATOM     22  C   UNL     1      -5.415  91.038 -11.469  1.00  0.00     0.111 A 
ATOM     23  O   UNL     1      -5.225  93.239 -10.550  1.00  0.00    -0.456 OA
ATOM     24  C   UNL     1      -5.823  90.581 -10.193  1.00  0.00     0.197 A 
ATOM     25  C   UNL     1      -5.635  92.840  -9.347  1.00  0.00     0.138 A 
ATOM     26  C   UNL     1      -5.958  91.487  -9.142  1.00  0.00     0.100 A 
ATOM     27  O   UNL     1      -6.033  89.363  -9.957  1.00  0.00    -0.289 OA
BRANCH  18  28
ATOM     28  O   UNL     1      -4.429  89.885 -14.875  1.00  0.00    -0.502 OA
ATOM     29  H   UNL     1      -3.796  90.146 -15.620  1.00  0.00     0.293 HD
ENDBRANCH  18  28
BRANCH  20  30
ATOM     30  O   UNL     1      -5.675  88.859 -12.635  1.00  0.00    -0.504 OA
ATOM     31  H   UNL     1      -5.710  88.285 -13.466  1.00  0.00     0.293 HD
ENDBRANCH  20  30
BRANCH  25  32
ATOM     32  C   UNL     1      -5.729  93.839  -8.251  1.00  0.00     0.017 A 
ATOM     33  C   UNL     1      -5.884  93.400  -6.921  1.00  0.00     0.012 A 
ATOM     34  C   UNL     1      -5.713  95.224  -8.509  1.00  0.00     0.012 A 
ATOM     35  C   UNL     1      -5.985  94.327  -5.875  1.00  0.00     0.001 A 
ATOM     36  C   UNL     1      -5.817  96.145  -7.460  1.00  0.00     0.001 A 
ATOM     37  C   UNL     1      -5.949  95.698  -6.145  1.00  0.00     0.000 A 
ENDBRANCH  25  32
ENDBRANCH   1  17
TORSDOF 9
ENDMDL
MODEL 3
REMARK VINA RESULT:    -6.291      3.361      4.456
REMARK INTER + INTRA:          -9.937
REMARK INTER:                  -8.538
REMARK INTRA:                  -1.398
REMARK UNBOUND:                -1.255
REMARK SMILES O=C([O-])[C@@H]1O[C@@H](Oc2cc3oc(-c4ccccc4)cc(=O)c3c(O)c2O)[C@H](O)[C@@H](O)[C@H]1O
REMARK SMILES IDX 7 1 6 2 4 3 31 4 5 5 29 6 27 7 2 8 1 9 3 10 32 11 30 13
REMARK SMILES IDX 28 15 8 17 25 18 9 19 23 20 10 21 22 22 11 23 20 24 12 25
REMARK SMILES IDX 19 26 21 27 26 28 24 30 13 32 14 33 18 34 15 35 17 36 16 37
REMARK H PARENT 32 12 30 14 28 16 26 29 24 31
REMARK Flexibility Score: inf
ROOT
ATOM      1  O   UNL     1      -3.129  92.201 -16.268  1.00  0.00    -0.458 OA
ENDROOT
BRANCH   1   2
ATOM      2  C   UNL     1      -3.569  93.216 -17.174  1.00  0.00     0.339 C 
ATOM      3  C   UNL     1      -5.525  93.966 -18.296  1.00  0.00     0.199 C 
ATOM      4  C   UNL     1      -4.949  93.665 -19.715  1.00  0.00     0.180 C 
ATOM      5  O   UNL     1      -4.985  93.124 -17.282  1.00  0.00    -0.328 OA
ATOM      6  C   UNL     1      -3.825  92.617 -19.647  1.00  0.00     0.181 C 
ATOM      7  C   UNL     1      -2.836  92.990 -18.528  1.00  0.00     0.214 C 
BRANCH   3   8
ATOM      8  C   UNL     1      -5.454  95.425 -17.900  1.00  0.00     0.073 C 
ATOM      9  O   UNL     1      -6.267  95.917 -17.074  1.00  0.00    -0.547 OA
ATOM     10  O   UNL     1      -4.530  96.258 -18.519  1.00  0.00    -0.547 OA
ENDBRANCH   3   8
BRANCH   4  11
ATOM     11  O   UNL     1      -5.979  93.214 -20.562  1.00  0.00    -0.387 OA
ATOM     12  H   UNL     1      -5.900  93.721 -21.413  1.00  0.00     0.211 HD
ENDBRANCH   4  11
BRANCH   6  13
ATOM     13  O   UNL     1      -4.374  91.341 -19.410  1.00  0.00    -0.387 OA
ATOM     14  H   UNL     1      -3.661  90.800 -18.976  1.00  0.00     0.211 HD
ENDBRANCH   6  13
BRANCH   7  15
ATOM     15  O   UNL     1      -2.137  94.161 -18.879  1.00  0.00    -0.384 OA
ATOM     16  H   UNL     1      -2.420  94.871 -18.242  1.00  0.00     0.211 HD
ENDBRANCH   7  15
ENDBRANCH   1   2
BRANCH   1  17
ATOM     17  C   UNL     1      -3.903  91.624 -15.249  1.00  0.00     0.172 A 
ATOM     18  C   UNL     1      -4.578  90.431 -15.536  1.00  0.00     0.201 A 
ATOM     19  C   UNL     1      -3.993  92.184 -13.968  1.00  0.00     0.098 A 
ATOM     20  C   UNL     1      -5.359  89.793 -14.556  1.00  0.00     0.176 A 
ATOM     21  C   UNL     1      -4.694  91.523 -12.957  1.00  0.00     0.146 A 
ATOM     22  C   UNL     1      -5.372  90.306 -13.227  1.00  0.00     0.111 A 
ATOM     23  O   UNL     1      -4.686  92.042 -11.730  1.00  0.00    -0.456 OA
ATOM     24  C   UNL     1      -5.972  89.647 -12.128  1.00  0.00     0.197 A 
ATOM     25  C   UNL     1      -5.268  91.457 -10.685  1.00  0.00     0.138 A 
ATOM     26  C   UNL     1      -5.943  90.236 -10.864  1.00  0.00     0.100 A 
ATOM     27  O   UNL     1      -6.505  88.513 -12.241  1.00  0.00    -0.289 OA
BRANCH  18  28
ATOM     28  O   UNL     1      -4.478  89.898 -16.824  1.00  0.00    -0.502 OA
ATOM     29  H   UNL     1      -5.010  90.261 -17.605  1.00  0.00     0.293 HD
ENDBRANCH  18  28
BRANCH  20  30
ATOM     30  O   UNL     1      -6.102  88.675 -14.954  1.00  0.00    -0.504 OA
ATOM     31  H   UNL     1      -7.026  88.448 -14.613  1.00  0.00     0.293 HD
ENDBRANCH  20  30
BRANCH  25  32
ATOM     32  C   UNL     1      -5.180  92.109  -9.352  1.00  0.00     0.017 A 
ATOM     33  C   UNL     1      -4.580  91.421  -8.279  1.00  0.00     0.012 A 
ATOM     34  C   UNL     1      -5.722  93.388  -9.118  1.00  0.00     0.012 A 
ATOM     35  C   UNL     1      -4.497  92.016  -7.013  1.00  0.00     0.001 A 
ATOM     36  C   UNL     1      -5.637  93.976  -7.850  1.00  0.00     0.001 A 
ATOM     37  C   UNL     1      -5.022  93.293  -6.801  1.00  0.00     0.000 A 
ENDBRANCH  25  32
ENDBRANCH   1  17
TORSDOF 9
ENDMDL
MODEL 4
REMARK VINA RESULT:    -6.105      5.079     10.318
REMARK INTER + INTRA:          -9.681
REMARK INTER:                  -8.698
REMARK INTRA:                  -0.983
REMARK UNBOUND:                -1.255
REMARK SMILES O=C([O-])[C@@H]1O[C@@H](Oc2cc3oc(-c4ccccc4)cc(=O)c3c(O)c2O)[C@H](O)[C@@H](O)[C@H]1O
REMARK SMILES IDX 7 1 6 2 4 3 31 4 5 5 29 6 27 7 2 8 1 9 3 10 32 11 30 13
REMARK SMILES IDX 28 15 8 17 25 18 9 19 23 20 10 21 22 22 11 23 20 24 12 25
REMARK SMILES IDX 19 26 21 27 26 28 24 30 13 32 14 33 18 34 15 35 17 36 16 37
REMARK H PARENT 32 12 30 14 28 16 26 29 24 31
REMARK Flexibility Score: inf
ROOT
ATOM      1  O   UNL     1      -6.890  85.664  -9.245  1.00  0.00    -0.458 OA
ENDROOT
BRANCH   1   2
ATOM      2  C   UNL     1      -5.832  85.036  -8.515  1.00  0.00     0.339 C 
ATOM      3  C   UNL     1      -3.472  84.758  -8.558  1.00  0.00     0.199 C 
ATOM      4  C   UNL     1      -3.556  83.213  -8.768  1.00  0.00     0.180 C 
ATOM      5  O   UNL     1      -4.597  85.456  -9.083  1.00  0.00    -0.328 OA
ATOM      6  C   UNL     1      -4.913  82.808  -9.371  1.00  0.00     0.181 C 
ATOM      7  C   UNL     1      -6.051  83.497  -8.597  1.00  0.00     0.214 C 
BRANCH   3   8
ATOM      8  C   UNL     1      -3.181  85.169  -7.131  1.00  0.00     0.073 C 
ATOM      9  O   UNL     1      -2.543  86.224  -6.874  1.00  0.00    -0.547 OA
ATOM     10  O   UNL     1      -3.549  84.328  -6.088  1.00  0.00    -0.547 OA
ENDBRANCH   3   8
BRANCH   4  11
ATOM     11  O   UNL     1      -2.509  82.788  -9.607  1.00  0.00    -0.387 OA
ATOM     12  H   UNL     1      -2.437  81.802  -9.506  1.00  0.00     0.211 HD
ENDBRANCH   4  11
BRANCH   6  13
ATOM     13  O   UNL     1      -4.958  83.170 -10.733  1.00  0.00    -0.387 OA
ATOM     14  H   UNL     1      -4.782  82.341 -11.254  1.00  0.00     0.211 HD
ENDBRANCH   6  13
BRANCH   7  15
ATOM     15  O   UNL     1      -6.129  82.970  -7.294  1.00  0.00    -0.384 OA
ATOM     16  H   UNL     1      -5.376  83.361  -6.775  1.00  0.00     0.211 HD
ENDBRANCH   7  15
ENDBRANCH   1   2
BRANCH   1  17
ATOM     17  C   UNL     1      -6.889  86.989  -9.705  1.00  0.00     0.172 A 
ATOM     18  C   UNL     1      -7.325  87.988  -8.826  1.00  0.00     0.201 A 
ATOM     19  C   UNL     1      -6.445  87.337 -10.988  1.00  0.00     0.098 A 
ATOM     20  C   UNL     1      -7.335  89.338  -9.218  1.00  0.00     0.176 A 
ATOM     21  C   UNL     1      -6.368  88.679 -11.368  1.00  0.00     0.146 A 
ATOM     22  C   UNL     1      -6.791  89.704 -10.483  1.00  0.00     0.111 A 
ATOM     23  O   UNL     1      -5.860  88.976 -12.563  1.00  0.00    -0.456 OA
ATOM     24  C   UNL     1      -6.587  91.040 -10.902  1.00  0.00     0.197 A 
ATOM     25  C   UNL     1      -5.684  90.224 -12.993  1.00  0.00     0.138 A 
ATOM     26  C   UNL     1      -6.059  91.298 -12.167  1.00  0.00     0.100 A 
ATOM     27  O   UNL     1      -6.829  92.019 -10.150  1.00  0.00    -0.289 OA
BRANCH  18  28
ATOM     28  O   UNL     1      -7.771  87.613  -7.555  1.00  0.00    -0.502 OA
ATOM     29  H   UNL     1      -8.519  88.098  -7.077  1.00  0.00     0.293 HD
ENDBRANCH  18  28
BRANCH  20  30
ATOM     30  O   UNL     1      -7.900  90.261  -8.330  1.00  0.00    -0.504 OA
ATOM     31  H   UNL     1      -8.565  90.977  -8.590  1.00  0.00     0.293 HD
ENDBRANCH  20  30
BRANCH  25  32
ATOM     32  C   UNL     1      -5.086  90.446 -14.335  1.00  0.00     0.017 A 
ATOM     33  C   UNL     1      -3.718  90.765 -14.444  1.00  0.00     0.012 A 
ATOM     34  C   UNL     1      -5.863  90.390 -15.509  1.00  0.00     0.012 A 
ATOM     35  C   UNL     1      -3.139  90.987 -15.700  1.00  0.00     0.001 A 
ATOM     36  C   UNL     1      -5.279  90.616 -16.762  1.00  0.00     0.001 A 
ATOM     37  C   UNL     1      -3.918  90.910 -16.857  1.00  0.00     0.000 A 
ENDBRANCH  25  32
ENDBRANCH   1  17
TORSDOF 9
ENDMDL
MODEL 5
REMARK VINA RESULT:    -5.985      5.760      8.094
REMARK INTER + INTRA:          -9.514
REMARK INTER:                  -8.162
REMARK INTRA:                  -1.353
REMARK UNBOUND:                -1.255
REMARK SMILES O=C([O-])[C@@H]1O[C@@H](Oc2cc3oc(-c4ccccc4)cc(=O)c3c(O)c2O)[C@H](O)[C@@H](O)[C@H]1O
REMARK SMILES IDX 7 1 6 2 4 3 31 4 5 5 29 6 27 7 2 8 1 9 3 10 32 11 30 13
REMARK SMILES IDX 28 15 8 17 25 18 9 19 23 20 10 21 22 22 11 23 20 24 12 25
REMARK SMILES IDX 19 26 21 27 26 28 24 30 13 32 14 33 18 34 15 35 17 36 16 37
REMARK H PARENT 32 12 30 14 28 16 26 29 24 31
REMARK Flexibility Score: inf
ROOT
ATOM      1  O   UNL     1      -6.355  92.444  -9.298  1.00  0.00    -0.458 OA
ENDROOT
BRANCH   1   2
ATOM      2  C   UNL     1      -5.898  93.122 -10.472  1.00  0.00     0.339 C 
ATOM      3  C   UNL     1      -3.977  93.327 -11.855  1.00  0.00     0.199 C 
ATOM      4  C   UNL     1      -3.772  94.838 -11.521  1.00  0.00     0.180 C 
ATOM      5  O   UNL     1      -4.616  92.604 -10.807  1.00  0.00    -0.328 OA
ATOM      6  C   UNL     1      -4.446  95.209 -10.189  1.00  0.00     0.181 C 
ATOM      7  C   UNL     1      -5.879  94.647 -10.158  1.00  0.00     0.214 C 
BRANCH   3   8
ATOM      8  C   UNL     1      -4.644  93.076 -13.190  1.00  0.00     0.073 C 
ATOM      9  O   UNL     1      -4.291  92.118 -13.926  1.00  0.00    -0.547 OA
ATOM     10  O   UNL     1      -5.607  93.966 -13.650  1.00  0.00    -0.547 OA
ENDBRANCH   3   8
BRANCH   4  11
ATOM     11  O   UNL     1      -2.397  95.133 -11.466  1.00  0.00    -0.387 OA
ATOM     12  H   UNL     1      -2.310  96.123 -11.482  1.00  0.00     0.211 HD
ENDBRANCH   4  11
BRANCH   6  13
ATOM     13  O   UNL     1      -3.694  94.692  -9.114  1.00  0.00    -0.387 OA
ATOM     14  H   UNL     1      -4.307  94.105  -8.594  1.00  0.00     0.211 HD
ENDBRANCH   6  13
BRANCH   7  15
ATOM     15  O   UNL     1      -6.677  95.325 -11.099  1.00  0.00    -0.384 OA
ATOM     16  H   UNL     1      -6.126  96.067 -11.468  1.00  0.00     0.211 HD
ENDBRANCH   7  15
ENDBRANCH   1   2
BRANCH   1  17
ATOM     17  C   UNL     1      -5.834  91.242  -8.796  1.00  0.00     0.172 A 
ATOM     18  C   UNL     1      -4.779  91.317  -7.879  1.00  0.00     0.201 A 
ATOM     19  C   UNL     1      -6.353  89.992  -9.159  1.00  0.00     0.098 A 
ATOM     20  C   UNL     1      -4.222  90.151  -7.325  1.00  0.00     0.176 A 
ATOM     21  C   UNL     1      -5.870  88.826  -8.558  1.00  0.00     0.146 A 
ATOM     22  C   UNL     1      -4.811  88.887  -7.616  1.00  0.00     0.111 A 
ATOM     23  O   UNL     1      -6.445  87.665  -8.865  1.00  0.00    -0.456 OA
ATOM     24  C   UNL     1      -4.448  87.677  -6.977  1.00  0.00     0.197 A 
ATOM     25  C   UNL     1      -6.103  86.508  -8.300  1.00  0.00     0.138 A 
ATOM     26  C   UNL     1      -5.076  86.485  -7.340  1.00  0.00     0.100 A 
ATOM     27  O   UNL     1      -3.597  87.641  -6.052  1.00  0.00    -0.289 OA
BRANCH  18  28
ATOM     28  O   UNL     1      -4.276  92.576  -7.539  1.00  0.00    -0.502 OA
ATOM     29  H   UNL     1      -4.803  93.241  -6.989  1.00  0.00     0.293 HD
ENDBRANCH  18  28
BRANCH  20  30
ATOM     30  O   UNL     1      -3.091  90.302  -6.513  1.00  0.00    -0.504 OA
ATOM     31  H   UNL     1      -2.296  90.885  -6.738  1.00  0.00     0.293 HD
ENDBRANCH  20  30
BRANCH  25  32
ATOM     32  C   UNL     1      -6.825  85.271  -8.697  1.00  0.00     0.017 A 
ATOM     33  C   UNL     1      -8.230  85.291  -8.809  1.00  0.00     0.012 A 
ATOM     34  C   UNL     1      -6.145  84.058  -8.923  1.00  0.00     0.012 A 
ATOM     35  C   UNL     1      -8.929  84.132  -9.172  1.00  0.00     0.001 A 
ATOM     36  C   UNL     1      -6.849  82.903  -9.283  1.00  0.00     0.001 A 
ATOM     37  C   UNL     1      -8.239  82.941  -9.411  1.00  0.00     0.000 A 
ENDBRANCH  25  32
ENDBRANCH   1  17
TORSDOF 9
ENDMDL
MODEL 6
REMARK VINA RESULT:    -5.930      4.174      6.056
REMARK INTER + INTRA:          -9.439
REMARK INTER:                  -8.186
REMARK INTRA:                  -1.253
REMARK UNBOUND:                -1.255
REMARK SMILES O=C([O-])[C@@H]1O[C@@H](Oc2cc3oc(-c4ccccc4)cc(=O)c3c(O)c2O)[C@H](O)[C@@H](O)[C@H]1O
REMARK SMILES IDX 7 1 6 2 4 3 31 4 5 5 29 6 27 7 2 8 1 9 3 10 32 11 30 13
REMARK SMILES IDX 28 15 8 17 25 18 9 19 23 20 10 21 22 22 11 23 20 24 12 25
REMARK SMILES IDX 19 26 21 27 26 28 24 30 13 32 14 33 18 34 15 35 17 36 16 37
REMARK H PARENT 32 12 30 14 28 16 26 29 24 31
REMARK Flexibility Score: inf
ROOT
ATOM      1  O   UNL     1      -6.024  92.076 -14.698  1.00  0.00    -0.458 OA
ENDROOT
BRANCH   1   2
ATOM      2  C   UNL     1      -5.166  91.845 -15.820  1.00  0.00     0.339 C 
ATOM      3  C   UNL     1      -3.122  92.602 -16.766  1.00  0.00     0.199 C 
ATOM      4  C   UNL     1      -3.807  93.161 -18.053  1.00  0.00     0.180 C 
ATOM      5  O   UNL     1      -3.979  92.606 -15.629  1.00  0.00    -0.328 OA
ATOM      6  C   UNL     1      -5.298  93.450 -17.807  1.00  0.00     0.181 C 
ATOM      7  C   UNL     1      -5.950  92.246 -17.103  1.00  0.00     0.214 C 
BRANCH   3   8
ATOM      8  C   UNL     1      -2.461  91.254 -16.957  1.00  0.00     0.073 C 
ATOM      9  O   UNL     1      -1.876  90.673 -16.005  1.00  0.00    -0.547 OA
ATOM     10  O   UNL     1      -2.426  90.683 -18.223  1.00  0.00    -0.547 OA
ENDBRANCH   3   8
BRANCH   4  11
ATOM     11  O   UNL     1      -3.150  94.333 -18.472  1.00  0.00    -0.387 OA
ATOM     12  H   UNL     1      -3.675  94.707 -19.229  1.00  0.00     0.211 HD
ENDBRANCH   4  11
BRANCH   6  13
ATOM     13  O   UNL     1      -5.436  94.611 -17.020  1.00  0.00    -0.387 OA
ATOM     14  H   UNL     1      -4.712  94.580 -16.337  1.00  0.00     0.211 HD
ENDBRANCH   6  13
BRANCH   7  15
ATOM     15  O   UNL     1      -5.996  91.147 -17.982  1.00  0.00    -0.384 OA
ATOM     16  H   UNL     1      -6.955  90.906 -18.097  1.00  0.00     0.211 HD
ENDBRANCH   7  15
ENDBRANCH   1   2
BRANCH   1  17
ATOM     17  C   UNL     1      -5.599  92.324 -13.384  1.00  0.00     0.172 A 
ATOM     18  C   UNL     1      -5.415  93.656 -12.996  1.00  0.00     0.201 A 
ATOM     19  C   UNL     1      -5.387  91.293 -12.459  1.00  0.00     0.098 A 
ATOM     20  C   UNL     1      -5.006  93.975 -11.689  1.00  0.00     0.176 A 
ATOM     21  C   UNL     1      -5.062  91.592 -11.133  1.00  0.00     0.146 A 
ATOM     22  C   UNL     1      -4.886  92.938 -10.719  1.00  0.00     0.111 A 
ATOM     23  O   UNL     1      -4.952  90.590 -10.261  1.00  0.00    -0.456 OA
ATOM     24  C   UNL     1      -4.659  93.163  -9.341  1.00  0.00     0.197 A 
ATOM     25  C   UNL     1      -4.710  90.773  -8.964  1.00  0.00     0.138 A 
ATOM     26  C   UNL     1      -4.544  92.079  -8.470  1.00  0.00     0.100 A 
ATOM     27  O   UNL     1      -4.596  94.322  -8.856  1.00  0.00    -0.289 OA
BRANCH  18  28
ATOM     28  O   UNL     1      -5.626  94.664 -13.941  1.00  0.00    -0.502 OA
ATOM     29  H   UNL     1      -5.407  94.544 -14.921  1.00  0.00     0.293 HD
ENDBRANCH  18  28
BRANCH  20  30
ATOM     30  O   UNL     1      -4.724  95.319 -11.414  1.00  0.00    -0.504 OA
ATOM     31  H   UNL     1      -5.339  95.943 -10.910  1.00  0.00     0.293 HD
ENDBRANCH  20  30
BRANCH  25  32
ATOM     32  C   UNL     1      -4.630  89.587  -8.072  1.00  0.00     0.017 A 
ATOM     33  C   UNL     1      -5.393  88.440  -8.369  1.00  0.00     0.012 A 
ATOM     34  C   UNL     1      -3.842  89.592  -6.904  1.00  0.00     0.012 A 
ATOM     35  C   UNL     1      -5.338  87.316  -7.534  1.00  0.00     0.001 A 
ATOM     36  C   UNL     1      -3.794  88.467  -6.073  1.00  0.00     0.001 A 
ATOM     37  C   UNL     1      -4.538  87.329  -6.390  1.00  0.00     0.000 A 
ENDBRANCH  25  32
ENDBRANCH   1  17
TORSDOF 9
ENDMDL
MODEL 7
REMARK VINA RESULT:    -5.921      3.333      5.442
REMARK INTER + INTRA:          -9.425
REMARK INTER:                  -8.249
REMARK INTRA:                  -1.176
REMARK UNBOUND:                -1.255
REMARK SMILES O=C([O-])[C@@H]1O[C@@H](Oc2cc3oc(-c4ccccc4)cc(=O)c3c(O)c2O)[C@H](O)[C@@H](O)[C@H]1O
REMARK SMILES IDX 7 1 6 2 4 3 31 4 5 5 29 6 27 7 2 8 1 9 3 10 32 11 30 13
REMARK SMILES IDX 28 15 8 17 25 18 9 19 23 20 10 21 22 22 11 23 20 24 12 25
REMARK SMILES IDX 19 26 21 27 26 28 24 30 13 32 14 33 18 34 15 35 17 36 16 37
REMARK H PARENT 32 12 30 14 28 16 26 29 24 31
REMARK Flexibility Score: inf
ROOT
ATOM      1  O   UNL     1      -6.673  91.168 -15.209  1.00  0.00    -0.458 OA
ENDROOT
BRANCH   1   2
ATOM      2  C   UNL     1      -5.640  91.327 -16.185  1.00  0.00     0.339 C 
ATOM      3  C   UNL     1      -3.659  92.576 -16.588  1.00  0.00     0.199 C 
ATOM      4  C   UNL     1      -4.249  93.299 -17.840  1.00  0.00     0.180 C 
ATOM      5  O   UNL     1      -4.653  92.196 -15.642  1.00  0.00    -0.328 OA
ATOM      6  C   UNL     1      -5.787  93.297 -17.809  1.00  0.00     0.181 C 
ATOM      7  C   UNL     1      -6.297  91.882 -17.481  1.00  0.00     0.214 C 
BRANCH   3   8
ATOM      8  C   UNL     1      -2.740  91.421 -16.921  1.00  0.00     0.073 C 
ATOM      9  O   UNL     1      -1.882  91.011 -16.095  1.00  0.00    -0.547 OA
ATOM     10  O   UNL     1      -2.784  90.856 -18.190  1.00  0.00    -0.547 OA
ENDBRANCH   3   8
BRANCH   4  11
ATOM     11  O   UNL     1      -3.769  94.621 -17.897  1.00  0.00    -0.387 OA
ATOM     12  H   UNL     1      -4.207  95.057 -18.676  1.00  0.00     0.211 HD
ENDBRANCH   4  11
BRANCH   6  13
ATOM     13  O   UNL     1      -6.247  94.218 -16.845  1.00  0.00    -0.387 OA
ATOM     14  H   UNL     1      -7.237  94.259 -16.939  1.00  0.00     0.211 HD
ENDBRANCH   6  13
BRANCH   7  15
ATOM     15  O   UNL     1      -6.015  91.014 -18.553  1.00  0.00    -0.384 OA
ATOM     16  H   UNL     1      -6.681  91.207 -19.268  1.00  0.00     0.211 HD
ENDBRANCH   7  15
ENDBRANCH   1   2
BRANCH   1  17
ATOM     17  C   UNL     1      -6.478  90.825 -13.862  1.00  0.00     0.172 A 
ATOM     18  C   UNL     1      -6.388  91.865 -12.928  1.00  0.00     0.201 A 
ATOM     19  C   UNL     1      -6.402  89.494 -13.431  1.00  0.00     0.098 A 
ATOM     20  C   UNL     1      -6.209  91.590 -11.561  1.00  0.00     0.176 A 
ATOM     21  C   UNL     1      -6.308  89.198 -12.069  1.00  0.00     0.146 A 
ATOM     22  C   UNL     1      -6.231  90.239 -11.108  1.00  0.00     0.111 A 
ATOM     23  O   UNL     1      -6.324  87.921 -11.691  1.00  0.00    -0.456 OA
ATOM     24  C   UNL     1      -6.240  89.859  -9.745  1.00  0.00     0.197 A 
ATOM     25  C   UNL     1      -6.304  87.535 -10.416  1.00  0.00     0.138 A 
ATOM     26  C   UNL     1      -6.249  88.508  -9.402  1.00  0.00     0.100 A 
ATOM     27  O   UNL     1      -6.282  90.707  -8.817  1.00  0.00    -0.289 OA
BRANCH  18  28
ATOM     28  O   UNL     1      -6.459  93.183 -13.386  1.00  0.00    -0.502 OA
ATOM     29  H   UNL     1      -6.899  93.921 -12.850  1.00  0.00     0.293 HD
ENDBRANCH  18  28
BRANCH  20  30
ATOM     30  O   UNL     1      -6.004  92.682 -10.708  1.00  0.00    -0.504 OA
ATOM     31  H   UNL     1      -5.118  92.920 -10.283  1.00  0.00     0.293 HD
ENDBRANCH  20  30
BRANCH  25  32
ATOM     32  C   UNL     1      -6.350  86.084 -10.101  1.00  0.00     0.017 A 
ATOM     33  C   UNL     1      -7.573  85.490  -9.729  1.00  0.00     0.012 A 
ATOM     34  C   UNL     1      -5.189  85.286 -10.121  1.00  0.00     0.012 A 
ATOM     35  C   UNL     1      -7.633  84.125  -9.420  1.00  0.00     0.001 A 
ATOM     36  C   UNL     1      -5.255  83.923  -9.808  1.00  0.00     0.001 A 
ATOM     37  C   UNL     1      -6.476  83.343  -9.462  1.00  0.00     0.000 A 
ENDBRANCH  25  32
ENDBRANCH   1  17
TORSDOF 9
ENDMDL
MODEL 8
REMARK VINA RESULT:    -5.913      6.005      9.366
REMARK INTER + INTRA:          -9.415
REMARK INTER:                  -8.234
REMARK INTRA:                  -1.181
REMARK UNBOUND:                -1.255
REMARK SMILES O=C([O-])[C@@H]1O[C@@H](Oc2cc3oc(-c4ccccc4)cc(=O)c3c(O)c2O)[C@H](O)[C@@H](O)[C@H]1O
REMARK SMILES IDX 7 1 6 2 4 3 31 4 5 5 29 6 27 7 2 8 1 9 3 10 32 11 30 13
REMARK SMILES IDX 28 15 8 17 25 18 9 19 23 20 10 21 22 22 11 23 20 24 12 25
REMARK SMILES IDX 19 26 21 27 26 28 24 30 13 32 14 33 18 34 15 35 17 36 16 37
REMARK H PARENT 32 12 30 14 28 16 26 29 24 31
REMARK Flexibility Score: inf
ROOT
ATOM      1  O   UNL     1      -7.236  88.686 -10.467  1.00  0.00    -0.458 OA
ENDROOT
BRANCH   1   2
ATOM      2  C   UNL     1      -7.123  88.958 -11.867  1.00  0.00     0.339 C 
ATOM      3  C   UNL     1      -6.417  90.663 -13.364  1.00  0.00     0.199 C 
ATOM      4  C   UNL     1      -7.845  90.876 -13.956  1.00  0.00     0.180 C 
ATOM      5  O   UNL     1      -6.432  90.193 -12.020  1.00  0.00    -0.328 OA
ATOM      6  C   UNL     1      -8.930  90.387 -12.980  1.00  0.00     0.181 C 
ATOM      7  C   UNL     1      -8.563  88.986 -12.458  1.00  0.00     0.214 C 
BRANCH   3   8
ATOM      8  C   UNL     1      -5.509  89.821 -14.235  1.00  0.00     0.073 C 
ATOM      9  O   UNL     1      -5.980  89.001 -15.066  1.00  0.00    -0.547 OA
ATOM     10  O   UNL     1      -4.133  89.893 -14.058  1.00  0.00    -0.547 OA
ENDBRANCH   3   8
BRANCH   4  11
ATOM     11  O   UNL     1      -8.040  92.239 -14.252  1.00  0.00    -0.387 OA
ATOM     12  H   UNL     1      -8.623  92.611 -13.538  1.00  0.00     0.211 HD
ENDBRANCH   4  11
BRANCH   6  13
ATOM     13  O   UNL     1      -9.050  91.293 -11.908  1.00  0.00    -0.387 OA
ATOM     14  H   UNL     1      -8.431  92.048 -12.101  1.00  0.00     0.211 HD
ENDBRANCH   6  13
BRANCH   7  15
ATOM     15  O   UNL     1      -8.653  88.048 -13.505  1.00  0.00    -0.384 OA
ATOM     16  H   UNL     1      -8.051  87.291 -13.270  1.00  0.00     0.211 HD
ENDBRANCH   7  15
ENDBRANCH   1   2
BRANCH   1  17
ATOM     17  C   UNL     1      -6.182  88.300  -9.624  1.00  0.00     0.172 A 
ATOM     18  C   UNL     1      -5.525  89.300  -8.897  1.00  0.00     0.201 A 
ATOM     19  C   UNL     1      -5.798  86.961  -9.471  1.00  0.00     0.098 A 
ATOM     20  C   UNL     1      -4.472  88.980  -8.022  1.00  0.00     0.176 A 
ATOM     21  C   UNL     1      -4.811  86.613  -8.546  1.00  0.00     0.146 A 
ATOM     22  C   UNL     1      -4.145  87.612  -7.790  1.00  0.00     0.111 A 
ATOM     23  O   UNL     1      -4.532  85.323  -8.366  1.00  0.00    -0.456 OA
ATOM     24  C   UNL     1      -3.232  87.171  -6.803  1.00  0.00     0.197 A 
ATOM     25  C   UNL     1      -3.655  84.883  -7.464  1.00  0.00     0.138 A 
ATOM     26  C   UNL     1      -2.969  85.809  -6.660  1.00  0.00     0.100 A 
ATOM     27  O   UNL     1      -2.671  87.970  -6.009  1.00  0.00    -0.289 OA
BRANCH  18  28
ATOM     28  O   UNL     1      -5.924  90.628  -9.074  1.00  0.00    -0.502 OA
ATOM     29  H   UNL     1      -5.606  91.191  -9.852  1.00  0.00     0.293 HD
ENDBRANCH  18  28
BRANCH  20  30
ATOM     30  O   UNL     1      -3.785  90.045  -7.427  1.00  0.00    -0.504 OA
ATOM     31  H   UNL     1      -3.252  90.739  -7.933  1.00  0.00     0.293 HD
ENDBRANCH  20  30
BRANCH  25  32
ATOM     32  C   UNL     1      -3.435  83.420  -7.328  1.00  0.00     0.017 A 
ATOM     33  C   UNL     1      -3.625  82.800  -6.077  1.00  0.00     0.012 A 
ATOM     34  C   UNL     1      -2.995  82.634  -8.412  1.00  0.00     0.012 A 
ATOM     35  C   UNL     1      -3.413  81.423  -5.927  1.00  0.00     0.001 A 
ATOM     36  C   UNL     1      -2.782  81.259  -8.255  1.00  0.00     0.001 A 
ATOM     37  C   UNL     1      -2.994  80.654  -7.015  1.00  0.00     0.000 A 
ENDBRANCH  25  32
ENDBRANCH   1  17
TORSDOF 9
ENDMDL
MODEL 9
REMARK VINA RESULT:    -5.882      8.817     13.477
REMARK INTER + INTRA:          -9.372
REMARK INTER:                  -8.002
REMARK INTRA:                  -1.370
REMARK UNBOUND:                -1.255
REMARK SMILES O=C([O-])[C@@H]1O[C@@H](Oc2cc3oc(-c4ccccc4)cc(=O)c3c(O)c2O)[C@H](O)[C@@H](O)[C@H]1O
REMARK SMILES IDX 7 1 6 2 4 3 31 4 5 5 29 6 27 7 2 8 1 9 3 10 32 11 30 13
REMARK SMILES IDX 28 15 8 17 25 18 9 19 23 20 10 21 22 22 11 23 20 24 12 25
REMARK SMILES IDX 19 26 21 27 26 28 24 30 13 32 14 33 18 34 15 35 17 36 16 37
REMARK H PARENT 32 12 30 14 28 16 26 29 24 31
REMARK Flexibility Score: inf
ROOT
ATOM      1  O   UNL     1     -11.334  85.350  -7.208  1.00  0.00    -0.458 OA
ENDROOT
BRANCH   1   2
ATOM      2  C   UNL     1     -12.412  84.478  -7.560  1.00  0.00     0.339 C 
ATOM      3  C   UNL     1     -13.014  82.850  -9.183  1.00  0.00     0.199 C 
ATOM      4  C   UNL     1     -14.193  83.702  -9.750  1.00  0.00     0.180 C 
ATOM      5  O   UNL     1     -11.970  83.640  -8.622  1.00  0.00    -0.328 OA
ATOM      6  C   UNL     1     -14.000  85.195  -9.433  1.00  0.00     0.181 C 
ATOM      7  C   UNL     1     -13.629  85.367  -7.948  1.00  0.00     0.214 C 
BRANCH   3   8
ATOM      8  C   UNL     1     -13.448  81.752  -8.236  1.00  0.00     0.073 C 
ATOM      9  O   UNL     1     -12.738  80.727  -8.056  1.00  0.00    -0.547 OA
ATOM     10  O   UNL     1     -14.688  81.835  -7.616  1.00  0.00    -0.547 OA
ENDBRANCH   3   8
BRANCH   4  11
ATOM     11  O   UNL     1     -14.292  83.512 -11.141  1.00  0.00    -0.387 OA
ATOM     12  H   UNL     1     -14.821  82.683 -11.285  1.00  0.00     0.211 HD
ENDBRANCH   4  11
BRANCH   6  13
ATOM     13  O   UNL     1     -12.989  85.732 -10.255  1.00  0.00    -0.387 OA
ATOM     14  H   UNL     1     -13.189  86.702 -10.357  1.00  0.00     0.211 HD
ENDBRANCH   6  13
BRANCH   7  15
ATOM     15  O   UNL     1     -14.730  85.025  -7.139  1.00  0.00    -0.384 OA
ATOM     16  H   UNL     1     -14.740  85.663  -6.376  1.00  0.00     0.211 HD
ENDBRANCH   7  15
ENDBRANCH   1   2
BRANCH   1  17
ATOM     17  C   UNL     1     -10.113  85.455  -7.892  1.00  0.00     0.172 A 
ATOM     18  C   UNL     1      -9.924  86.561  -8.729  1.00  0.00     0.201 A 
ATOM     19  C   UNL     1      -9.086  84.514  -7.738  1.00  0.00     0.098 A 
ATOM     20  C   UNL     1      -8.718  86.734  -9.431  1.00  0.00     0.176 A 
ATOM     21  C   UNL     1      -7.850  84.711  -8.360  1.00  0.00     0.146 A 
ATOM     22  C   UNL     1      -7.637  85.835  -9.200  1.00  0.00     0.111 A 
ATOM     23  O   UNL     1      -6.870  83.842  -8.121  1.00  0.00    -0.456 OA
ATOM     24  C   UNL     1      -6.330  86.018  -9.710  1.00  0.00     0.197 A 
ATOM     25  C   UNL     1      -5.639  83.975  -8.613  1.00  0.00     0.138 A 
ATOM     26  C   UNL     1      -5.340  85.074  -9.438  1.00  0.00     0.100 A 
ATOM     27  O   UNL     1      -6.011  87.036 -10.376  1.00  0.00    -0.289 OA
BRANCH  18  28
ATOM     28  O   UNL     1     -10.967  87.479  -8.871  1.00  0.00    -0.502 OA
ATOM     29  H   UNL     1     -11.530  87.787  -8.088  1.00  0.00     0.293 HD
ENDBRANCH  18  28
BRANCH  20  30
ATOM     30  O   UNL     1      -8.652  87.795 -10.342  1.00  0.00    -0.504 OA
ATOM     31  H   UNL     1      -8.156  88.661 -10.180  1.00  0.00     0.293 HD
ENDBRANCH  20  30
BRANCH  25  32
ATOM     32  C   UNL     1      -4.611  82.959  -8.266  1.00  0.00     0.017 A 
ATOM     33  C   UNL     1      -4.592  82.401  -6.973  1.00  0.00     0.012 A 
ATOM     34  C   UNL     1      -3.618  82.568  -9.187  1.00  0.00     0.012 A 
ATOM     35  C   UNL     1      -3.625  81.449  -6.624  1.00  0.00     0.001 A 
ATOM     36  C   UNL     1      -2.652  81.618  -8.832  1.00  0.00     0.001 A 
ATOM     37  C   UNL     1      -2.658  81.057  -7.554  1.00  0.00     0.000 A 
ENDBRANCH  25  32
ENDBRANCH   1  17
TORSDOF 9
ENDMDL
