MODEL 1
REMARK VINA RESULT:    -3.469      0.000      0.000
REMARK INTER + INTRA:          -5.585
REMARK INTER:                  -4.888
REMARK INTRA:                  -0.697
REMARK UNBOUND:                -0.697
REMARK SMILES C=CCCCCCCC(=O)[O-]
REMARK SMILES IDX 6 1 7 2 8 3 9 4 10 5 11 6 5 7 4 8 3 9 2 10 1 11
REMARK H PARENT
REMARK Flexibility Score: inf
ROOT
ATOM      1  C   UNL     1       6.108   9.446  -2.413  1.00  0.00     0.000 C 
ENDROOT
BRANCH   1   2
ATOM      2  C   UNL     1       4.618   9.796  -2.336  1.00  0.00     0.006 C 
BRANCH   2   3
ATOM      3  C   UNL     1       3.781   8.831  -3.180  1.00  0.00     0.053 C 
BRANCH   3   4
ATOM      4  C   UNL     1       2.847   8.049  -2.313  1.00  0.00     0.041 C 
ATOM      5  O   UNL     1       3.154   6.887  -1.937  1.00  0.00    -0.550 OA
ATOM      6  O   UNL     1       1.614   8.583  -1.960  1.00  0.00    -0.550 OA
ENDBRANCH   3   4
ENDBRANCH   2   3
ENDBRANCH   1   2
BRANCH   1   7
ATOM      7  C   UNL     1       6.485   8.406  -1.350  1.00  0.00     0.000 C 
BRANCH   7   8
ATOM      8  C   UNL     1       7.598   7.478  -1.858  1.00  0.00     0.004 C 
BRANCH   8   9
ATOM      9  C   UNL     1       7.840   7.636  -3.364  1.00  0.00     0.027 C 
BRANCH   9  10
ATOM     10  C   UNL     1       7.343   6.439  -4.132  1.00  0.00    -0.035 C 
ATOM     11  C   UNL     1       6.110   6.390  -4.643  1.00  0.00     0.004 C 
ENDBRANCH   9  10
ENDBRANCH   8   9
ENDBRANCH   7   8
ENDBRANCH   1   7
TORSDOF 7
ENDMDL
MODEL 2
REMARK VINA RESULT:    -3.458      1.421      2.273
REMARK INTER + INTRA:          -5.570
REMARK INTER:                  -4.741
REMARK INTRA:                  -0.829
REMARK UNBOUND:                -0.697
REMARK SMILES C=CCCCCCCC(=O)[O-]
REMARK SMILES IDX 6 1 7 2 8 3 9 4 10 5 11 6 5 7 4 8 3 9 2 10 1 11
REMARK H PARENT
REMARK Flexibility Score: inf
ROOT
ATOM      1  C   UNL     1       7.077   7.664  -2.016  1.00  0.00     0.000 C 
ENDROOT
BRANCH   1   2
ATOM      2  C   UNL     1       5.800   7.998  -1.237  1.00  0.00     0.006 C 
BRANCH   2   3
ATOM      3  C   UNL     1       4.578   7.326  -1.868  1.00  0.00     0.053 C 
BRANCH   3   4
ATOM      4  C   UNL     1       3.587   8.352  -2.316  1.00  0.00     0.041 C 
ATOM      5  O   UNL     1       3.978   9.487  -2.696  1.00  0.00    -0.550 OA
ATOM      6  O   UNL     1       2.227   8.073  -2.267  1.00  0.00    -0.550 OA
ENDBRANCH   3   4
ENDBRANCH   2   3
ENDBRANCH   1   2
BRANCH   1   7
ATOM      7  C   UNL     1       6.969   6.288  -2.686  1.00  0.00     0.000 C 
BRANCH   7   8
ATOM      8  C   UNL     1       7.354   6.368  -4.171  1.00  0.00     0.004 C 
BRANCH   8   9
ATOM      9  C   UNL     1       6.210   5.923  -5.090  1.00  0.00     0.027 C 
BRANCH   9  10
ATOM     10  C   UNL     1       5.307   7.074  -5.445  1.00  0.00    -0.035 C 
ATOM     11  C   UNL     1       5.774   8.316  -5.604  1.00  0.00     0.004 C 
ENDBRANCH   9  10
ENDBRANCH   8   9
ENDBRANCH   7   8
ENDBRANCH   1   7
TORSDOF 7
ENDMDL
MODEL 3
REMARK VINA RESULT:    -3.458      1.160      1.723
REMARK INTER + INTRA:          -5.570
REMARK INTER:                  -4.977
REMARK INTRA:                  -0.592
REMARK UNBOUND:                -0.697
REMARK SMILES C=CCCCCCCC(=O)[O-]
REMARK SMILES IDX 6 1 7 2 8 3 9 4 10 5 11 6 5 7 4 8 3 9 2 10 1 11
REMARK H PARENT
REMARK Flexibility Score: inf
ROOT
ATOM      1  C   UNL     1       6.129   9.743  -3.306  1.00  0.00     0.000 C 
ENDROOT
BRANCH   1   2
ATOM      2  C   UNL     1       4.891   8.843  -3.386  1.00  0.00     0.006 C 
BRANCH   2   3
ATOM      3  C   UNL     1       3.725   9.438  -2.590  1.00  0.00     0.053 C 
BRANCH   3   4
ATOM      4  C   UNL     1       2.784   8.362  -2.154  1.00  0.00     0.041 C 
ATOM      5  O   UNL     1       1.566   8.622  -1.965  1.00  0.00    -0.550 OA
ATOM      6  O   UNL     1       3.260   7.080  -1.907  1.00  0.00    -0.550 OA
ENDBRANCH   3   4
ENDBRANCH   2   3
ENDBRANCH   1   2
BRANCH   1   7
ATOM      7  C   UNL     1       6.598   9.907  -1.855  1.00  0.00     0.000 C 
BRANCH   7   8
ATOM      8  C   UNL     1       6.909   8.543  -1.220  1.00  0.00     0.004 C 
BRANCH   8   9
ATOM      9  C   UNL     1       8.314   8.045  -1.578  1.00  0.00     0.027 C 
BRANCH   9  10
ATOM     10  C   UNL     1       8.268   6.711  -2.274  1.00  0.00    -0.035 C 
ATOM     11  C   UNL     1       7.119   6.057  -2.472  1.00  0.00     0.004 C 
ENDBRANCH   9  10
ENDBRANCH   8   9
ENDBRANCH   7   8
ENDBRANCH   1   7
TORSDOF 7
ENDMDL
MODEL 4
REMARK VINA RESULT:    -3.446     13.338     15.328
REMARK INTER + INTRA:          -5.553
REMARK INTER:                  -5.116
REMARK INTRA:                  -0.437
REMARK UNBOUND:                -0.697
REMARK SMILES C=CCCCCCCC(=O)[O-]
REMARK SMILES IDX 6 1 7 2 8 3 9 4 10 5 11 6 5 7 4 8 3 9 2 10 1 11
REMARK H PARENT
REMARK Flexibility Score: inf
ROOT
ATOM      1  C   UNL     1      -9.193   2.029  -5.388  1.00  0.00     0.000 C 
ENDROOT
BRANCH   1   2
ATOM      2  C   UNL     1     -10.058   1.394  -4.294  1.00  0.00     0.006 C 
BRANCH   2   3
ATOM      3  C   UNL     1      -9.295   1.310  -2.968  1.00  0.00     0.053 C 
BRANCH   3   4
ATOM      4  C   UNL     1      -9.294  -0.092  -2.451  1.00  0.00     0.041 C 
ATOM      5  O   UNL     1      -9.340  -1.063  -3.251  1.00  0.00    -0.550 OA
ATOM      6  O   UNL     1      -9.291  -0.328  -1.082  1.00  0.00    -0.550 OA
ENDBRANCH   3   4
ENDBRANCH   2   3
ENDBRANCH   1   2
BRANCH   1   7
ATOM      7  C   UNL     1      -7.945   1.181  -5.665  1.00  0.00     0.000 C 
BRANCH   7   8
ATOM      8  C   UNL     1      -6.836   2.027  -6.307  1.00  0.00     0.004 C 
BRANCH   8   9
ATOM      9  C   UNL     1      -6.993   3.520  -5.993  1.00  0.00     0.027 C 
BRANCH   9  10
ATOM     10  C   UNL     1      -6.553   4.378  -7.150  1.00  0.00    -0.035 C 
ATOM     11  C   UNL     1      -5.418   4.139  -7.814  1.00  0.00     0.004 C 
ENDBRANCH   9  10
ENDBRANCH   8   9
ENDBRANCH   7   8
ENDBRANCH   1   7
TORSDOF 7
ENDMDL
MODEL 5
REMARK VINA RESULT:    -3.326     13.378     14.815
REMARK INTER + INTRA:          -5.384
REMARK INTER:                  -4.695
REMARK INTRA:                  -0.689
REMARK UNBOUND:                -0.697
REMARK SMILES C=CCCCCCCC(=O)[O-]
REMARK SMILES IDX 6 1 7 2 8 3 9 4 10 5 11 6 5 7 4 8 3 9 2 10 1 11
REMARK H PARENT
REMARK Flexibility Score: inf
ROOT
ATOM      1  C   UNL     1      -7.238   3.390  -5.540  1.00  0.00     0.000 C 
ENDROOT
BRANCH   1   2
ATOM      2  C   UNL     1      -8.517   2.569  -5.736  1.00  0.00     0.006 C 
BRANCH   2   3
ATOM      3  C   UNL     1      -8.229   1.069  -5.635  1.00  0.00     0.053 C 
BRANCH   3   4
ATOM      4  C   UNL     1      -8.754   0.519  -4.347  1.00  0.00     0.041 C 
ATOM      5  O   UNL     1      -8.687   1.202  -3.292  1.00  0.00    -0.550 OA
ATOM      6  O   UNL     1      -9.274  -0.768  -4.302  1.00  0.00    -0.550 OA
ENDBRANCH   3   4
ENDBRANCH   2   3
ENDBRANCH   1   2
BRANCH   1   7
ATOM      7  C   UNL     1      -6.106   2.868  -6.434  1.00  0.00     0.000 C 
BRANCH   7   8
ATOM      8  C   UNL     1      -5.811   3.849  -7.578  1.00  0.00     0.004 C 
BRANCH   8   9
ATOM      9  C   UNL     1      -5.846   3.165  -8.950  1.00  0.00     0.027 C 
BRANCH   9  10
ATOM     10  C   UNL     1      -6.734   1.949  -8.939  1.00  0.00    -0.035 C 
ATOM     11  C   UNL     1      -7.936   1.947  -9.522  1.00  0.00     0.004 C 
ENDBRANCH   9  10
ENDBRANCH   8   9
ENDBRANCH   7   8
ENDBRANCH   1   7
TORSDOF 7
ENDMDL
MODEL 6
REMARK VINA RESULT:    -3.322      2.343      3.894
REMARK INTER + INTRA:          -5.378
REMARK INTER:                  -4.667
REMARK INTRA:                  -0.711
REMARK UNBOUND:                -0.697
REMARK SMILES C=CCCCCCCC(=O)[O-]
REMARK SMILES IDX 6 1 7 2 8 3 9 4 10 5 11 6 5 7 4 8 3 9 2 10 1 11
REMARK H PARENT
REMARK Flexibility Score: inf
ROOT
ATOM      1  C   UNL     1       6.848   9.608  -3.346  1.00  0.00     0.000 C 
ENDROOT
BRANCH   1   2
ATOM      2  C   UNL     1       6.371   9.302  -4.770  1.00  0.00     0.006 C 
BRANCH   2   3
ATOM      3  C   UNL     1       6.912   7.953  -5.253  1.00  0.00     0.053 C 
BRANCH   3   4
ATOM      4  C   UNL     1       5.830   6.921  -5.250  1.00  0.00     0.041 C 
ATOM      5  O   UNL     1       4.741   7.143  -5.841  1.00  0.00    -0.550 OA
ATOM      6  O   UNL     1       6.005   5.733  -4.553  1.00  0.00    -0.550 OA
ENDBRANCH   3   4
ENDBRANCH   2   3
ENDBRANCH   1   2
BRANCH   1   7
ATOM      7  C   UNL     1       5.672   9.611  -2.360  1.00  0.00     0.000 C 
BRANCH   7   8
ATOM      8  C   UNL     1       5.577   8.272  -1.614  1.00  0.00     0.004 C 
BRANCH   8   9
ATOM      9  C   UNL     1       4.309   7.493  -1.983  1.00  0.00     0.027 C 
BRANCH   9  10
ATOM     10  C   UNL     1       3.352   8.339  -2.780  1.00  0.00    -0.035 C 
ATOM     11  C   UNL     1       2.238   8.844  -2.242  1.00  0.00     0.004 C 
ENDBRANCH   9  10
ENDBRANCH   8   9
ENDBRANCH   7   8
ENDBRANCH   1   7
TORSDOF 7
ENDMDL
MODEL 7
REMARK VINA RESULT:    -3.262      1.533      2.320
REMARK INTER + INTRA:          -5.293
REMARK INTER:                  -4.524
REMARK INTRA:                  -0.769
REMARK UNBOUND:                -0.697
REMARK SMILES C=CCCCCCCC(=O)[O-]
REMARK SMILES IDX 6 1 7 2 8 3 9 4 10 5 11 6 5 7 4 8 3 9 2 10 1 11
REMARK H PARENT
REMARK Flexibility Score: inf
ROOT
ATOM      1  C   UNL     1       6.762   9.254  -3.057  1.00  0.00     0.000 C 
ENDROOT
BRANCH   1   2
ATOM      2  C   UNL     1       5.586   9.429  -2.090  1.00  0.00     0.006 C 
BRANCH   2   3
ATOM      3  C   UNL     1       4.249   9.223  -2.807  1.00  0.00     0.053 C 
BRANCH   3   4
ATOM      4  C   UNL     1       3.630   7.924  -2.400  1.00  0.00     0.041 C 
ATOM      5  O   UNL     1       2.381   7.829  -2.276  1.00  0.00    -0.550 OA
ATOM      6  O   UNL     1       4.436   6.831  -2.109  1.00  0.00    -0.550 OA
ENDBRANCH   3   4
ENDBRANCH   2   3
ENDBRANCH   1   2
BRANCH   1   7
ATOM      7  C   UNL     1       6.438   9.851  -4.432  1.00  0.00     0.000 C 
BRANCH   7   8
ATOM      8  C   UNL     1       6.774   8.859  -5.555  1.00  0.00     0.004 C 
BRANCH   8   9
ATOM      9  C   UNL     1       6.744   7.405  -5.071  1.00  0.00     0.027 C 
BRANCH   9  10
ATOM     10  C   UNL     1       5.481   6.705  -5.497  1.00  0.00    -0.035 C 
ATOM     11  C   UNL     1       4.802   7.075  -6.587  1.00  0.00     0.004 C 
ENDBRANCH   9  10
ENDBRANCH   8   9
ENDBRANCH   7   8
ENDBRANCH   1   7
TORSDOF 7
ENDMDL
MODEL 8
REMARK VINA RESULT:    -3.213      1.143      2.603
REMARK INTER + INTRA:          -5.224
REMARK INTER:                  -4.406
REMARK INTRA:                  -0.818
REMARK UNBOUND:                -0.697
REMARK SMILES C=CCCCCCCC(=O)[O-]
REMARK SMILES IDX 6 1 7 2 8 3 9 4 10 5 11 6 5 7 4 8 3 9 2 10 1 11
REMARK H PARENT
REMARK Flexibility Score: inf
ROOT
ATOM      1  C   UNL     1       6.387   7.565  -4.852  1.00  0.00     0.000 C 
ENDROOT
BRANCH   1   2
ATOM      2  C   UNL     1       4.870   7.730  -4.703  1.00  0.00     0.006 C 
BRANCH   2   3
ATOM      3  C   UNL     1       4.524   8.512  -3.433  1.00  0.00     0.053 C 
BRANCH   3   4
ATOM      4  C   UNL     1       3.929   7.604  -2.404  1.00  0.00     0.041 C 
ATOM      5  O   UNL     1       4.638   6.722  -1.851  1.00  0.00    -0.550 OA
ATOM      6  O   UNL     1       2.579   7.699  -2.090  1.00  0.00    -0.550 OA
ENDBRANCH   3   4
ENDBRANCH   2   3
ENDBRANCH   1   2
BRANCH   1   7
ATOM      7  C   UNL     1       6.845   6.194  -4.339  1.00  0.00     0.000 C 
BRANCH   7   8
ATOM      8  C   UNL     1       7.973   6.341  -3.308  1.00  0.00     0.004 C 
BRANCH   8   9
ATOM      9  C   UNL     1       8.288   7.810  -3.000  1.00  0.00     0.027 C 
BRANCH   9  10
ATOM     10  C   UNL     1       8.169   8.104  -1.528  1.00  0.00    -0.035 C 
ATOM     11  C   UNL     1       7.269   8.969  -1.052  1.00  0.00     0.004 C 
ENDBRANCH   9  10
ENDBRANCH   8   9
ENDBRANCH   7   8
ENDBRANCH   1   7
TORSDOF 7
ENDMDL
MODEL 9
REMARK VINA RESULT:    -3.167     12.209     14.223
REMARK INTER + INTRA:          -5.159
REMARK INTER:                  -4.699
REMARK INTRA:                  -0.460
REMARK UNBOUND:                -0.697
REMARK SMILES C=CCCCCCCC(=O)[O-]
REMARK SMILES IDX 6 1 7 2 8 3 9 4 10 5 11 6 5 7 4 8 3 9 2 10 1 11
REMARK H PARENT
REMARK Flexibility Score: inf
ROOT
ATOM      1  C   UNL     1      -8.470   3.866  -6.324  1.00  0.00     0.000 C 
ENDROOT
BRANCH   1   2
ATOM      2  C   UNL     1      -8.905   2.537  -6.952  1.00  0.00     0.006 C 
BRANCH   2   3
ATOM      3  C   UNL     1      -9.449   1.578  -5.889  1.00  0.00     0.053 C 
BRANCH   3   4
ATOM      4  C   UNL     1      -8.398   1.273  -4.870  1.00  0.00     0.041 C 
ATOM      5  O   UNL     1      -8.610   1.507  -3.651  1.00  0.00    -0.550 OA
ATOM      6  O   UNL     1      -7.165   0.774  -5.271  1.00  0.00    -0.550 OA
ENDBRANCH   3   4
ENDBRANCH   2   3
ENDBRANCH   1   2
BRANCH   1   7
ATOM      7  C   UNL     1      -7.268   4.460  -7.069  1.00  0.00     0.000 C 
BRANCH   7   8
ATOM      8  C   UNL     1      -6.071   3.499  -7.036  1.00  0.00     0.004 C 
BRANCH   8   9
ATOM      9  C   UNL     1      -5.405   3.356  -8.411  1.00  0.00     0.027 C 
BRANCH   9  10
ATOM     10  C   UNL     1      -4.901   4.679  -8.921  1.00  0.00    -0.035 C 
ATOM     11  C   UNL     1      -3.607   5.009  -8.872  1.00  0.00     0.004 C 
ENDBRANCH   9  10
ENDBRANCH   8   9
ENDBRANCH   7   8
ENDBRANCH   1   7
TORSDOF 7
ENDMDL
