MODEL 1
REMARK VINA RESULT:    -6.688      0.000      0.000
REMARK INTER + INTRA:          -7.275
REMARK INTER:                  -7.275
REMARK INTRA:                   0.000
REMARK UNBOUND:                 0.000
REMARK SMILES Cc1cc(O)c2c(c1)C(=O)c1cc(O)cc(O)c1C2=O
REMARK SMILES IDX 1 1 2 2 8 3 7 4 6 5 4 6 3 7 19 8 20 9 18 10 11 11 9 12 10 13
REMARK SMILES IDX 12 14 13 15 15 16 16 17 5 18 17 20 14 22
REMARK H PARENT 5 19 17 21 14 23
REMARK Flexibility Score: inf
ROOT
ATOM      1  C   UNL     1      -7.430   9.025  17.068  1.00  0.00     0.044 C 
ATOM      2  C   UNL     1      -7.314  10.430  17.583  1.00  0.00    -0.047 A 
ATOM      3  C   UNL     1      -6.859  11.452  16.741  1.00  0.00     0.016 A 
ATOM      4  C   UNL     1      -6.774  12.776  17.205  1.00  0.00     0.038 A 
ATOM      5  C   UNL     1      -7.151  13.081  18.533  1.00  0.00     0.076 A 
ATOM      6  C   UNL     1      -7.691  12.057  19.352  1.00  0.00     0.127 A 
ATOM      7  C   UNL     1      -7.746  10.743  18.875  1.00  0.00     0.050 A 
ATOM      8  C   UNL     1      -6.908  14.460  19.031  1.00  0.00     0.201 C 
ATOM      9  O   UNL     1      -6.673  14.650  20.254  1.00  0.00    -0.288 OA
ATOM     10  C   UNL     1      -6.758  15.578  18.066  1.00  0.00     0.076 A 
ATOM     11  C   UNL     1      -6.383  15.269  16.739  1.00  0.00     0.041 A 
ATOM     12  C   UNL     1      -6.299  13.854  16.306  1.00  0.00     0.194 C 
ATOM     13  O   UNL     1      -5.845  13.568  15.164  1.00  0.00    -0.289 OA
ATOM     14  C   UNL     1      -6.097  16.304  15.833  1.00  0.00     0.059 A 
ATOM     15  C   UNL     1      -6.194  17.638  16.228  1.00  0.00     0.120 A 
ATOM     16  C   UNL     1      -6.603  17.951  17.527  1.00  0.00     0.093 A 
ATOM     17  C   UNL     1      -6.913  16.939  18.441  1.00  0.00     0.131 A 
ENDROOT
BRANCH   6  18
ATOM     18  O   UNL     1      -8.213  12.304  20.623  1.00  0.00    -0.507 OA
ATOM     19  H   UNL     1      -8.872  11.693  21.086  1.00  0.00     0.293 HD
ENDBRANCH   6  18
BRANCH  17  20
ATOM     20  O   UNL     1      -7.401  17.327  19.691  1.00  0.00    -0.507 OA
ATOM     21  H   UNL     1      -8.036  16.765  20.241  1.00  0.00     0.293 HD
ENDBRANCH  17  20
BRANCH  15  22
ATOM     22  O   UNL     1      -5.893  18.648  15.317  1.00  0.00    -0.508 OA
ATOM     23  H   UNL     1      -6.591  19.013  14.679  1.00  0.00     0.293 HD
ENDBRANCH  15  22
TORSDOF 3
ENDMDL
MODEL 2
REMARK VINA RESULT:    -6.671      1.821      5.838
REMARK INTER + INTRA:          -7.256
REMARK INTER:                  -7.256
REMARK INTRA:                   0.000
REMARK UNBOUND:                 0.000
REMARK SMILES Cc1cc(O)c2c(c1)C(=O)c1cc(O)cc(O)c1C2=O
REMARK SMILES IDX 1 1 2 2 8 3 7 4 6 5 4 6 3 7 19 8 20 9 18 10 11 11 9 12 10 13
REMARK SMILES IDX 12 14 13 15 15 16 16 17 5 18 17 20 14 22
REMARK H PARENT 5 19 17 21 14 23
REMARK Flexibility Score: inf
ROOT
ATOM      1  C   UNL     1      -6.561  17.111  16.128  1.00  0.00     0.044 C 
ATOM      2  C   UNL     1      -6.794  15.969  17.074  1.00  0.00    -0.047 A 
ATOM      3  C   UNL     1      -7.077  14.691  16.577  1.00  0.00     0.016 A 
ATOM      4  C   UNL     1      -7.269  13.610  17.454  1.00  0.00     0.038 A 
ATOM      5  C   UNL     1      -7.176  13.811  18.850  1.00  0.00     0.076 A 
ATOM      6  C   UNL     1      -6.806  15.089  19.341  1.00  0.00     0.127 A 
ATOM      7  C   UNL     1      -6.641  16.154  18.451  1.00  0.00     0.050 A 
ATOM      8  C   UNL     1      -7.531  12.680  19.747  1.00  0.00     0.201 C 
ATOM      9  O   UNL     1      -8.015  12.914  20.886  1.00  0.00    -0.288 OA
ATOM     10  C   UNL     1      -7.491  11.288  19.231  1.00  0.00     0.076 A 
ATOM     11  C   UNL     1      -7.582  11.091  17.834  1.00  0.00     0.041 A 
ATOM     12  C   UNL     1      -7.560  12.258  16.921  1.00  0.00     0.194 C 
ATOM     13  O   UNL     1      -7.767  12.098  15.687  1.00  0.00    -0.289 OA
ATOM     14  C   UNL     1      -7.686   9.789  17.317  1.00  0.00     0.059 A 
ATOM     15  C   UNL     1      -7.686   8.685  18.170  1.00  0.00     0.120 A 
ATOM     16  C   UNL     1      -7.556   8.872  19.548  1.00  0.00     0.093 A 
ATOM     17  C   UNL     1      -7.430  10.157  20.086  1.00  0.00     0.131 A 
ENDROOT
BRANCH   6  18
ATOM     18  O   UNL     1      -6.559  15.334  20.694  1.00  0.00    -0.507 OA
ATOM     19  H   UNL     1      -5.658  15.198  21.132  1.00  0.00     0.293 HD
ENDBRANCH   6  18
BRANCH  17  20
ATOM     20  O   UNL     1      -7.213  10.261  21.462  1.00  0.00    -0.507 OA
ATOM     21  H   UNL     1      -6.576  10.925  21.878  1.00  0.00     0.293 HD
ENDBRANCH  17  20
BRANCH  15  22
ATOM     22  O   UNL     1      -7.804   7.404  17.635  1.00  0.00    -0.508 OA
ATOM     23  H   UNL     1      -7.710   7.233  16.641  1.00  0.00     0.293 HD
ENDBRANCH  15  22
TORSDOF 3
ENDMDL
MODEL 3
REMARK VINA RESULT:    -6.322      1.595      3.326
REMARK INTER + INTRA:          -6.876
REMARK INTER:                  -6.876
REMARK INTRA:                   0.000
REMARK UNBOUND:                 0.000
REMARK SMILES Cc1cc(O)c2c(c1)C(=O)c1cc(O)cc(O)c1C2=O
REMARK SMILES IDX 1 1 2 2 8 3 7 4 6 5 4 6 3 7 19 8 20 9 18 10 11 11 9 12 10 13
REMARK SMILES IDX 12 14 13 15 15 16 16 17 5 18 17 20 14 22
REMARK H PARENT 5 19 17 21 14 23
REMARK Flexibility Score: inf
ROOT
ATOM      1  C   UNL     1      -7.561   8.638  20.603  1.00  0.00     0.044 C 
ATOM      2  C   UNL     1      -7.543   9.847  19.714  1.00  0.00    -0.047 A 
ATOM      3  C   UNL     1      -7.409  11.125  20.268  1.00  0.00     0.016 A 
ATOM      4  C   UNL     1      -7.361  12.261  19.443  1.00  0.00     0.038 A 
ATOM      5  C   UNL     1      -7.450  12.115  18.039  1.00  0.00     0.076 A 
ATOM      6  C   UNL     1      -7.500  10.812  17.482  1.00  0.00     0.127 A 
ATOM      7  C   UNL     1      -7.567   9.698  18.324  1.00  0.00     0.050 A 
ATOM      8  C   UNL     1      -7.546  13.345  17.211  1.00  0.00     0.201 C 
ATOM      9  O   UNL     1      -8.172  13.315  16.118  1.00  0.00    -0.288 OA
ATOM     10  C   UNL     1      -7.069  14.641  17.756  1.00  0.00     0.076 A 
ATOM     11  C   UNL     1      -6.980  14.784  19.159  1.00  0.00     0.041 A 
ATOM     12  C   UNL     1      -7.211  13.611  20.036  1.00  0.00     0.194 C 
ATOM     13  O   UNL     1      -7.257  13.758  21.288  1.00  0.00    -0.289 OA
ATOM     14  C   UNL     1      -6.667  16.034  19.717  1.00  0.00     0.059 A 
ATOM     15  C   UNL     1      -6.428  17.137  18.897  1.00  0.00     0.120 A 
ATOM     16  C   UNL     1      -6.476  16.993  17.508  1.00  0.00     0.093 A 
ATOM     17  C   UNL     1      -6.765  15.754  16.927  1.00  0.00     0.131 A 
ENDROOT
BRANCH   6  18
ATOM     18  O   UNL     1      -7.450  10.578  16.106  1.00  0.00    -0.507 OA
ATOM     19  H   UNL     1      -7.259   9.673  15.699  1.00  0.00     0.293 HD
ENDBRANCH   6  18
BRANCH  17  20
ATOM     20  O   UNL     1      -6.706  15.665  15.535  1.00  0.00    -0.507 OA
ATOM     21  H   UNL     1      -7.316  16.180  14.915  1.00  0.00     0.293 HD
ENDBRANCH  17  20
BRANCH  15  22
ATOM     22  O   UNL     1      -6.132  18.370  19.473  1.00  0.00    -0.508 OA
ATOM     23  H   UNL     1      -5.314  18.500  20.057  1.00  0.00     0.293 HD
ENDBRANCH  15  22
TORSDOF 3
ENDMDL
MODEL 4
REMARK VINA RESULT:    -6.300      2.471      6.937
REMARK INTER + INTRA:          -6.852
REMARK INTER:                  -6.852
REMARK INTRA:                   0.000
REMARK UNBOUND:                 0.000
REMARK SMILES Cc1cc(O)c2c(c1)C(=O)c1cc(O)cc(O)c1C2=O
REMARK SMILES IDX 1 1 2 2 8 3 7 4 6 5 4 6 3 7 19 8 20 9 18 10 11 11 9 12 10 13
REMARK SMILES IDX 12 14 13 15 15 16 16 17 5 18 17 20 14 22
REMARK H PARENT 5 19 17 21 14 23
REMARK Flexibility Score: inf
ROOT
ATOM      1  C   UNL     1      -6.812  16.372  17.736  1.00  0.00     0.044 C 
ATOM      2  C   UNL     1      -7.016  14.885  17.689  1.00  0.00    -0.047 A 
ATOM      3  C   UNL     1      -6.843  14.115  18.846  1.00  0.00     0.016 A 
ATOM      4  C   UNL     1      -7.059  12.727  18.820  1.00  0.00     0.038 A 
ATOM      5  C   UNL     1      -7.455  12.099  17.617  1.00  0.00     0.076 A 
ATOM      6  C   UNL     1      -7.710  12.897  16.472  1.00  0.00     0.127 A 
ATOM      7  C   UNL     1      -7.468  14.274  16.516  1.00  0.00     0.050 A 
ATOM      8  C   UNL     1      -7.529  10.615  17.591  1.00  0.00     0.201 C 
ATOM      9  O   UNL     1      -7.306   9.996  16.517  1.00  0.00    -0.288 OA
ATOM     10  C   UNL     1      -7.679   9.862  18.862  1.00  0.00     0.076 A 
ATOM     11  C   UNL     1      -7.284  10.493  20.064  1.00  0.00     0.041 A 
ATOM     12  C   UNL     1      -6.882  11.919  20.050  1.00  0.00     0.194 C 
ATOM     13  O   UNL     1      -6.410  12.453  21.091  1.00  0.00    -0.289 OA
ATOM     14  C   UNL     1      -7.281   9.768  21.267  1.00  0.00     0.059 A 
ATOM     15  C   UNL     1      -7.678   8.431  21.290  1.00  0.00     0.120 A 
ATOM     16  C   UNL     1      -8.107   7.813  20.113  1.00  0.00     0.093 A 
ATOM     17  C   UNL     1      -8.139   8.519  18.906  1.00  0.00     0.131 A 
ENDROOT
BRANCH   6  18
ATOM     18  O   UNL     1      -8.234  12.372  15.289  1.00  0.00    -0.507 OA
ATOM     19  H   UNL     1      -8.018  11.446  14.944  1.00  0.00     0.293 HD
ENDBRANCH   6  18
BRANCH  17  20
ATOM     20  O   UNL     1      -8.665   7.865  17.790  1.00  0.00    -0.507 OA
ATOM     21  H   UNL     1      -9.437   8.222  17.245  1.00  0.00     0.293 HD
ENDBRANCH  17  20
BRANCH  15  22
ATOM     22  O   UNL     1      -7.654   7.728  22.493  1.00  0.00    -0.508 OA
ATOM     23  H   UNL     1      -7.379   8.172  23.361  1.00  0.00     0.293 HD
ENDBRANCH  15  22
TORSDOF 3
ENDMDL
MODEL 5
REMARK VINA RESULT:    -6.300      2.285      3.012
REMARK INTER + INTRA:          -6.852
REMARK INTER:                  -6.852
REMARK INTRA:                   0.000
REMARK UNBOUND:                 0.000
REMARK SMILES Cc1cc(O)c2c(c1)C(=O)c1cc(O)cc(O)c1C2=O
REMARK SMILES IDX 1 1 2 2 8 3 7 4 6 5 4 6 3 7 19 8 20 9 18 10 11 11 9 12 10 13
REMARK SMILES IDX 12 14 13 15 15 16 16 17 5 18 17 20 14 22
REMARK H PARENT 5 19 17 21 14 23
REMARK Flexibility Score: inf
ROOT
ATOM      1  C   UNL     1      -7.751   9.308  17.451  1.00  0.00     0.044 C 
ATOM      2  C   UNL     1      -6.805  10.454  17.238  1.00  0.00    -0.047 A 
ATOM      3  C   UNL     1      -7.297  11.718  16.894  1.00  0.00     0.016 A 
ATOM      4  C   UNL     1      -6.421  12.803  16.721  1.00  0.00     0.038 A 
ATOM      5  C   UNL     1      -5.031  12.620  16.896  1.00  0.00     0.076 A 
ATOM      6  C   UNL     1      -4.548  11.358  17.328  1.00  0.00     0.127 A 
ATOM      7  C   UNL     1      -5.436  10.287  17.473  1.00  0.00     0.050 A 
ATOM      8  C   UNL     1      -4.126  13.751  16.561  1.00  0.00     0.201 C 
ATOM      9  O   UNL     1      -2.959  13.517  16.147  1.00  0.00    -0.288 OA
ATOM     10  C   UNL     1      -4.657  15.138  16.534  1.00  0.00     0.076 A 
ATOM     11  C   UNL     1      -6.048  15.317  16.361  1.00  0.00     0.041 A 
ATOM     12  C   UNL     1      -6.950  14.141  16.364  1.00  0.00     0.194 C 
ATOM     13  O   UNL     1      -8.172  14.282  16.086  1.00  0.00    -0.289 OA
ATOM     14  C   UNL     1      -6.571  16.610  16.193  1.00  0.00     0.059 A 
ATOM     15  C   UNL     1      -5.730  17.723  16.210  1.00  0.00     0.120 A 
ATOM     16  C   UNL     1      -4.359  17.554  16.420  1.00  0.00     0.093 A 
ATOM     17  C   UNL     1      -3.817  16.280  16.611  1.00  0.00     0.131 A 
ENDROOT
BRANCH   6  18
ATOM     18  O   UNL     1      -3.209  11.134  17.655  1.00  0.00    -0.507 OA
ATOM     19  H   UNL     1      -2.661  10.373  17.279  1.00  0.00     0.293 HD
ENDBRANCH   6  18
BRANCH  17  20
ATOM     20  O   UNL     1      -2.454  16.196  16.906  1.00  0.00    -0.507 OA
ATOM     21  H   UNL     1      -2.079  15.634  17.657  1.00  0.00     0.293 HD
ENDBRANCH  17  20
BRANCH  15  22
ATOM     22  O   UNL     1      -6.269  18.994  16.028  1.00  0.00    -0.508 OA
ATOM     23  H   UNL     1      -5.819  19.820  16.406  1.00  0.00     0.293 HD
ENDBRANCH  15  22
TORSDOF 3
ENDMDL
MODEL 6
REMARK VINA RESULT:    -6.141      1.904      6.572
REMARK INTER + INTRA:          -6.680
REMARK INTER:                  -6.680
REMARK INTRA:                   0.000
REMARK UNBOUND:                 0.000
REMARK SMILES Cc1cc(O)c2c(c1)C(=O)c1cc(O)cc(O)c1C2=O
REMARK SMILES IDX 1 1 2 2 8 3 7 4 6 5 4 6 3 7 19 8 20 9 18 10 11 11 9 12 10 13
REMARK SMILES IDX 12 14 13 15 15 16 16 17 5 18 17 20 14 22
REMARK H PARENT 5 19 17 21 14 23
REMARK Flexibility Score: inf
ROOT
ATOM      1  C   UNL     1      -6.867  17.777  19.125  1.00  0.00     0.044 C 
ATOM      2  C   UNL     1      -6.887  16.345  18.676  1.00  0.00    -0.047 A 
ATOM      3  C   UNL     1      -6.905  15.312  19.620  1.00  0.00     0.016 A 
ATOM      4  C   UNL     1      -6.953  13.969  19.210  1.00  0.00     0.038 A 
ATOM      5  C   UNL     1      -6.984  13.655  17.832  1.00  0.00     0.076 A 
ATOM      6  C   UNL     1      -7.051  14.708  16.884  1.00  0.00     0.127 A 
ATOM      7  C   UNL     1      -6.981  16.037  17.315  1.00  0.00     0.050 A 
ATOM      8  C   UNL     1      -6.884  12.226  17.435  1.00  0.00     0.201 C 
ATOM      9  O   UNL     1      -6.348  11.918  16.338  1.00  0.00    -0.288 OA
ATOM     10  C   UNL     1      -7.242  11.163  18.409  1.00  0.00     0.076 A 
ATOM     11  C   UNL     1      -7.213  11.481  19.786  1.00  0.00     0.041 A 
ATOM     12  C   UNL     1      -6.980  12.880  20.215  1.00  0.00     0.194 C 
ATOM     13  O   UNL     1      -6.828  13.149  21.438  1.00  0.00    -0.289 OA
ATOM     14  C   UNL     1      -7.410  10.471  20.741  1.00  0.00     0.059 A 
ATOM     15  C   UNL     1      -7.651   9.156  20.344  1.00  0.00     0.120 A 
ATOM     16  C   UNL     1      -7.721   8.843  18.983  1.00  0.00     0.093 A 
ATOM     17  C   UNL     1      -7.548   9.835  18.013  1.00  0.00     0.131 A 
ENDROOT
BRANCH   6  18
ATOM     18  O   UNL     1      -7.222  14.482  15.517  1.00  0.00    -0.507 OA
ATOM     19  H   UNL     1      -6.573  14.803  14.811  1.00  0.00     0.293 HD
ENDBRANCH   6  18
BRANCH  17  20
ATOM     20  O   UNL     1      -7.721   9.466  16.677  1.00  0.00    -0.507 OA
ATOM     21  H   UNL     1      -7.306   9.964  15.901  1.00  0.00     0.293 HD
ENDBRANCH  17  20
BRANCH  15  22
ATOM     22  O   UNL     1      -7.831   8.168  21.309  1.00  0.00    -0.508 OA
ATOM     23  H   UNL     1      -8.094   7.222  21.057  1.00  0.00     0.293 HD
ENDBRANCH  15  22
TORSDOF 3
ENDMDL
MODEL 7
REMARK VINA RESULT:    -6.064      2.667      5.295
REMARK INTER + INTRA:          -6.596
REMARK INTER:                  -6.596
REMARK INTRA:                   0.000
REMARK UNBOUND:                 0.000
REMARK SMILES Cc1cc(O)c2c(c1)C(=O)c1cc(O)cc(O)c1C2=O
REMARK SMILES IDX 1 1 2 2 8 3 7 4 6 5 4 6 3 7 19 8 20 9 18 10 11 11 9 12 10 13
REMARK SMILES IDX 12 14 13 15 15 16 16 17 5 18 17 20 14 22
REMARK H PARENT 5 19 17 21 14 23
REMARK Flexibility Score: inf
ROOT
ATOM      1  C   UNL     1      -5.790  13.506  15.362  1.00  0.00     0.044 C 
ATOM      2  C   UNL     1      -6.338  13.055  16.685  1.00  0.00    -0.047 A 
ATOM      3  C   UNL     1      -6.600  13.990  17.693  1.00  0.00     0.016 A 
ATOM      4  C   UNL     1      -7.140  13.583  18.925  1.00  0.00     0.038 A 
ATOM      5  C   UNL     1      -7.423  12.216  19.150  1.00  0.00     0.076 A 
ATOM      6  C   UNL     1      -7.236  11.287  18.095  1.00  0.00     0.127 A 
ATOM      7  C   UNL     1      -6.677  11.714  16.885  1.00  0.00     0.050 A 
ATOM      8  C   UNL     1      -7.853  11.804  20.512  1.00  0.00     0.201 C 
ATOM      9  O   UNL     1      -7.574  10.650  20.933  1.00  0.00    -0.288 OA
ATOM     10  C   UNL     1      -8.439  12.808  21.436  1.00  0.00     0.076 A 
ATOM     11  C   UNL     1      -8.156  14.174  21.206  1.00  0.00     0.041 A 
ATOM     12  C   UNL     1      -7.422  14.579  19.985  1.00  0.00     0.194 C 
ATOM     13  O   UNL     1      -7.057  15.778  19.836  1.00  0.00    -0.289 OA
ATOM     14  C   UNL     1      -8.576  15.141  22.134  1.00  0.00     0.059 A 
ATOM     15  C   UNL     1      -9.286  14.768  23.275  1.00  0.00     0.120 A 
ATOM     16  C   UNL     1      -9.604  13.424  23.488  1.00  0.00     0.093 A 
ATOM     17  C   UNL     1      -9.214  12.444  22.569  1.00  0.00     0.131 A 
ENDROOT
BRANCH   6  18
ATOM     18  O   UNL     1      -7.620   9.948  18.192  1.00  0.00    -0.507 OA
ATOM     19  H   UNL     1      -8.246   9.497  17.539  1.00  0.00     0.293 HD
ENDBRANCH   6  18
BRANCH  17  20
ATOM     20  O   UNL     1      -9.645  11.136  22.800  1.00  0.00    -0.507 OA
ATOM     21  H   UNL     1     -10.315  10.656  22.215  1.00  0.00     0.293 HD
ENDBRANCH  17  20
BRANCH  15  22
ATOM     22  O   UNL     1      -9.682  15.743  24.188  1.00  0.00    -0.508 OA
ATOM     23  H   UNL     1      -9.318  15.763  25.134  1.00  0.00     0.293 HD
ENDBRANCH  15  22
TORSDOF 3
ENDMDL
MODEL 8
REMARK VINA RESULT:    -6.041      2.537      6.154
REMARK INTER + INTRA:          -6.571
REMARK INTER:                  -6.571
REMARK INTRA:                   0.000
REMARK UNBOUND:                 0.000
REMARK SMILES Cc1cc(O)c2c(c1)C(=O)c1cc(O)cc(O)c1C2=O
REMARK SMILES IDX 1 1 2 2 8 3 7 4 6 5 4 6 3 7 19 8 20 9 18 10 11 11 9 12 10 13
REMARK SMILES IDX 12 14 13 15 15 16 16 17 5 18 17 20 14 22
REMARK H PARENT 5 19 17 21 14 23
REMARK Flexibility Score: inf
ROOT
ATOM      1  C   UNL     1      -3.165  17.714  16.129  1.00  0.00     0.044 C 
ATOM      2  C   UNL     1      -4.104  16.547  16.229  1.00  0.00    -0.047 A 
ATOM      3  C   UNL     1      -3.606  15.262  16.471  1.00  0.00     0.016 A 
ATOM      4  C   UNL     1      -4.478  14.167  16.594  1.00  0.00     0.038 A 
ATOM      5  C   UNL     1      -5.873  14.363  16.473  1.00  0.00     0.076 A 
ATOM      6  C   UNL     1      -6.375  15.680  16.313  1.00  0.00     0.127 A 
ATOM      7  C   UNL     1      -5.486  16.750  16.171  1.00  0.00     0.050 A 
ATOM      8  C   UNL     1      -6.751  13.164  16.461  1.00  0.00     0.201 C 
ATOM      9  O   UNL     1      -7.834  13.189  15.818  1.00  0.00    -0.288 OA
ATOM     10  C   UNL     1      -6.267  11.888  17.046  1.00  0.00     0.076 A 
ATOM     11  C   UNL     1      -4.871  11.697  17.168  1.00  0.00     0.041 A 
ATOM     12  C   UNL     1      -3.944  12.811  16.859  1.00  0.00     0.194 C 
ATOM     13  O   UNL     1      -2.699  12.610  16.844  1.00  0.00    -0.289 OA
ATOM     14  C   UNL     1      -4.370  10.453  17.586  1.00  0.00     0.059 A 
ATOM     15  C   UNL     1      -5.238   9.407  17.898  1.00  0.00     0.120 A 
ATOM     16  C   UNL     1      -6.620   9.603  17.818  1.00  0.00     0.093 A 
ATOM     17  C   UNL     1      -7.144  10.838  17.424  1.00  0.00     0.131 A 
ENDROOT
BRANCH   6  18
ATOM     18  O   UNL     1      -7.741  15.973  16.323  1.00  0.00    -0.507 OA
ATOM     19  H   UNL     1      -8.364  15.760  15.555  1.00  0.00     0.293 HD
ENDBRANCH   6  18
BRANCH  17  20
ATOM     20  O   UNL     1      -8.532  10.988  17.455  1.00  0.00    -0.507 OA
ATOM     21  H   UNL     1      -9.085  11.242  16.647  1.00  0.00     0.293 HD
ENDBRANCH  17  20
BRANCH  15  22
ATOM     22  O   UNL     1      -4.718   8.178  18.299  1.00  0.00    -0.508 OA
ATOM     23  H   UNL     1      -4.429   7.479  17.625  1.00  0.00     0.293 HD
ENDBRANCH  15  22
TORSDOF 3
ENDMDL
MODEL 9
REMARK VINA RESULT:    -5.913      2.624      6.614
REMARK INTER + INTRA:          -6.432
REMARK INTER:                  -6.432
REMARK INTRA:                   0.000
REMARK UNBOUND:                 0.000
REMARK SMILES Cc1cc(O)c2c(c1)C(=O)c1cc(O)cc(O)c1C2=O
REMARK SMILES IDX 1 1 2 2 8 3 7 4 6 5 4 6 3 7 19 8 20 9 18 10 11 11 9 12 10 13
REMARK SMILES IDX 12 14 13 15 15 16 16 17 5 18 17 20 14 22
REMARK H PARENT 5 19 17 21 14 23
REMARK Flexibility Score: inf
ROOT
ATOM      1  C   UNL     1      -5.869  13.770  15.361  1.00  0.00     0.044 C 
ATOM      2  C   UNL     1      -6.343  13.226  16.677  1.00  0.00    -0.047 A 
ATOM      3  C   UNL     1      -6.647  11.866  16.807  1.00  0.00     0.016 A 
ATOM      4  C   UNL     1      -7.064  11.342  18.042  1.00  0.00     0.038 A 
ATOM      5  C   UNL     1      -7.179  12.193  19.165  1.00  0.00     0.076 A 
ATOM      6  C   UNL     1      -6.788  13.551  19.046  1.00  0.00     0.127 A 
ATOM      7  C   UNL     1      -6.396  14.055  17.802  1.00  0.00     0.050 A 
ATOM      8  C   UNL     1      -7.764  11.634  20.412  1.00  0.00     0.201 C 
ATOM      9  O   UNL     1      -8.402  12.387  21.196  1.00  0.00    -0.288 OA
ATOM     10  C   UNL     1      -7.756  10.167  20.638  1.00  0.00     0.076 A 
ATOM     11  C   UNL     1      -7.639   9.318  19.513  1.00  0.00     0.041 A 
ATOM     12  C   UNL     1      -7.377   9.899  18.176  1.00  0.00     0.194 C 
ATOM     13  O   UNL     1      -7.396   9.161  17.152  1.00  0.00    -0.289 OA
ATOM     14  C   UNL     1      -7.766   7.928  19.670  1.00  0.00     0.059 A 
ATOM     15  C   UNL     1      -7.993   7.374  20.929  1.00  0.00     0.120 A 
ATOM     16  C   UNL     1      -8.069   8.204  22.050  1.00  0.00     0.093 A 
ATOM     17  C   UNL     1      -7.926   9.590  21.924  1.00  0.00     0.131 A 
ENDROOT
BRANCH   6  18
ATOM     18  O   UNL     1      -6.741  14.421  20.138  1.00  0.00    -0.507 OA
ATOM     19  H   UNL     1      -7.480  14.498  20.823  1.00  0.00     0.293 HD
ENDBRANCH   6  18
BRANCH  17  20
ATOM     20  O   UNL     1      -7.923  10.347  23.098  1.00  0.00    -0.507 OA
ATOM     21  H   UNL     1      -7.414  10.085  23.931  1.00  0.00     0.293 HD
ENDBRANCH  17  20
BRANCH  15  22
ATOM     22  O   UNL     1      -8.128   5.993  21.059  1.00  0.00    -0.508 OA
ATOM     23  H   UNL     1      -8.129   5.543  21.967  1.00  0.00     0.293 HD
ENDBRANCH  15  22
TORSDOF 3
ENDMDL
