MODEL 1
REMARK VINA RESULT:    64.658      0.000      0.000
REMARK INTER + INTRA:          89.356
REMARK INTER:                  89.227
REMARK INTRA:                   0.129
REMARK UNBOUND:                 0.129
REMARK SMILES CC[C@H](CC[C@H](C)[C@H]1CC[C@H]2C3=CC[C@H]4C[C@@H](O)CC[C@]4(C)[C@H]3CC[C@@]12C)C(C)C
REMARK SMILES IDX 5 1 4 2 3 3 2 4 1 5 28 6 29 7 30 8 6 9 7 10 8 11 9 12 26 13
REMARK SMILES IDX 10 14 11 15 25 16 27 17 12 18 24 19 23 20 13 21 21 22 14 23
REMARK SMILES IDX 15 24 20 25 22 26 16 27 19 28 17 29 18 30
REMARK H PARENT 18 31
REMARK Flexibility Score: inf
ROOT
ATOM      1  C   UNL     1     -36.616  24.148   5.701  1.00  0.00     0.004 C 
ENDROOT
BRANCH   1   2
ATOM      2  C   UNL     1     -37.918  24.468   6.475  1.00  0.00     0.004 C 
BRANCH   2   3
ATOM      3  C   UNL     1     -39.078  23.450   6.270  1.00  0.00    -0.009 C 
BRANCH   3   4
ATOM      4  C   UNL     1     -39.292  23.206   4.747  1.00  0.00     0.000 C 
ATOM      5  C   UNL     1     -39.257  24.494   3.922  1.00  0.00     0.004 C 
ENDBRANCH   3   4
BRANCH   3   6
ATOM      6  C   UNL     1     -38.851  22.124   7.073  1.00  0.00    -0.014 C 
ATOM      7  C   UNL     1     -37.713  22.250   8.108  1.00  0.00     0.007 C 
ATOM      8  C   UNL     1     -40.125  21.596   7.749  1.00  0.00     0.007 C 
ENDBRANCH   3   6
ENDBRANCH   2   3
ENDBRANCH   1   2
BRANCH   1   9
ATOM      9  C   UNL     1     -35.330  24.383   6.542  1.00  0.00    -0.011 C 
ATOM     10  C   UNL     1     -35.636  24.299   8.051  1.00  0.00     0.008 C 
BRANCH   9  11
ATOM     11  C   UNL     1     -34.598  25.718   6.099  1.00  0.00    -0.002 C 
ATOM     12  C   UNL     1     -34.605  26.886   7.105  1.00  0.00     0.005 C 
ATOM     13  C   UNL     1     -33.099  25.580   5.683  1.00  0.00    -0.023 C 
ATOM     14  C   UNL     1     -33.418  27.783   6.739  1.00  0.00     0.009 C 
ATOM     15  C   UNL     1     -32.650  27.061   5.628  1.00  0.00     0.021 C 
ATOM     16  C   UNL     1     -32.284  24.746   6.732  1.00  0.00     0.008 C 
ATOM     17  C   UNL     1     -32.986  24.923   4.284  1.00  0.00     0.012 C 
ATOM     18  C   UNL     1     -31.151  27.303   5.703  1.00  0.00    -0.067 C 
ATOM     19  C   UNL     1     -30.834  25.201   7.030  1.00  0.00     0.009 C 
ATOM     20  C   UNL     1     -30.209  26.136   5.972  1.00  0.00     0.021 C 
ATOM     21  C   UNL     1     -30.692  28.542   5.396  1.00  0.00    -0.027 C 
ATOM     22  C   UNL     1     -28.740  26.600   6.329  1.00  0.00    -0.023 C 
ATOM     23  C   UNL     1     -29.236  28.914   5.363  1.00  0.00     0.031 C 
ATOM     24  C   UNL     1     -28.328  27.678   5.275  1.00  0.00     0.002 C 
ATOM     25  C   UNL     1     -27.757  25.392   6.215  1.00  0.00     0.010 C 
ATOM     26  C   UNL     1     -28.688  27.172   7.780  1.00  0.00     0.012 C 
ATOM     27  C   UNL     1     -26.839  28.082   5.347  1.00  0.00     0.036 C 
ATOM     28  C   UNL     1     -26.275  25.811   6.296  1.00  0.00     0.032 C 
ATOM     29  C   UNL     1     -25.931  26.855   5.216  1.00  0.00     0.114 C 
BRANCH  29  30
ATOM     30  O   UNL     1     -24.582  27.238   5.292  1.00  0.00    -0.393 OA
ATOM     31  H   UNL     1     -24.497  27.913   6.019  1.00  0.00     0.210 HD
ENDBRANCH  29  30
ENDBRANCH   9  11
ENDBRANCH   1   9
TORSDOF 7
ENDMDL
MODEL 2
REMARK VINA RESULT:    64.959      0.854      1.736
REMARK INTER + INTRA:          89.773
REMARK INTER:                  90.395
REMARK INTRA:                  -0.622
REMARK UNBOUND:                 0.129
REMARK SMILES CC[C@H](CC[C@H](C)[C@H]1CC[C@H]2C3=CC[C@H]4C[C@@H](O)CC[C@]4(C)[C@H]3CC[C@@]12C)C(C)C
REMARK SMILES IDX 5 1 4 2 3 3 2 4 1 5 28 6 29 7 30 8 6 9 7 10 8 11 9 12 26 13
REMARK SMILES IDX 10 14 11 15 25 16 27 17 12 18 24 19 23 20 13 21 21 22 14 23
REMARK SMILES IDX 15 24 20 25 22 26 16 27 19 28 17 29 18 30
REMARK H PARENT 18 31
REMARK Flexibility Score: inf
ROOT
ATOM      1  C   UNL     1     -36.818  23.860   5.718  1.00  0.00     0.004 C 
ENDROOT
BRANCH   1   2
ATOM      2  C   UNL     1     -38.085  23.471   6.520  1.00  0.00     0.004 C 
BRANCH   2   3
ATOM      3  C   UNL     1     -39.424  24.026   5.952  1.00  0.00    -0.009 C 
BRANCH   3   4
ATOM      4  C   UNL     1     -39.707  25.430   6.565  1.00  0.00     0.000 C 
ATOM      5  C   UNL     1     -38.432  26.213   6.885  1.00  0.00     0.004 C 
ENDBRANCH   3   4
BRANCH   3   6
ATOM      6  C   UNL     1     -39.447  24.029   4.386  1.00  0.00    -0.014 C 
ATOM      7  C   UNL     1     -40.108  22.761   3.804  1.00  0.00     0.007 C 
ATOM      8  C   UNL     1     -40.097  25.286   3.789  1.00  0.00     0.007 C 
ENDBRANCH   3   6
ENDBRANCH   2   3
ENDBRANCH   1   2
BRANCH   1   9
ATOM      9  C   UNL     1     -35.603  24.203   6.624  1.00  0.00    -0.011 C 
ATOM     10  C   UNL     1     -36.001  24.180   8.114  1.00  0.00     0.008 C 
BRANCH   9  11
ATOM     11  C   UNL     1     -34.907  25.548   6.155  1.00  0.00    -0.002 C 
ATOM     12  C   UNL     1     -34.956  26.738   7.135  1.00  0.00     0.005 C 
ATOM     13  C   UNL     1     -33.401  25.446   5.754  1.00  0.00    -0.023 C 
ATOM     14  C   UNL     1     -33.793  27.661   6.756  1.00  0.00     0.009 C 
ATOM     15  C   UNL     1     -32.995  26.938   5.668  1.00  0.00     0.021 C 
ATOM     16  C   UNL     1     -32.570  24.660   6.827  1.00  0.00     0.008 C 
ATOM     17  C   UNL     1     -33.257  24.760   4.371  1.00  0.00     0.012 C 
ATOM     18  C   UNL     1     -31.505  27.226   5.748  1.00  0.00    -0.067 C 
ATOM     19  C   UNL     1     -31.136  25.165   7.125  1.00  0.00     0.009 C 
ATOM     20  C   UNL     1     -30.531  26.094   6.050  1.00  0.00     0.021 C 
ATOM     21  C   UNL     1     -31.080  28.470   5.416  1.00  0.00    -0.027 C 
ATOM     22  C   UNL     1     -29.079  26.609   6.408  1.00  0.00    -0.023 C 
ATOM     23  C   UNL     1     -29.636  28.884   5.384  1.00  0.00     0.031 C 
ATOM     24  C   UNL     1     -28.691  27.674   5.332  1.00  0.00     0.002 C 
ATOM     25  C   UNL     1     -28.059  25.428   6.328  1.00  0.00     0.010 C 
ATOM     26  C   UNL     1     -29.056  27.215   7.846  1.00  0.00     0.012 C 
ATOM     27  C   UNL     1     -27.215  28.124   5.406  1.00  0.00     0.036 C 
ATOM     28  C   UNL     1     -26.591  25.893   6.410  1.00  0.00     0.032 C 
ATOM     29  C   UNL     1     -26.270  26.922   5.309  1.00  0.00     0.114 C 
BRANCH  29  30
ATOM     30  O   UNL     1     -24.934  27.347   5.386  1.00  0.00    -0.393 OA
ATOM     31  H   UNL     1     -24.408  26.624   5.826  1.00  0.00     0.210 HD
ENDBRANCH  29  30
ENDBRANCH   9  11
ENDBRANCH   1   9
TORSDOF 7
ENDMDL
MODEL 3
REMARK VINA RESULT:    65.528      4.620      8.658
REMARK INTER + INTRA:          90.558
REMARK INTER:                  87.120
REMARK INTRA:                   3.437
REMARK UNBOUND:                 0.129
REMARK SMILES CC[C@H](CC[C@H](C)[C@H]1CC[C@H]2C3=CC[C@H]4C[C@@H](O)CC[C@]4(C)[C@H]3CC[C@@]12C)C(C)C
REMARK SMILES IDX 5 1 4 2 3 3 2 4 1 5 28 6 29 7 30 8 6 9 7 10 8 11 9 12 26 13
REMARK SMILES IDX 10 14 11 15 25 16 27 17 12 18 24 19 23 20 13 21 21 22 14 23
REMARK SMILES IDX 15 24 20 25 22 26 16 27 19 28 17 29 18 30
REMARK H PARENT 18 31
REMARK Flexibility Score: inf
ROOT
ATOM      1  C   UNL     1     -36.559  22.257   7.551  1.00  0.00     0.004 C 
ENDROOT
BRANCH   1   2
ATOM      2  C   UNL     1     -36.120  23.701   7.900  1.00  0.00     0.004 C 
BRANCH   2   3
ATOM      3  C   UNL     1     -34.966  24.272   7.025  1.00  0.00    -0.009 C 
BRANCH   3   4
ATOM      4  C   UNL     1     -35.268  23.997   5.522  1.00  0.00     0.000 C 
ATOM      5  C   UNL     1     -34.025  24.086   4.635  1.00  0.00     0.004 C 
ENDBRANCH   3   4
BRANCH   3   6
ATOM      6  C   UNL     1     -34.690  25.785   7.323  1.00  0.00    -0.014 C 
ATOM      7  C   UNL     1     -33.597  26.375   6.407  1.00  0.00     0.007 C 
ATOM      8  C   UNL     1     -35.953  26.657   7.270  1.00  0.00     0.007 C 
ENDBRANCH   3   6
ENDBRANCH   2   3
ENDBRANCH   1   2
BRANCH   1   9
ATOM      9  C   UNL     1     -38.090  22.033   7.690  1.00  0.00    -0.011 C 
ATOM     10  C   UNL     1     -38.526  20.739   6.973  1.00  0.00     0.008 C 
BRANCH   9  11
ATOM     11  C   UNL     1     -38.895  23.326   7.248  1.00  0.00    -0.002 C 
ATOM     12  C   UNL     1     -38.373  24.683   7.763  1.00  0.00     0.005 C 
ATOM     13  C   UNL     1     -39.069  23.541   5.711  1.00  0.00    -0.023 C 
ATOM     14  C   UNL     1     -38.901  25.747   6.795  1.00  0.00     0.009 C 
ATOM     15  C   UNL     1     -39.595  24.997   5.654  1.00  0.00     0.021 C 
ATOM     16  C   UNL     1     -37.711  23.365   4.946  1.00  0.00     0.008 C 
ATOM     17  C   UNL     1     -40.124  22.557   5.144  1.00  0.00     0.012 C 
ATOM     18  C   UNL     1     -39.448  25.704   4.316  1.00  0.00    -0.067 C 
ATOM     19  C   UNL     1     -37.437  24.317   3.755  1.00  0.00     0.009 C 
ATOM     20  C   UNL     1     -38.683  25.029   3.184  1.00  0.00     0.021 C 
ATOM     21  C   UNL     1     -40.121  26.867   4.136  1.00  0.00    -0.027 C 
ATOM     22  C   UNL     1     -38.354  26.013   1.990  1.00  0.00    -0.023 C 
ATOM     23  C   UNL     1     -40.125  27.645   2.850  1.00  0.00     0.031 C 
ATOM     24  C   UNL     1     -39.670  26.788   1.658  1.00  0.00     0.002 C 
ATOM     25  C   UNL     1     -37.926  25.197   0.729  1.00  0.00     0.010 C 
ATOM     26  C   UNL     1     -37.203  26.988   2.390  1.00  0.00     0.012 C 
ATOM     27  C   UNL     1     -39.584  27.638   0.371  1.00  0.00     0.036 C 
ATOM     28  C   UNL     1     -37.838  26.060  -0.546  1.00  0.00     0.032 C 
ATOM     29  C   UNL     1     -39.173  26.776  -0.828  1.00  0.00     0.114 C 
BRANCH  29  30
ATOM     30  O   UNL     1     -39.091  27.564  -1.987  1.00  0.00    -0.393 OA
ATOM     31  H   UNL     1     -39.889  27.364  -2.549  1.00  0.00     0.210 HD
ENDBRANCH  29  30
ENDBRANCH   9  11
ENDBRANCH   1   9
TORSDOF 7
ENDMDL
MODEL 4
REMARK VINA RESULT:    67.575      6.545      8.421
REMARK INTER + INTRA:          93.382
REMARK INTER:                  92.248
REMARK INTRA:                   1.134
REMARK UNBOUND:                 0.129
REMARK SMILES CC[C@H](CC[C@H](C)[C@H]1CC[C@H]2C3=CC[C@H]4C[C@@H](O)CC[C@]4(C)[C@H]3CC[C@@]12C)C(C)C
REMARK SMILES IDX 5 1 4 2 3 3 2 4 1 5 28 6 29 7 30 8 6 9 7 10 8 11 9 12 26 13
REMARK SMILES IDX 10 14 11 15 25 16 27 17 12 18 24 19 23 20 13 21 21 22 14 23
REMARK SMILES IDX 15 24 20 25 22 26 16 27 19 28 17 29 18 30
REMARK H PARENT 18 31
REMARK Flexibility Score: inf
ROOT
ATOM      1  C   UNL     1     -38.288  25.077   3.254  1.00  0.00     0.004 C 
ENDROOT
BRANCH   1   2
ATOM      2  C   UNL     1     -38.318  23.957   4.323  1.00  0.00     0.004 C 
BRANCH   2   3
ATOM      3  C   UNL     1     -38.644  24.431   5.769  1.00  0.00    -0.009 C 
BRANCH   3   4
ATOM      4  C   UNL     1     -40.050  25.100   5.793  1.00  0.00     0.000 C 
ATOM      5  C   UNL     1     -40.125  26.369   4.941  1.00  0.00     0.004 C 
ENDBRANCH   3   4
BRANCH   3   6
ATOM      6  C   UNL     1     -38.503  23.275   6.818  1.00  0.00    -0.014 C 
ATOM      7  C   UNL     1     -37.163  23.333   7.581  1.00  0.00     0.007 C 
ATOM      8  C   UNL     1     -39.674  23.204   7.808  1.00  0.00     0.007 C 
ENDBRANCH   3   6
ENDBRANCH   2   3
ENDBRANCH   1   2
BRANCH   1   9
ATOM      9  C   UNL     1     -37.651  24.624   1.911  1.00  0.00    -0.011 C 
ATOM     10  C   UNL     1     -36.119  24.509   2.037  1.00  0.00     0.008 C 
BRANCH   9  11
ATOM     11  C   UNL     1     -38.140  25.541   0.713  1.00  0.00    -0.002 C 
ATOM     12  C   UNL     1     -39.015  26.757   1.078  1.00  0.00     0.005 C 
ATOM     13  C   UNL     1     -37.025  26.134  -0.205  1.00  0.00    -0.023 C 
ATOM     14  C   UNL     1     -38.874  27.756  -0.076  1.00  0.00     0.009 C 
ATOM     15  C   UNL     1     -37.815  27.184  -1.023  1.00  0.00     0.021 C 
ATOM     16  C   UNL     1     -35.866  26.777   0.635  1.00  0.00     0.008 C 
ATOM     17  C   UNL     1     -36.452  25.035  -1.136  1.00  0.00     0.012 C 
ATOM     18  C   UNL     1     -36.984  28.268  -1.691  1.00  0.00    -0.067 C 
ATOM     19  C   UNL     1     -35.227  28.077   0.086  1.00  0.00     0.009 C 
ATOM     20  C   UNL     1     -35.489  28.355  -1.410  1.00  0.00     0.021 C 
ATOM     21  C   UNL     1     -37.587  29.046  -2.623  1.00  0.00    -0.027 C 
ATOM     22  C   UNL     1     -34.843  29.706  -1.922  1.00  0.00    -0.023 C 
ATOM     23  C   UNL     1     -36.880  30.112  -3.412  1.00  0.00     0.031 C 
ATOM     24  C   UNL     1     -35.354  29.936  -3.381  1.00  0.00     0.002 C 
ATOM     25  C   UNL     1     -33.287  29.574  -1.954  1.00  0.00     0.010 C 
ATOM     26  C   UNL     1     -35.242  30.888  -0.984  1.00  0.00     0.012 C 
ATOM     27  C   UNL     1     -34.649  31.101  -4.110  1.00  0.00     0.036 C 
ATOM     28  C   UNL     1     -32.599  30.748  -2.680  1.00  0.00     0.032 C 
ATOM     29  C   UNL     1     -33.130  30.903  -4.118  1.00  0.00     0.114 C 
BRANCH  29  30
ATOM     30  O   UNL     1     -32.504  31.974  -4.777  1.00  0.00    -0.393 OA
ATOM     31  H   UNL     1     -31.825  32.359  -4.158  1.00  0.00     0.210 HD
ENDBRANCH  29  30
ENDBRANCH   9  11
ENDBRANCH   1   9
TORSDOF 7
ENDMDL
