MODEL 1
REMARK VINA RESULT:    -6.234      0.000      0.000
REMARK INTER + INTRA:          -7.539
REMARK INTER:                  -7.327
REMARK INTRA:                  -0.212
REMARK UNBOUND:                -0.212
REMARK SMILES CCCC[C@@H]1OC(=O)C2=C1CCC=C2
REMARK SMILES IDX 3 1 2 2 1 3 4 4 5 5 10 6 6 7 9 8 11 9 7 10 14 11 12 12 8 13
REMARK SMILES IDX 13 14
REMARK H PARENT
REMARK Flexibility Score: inf
ROOT
ATOM      1  C   UNL     1      28.066   6.535  32.546  1.00  0.00     0.004 C 
ENDROOT
BRANCH   1   2
ATOM      2  C   UNL     1      26.890   7.424  32.978  1.00  0.00    -0.003 C 
ATOM      3  C   UNL     1      26.491   8.439  31.906  1.00  0.00     0.004 C 
ENDBRANCH   1   2
BRANCH   1   4
ATOM      4  C   UNL     1      27.610   5.283  31.782  1.00  0.00     0.050 C 
BRANCH   4   5
ATOM      5  C   UNL     1      28.694   4.196  31.794  1.00  0.00     0.204 C 
ATOM      6  C   UNL     1      28.758   3.462  30.476  1.00  0.00    -0.015 C 
ATOM      7  O   UNL     1      29.995   4.784  31.898  1.00  0.00    -0.454 OA
ATOM      8  C   UNL     1      29.934   3.641  29.897  1.00  0.00     0.062 C 
ATOM      9  C   UNL     1      27.636   2.750  29.771  1.00  0.00     0.040 C 
ATOM     10  C   UNL     1      30.729   4.464  30.770  1.00  0.00     0.338 C 
ATOM     11  C   UNL     1      30.259   3.094  28.575  1.00  0.00     0.011 C 
ATOM     12  C   UNL     1      28.185   1.732  28.743  1.00  0.00     0.032 C 
ATOM     13  O   UNL     1      31.909   4.847  30.557  1.00  0.00    -0.246 OA
ATOM     14  C   UNL     1      29.398   2.249  27.993  1.00  0.00    -0.026 C 
ENDBRANCH   4   5
ENDBRANCH   1   4
TORSDOF 3
ENDMDL
MODEL 2
REMARK VINA RESULT:    -5.506      2.348      3.514
REMARK INTER + INTRA:          -6.684
REMARK INTER:                  -6.310
REMARK INTRA:                  -0.374
REMARK UNBOUND:                -0.212
REMARK SMILES CCCC[C@@H]1OC(=O)C2=C1CCC=C2
REMARK SMILES IDX 3 1 2 2 1 3 4 4 5 5 10 6 6 7 9 8 11 9 7 10 14 11 12 12 8 13
REMARK SMILES IDX 13 14
REMARK H PARENT
REMARK Flexibility Score: inf
ROOT
ATOM      1  C   UNL     1      26.529   7.867  33.113  1.00  0.00     0.004 C 
ENDROOT
BRANCH   1   2
ATOM      2  C   UNL     1      27.362   8.992  32.480  1.00  0.00    -0.003 C 
ATOM      3  C   UNL     1      26.534   9.905  31.577  1.00  0.00     0.004 C 
ENDBRANCH   1   2
BRANCH   1   4
ATOM      4  C   UNL     1      27.300   6.541  33.204  1.00  0.00     0.050 C 
BRANCH   4   5
ATOM      5  C   UNL     1      27.809   6.096  31.826  1.00  0.00     0.204 C 
ATOM      6  C   UNL     1      29.298   5.842  31.840  1.00  0.00    -0.015 C 
ATOM      7  O   UNL     1      27.269   4.817  31.478  1.00  0.00    -0.454 OA
ATOM      8  C   UNL     1      29.560   4.574  31.568  1.00  0.00     0.062 C 
ATOM      9  C   UNL     1      30.384   6.795  32.262  1.00  0.00     0.040 C 
ATOM     10  C   UNL     1      28.304   3.910  31.333  1.00  0.00     0.338 C 
ATOM     11  C   UNL     1      30.920   4.025  31.572  1.00  0.00     0.011 C 
ATOM     12  C   UNL     1      31.752   6.367  31.680  1.00  0.00     0.032 C 
ATOM     13  O   UNL     1      28.150   2.696  31.044  1.00  0.00    -0.246 OA
ATOM     14  C   UNL     1      31.957   4.865  31.701  1.00  0.00    -0.026 C 
ENDBRANCH   4   5
ENDBRANCH   1   4
TORSDOF 3
ENDMDL
MODEL 3
REMARK VINA RESULT:    -5.377      1.421      4.535
REMARK INTER + INTRA:          -6.532
REMARK INTER:                  -6.089
REMARK INTRA:                  -0.443
REMARK UNBOUND:                -0.212
REMARK SMILES CCCC[C@@H]1OC(=O)C2=C1CCC=C2
REMARK SMILES IDX 3 1 2 2 1 3 4 4 5 5 10 6 6 7 9 8 11 9 7 10 14 11 12 12 8 13
REMARK SMILES IDX 13 14
REMARK H PARENT
REMARK Flexibility Score: inf
ROOT
ATOM      1  C   UNL     1      28.022   2.198  30.838  1.00  0.00     0.004 C 
ENDROOT
BRANCH   1   2
ATOM      2  C   UNL     1      27.737   2.834  29.468  1.00  0.00    -0.003 C 
ATOM      3  C   UNL     1      26.243   2.938  29.165  1.00  0.00     0.004 C 
ENDBRANCH   1   2
BRANCH   1   4
ATOM      4  C   UNL     1      28.988   3.039  31.688  1.00  0.00     0.050 C 
BRANCH   4   5
ATOM      5  C   UNL     1      29.387   4.332  30.965  1.00  0.00     0.204 C 
ATOM      6  C   UNL     1      28.955   5.556  31.737  1.00  0.00    -0.015 C 
ATOM      7  O   UNL     1      30.811   4.466  30.922  1.00  0.00    -0.454 OA
ATOM      8  C   UNL     1      30.005   6.270  32.109  1.00  0.00     0.062 C 
ATOM      9  C   UNL     1      27.567   5.898  32.206  1.00  0.00     0.040 C 
ATOM     10  C   UNL     1      31.181   5.609  31.607  1.00  0.00     0.338 C 
ATOM     11  C   UNL     1      29.891   7.482  32.928  1.00  0.00     0.011 C 
ATOM     12  C   UNL     1      27.441   7.410  32.507  1.00  0.00     0.032 C 
ATOM     13  O   UNL     1      32.369   5.993  31.761  1.00  0.00    -0.246 OA
ATOM     14  C   UNL     1      28.674   7.981  33.180  1.00  0.00    -0.026 C 
ENDBRANCH   4   5
ENDBRANCH   1   4
TORSDOF 3
ENDMDL
MODEL 4
REMARK VINA RESULT:    -5.363      1.427      5.111
REMARK INTER + INTRA:          -6.516
REMARK INTER:                  -6.486
REMARK INTRA:                  -0.030
REMARK UNBOUND:                -0.212
REMARK SMILES CCCC[C@@H]1OC(=O)C2=C1CCC=C2
REMARK SMILES IDX 3 1 2 2 1 3 4 4 5 5 10 6 6 7 9 8 11 9 7 10 14 11 12 12 8 13
REMARK SMILES IDX 13 14
REMARK H PARENT
REMARK Flexibility Score: inf
ROOT
ATOM      1  C   UNL     1      31.460   3.341  29.175  1.00  0.00     0.004 C 
ENDROOT
BRANCH   1   2
ATOM      2  C   UNL     1      30.155   3.454  28.371  1.00  0.00    -0.003 C 
ATOM      3  C   UNL     1      29.560   2.092  28.016  1.00  0.00     0.004 C 
ENDBRANCH   1   2
BRANCH   1   4
ATOM      4  C   UNL     1      31.616   4.468  30.208  1.00  0.00     0.050 C 
BRANCH   4   5
ATOM      5  C   UNL     1      30.840   4.156  31.495  1.00  0.00     0.204 C 
ATOM      6  C   UNL     1      29.885   5.270  31.851  1.00  0.00    -0.015 C 
ATOM      7  O   UNL     1      29.968   3.037  31.298  1.00  0.00    -0.454 OA
ATOM      8  C   UNL     1      28.634   4.842  31.826  1.00  0.00     0.062 C 
ATOM      9  C   UNL     1      30.213   6.725  32.052  1.00  0.00     0.040 C 
ATOM     10  C   UNL     1      28.658   3.444  31.485  1.00  0.00     0.338 C 
ATOM     11  C   UNL     1      27.487   5.724  32.072  1.00  0.00     0.011 C 
ATOM     12  C   UNL     1      29.107   7.434  32.869  1.00  0.00     0.032 C 
ATOM     13  O   UNL     1      27.657   2.692  31.366  1.00  0.00    -0.246 OA
ATOM     14  C   UNL     1      27.711   6.975  32.494  1.00  0.00    -0.026 C 
ENDBRANCH   4   5
ENDBRANCH   1   4
TORSDOF 3
ENDMDL
MODEL 5
REMARK VINA RESULT:    -5.145      9.606     10.986
REMARK INTER + INTRA:          -6.259
REMARK INTER:                  -6.006
REMARK INTRA:                  -0.253
REMARK UNBOUND:                -0.212
REMARK SMILES CCCC[C@@H]1OC(=O)C2=C1CCC=C2
REMARK SMILES IDX 3 1 2 2 1 3 4 4 5 5 10 6 6 7 9 8 11 9 7 10 14 11 12 12 8 13
REMARK SMILES IDX 13 14
REMARK H PARENT
REMARK Flexibility Score: inf
ROOT
ATOM      1  C   UNL     1      21.091   4.609  20.323  1.00  0.00     0.004 C 
ENDROOT
BRANCH   1   2
ATOM      2  C   UNL     1      20.479   5.980  19.995  1.00  0.00    -0.003 C 
ATOM      3  C   UNL     1      21.461   6.911  19.286  1.00  0.00     0.004 C 
ENDBRANCH   1   2
BRANCH   1   4
ATOM      4  C   UNL     1      20.769   4.147  21.754  1.00  0.00     0.050 C 
BRANCH   4   5
ATOM      5  C   UNL     1      21.988   4.296  22.675  1.00  0.00     0.204 C 
ATOM      6  C   UNL     1      22.116   3.123  23.618  1.00  0.00    -0.015 C 
ATOM      7  O   UNL     1      23.201   4.232  21.918  1.00  0.00    -0.454 OA
ATOM      8  C   UNL     1      23.243   2.466  23.399  1.00  0.00     0.062 C 
ATOM      9  C   UNL     1      21.081   2.608  24.582  1.00  0.00     0.040 C 
ATOM     10  C   UNL     1      23.943   3.143  22.339  1.00  0.00     0.338 C 
ATOM     11  C   UNL     1      23.605   1.245  24.128  1.00  0.00     0.011 C 
ATOM     12  C   UNL     1      21.735   1.748  25.689  1.00  0.00     0.032 C 
ATOM     13  O   UNL     1      25.056   2.810  21.855  1.00  0.00    -0.246 OA
ATOM     14  C   UNL     1      22.849   0.862  25.165  1.00  0.00    -0.026 C 
ENDBRANCH   4   5
ENDBRANCH   1   4
TORSDOF 3
ENDMDL
MODEL 6
REMARK VINA RESULT:    -5.084      9.067     10.708
REMARK INTER + INTRA:          -6.188
REMARK INTER:                  -5.736
REMARK INTRA:                  -0.452
REMARK UNBOUND:                -0.212
REMARK SMILES CCCC[C@@H]1OC(=O)C2=C1CCC=C2
REMARK SMILES IDX 3 1 2 2 1 3 4 4 5 5 10 6 6 7 9 8 11 9 7 10 14 11 12 12 8 13
REMARK SMILES IDX 13 14
REMARK H PARENT
REMARK Flexibility Score: inf
ROOT
ATOM      1  C   UNL     1      26.109   2.247  21.301  1.00  0.00     0.004 C 
ENDROOT
BRANCH   1   2
ATOM      2  C   UNL     1      26.778   1.061  22.013  1.00  0.00    -0.003 C 
ATOM      3  C   UNL     1      27.299   1.424  23.403  1.00  0.00     0.004 C 
ENDBRANCH   1   2
BRANCH   1   4
ATOM      4  C   UNL     1      25.071   2.956  22.184  1.00  0.00     0.050 C 
BRANCH   4   5
ATOM      5  C   UNL     1      23.684   2.314  22.040  1.00  0.00     0.204 C 
ATOM      6  C   UNL     1      23.098   1.952  23.384  1.00  0.00    -0.015 C 
ATOM      7  O   UNL     1      22.742   3.260  21.523  1.00  0.00    -0.454 OA
ATOM      8  C   UNL     1      21.986   2.632  23.609  1.00  0.00     0.062 C 
ATOM      9  C   UNL     1      23.715   1.083  24.446  1.00  0.00     0.040 C 
ATOM     10  C   UNL     1      21.739   3.457  22.456  1.00  0.00     0.338 C 
ATOM     11  C   UNL     1      21.232   2.528  24.863  1.00  0.00     0.011 C 
ATOM     12  C   UNL     1      22.639   0.556  25.425  1.00  0.00     0.032 C 
ATOM     13  O   UNL     1      20.770   4.245  22.302  1.00  0.00    -0.246 OA
ATOM     14  C   UNL     1      21.587   1.596  25.758  1.00  0.00    -0.026 C 
ENDBRANCH   4   5
ENDBRANCH   1   4
TORSDOF 3
ENDMDL
MODEL 7
REMARK VINA RESULT:    -4.958     15.078     16.341
REMARK INTER + INTRA:          -6.040
REMARK INTER:                  -5.807
REMARK INTRA:                  -0.233
REMARK UNBOUND:                -0.212
REMARK SMILES CCCC[C@@H]1OC(=O)C2=C1CCC=C2
REMARK SMILES IDX 3 1 2 2 1 3 4 4 5 5 10 6 6 7 9 8 11 9 7 10 14 11 12 12 8 13
REMARK SMILES IDX 13 14
REMARK H PARENT
REMARK Flexibility Score: inf
ROOT
ATOM      1  C   UNL     1      30.193  15.411  18.151  1.00  0.00     0.004 C 
ENDROOT
BRANCH   1   2
ATOM      2  C   UNL     1      31.569  15.871  18.657  1.00  0.00    -0.003 C 
ATOM      3  C   UNL     1      31.509  16.487  20.055  1.00  0.00     0.004 C 
ENDBRANCH   1   2
BRANCH   1   4
ATOM      4  C   UNL     1      29.054  15.788  19.112  1.00  0.00     0.050 C 
BRANCH   4   5
ATOM      5  C   UNL     1      27.697  15.784  18.396  1.00  0.00     0.204 C 
ATOM      6  C   UNL     1      26.844  14.615  18.830  1.00  0.00    -0.015 C 
ATOM      7  O   UNL     1      26.915  16.916  18.792  1.00  0.00    -0.454 OA
ATOM      8  C   UNL     1      25.740  15.035  19.424  1.00  0.00     0.062 C 
ATOM      9  C   UNL     1      27.205  13.155  18.785  1.00  0.00     0.040 C 
ATOM     10  C   UNL     1      25.758  16.475  19.410  1.00  0.00     0.338 C 
ATOM     11  C   UNL     1      24.752  14.119  20.004  1.00  0.00     0.011 C 
ATOM     12  C   UNL     1      25.937  12.270  18.837  1.00  0.00     0.032 C 
ATOM     13  O   UNL     1      24.872  17.232  19.885  1.00  0.00    -0.246 OA
ATOM     14  C   UNL     1      24.885  12.803  19.790  1.00  0.00    -0.026 C 
ENDBRANCH   4   5
ENDBRANCH   1   4
TORSDOF 3
ENDMDL
MODEL 8
REMARK VINA RESULT:    -4.795      9.667     11.378
REMARK INTER + INTRA:          -5.849
REMARK INTER:                  -5.288
REMARK INTRA:                  -0.560
REMARK UNBOUND:                -0.212
REMARK SMILES CCCC[C@@H]1OC(=O)C2=C1CCC=C2
REMARK SMILES IDX 3 1 2 2 1 3 4 4 5 5 10 6 6 7 9 8 11 9 7 10 14 11 12 12 8 13
REMARK SMILES IDX 13 14
REMARK H PARENT
REMARK Flexibility Score: inf
ROOT
ATOM      1  C   UNL     1      23.605   1.367  24.599  1.00  0.00     0.004 C 
ENDROOT
BRANCH   1   2
ATOM      2  C   UNL     1      22.360   1.243  25.491  1.00  0.00    -0.003 C 
ATOM      3  C   UNL     1      21.236   2.191  25.074  1.00  0.00     0.004 C 
ENDBRANCH   1   2
BRANCH   1   4
ATOM      4  C   UNL     1      23.372   0.819  23.182  1.00  0.00     0.050 C 
BRANCH   4   5
ATOM      5  C   UNL     1      23.594   1.906  22.121  1.00  0.00     0.204 C 
ATOM      6  C   UNL     1      22.346   2.148  21.306  1.00  0.00    -0.015 C 
ATOM      7  O   UNL     1      23.824   3.175  22.741  1.00  0.00    -0.454 OA
ATOM      8  C   UNL     1      21.911   3.386  21.471  1.00  0.00     0.062 C 
ATOM      9  C   UNL     1      21.553   1.134  20.527  1.00  0.00     0.040 C 
ATOM     10  C   UNL     1      22.822   4.053  22.364  1.00  0.00     0.338 C 
ATOM     11  C   UNL     1      20.680   3.885  20.847  1.00  0.00     0.011 C 
ATOM     12  C   UNL     1      20.673   1.823  19.457  1.00  0.00     0.032 C 
ATOM     13  O   UNL     1      22.736   5.245  22.757  1.00  0.00    -0.246 OA
ATOM     14  C   UNL     1      20.051   3.115  19.949  1.00  0.00    -0.026 C 
ENDBRANCH   4   5
ENDBRANCH   1   4
TORSDOF 3
ENDMDL
