MODEL 1
REMARK VINA RESULT:    -4.466      0.000      0.000
REMARK INTER + INTRA:          -5.776
REMARK INTER:                  -5.249
REMARK INTRA:                  -0.527
REMARK UNBOUND:                -0.527
REMARK SMILES C=C[C@]1(C)CC[C@H](C(=C)C)C[C@H]1C(=C)C
REMARK SMILES IDX 7 1 6 2 5 3 3 4 12 5 11 6 4 7 8 8 10 9 9 10 13 11 14 12
REMARK SMILES IDX 15 13 2 14 1 15
REMARK H PARENT
REMARK Flexibility Score: inf
ROOT
ATOM      1  C   UNL     1      -9.150  23.419  -7.829  1.00  0.00     0.015 C 
ATOM      2  C   UNL     1      -9.670  22.703  -9.086  1.00  0.00     0.009 C 
ATOM      3  C   UNL     1      -8.967  21.354  -9.303  1.00  0.00     0.012 C 
ATOM      4  C   UNL     1      -7.416  21.474  -9.378  1.00  0.00    -0.008 C 
ATOM      5  C   UNL     1      -6.842  22.287  -8.152  1.00  0.00     0.024 C 
ATOM      6  C   UNL     1      -7.621  23.596  -7.876  1.00  0.00     0.017 C 
ATOM      7  C   UNL     1      -6.824  20.044  -9.430  1.00  0.00     0.016 C 
ENDROOT
BRANCH   1   8
ATOM      8  C   UNL     1      -9.848  24.762  -7.639  1.00  0.00    -0.077 C 
ATOM      9  C   UNL     1     -10.054  25.358  -6.267  1.00  0.00     0.039 C 
ATOM     10  C   UNL     1     -10.304  25.442  -8.704  1.00  0.00     0.008 C 
ENDBRANCH   1   8
BRANCH   5  11
ATOM     11  C   UNL     1      -6.566  21.481  -6.870  1.00  0.00    -0.077 C 
ATOM     12  C   UNL     1      -7.522  21.152  -5.984  1.00  0.00     0.008 C 
ATOM     13  C   UNL     1      -5.159  21.021  -6.567  1.00  0.00     0.039 C 
ENDBRANCH   5  11
BRANCH   4  14
ATOM     14  C   UNL     1      -7.053  22.181 -10.690  1.00  0.00    -0.028 C 
ATOM     15  C   UNL     1      -5.810  22.579 -10.996  1.00  0.00     0.004 C 
ENDBRANCH   4  14
TORSDOF 3
ENDMDL
MODEL 2
REMARK VINA RESULT:    -4.395      1.610      3.394
REMARK INTER + INTRA:          -5.692
REMARK INTER:                  -5.189
REMARK INTRA:                  -0.503
REMARK UNBOUND:                -0.527
REMARK SMILES C=C[C@]1(C)CC[C@H](C(=C)C)C[C@H]1C(=C)C
REMARK SMILES IDX 7 1 6 2 5 3 3 4 12 5 11 6 4 7 8 8 10 9 9 10 13 11 14 12
REMARK SMILES IDX 15 13 2 14 1 15
REMARK H PARENT
REMARK Flexibility Score: inf
ROOT
ATOM      1  C   UNL     1      -8.574  21.761  -6.984  1.00  0.00     0.015 C 
ATOM      2  C   UNL     1      -9.986  22.054  -7.516  1.00  0.00     0.009 C 
ATOM      3  C   UNL     1     -10.029  22.040  -9.052  1.00  0.00     0.012 C 
ATOM      4  C   UNL     1      -9.014  23.025  -9.705  1.00  0.00    -0.008 C 
ATOM      5  C   UNL     1      -7.561  22.825  -9.119  1.00  0.00     0.024 C 
ATOM      6  C   UNL     1      -7.539  22.738  -7.573  1.00  0.00     0.017 C 
ATOM      7  C   UNL     1      -9.038  22.796 -11.236  1.00  0.00     0.016 C 
ENDROOT
BRANCH   1   8
ATOM      8  C   UNL     1      -8.548  21.795  -5.460  1.00  0.00    -0.077 C 
ATOM      9  C   UNL     1      -9.800  22.041  -4.654  1.00  0.00     0.039 C 
ATOM     10  C   UNL     1      -7.391  21.613  -4.800  1.00  0.00     0.008 C 
ENDBRANCH   1   8
BRANCH   5  11
ATOM     11  C   UNL     1      -6.702  21.736  -9.786  1.00  0.00    -0.077 C 
ATOM     12  C   UNL     1      -6.802  20.430  -9.486  1.00  0.00     0.008 C 
ATOM     13  C   UNL     1      -5.688  22.126 -10.837  1.00  0.00     0.039 C 
ENDBRANCH   5  11
BRANCH   4  14
ATOM     14  C   UNL     1      -9.495  24.457  -9.435  1.00  0.00    -0.028 C 
ATOM     15  C   UNL     1      -8.855  25.547  -9.881  1.00  0.00     0.004 C 
ENDBRANCH   4  14
TORSDOF 3
ENDMDL
MODEL 3
REMARK VINA RESULT:    -4.356      1.692      4.938
REMARK INTER + INTRA:          -5.647
REMARK INTER:                  -5.110
REMARK INTRA:                  -0.537
REMARK UNBOUND:                -0.527
REMARK SMILES C=C[C@]1(C)CC[C@H](C(=C)C)C[C@H]1C(=C)C
REMARK SMILES IDX 7 1 6 2 5 3 3 4 12 5 11 6 4 7 8 8 10 9 9 10 13 11 14 12
REMARK SMILES IDX 15 13 2 14 1 15
REMARK H PARENT
REMARK Flexibility Score: inf
ROOT
ATOM      1  C   UNL     1      -6.194  21.544  -9.000  1.00  0.00     0.015 C 
ATOM      2  C   UNL     1      -7.326  20.514  -9.137  1.00  0.00     0.009 C 
ATOM      3  C   UNL     1      -8.686  21.191  -9.369  1.00  0.00     0.012 C 
ATOM      4  C   UNL     1      -9.055  22.224  -8.263  1.00  0.00    -0.008 C 
ATOM      5  C   UNL     1      -7.880  23.250  -8.018  1.00  0.00     0.024 C 
ATOM      6  C   UNL     1      -6.497  22.566  -7.888  1.00  0.00     0.017 C 
ATOM      7  C   UNL     1     -10.353  22.949  -8.695  1.00  0.00     0.016 C 
ENDROOT
BRANCH   1   8
ATOM      8  C   UNL     1      -4.856  20.854  -8.755  1.00  0.00    -0.077 C 
ATOM      9  C   UNL     1      -4.732  19.350  -8.754  1.00  0.00     0.039 C 
ATOM     10  C   UNL     1      -3.752  21.584  -8.523  1.00  0.00     0.008 C 
ENDBRANCH   1   8
BRANCH   5  11
ATOM     11  C   UNL     1      -7.846  24.480  -8.942  1.00  0.00    -0.077 C 
ATOM     12  C   UNL     1      -7.503  24.420 -10.240  1.00  0.00     0.008 C 
ATOM     13  C   UNL     1      -8.217  25.837  -8.390  1.00  0.00     0.039 C 
ENDBRANCH   5  11
BRANCH   4  14
ATOM     14  C   UNL     1      -9.354  21.454  -6.970  1.00  0.00    -0.028 C 
ATOM     15  C   UNL     1      -9.714  22.047  -5.823  1.00  0.00     0.004 C 
ENDBRANCH   4  14
TORSDOF 3
ENDMDL
MODEL 4
REMARK VINA RESULT:    -4.354      1.535      2.448
REMARK INTER + INTRA:          -5.644
REMARK INTER:                  -5.190
REMARK INTRA:                  -0.454
REMARK UNBOUND:                -0.527
REMARK SMILES C=C[C@]1(C)CC[C@H](C(=C)C)C[C@H]1C(=C)C
REMARK SMILES IDX 7 1 6 2 5 3 3 4 12 5 11 6 4 7 8 8 10 9 9 10 13 11 14 12
REMARK SMILES IDX 15 13 2 14 1 15
REMARK H PARENT
REMARK Flexibility Score: inf
ROOT
ATOM      1  C   UNL     1      -8.666  22.258  -8.080  1.00  0.00     0.015 C 
ATOM      2  C   UNL     1      -9.084  23.040  -9.335  1.00  0.00     0.009 C 
ATOM      3  C   UNL     1      -8.200  22.693 -10.542  1.00  0.00     0.012 C 
ATOM      4  C   UNL     1      -6.682  22.913 -10.276  1.00  0.00    -0.008 C 
ATOM      5  C   UNL     1      -6.222  22.204  -8.942  1.00  0.00     0.024 C 
ATOM      6  C   UNL     1      -7.177  22.477  -7.753  1.00  0.00     0.017 C 
ATOM      7  C   UNL     1      -5.895  22.374 -11.497  1.00  0.00     0.016 C 
ENDROOT
BRANCH   1   8
ATOM      8  C   UNL     1      -9.544  22.628  -6.889  1.00  0.00    -0.077 C 
ATOM      9  C   UNL     1      -9.788  24.068  -6.505  1.00  0.00     0.039 C 
ATOM     10  C   UNL     1     -10.116  21.665  -6.147  1.00  0.00     0.008 C 
ENDBRANCH   1   8
BRANCH   5  11
ATOM     11  C   UNL     1      -5.832  20.720  -9.058  1.00  0.00    -0.077 C 
ATOM     12  C   UNL     1      -6.659  19.774  -9.534  1.00  0.00     0.008 C 
ATOM     13  C   UNL     1      -4.454  20.275  -8.626  1.00  0.00     0.039 C 
ENDBRANCH   5  11
BRANCH   4  14
ATOM     14  C   UNL     1      -6.426  24.422 -10.181  1.00  0.00    -0.028 C 
ATOM     15  C   UNL     1      -5.264  24.950  -9.771  1.00  0.00     0.004 C 
ENDBRANCH   4  14
TORSDOF 3
ENDMDL
MODEL 5
REMARK VINA RESULT:    -4.328      1.732      4.860
REMARK INTER + INTRA:          -5.614
REMARK INTER:                  -5.161
REMARK INTRA:                  -0.453
REMARK UNBOUND:                -0.527
REMARK SMILES C=C[C@]1(C)CC[C@H](C(=C)C)C[C@H]1C(=C)C
REMARK SMILES IDX 7 1 6 2 5 3 3 4 12 5 11 6 4 7 8 8 10 9 9 10 13 11 14 12
REMARK SMILES IDX 15 13 2 14 1 15
REMARK H PARENT
REMARK Flexibility Score: inf
ROOT
ATOM      1  C   UNL     1      -5.334  21.482  -8.617  1.00  0.00     0.015 C 
ATOM      2  C   UNL     1      -5.995  20.888  -9.870  1.00  0.00     0.009 C 
ATOM      3  C   UNL     1      -6.827  21.936 -10.625  1.00  0.00     0.012 C 
ATOM      4  C   UNL     1      -7.913  22.615  -9.738  1.00  0.00    -0.008 C 
ATOM      5  C   UNL     1      -7.297  23.159  -8.389  1.00  0.00     0.024 C 
ATOM      6  C   UNL     1      -6.376  22.131  -7.687  1.00  0.00     0.017 C 
ATOM      7  C   UNL     1      -8.563  23.756 -10.558  1.00  0.00     0.016 C 
ENDROOT
BRANCH   1   8
ATOM      8  C   UNL     1      -4.526  20.423  -7.873  1.00  0.00    -0.077 C 
ATOM      9  C   UNL     1      -4.148  19.116  -8.526  1.00  0.00     0.039 C 
ATOM     10  C   UNL     1      -4.140  20.637  -6.604  1.00  0.00     0.008 C 
ENDBRANCH   1   8
BRANCH   5  11
ATOM     11  C   UNL     1      -6.678  24.567  -8.443  1.00  0.00    -0.077 C 
ATOM     12  C   UNL     1      -5.525  24.844  -9.076  1.00  0.00     0.008 C 
ATOM     13  C   UNL     1      -7.382  25.717  -7.761  1.00  0.00     0.039 C 
ENDBRANCH   5  11
BRANCH   4  14
ATOM     14  C   UNL     1      -9.001  21.576  -9.433  1.00  0.00    -0.028 C 
ATOM     15  C   UNL     1     -10.257  21.666  -9.891  1.00  0.00     0.004 C 
ENDBRANCH   4  14
TORSDOF 3
ENDMDL
MODEL 6
REMARK VINA RESULT:    -4.315      2.046      3.079
REMARK INTER + INTRA:          -5.599
REMARK INTER:                  -5.137
REMARK INTRA:                  -0.461
REMARK UNBOUND:                -0.527
REMARK SMILES C=C[C@]1(C)CC[C@H](C(=C)C)C[C@H]1C(=C)C
REMARK SMILES IDX 7 1 6 2 5 3 3 4 12 5 11 6 4 7 8 8 10 9 9 10 13 11 14 12
REMARK SMILES IDX 15 13 2 14 1 15
REMARK H PARENT
REMARK Flexibility Score: inf
ROOT
ATOM      1  C   UNL     1      -7.960  21.625  -9.270  1.00  0.00     0.015 C 
ATOM      2  C   UNL     1      -7.606  22.643 -10.366  1.00  0.00     0.009 C 
ATOM      3  C   UNL     1      -6.095  22.678 -10.642  1.00  0.00     0.012 C 
ATOM      4  C   UNL     1      -5.244  22.968  -9.370  1.00  0.00    -0.008 C 
ATOM      5  C   UNL     1      -5.639  22.006  -8.182  1.00  0.00     0.024 C 
ATOM      6  C   UNL     1      -7.170  21.897  -7.976  1.00  0.00     0.017 C 
ATOM      7  C   UNL     1      -3.749  22.812  -9.744  1.00  0.00     0.016 C 
ENDROOT
BRANCH   1   8
ATOM      8  C   UNL     1      -9.461  21.616  -8.999  1.00  0.00    -0.077 C 
ATOM      9  C   UNL     1     -10.010  21.631  -7.593  1.00  0.00     0.039 C 
ATOM     10  C   UNL     1     -10.331  21.586 -10.023  1.00  0.00     0.008 C 
ENDBRANCH   1   8
BRANCH   5  11
ATOM     11  C   UNL     1      -4.939  20.635  -8.152  1.00  0.00    -0.077 C 
ATOM     12  C   UNL     1      -5.212  19.648  -9.021  1.00  0.00     0.008 C 
ATOM     13  C   UNL     1      -3.884  20.360  -7.106  1.00  0.00     0.039 C 
ENDBRANCH   5  11
BRANCH   4  14
ATOM     14  C   UNL     1      -5.477  24.428  -8.961  1.00  0.00    -0.028 C 
ATOM     15  C   UNL     1      -5.276  25.467  -9.783  1.00  0.00     0.004 C 
ENDBRANCH   4  14
TORSDOF 3
ENDMDL
MODEL 7
REMARK VINA RESULT:    -4.197      1.514      3.817
REMARK INTER + INTRA:          -5.460
REMARK INTER:                  -4.950
REMARK INTRA:                  -0.510
REMARK UNBOUND:                -0.527
REMARK SMILES C=C[C@]1(C)CC[C@H](C(=C)C)C[C@H]1C(=C)C
REMARK SMILES IDX 7 1 6 2 5 3 3 4 12 5 11 6 4 7 8 8 10 9 9 10 13 11 14 12
REMARK SMILES IDX 15 13 2 14 1 15
REMARK H PARENT
REMARK Flexibility Score: inf
ROOT
ATOM      1  C   UNL     1      -8.004  22.454  -6.375  1.00  0.00     0.015 C 
ATOM      2  C   UNL     1      -6.600  22.885  -6.829  1.00  0.00     0.009 C 
ATOM      3  C   UNL     1      -6.552  23.163  -8.340  1.00  0.00     0.012 C 
ATOM      4  C   UNL     1      -7.028  21.957  -9.202  1.00  0.00    -0.008 C 
ATOM      5  C   UNL     1      -8.428  21.416  -8.712  1.00  0.00     0.024 C 
ATOM      6  C   UNL     1      -8.502  21.236  -7.175  1.00  0.00     0.017 C 
ATOM      7  C   UNL     1      -7.091  22.416 -10.680  1.00  0.00     0.016 C 
ENDROOT
BRANCH   1   8
ATOM      8  C   UNL     1      -8.028  22.168  -4.877  1.00  0.00    -0.077 C 
ATOM      9  C   UNL     1      -9.302  22.269  -4.074  1.00  0.00     0.039 C 
ATOM     10  C   UNL     1      -6.897  21.824  -4.238  1.00  0.00     0.008 C 
ENDBRANCH   1   8
BRANCH   5  11
ATOM     11  C   UNL     1      -9.670  22.121  -9.285  1.00  0.00    -0.077 C 
ATOM     12  C   UNL     1     -10.472  21.567 -10.210  1.00  0.00     0.008 C 
ATOM     13  C   UNL     1     -10.033  23.504  -8.798  1.00  0.00     0.039 C 
ENDBRANCH   5  11
BRANCH   4  14
ATOM     14  C   UNL     1      -5.973  20.848  -9.098  1.00  0.00    -0.028 C 
ATOM     15  C   UNL     1      -6.180  19.591  -9.514  1.00  0.00     0.004 C 
ENDBRANCH   4  14
TORSDOF 3
ENDMDL
MODEL 8
REMARK VINA RESULT:    -4.190      1.454      2.179
REMARK INTER + INTRA:          -5.451
REMARK INTER:                  -4.940
REMARK INTRA:                  -0.511
REMARK UNBOUND:                -0.527
REMARK SMILES C=C[C@]1(C)CC[C@H](C(=C)C)C[C@H]1C(=C)C
REMARK SMILES IDX 7 1 6 2 5 3 3 4 12 5 11 6 4 7 8 8 10 9 9 10 13 11 14 12
REMARK SMILES IDX 15 13 2 14 1 15
REMARK H PARENT
REMARK Flexibility Score: inf
ROOT
ATOM      1  C   UNL     1      -8.967  24.262  -9.413  1.00  0.00     0.015 C 
ATOM      2  C   UNL     1      -8.601  23.631 -10.766  1.00  0.00     0.009 C 
ATOM      3  C   UNL     1      -8.219  22.150 -10.618  1.00  0.00     0.012 C 
ATOM      4  C   UNL     1      -7.062  21.912  -9.603  1.00  0.00    -0.008 C 
ATOM      5  C   UNL     1      -7.350  22.623  -8.223  1.00  0.00     0.024 C 
ATOM      6  C   UNL     1      -7.833  24.086  -8.386  1.00  0.00     0.017 C 
ATOM      7  C   UNL     1      -6.887  20.384  -9.421  1.00  0.00     0.016 C 
ENDROOT
BRANCH   1   8
ATOM      8  C   UNL     1      -9.328  25.735  -9.578  1.00  0.00    -0.077 C 
ATOM      9  C   UNL     1      -8.805  26.550 -10.736  1.00  0.00     0.039 C 
ATOM     10  C   UNL     1     -10.120  26.341  -8.678  1.00  0.00     0.008 C 
ENDBRANCH   1   8
BRANCH   5  11
ATOM     11  C   UNL     1      -8.196  21.831  -7.211  1.00  0.00    -0.077 C 
ATOM     12  C   UNL     1      -7.691  21.290  -6.089  1.00  0.00     0.008 C 
ATOM     13  C   UNL     1      -9.673  21.637  -7.464  1.00  0.00     0.039 C 
ENDBRANCH   5  11
BRANCH   4  14
ATOM     14  C   UNL     1      -5.767  22.464 -10.215  1.00  0.00    -0.028 C 
ATOM     15  C   UNL     1      -4.637  22.640  -9.518  1.00  0.00     0.004 C 
ENDBRANCH   4  14
TORSDOF 3
ENDMDL
MODEL 9
REMARK VINA RESULT:    -4.173      2.033      3.428
REMARK INTER + INTRA:          -5.432
REMARK INTER:                  -5.138
REMARK INTRA:                  -0.294
REMARK UNBOUND:                -0.527
REMARK SMILES C=C[C@]1(C)CC[C@H](C(=C)C)C[C@H]1C(=C)C
REMARK SMILES IDX 7 1 6 2 5 3 3 4 12 5 11 6 4 7 8 8 10 9 9 10 13 11 14 12
REMARK SMILES IDX 15 13 2 14 1 15
REMARK H PARENT
REMARK Flexibility Score: inf
ROOT
ATOM      1  C   UNL     1      -6.944  24.246  -9.802  1.00  0.00     0.015 C 
ATOM      2  C   UNL     1      -5.889  23.515 -10.647  1.00  0.00     0.009 C 
ATOM      3  C   UNL     1      -6.175  22.008 -10.735  1.00  0.00     0.012 C 
ATOM      4  C   UNL     1      -6.290  21.321  -9.341  1.00  0.00    -0.008 C 
ATOM      5  C   UNL     1      -7.296  22.094  -8.400  1.00  0.00     0.024 C 
ATOM      6  C   UNL     1      -7.065  23.626  -8.397  1.00  0.00     0.017 C 
ATOM      7  C   UNL     1      -6.741  19.857  -9.561  1.00  0.00     0.016 C 
ENDROOT
BRANCH   1   8
ATOM      8  C   UNL     1      -6.634  25.737  -9.713  1.00  0.00    -0.077 C 
ATOM      9  C   UNL     1      -6.076  26.498 -10.891  1.00  0.00     0.039 C 
ATOM     10  C   UNL     1      -6.847  26.404  -8.566  1.00  0.00     0.008 C 
ENDBRANCH   1   8
BRANCH   5  11
ATOM     11  C   UNL     1      -8.782  21.720  -8.538  1.00  0.00    -0.077 C 
ATOM     12  C   UNL     1      -9.432  21.697  -9.714  1.00  0.00     0.008 C 
ATOM     13  C   UNL     1      -9.575  21.352  -7.305  1.00  0.00     0.039 C 
ENDBRANCH   5  11
BRANCH   4  14
ATOM     14  C   UNL     1      -4.895  21.294  -8.705  1.00  0.00    -0.028 C 
ATOM     15  C   UNL     1      -4.214  20.164  -8.465  1.00  0.00     0.004 C 
ENDBRANCH   4  14
TORSDOF 3
ENDMDL
