MODEL 1
REMARK VINA RESULT:    -5.835      0.000      0.000
REMARK INTER + INTRA:          -9.801
REMARK INTER:                  -8.564
REMARK INTRA:                  -1.237
REMARK UNBOUND:                -1.237
REMARK SMILES CCCOC(=O)c1ccccc1C(=O)OCCC
REMARK SMILES IDX 7 1 8 2 9 3 10 4 11 5 12 6 5 7 6 8 4 9 3 10 2 11 1 12 13 13
REMARK SMILES IDX 14 14 15 15 16 16 17 17 18 18
REMARK H PARENT
REMARK Flexibility Score: inf
ROOT
ATOM      1  C   UNL     1     132.099 128.530 139.130  1.00  0.00     0.074 A 
ATOM      2  C   UNL     1     130.853 128.524 139.781  1.00  0.00     0.016 A 
ATOM      3  C   UNL     1     129.763 127.848 139.232  1.00  0.00     0.001 A 
ATOM      4  C   UNL     1     129.900 127.167 138.024  1.00  0.00     0.001 A 
ATOM      5  C   UNL     1     131.133 127.142 137.372  1.00  0.00     0.016 A 
ATOM      6  C   UNL     1     132.251 127.798 137.919  1.00  0.00     0.074 A 
ENDROOT
BRANCH   1   7
ATOM      7  C   UNL     1     133.183 129.364 139.697  1.00  0.00     0.339 C 
ATOM      8  O   UNL     1     134.118 128.819 140.346  1.00  0.00    -0.246 OA
BRANCH   7   9
ATOM      9  O   UNL     1     133.143 130.756 139.553  1.00  0.00    -0.462 OA
BRANCH   9  10
ATOM     10  C   UNL     1     133.271 131.423 138.299  1.00  0.00     0.233 C 
BRANCH  10  11
ATOM     11  C   UNL     1     131.952 132.097 137.913  1.00  0.00     0.038 C 
ATOM     12  C   UNL     1     131.204 131.284 136.860  1.00  0.00     0.007 C 
ENDBRANCH  10  11
ENDBRANCH   9  10
ENDBRANCH   7   9
ENDBRANCH   1   7
BRANCH   6  13
ATOM     13  C   UNL     1     133.552 127.637 137.234  1.00  0.00     0.339 C 
ATOM     14  O   UNL     1     134.282 126.636 137.477  1.00  0.00    -0.246 OA
BRANCH  13  15
ATOM     15  O   UNL     1     133.945 128.575 136.273  1.00  0.00    -0.462 OA
BRANCH  15  16
ATOM     16  C   UNL     1     135.279 129.063 136.174  1.00  0.00     0.233 C 
BRANCH  16  17
ATOM     17  C   UNL     1     135.712 129.110 134.709  1.00  0.00     0.038 C 
ATOM     18  C   UNL     1     135.336 127.831 133.966  1.00  0.00     0.007 C 
ENDBRANCH  16  17
ENDBRANCH  15  16
ENDBRANCH  13  15
ENDBRANCH   6  13
TORSDOF 8
ENDMDL
MODEL 2
REMARK VINA RESULT:    -5.817      0.367      3.843
REMARK INTER + INTRA:          -9.775
REMARK INTER:                  -8.462
REMARK INTRA:                  -1.314
REMARK UNBOUND:                -1.237
REMARK SMILES CCCOC(=O)c1ccccc1C(=O)OCCC
REMARK SMILES IDX 7 1 8 2 9 3 10 4 11 5 12 6 5 7 6 8 4 9 3 10 2 11 1 12 13 13
REMARK SMILES IDX 14 14 15 15 16 16 17 17 18 18
REMARK H PARENT
REMARK Flexibility Score: inf
ROOT
ATOM      1  C   UNL     1     132.230 127.833 137.910  1.00  0.00     0.074 A 
ATOM      2  C   UNL     1     131.110 127.164 137.384  1.00  0.00     0.016 A 
ATOM      3  C   UNL     1     129.884 127.193 138.050  1.00  0.00     0.001 A 
ATOM      4  C   UNL     1     129.758 127.887 139.251  1.00  0.00     0.001 A 
ATOM      5  C   UNL     1     130.851 128.576 139.779  1.00  0.00     0.016 A 
ATOM      6  C   UNL     1     132.090 128.579 139.113  1.00  0.00     0.074 A 
ENDROOT
BRANCH   1   7
ATOM      7  C   UNL     1     133.531 127.666 137.223  1.00  0.00     0.339 C 
ATOM      8  O   UNL     1     134.288 126.706 137.540  1.00  0.00    -0.246 OA
BRANCH   7   9
ATOM      9  O   UNL     1     133.939 128.597 136.261  1.00  0.00    -0.462 OA
BRANCH   9  10
ATOM     10  C   UNL     1     135.272 129.096 136.162  1.00  0.00     0.233 C 
BRANCH  10  11
ATOM     11  C   UNL     1     135.724 129.133 134.700  1.00  0.00     0.038 C 
ATOM     12  C   UNL     1     135.336 127.851 133.970  1.00  0.00     0.007 C 
ENDBRANCH  10  11
ENDBRANCH   9  10
ENDBRANCH   7   9
ENDBRANCH   1   7
BRANCH   6  13
ATOM     13  C   UNL     1     133.173 129.419 139.669  1.00  0.00     0.339 C 
ATOM     14  O   UNL     1     133.808 129.046 140.694  1.00  0.00    -0.246 OA
BRANCH  13  15
ATOM     15  O   UNL     1     133.527 130.605 139.017  1.00  0.00    -0.462 OA
BRANCH  15  16
ATOM     16  C   UNL     1     132.577 131.612 138.682  1.00  0.00     0.233 C 
BRANCH  16  17
ATOM     17  C   UNL     1     132.382 131.664 137.166  1.00  0.00     0.038 C 
ATOM     18  C   UNL     1     130.956 131.295 136.766  1.00  0.00     0.007 C 
ENDBRANCH  16  17
ENDBRANCH  15  16
ENDBRANCH  13  15
ENDBRANCH   6  13
TORSDOF 8
ENDMDL
MODEL 3
REMARK VINA RESULT:    -5.776      2.011      4.356
REMARK INTER + INTRA:          -9.715
REMARK INTER:                  -8.587
REMARK INTRA:                  -1.128
REMARK UNBOUND:                -1.237
REMARK SMILES CCCOC(=O)c1ccccc1C(=O)OCCC
REMARK SMILES IDX 7 1 8 2 9 3 10 4 11 5 12 6 5 7 6 8 4 9 3 10 2 11 1 12 13 13
REMARK SMILES IDX 14 14 15 15 16 16 17 17 18 18
REMARK H PARENT
REMARK Flexibility Score: inf
ROOT
ATOM      1  C   UNL     1     134.477 129.334 136.339  1.00  0.00     0.074 A 
ATOM      2  C   UNL     1     134.764 130.632 136.796  1.00  0.00     0.016 A 
ATOM      3  C   UNL     1     135.766 131.396 136.195  1.00  0.00     0.001 A 
ATOM      4  C   UNL     1     136.497 130.874 135.129  1.00  0.00     0.001 A 
ATOM      5  C   UNL     1     136.213 129.597 134.646  1.00  0.00     0.016 A 
ATOM      6  C   UNL     1     135.193 128.819 135.222  1.00  0.00     0.074 A 
ENDROOT
BRANCH   1   7
ATOM      7  C   UNL     1     133.490 128.528 137.092  1.00  0.00     0.339 C 
ATOM      8  O   UNL     1     133.886 127.585 137.834  1.00  0.00    -0.246 OA
BRANCH   7   9
ATOM      9  O   UNL     1     132.121 128.780 136.945  1.00  0.00    -0.462 OA
BRANCH   9  10
ATOM     10  C   UNL     1     131.273 129.179 138.019  1.00  0.00     0.233 C 
BRANCH  10  11
ATOM     11  C   UNL     1     131.294 130.701 138.183  1.00  0.00     0.038 C 
ATOM     12  C   UNL     1     131.109 131.404 136.841  1.00  0.00     0.007 C 
ENDBRANCH  10  11
ENDBRANCH   9  10
ENDBRANCH   7   9
ENDBRANCH   1   7
BRANCH   6  13
ATOM     13  C   UNL     1     134.870 127.521 134.590  1.00  0.00     0.339 C 
ATOM     14  O   UNL     1     134.177 127.479 133.536  1.00  0.00    -0.246 OA
BRANCH  13  15
ATOM     15  O   UNL     1     135.386 126.341 135.138  1.00  0.00    -0.462 OA
BRANCH  15  16
ATOM     16  C   UNL     1     136.572 125.720 134.650  1.00  0.00     0.233 C 
BRANCH  16  17
ATOM     17  C   UNL     1     137.644 125.713 135.739  1.00  0.00     0.038 C 
ATOM     18  C   UNL     1     137.095 126.195 137.079  1.00  0.00     0.007 C 
ENDBRANCH  16  17
ENDBRANCH  15  16
ENDBRANCH  13  15
ENDBRANCH   6  13
TORSDOF 8
ENDMDL
MODEL 4
REMARK VINA RESULT:    -5.724      2.209      6.085
REMARK INTER + INTRA:          -9.638
REMARK INTER:                  -8.648
REMARK INTRA:                  -0.990
REMARK UNBOUND:                -1.237
REMARK SMILES CCCOC(=O)c1ccccc1C(=O)OCCC
REMARK SMILES IDX 7 1 8 2 9 3 10 4 11 5 12 6 5 7 6 8 4 9 3 10 2 11 1 12 13 13
REMARK SMILES IDX 14 14 15 15 16 16 17 17 18 18
REMARK H PARENT
REMARK Flexibility Score: inf
ROOT
ATOM      1  C   UNL     1     135.307 129.025 135.424  1.00  0.00     0.074 A 
ATOM      2  C   UNL     1     136.274 129.816 134.777  1.00  0.00     0.016 A 
ATOM      3  C   UNL     1     136.487 131.140 135.161  1.00  0.00     0.001 A 
ATOM      4  C   UNL     1     135.736 131.697 136.195  1.00  0.00     0.001 A 
ATOM      5  C   UNL     1     134.787 130.924 136.864  1.00  0.00     0.016 A 
ATOM      6  C   UNL     1     134.573 129.580 136.509  1.00  0.00     0.074 A 
ENDROOT
BRANCH   1   7
ATOM      7  C   UNL     1     135.043 127.669 134.894  1.00  0.00     0.339 C 
ATOM      8  O   UNL     1     134.390 127.531 133.822  1.00  0.00    -0.246 OA
BRANCH   7   9
ATOM      9  O   UNL     1     135.474 126.542 135.606  1.00  0.00    -0.462 OA
BRANCH   9  10
ATOM     10  C   UNL     1     136.642 126.527 136.424  1.00  0.00     0.233 C 
BRANCH  10  11
ATOM     11  C   UNL     1     137.576 125.389 136.002  1.00  0.00     0.038 C 
ATOM     12  C   UNL     1     136.828 124.061 135.924  1.00  0.00     0.007 C 
ENDBRANCH  10  11
ENDBRANCH   9  10
ENDBRANCH   7   9
ENDBRANCH   1   7
BRANCH   6  13
ATOM     13  C   UNL     1     133.633 128.787 137.332  1.00  0.00     0.339 C 
ATOM     14  O   UNL     1     134.050 128.141 138.333  1.00  0.00    -0.246 OA
BRANCH  13  15
ATOM     15  O   UNL     1     132.268 128.803 137.026  1.00  0.00    -0.462 OA
BRANCH  15  16
ATOM     16  C   UNL     1     131.271 129.172 137.974  1.00  0.00     0.233 C 
BRANCH  16  17
ATOM     17  C   UNL     1     131.279 130.686 138.180  1.00  0.00     0.038 C 
ATOM     18  C   UNL     1     131.091 131.438 136.864  1.00  0.00     0.007 C 
ENDBRANCH  16  17
ENDBRANCH  15  16
ENDBRANCH  13  15
ENDBRANCH   6  13
TORSDOF 8
ENDMDL
MODEL 5
REMARK VINA RESULT:    -5.652      2.422      5.715
REMARK INTER + INTRA:          -9.532
REMARK INTER:                  -8.793
REMARK INTRA:                  -0.740
REMARK UNBOUND:                -1.237
REMARK SMILES CCCOC(=O)c1ccccc1C(=O)OCCC
REMARK SMILES IDX 7 1 8 2 9 3 10 4 11 5 12 6 5 7 6 8 4 9 3 10 2 11 1 12 13 13
REMARK SMILES IDX 14 14 15 15 16 16 17 17 18 18
REMARK H PARENT
REMARK Flexibility Score: inf
ROOT
ATOM      1  C   UNL     1     135.401 126.083 136.649  1.00  0.00     0.074 A 
ATOM      2  C   UNL     1     136.275 125.283 135.891  1.00  0.00     0.016 A 
ATOM      3  C   UNL     1     136.599 125.626 134.578  1.00  0.00     0.001 A 
ATOM      4  C   UNL     1     136.054 126.771 134.000  1.00  0.00     0.001 A 
ATOM      5  C   UNL     1     135.202 127.590 134.741  1.00  0.00     0.016 A 
ATOM      6  C   UNL     1     134.880 127.275 136.074  1.00  0.00     0.074 A 
ENDROOT
BRANCH   1   7
ATOM      7  C   UNL     1     135.000 125.604 137.991  1.00  0.00     0.339 C 
ATOM      8  O   UNL     1     134.307 124.555 138.100  1.00  0.00    -0.246 OA
BRANCH   7   9
ATOM      9  O   UNL     1     135.349 126.341 139.130  1.00  0.00    -0.462 OA
BRANCH   9  10
ATOM     10  C   UNL     1     134.442 126.624 140.194  1.00  0.00     0.233 C 
BRANCH  10  11
ATOM     11  C   UNL     1     134.917 125.965 141.492  1.00  0.00     0.038 C 
ATOM     12  C   UNL     1     134.423 124.525 141.594  1.00  0.00     0.007 C 
ENDBRANCH  10  11
ENDBRANCH   9  10
ENDBRANCH   7   9
ENDBRANCH   1   7
BRANCH   6  13
ATOM     13  C   UNL     1     134.062 128.244 136.837  1.00  0.00     0.339 C 
ATOM     14  O   UNL     1     134.616 129.163 137.502  1.00  0.00    -0.246 OA
BRANCH  13  15
ATOM     15  O   UNL     1     132.667 128.169 136.770  1.00  0.00    -0.462 OA
BRANCH  15  16
ATOM     16  C   UNL     1     131.851 127.983 137.922  1.00  0.00     0.233 C 
BRANCH  16  17
ATOM     17  C   UNL     1     130.957 126.757 137.737  1.00  0.00     0.038 C 
ATOM     18  C   UNL     1     129.499 127.063 138.069  1.00  0.00     0.007 C 
ENDBRANCH  16  17
ENDBRANCH  15  16
ENDBRANCH  13  15
ENDBRANCH   6  13
TORSDOF 8
ENDMDL
MODEL 6
REMARK VINA RESULT:    -5.611      2.824      5.148
REMARK INTER + INTRA:          -9.472
REMARK INTER:                  -8.586
REMARK INTRA:                  -0.886
REMARK UNBOUND:                -1.237
REMARK SMILES CCCOC(=O)c1ccccc1C(=O)OCCC
REMARK SMILES IDX 7 1 8 2 9 3 10 4 11 5 12 6 5 7 6 8 4 9 3 10 2 11 1 12 13 13
REMARK SMILES IDX 14 14 15 15 16 16 17 17 18 18
REMARK H PARENT
REMARK Flexibility Score: inf
ROOT
ATOM      1  C   UNL     1     134.651 127.456 135.916  1.00  0.00     0.074 A 
ATOM      2  C   UNL     1     134.843 127.734 134.551  1.00  0.00     0.016 A 
ATOM      3  C   UNL     1     135.740 126.986 133.789  1.00  0.00     0.001 A 
ATOM      4  C   UNL     1     136.461 125.949 134.378  1.00  0.00     0.001 A 
ATOM      5  C   UNL     1     136.270 125.642 135.726  1.00  0.00     0.016 A 
ATOM      6  C   UNL     1     135.353 126.369 136.507  1.00  0.00     0.074 A 
ENDROOT
BRANCH   1   7
ATOM      7  C   UNL     1     133.778 128.360 136.700  1.00  0.00     0.339 C 
ATOM      8  O   UNL     1     132.572 128.046 136.901  1.00  0.00    -0.246 OA
BRANCH   7   9
ATOM      9  O   UNL     1     134.279 129.579 137.173  1.00  0.00    -0.462 OA
BRANCH   9  10
ATOM     10  C   UNL     1     134.385 130.753 136.370  1.00  0.00     0.233 C 
BRANCH  10  11
ATOM     11  C   UNL     1     135.820 131.286 136.387  1.00  0.00     0.038 C 
ATOM     12  C   UNL     1     136.591 130.836 135.150  1.00  0.00     0.007 C 
ENDBRANCH  10  11
ENDBRANCH   9  10
ENDBRANCH   7   9
ENDBRANCH   1   7
BRANCH   6  13
ATOM     13  C   UNL     1     135.117 125.919 137.896  1.00  0.00     0.339 C 
ATOM     14  O   UNL     1     134.511 124.835 138.122  1.00  0.00    -0.246 OA
BRANCH  13  15
ATOM     15  O   UNL     1     135.620 126.677 138.960  1.00  0.00    -0.462 OA
BRANCH  15  16
ATOM     16  C   UNL     1     134.790 127.199 139.993  1.00  0.00     0.233 C 
BRANCH  16  17
ATOM     17  C   UNL     1     135.195 126.603 141.341  1.00  0.00     0.038 C 
ATOM     18  C   UNL     1     134.549 125.239 141.574  1.00  0.00     0.007 C 
ENDBRANCH  16  17
ENDBRANCH  15  16
ENDBRANCH  13  15
ENDBRANCH   6  13
TORSDOF 8
ENDMDL
MODEL 7
REMARK VINA RESULT:    -5.601      1.577      4.946
REMARK INTER + INTRA:          -9.458
REMARK INTER:                  -8.460
REMARK INTRA:                  -0.997
REMARK UNBOUND:                -1.237
REMARK SMILES CCCOC(=O)c1ccccc1C(=O)OCCC
REMARK SMILES IDX 7 1 8 2 9 3 10 4 11 5 12 6 5 7 6 8 4 9 3 10 2 11 1 12 13 13
REMARK SMILES IDX 14 14 15 15 16 16 17 17 18 18
REMARK H PARENT
REMARK Flexibility Score: inf
ROOT
ATOM      1  C   UNL     1     135.157 127.129 136.325  1.00  0.00     0.074 A 
ATOM      2  C   UNL     1     135.723 126.081 135.577  1.00  0.00     0.016 A 
ATOM      3  C   UNL     1     136.003 126.243 134.220  1.00  0.00     0.001 A 
ATOM      4  C   UNL     1     135.721 127.453 133.588  1.00  0.00     0.001 A 
ATOM      5  C   UNL     1     135.180 128.513 134.316  1.00  0.00     0.016 A 
ATOM      6  C   UNL     1     134.911 128.379 135.690  1.00  0.00     0.074 A 
ENDROOT
BRANCH   1   7
ATOM      7  C   UNL     1     134.771 126.859 137.728  1.00  0.00     0.339 C 
ATOM      8  O   UNL     1     135.607 127.047 138.655  1.00  0.00    -0.246 OA
BRANCH   7   9
ATOM      9  O   UNL     1     133.498 126.353 138.019  1.00  0.00    -0.462 OA
BRANCH   9  10
ATOM     10  C   UNL     1     132.437 127.144 138.550  1.00  0.00     0.233 C 
BRANCH  10  11
ATOM     11  C   UNL     1     131.203 127.063 137.647  1.00  0.00     0.038 C 
ATOM     12  C   UNL     1     129.932 127.410 138.416  1.00  0.00     0.007 C 
ENDBRANCH  10  11
ENDBRANCH   9  10
ENDBRANCH   7   9
ENDBRANCH   1   7
BRANCH   6  13
ATOM     13  C   UNL     1     134.443 129.575 136.424  1.00  0.00     0.339 C 
ATOM     14  O   UNL     1     135.275 130.380 136.928  1.00  0.00    -0.246 OA
BRANCH  13  15
ATOM     15  O   UNL     1     133.072 129.837 136.510  1.00  0.00    -0.462 OA
BRANCH  15  16
ATOM     16  C   UNL     1     132.506 131.095 136.154  1.00  0.00     0.233 C 
BRANCH  16  17
ATOM     17  C   UNL     1     131.997 131.812 137.404  1.00  0.00     0.038 C 
ATOM     18  C   UNL     1     131.585 130.826 138.495  1.00  0.00     0.007 C 
ENDBRANCH  16  17
ENDBRANCH  15  16
ENDBRANCH  13  15
ENDBRANCH   6  13
TORSDOF 8
ENDMDL
MODEL 8
REMARK VINA RESULT:    -5.574      1.910      3.683
REMARK INTER + INTRA:          -9.418
REMARK INTER:                  -8.017
REMARK INTRA:                  -1.401
REMARK UNBOUND:                -1.237
REMARK SMILES CCCOC(=O)c1ccccc1C(=O)OCCC
REMARK SMILES IDX 7 1 8 2 9 3 10 4 11 5 12 6 5 7 6 8 4 9 3 10 2 11 1 12 13 13
REMARK SMILES IDX 14 14 15 15 16 16 17 17 18 18
REMARK H PARENT
REMARK Flexibility Score: inf
ROOT
ATOM      1  C   UNL     1     131.728 128.274 139.548  1.00  0.00     0.074 A 
ATOM      2  C   UNL     1     130.412 127.783 139.615  1.00  0.00     0.016 A 
ATOM      3  C   UNL     1     129.806 127.208 138.498  1.00  0.00     0.001 A 
ATOM      4  C   UNL     1     130.504 127.116 137.295  1.00  0.00     0.001 A 
ATOM      5  C   UNL     1     131.818 127.577 137.212  1.00  0.00     0.016 A 
ATOM      6  C   UNL     1     132.455 128.140 138.332  1.00  0.00     0.074 A 
ENDROOT
BRANCH   1   7
ATOM      7  C   UNL     1     132.273 128.982 140.728  1.00  0.00     0.339 C 
ATOM      8  O   UNL     1     132.332 130.244 140.730  1.00  0.00    -0.246 OA
BRANCH   7   9
ATOM      9  O   UNL     1     132.764 128.252 141.817  1.00  0.00    -0.462 OA
BRANCH   9  10
ATOM     10  C   UNL     1     133.947 127.457 141.764  1.00  0.00     0.233 C 
BRANCH  10  11
ATOM     11  C   UNL     1     133.591 125.974 141.628  1.00  0.00     0.038 C 
ATOM     12  C   UNL     1     134.606 125.240 140.757  1.00  0.00     0.007 C 
ENDBRANCH  10  11
ENDBRANCH   9  10
ENDBRANCH   7   9
ENDBRANCH   1   7
BRANCH   6  13
ATOM     13  C   UNL     1     133.883 128.506 138.206  1.00  0.00     0.339 C 
ATOM     14  O   UNL     1     134.776 127.615 138.245  1.00  0.00    -0.246 OA
BRANCH  13  15
ATOM     15  O   UNL     1     134.235 129.842 137.987  1.00  0.00    -0.462 OA
BRANCH  15  16
ATOM     16  C   UNL     1     133.665 130.627 136.943  1.00  0.00     0.233 C 
BRANCH  16  17
ATOM     17  C   UNL     1     132.652 131.613 137.524  1.00  0.00     0.038 C 
ATOM     18  C   UNL     1     131.246 131.366 136.983  1.00  0.00     0.007 C 
ENDBRANCH  16  17
ENDBRANCH  15  16
ENDBRANCH  13  15
ENDBRANCH   6  13
TORSDOF 8
ENDMDL
MODEL 9
REMARK VINA RESULT:    -5.567      1.437      4.319
REMARK INTER + INTRA:          -9.408
REMARK INTER:                  -7.902
REMARK INTRA:                  -1.505
REMARK UNBOUND:                -1.237
REMARK SMILES CCCOC(=O)c1ccccc1C(=O)OCCC
REMARK SMILES IDX 7 1 8 2 9 3 10 4 11 5 12 6 5 7 6 8 4 9 3 10 2 11 1 12 13 13
REMARK SMILES IDX 14 14 15 15 16 16 17 17 18 18
REMARK H PARENT
REMARK Flexibility Score: inf
ROOT
ATOM      1  C   UNL     1     132.205 127.838 137.889  1.00  0.00     0.074 A 
ATOM      2  C   UNL     1     131.085 127.155 137.383  1.00  0.00     0.016 A 
ATOM      3  C   UNL     1     129.868 127.175 138.066  1.00  0.00     0.001 A 
ATOM      4  C   UNL     1     129.751 127.876 139.265  1.00  0.00     0.001 A 
ATOM      5  C   UNL     1     130.845 128.578 139.774  1.00  0.00     0.016 A 
ATOM      6  C   UNL     1     132.074 128.590 139.090  1.00  0.00     0.074 A 
ENDROOT
BRANCH   1   7
ATOM      7  C   UNL     1     133.498 127.680 137.186  1.00  0.00     0.339 C 
ATOM      8  O   UNL     1     133.846 128.527 136.316  1.00  0.00    -0.246 OA
BRANCH   7   9
ATOM      9  O   UNL     1     134.309 126.570 137.452  1.00  0.00    -0.462 OA
BRANCH   9  10
ATOM     10  C   UNL     1     135.137 126.457 138.608  1.00  0.00     0.233 C 
BRANCH  10  11
ATOM     11  C   UNL     1     134.652 125.317 139.506  1.00  0.00     0.038 C 
ATOM     12  C   UNL     1     134.669 125.726 140.976  1.00  0.00     0.007 C 
ENDBRANCH  10  11
ENDBRANCH   9  10
ENDBRANCH   7   9
ENDBRANCH   1   7
BRANCH   6  13
ATOM     13  C   UNL     1     133.156 129.445 139.626  1.00  0.00     0.339 C 
ATOM     14  O   UNL     1     133.781 129.105 140.669  1.00  0.00    -0.246 OA
BRANCH  13  15
ATOM     15  O   UNL     1     133.521 130.606 138.936  1.00  0.00    -0.462 OA
BRANCH  15  16
ATOM     16  C   UNL     1     132.593 131.639 138.623  1.00  0.00     0.233 C 
BRANCH  16  17
ATOM     17  C   UNL     1     132.357 131.692 137.114  1.00  0.00     0.038 C 
ATOM     18  C   UNL     1     130.941 131.258 136.746  1.00  0.00     0.007 C 
ENDBRANCH  16  17
ENDBRANCH  15  16
ENDBRANCH  13  15
ENDBRANCH   6  13
TORSDOF 8
ENDMDL
