MODEL 1
REMARK VINA RESULT:    -3.542      0.000      0.000
REMARK INTER + INTRA:          -4.130
REMARK INTER:                  -4.059
REMARK INTRA:                  -0.070
REMARK UNBOUND:                -0.070
REMARK SMILES C=Cc1ccc(O)c(OC)c1
REMARK SMILES IDX 8 1 6 2 5 3 4 4 3 5 11 6 9 7 10 8 7 9 2 11 1 12
REMARK H PARENT 7 10
REMARK Flexibility Score: inf
ROOT
ATOM      1  C   UNL     1     145.612 133.394 138.375  1.00  0.00     0.161 A 
ATOM      2  C   UNL     1     146.011 134.545 139.077  1.00  0.00     0.157 A 
ATOM      3  C   UNL     1     145.065 135.507 139.438  1.00  0.00     0.051 A 
ATOM      4  C   UNL     1     143.719 135.336 139.111  1.00  0.00     0.012 A 
ATOM      5  C   UNL     1     143.294 134.186 138.421  1.00  0.00    -0.022 A 
ATOM      6  C   UNL     1     144.251 133.226 138.047  1.00  0.00     0.058 A 
ENDROOT
BRANCH   1   7
ATOM      7  O   UNL     1     146.585 132.445 138.020  1.00  0.00    -0.493 OA
ATOM      8  C   UNL     1     146.314 131.226 137.338  1.00  0.00     0.278 C 
ENDBRANCH   1   7
BRANCH   2   9
ATOM      9  O   UNL     1     147.347 134.751 139.421  1.00  0.00    -0.504 OA
ATOM     10  H   UNL     1     148.023 135.123 138.766  1.00  0.00     0.293 HD
ENDBRANCH   2   9
BRANCH   5  11
ATOM     11  C   UNL     1     141.878 133.959 138.042  1.00  0.00     0.000 C 
ATOM     12  C   UNL     1     141.489 133.231 136.994  1.00  0.00     0.009 C 
ENDBRANCH   5  11
TORSDOF 3
ENDMDL
MODEL 2
REMARK VINA RESULT:    -3.535     15.137     16.746
REMARK INTER + INTRA:          -4.121
REMARK INTER:                  -4.051
REMARK INTRA:                  -0.070
REMARK UNBOUND:                -0.070
REMARK SMILES C=Cc1ccc(O)c(OC)c1
REMARK SMILES IDX 8 1 6 2 5 3 4 4 3 5 11 6 9 7 10 8 7 9 2 11 1 12
REMARK H PARENT 7 10
REMARK Flexibility Score: inf
ROOT
ATOM      1  C   UNL     1     135.805 148.250 138.375  1.00  0.00     0.161 A 
ATOM      2  C   UNL     1     135.401 147.101 139.077  1.00  0.00     0.157 A 
ATOM      3  C   UNL     1     136.346 146.146 139.459  1.00  0.00     0.051 A 
ATOM      4  C   UNL     1     137.696 146.323 139.153  1.00  0.00     0.012 A 
ATOM      5  C   UNL     1     138.126 147.472 138.463  1.00  0.00    -0.022 A 
ATOM      6  C   UNL     1     137.170 148.424 138.068  1.00  0.00     0.058 A 
ENDROOT
BRANCH   1   7
ATOM      7  O   UNL     1     134.832 149.191 137.999  1.00  0.00    -0.493 OA
ATOM      8  C   UNL     1     135.100 150.383 137.269  1.00  0.00     0.278 C 
ENDBRANCH   1   7
BRANCH   2   9
ATOM      9  O   UNL     1     134.060 146.889 139.401  1.00  0.00    -0.504 OA
ATOM     10  H   UNL     1     133.346 146.765 138.694  1.00  0.00     0.293 HD
ENDBRANCH   2   9
BRANCH   5  11
ATOM     11  C   UNL     1     139.547 147.705 138.105  1.00  0.00     0.000 C 
ATOM     12  C   UNL     1     139.953 148.558 137.163  1.00  0.00     0.009 C 
ENDBRANCH   5  11
TORSDOF 3
ENDMDL
MODEL 3
REMARK VINA RESULT:    -3.504     10.108     11.828
REMARK INTER + INTRA:          -4.087
REMARK INTER:                  -4.016
REMARK INTRA:                  -0.070
REMARK UNBOUND:                -0.070
REMARK SMILES C=Cc1ccc(O)c(OC)c1
REMARK SMILES IDX 8 1 6 2 5 3 4 4 3 5 11 6 9 7 10 8 7 9 2 11 1 12
REMARK H PARENT 7 10
REMARK Flexibility Score: inf
ROOT
ATOM      1  C   UNL     1     148.109 145.732 138.364  1.00  0.00     0.161 A 
ATOM      2  C   UNL     1     146.973 146.229 139.028  1.00  0.00     0.157 A 
ATOM      3  C   UNL     1     145.924 145.369 139.358  1.00  0.00     0.051 A 
ATOM      4  C   UNL     1     145.991 144.012 139.037  1.00  0.00     0.012 A 
ATOM      5  C   UNL     1     147.123 143.490 138.385  1.00  0.00    -0.022 A 
ATOM      6  C   UNL     1     148.172 144.361 138.042  1.00  0.00     0.058 A 
ENDROOT
BRANCH   1   7
ATOM      7  O   UNL     1     149.147 146.621 138.041  1.00  0.00    -0.493 OA
ATOM      8  C   UNL     1     150.277 146.286 137.242  1.00  0.00     0.278 C 
ENDBRANCH   1   7
BRANCH   2   9
ATOM      9  O   UNL     1     146.870 147.579 139.366  1.00  0.00    -0.504 OA
ATOM     10  H   UNL     1     146.437 147.889 140.227  1.00  0.00     0.293 HD
ENDBRANCH   2   9
BRANCH   5  11
ATOM     11  C   UNL     1     147.242 142.058 138.013  1.00  0.00     0.000 C 
ATOM     12  C   UNL     1     148.248 141.549 137.300  1.00  0.00     0.009 C 
ENDBRANCH   5  11
TORSDOF 3
ENDMDL
MODEL 4
REMARK VINA RESULT:    -3.496     14.295     15.794
REMARK INTER + INTRA:          -4.077
REMARK INTER:                  -3.979
REMARK INTRA:                  -0.097
REMARK UNBOUND:                -0.070
REMARK SMILES C=Cc1ccc(O)c(OC)c1
REMARK SMILES IDX 8 1 6 2 5 3 4 4 3 5 11 6 9 7 10 8 7 9 2 11 1 12
REMARK H PARENT 7 10
REMARK Flexibility Score: inf
ROOT
ATOM      1  C   UNL     1     137.511 148.391 138.211  1.00  0.00     0.161 A 
ATOM      2  C   UNL     1     138.478 149.231 137.633  1.00  0.00     0.157 A 
ATOM      3  C   UNL     1     139.731 148.720 137.286  1.00  0.00     0.051 A 
ATOM      4  C   UNL     1     140.034 147.375 137.504  1.00  0.00     0.012 A 
ATOM      5  C   UNL     1     139.076 146.512 138.068  1.00  0.00    -0.022 A 
ATOM      6  C   UNL     1     137.822 147.033 138.429  1.00  0.00     0.058 A 
ENDROOT
BRANCH   1   7
ATOM      7  O   UNL     1     136.261 148.932 138.554  1.00  0.00    -0.493 OA
ATOM      8  C   UNL     1     135.106 148.889 137.724  1.00  0.00     0.278 C 
ENDBRANCH   1   7
BRANCH   2   9
ATOM      9  O   UNL     1     138.212 150.581 137.400  1.00  0.00    -0.504 OA
ATOM     10  H   UNL     1     137.315 150.904 137.061  1.00  0.00     0.293 HD
ENDBRANCH   2   9
BRANCH   5  11
ATOM     11  C   UNL     1     139.349 145.077 138.329  1.00  0.00     0.000 C 
ATOM     12  C   UNL     1     139.438 144.145 137.379  1.00  0.00     0.009 C 
ENDBRANCH   5  11
TORSDOF 3
ENDMDL
MODEL 5
REMARK VINA RESULT:    -3.494      8.726     10.264
REMARK INTER + INTRA:          -4.075
REMARK INTER:                  -3.978
REMARK INTRA:                  -0.096
REMARK UNBOUND:                -0.070
REMARK SMILES C=Cc1ccc(O)c(OC)c1
REMARK SMILES IDX 8 1 6 2 5 3 4 4 3 5 11 6 9 7 10 8 7 9 2 11 1 12
REMARK H PARENT 7 10
REMARK Flexibility Score: inf
ROOT
ATOM      1  C   UNL     1     148.363 143.949 138.195  1.00  0.00     0.161 A 
ATOM      2  C   UNL     1     149.264 142.997 137.686  1.00  0.00     0.157 A 
ATOM      3  C   UNL     1     148.814 141.718 137.350  1.00  0.00     0.051 A 
ATOM      4  C   UNL     1     147.471 141.374 137.512  1.00  0.00     0.012 A 
ATOM      5  C   UNL     1     146.549 142.314 138.007  1.00  0.00    -0.022 A 
ATOM      6  C   UNL     1     147.008 143.596 138.357  1.00  0.00     0.058 A 
ENDROOT
BRANCH   1   7
ATOM      7  O   UNL     1     148.844 145.226 138.529  1.00  0.00    -0.493 OA
ATOM      8  C   UNL     1     148.749 146.370 137.688  1.00  0.00     0.278 C 
ENDBRANCH   1   7
BRANCH   2   9
ATOM      9  O   UNL     1     150.614 143.305 137.510  1.00  0.00    -0.504 OA
ATOM     10  H   UNL     1     151.333 142.593 137.495  1.00  0.00     0.293 HD
ENDBRANCH   2   9
BRANCH   5  11
ATOM     11  C   UNL     1     145.113 141.997 138.206  1.00  0.00     0.000 C 
ATOM     12  C   UNL     1     144.173 142.158 137.274  1.00  0.00     0.009 C 
ENDBRANCH   5  11
TORSDOF 3
ENDMDL
MODEL 6
REMARK VINA RESULT:    -3.491      9.876     11.617
REMARK INTER + INTRA:          -4.071
REMARK INTER:                  -4.000
REMARK INTRA:                  -0.070
REMARK UNBOUND:                -0.070
REMARK SMILES C=Cc1ccc(O)c(OC)c1
REMARK SMILES IDX 8 1 6 2 5 3 4 4 3 5 11 6 9 7 10 8 7 9 2 11 1 12
REMARK H PARENT 7 10
REMARK Flexibility Score: inf
ROOT
ATOM      1  C   UNL     1     133.453 135.769 138.373  1.00  0.00     0.161 A 
ATOM      2  C   UNL     1     134.574 135.289 139.074  1.00  0.00     0.157 A 
ATOM      3  C   UNL     1     135.596 136.167 139.442  1.00  0.00     0.051 A 
ATOM      4  C   UNL     1     135.516 137.523 139.124  1.00  0.00     0.012 A 
ATOM      5  C   UNL     1     134.397 138.028 138.435  1.00  0.00    -0.022 A 
ATOM      6  C   UNL     1     133.377 137.140 138.053  1.00  0.00     0.058 A 
ENDROOT
BRANCH   1   7
ATOM      7  O   UNL     1     132.442 134.863 138.011  1.00  0.00    -0.493 OA
ATOM      8  C   UNL     1     131.288 135.203 137.250  1.00  0.00     0.278 C 
ENDBRANCH   1   7
BRANCH   2   9
ATOM      9  O   UNL     1     134.689 133.940 139.410  1.00  0.00    -0.504 OA
ATOM     10  H   UNL     1     135.185 133.278 138.826  1.00  0.00     0.293 HD
ENDBRANCH   2   9
BRANCH   5  11
ATOM     11  C   UNL     1     134.266 139.459 138.064  1.00  0.00     0.000 C 
ATOM     12  C   UNL     1     133.238 139.966 137.382  1.00  0.00     0.009 C 
ENDBRANCH   5  11
TORSDOF 3
ENDMDL
MODEL 7
REMARK VINA RESULT:    -3.469      1.882      3.323
REMARK INTER + INTRA:          -4.046
REMARK INTER:                  -3.948
REMARK INTRA:                  -0.098
REMARK UNBOUND:                -0.070
REMARK SMILES C=Cc1ccc(O)c(OC)c1
REMARK SMILES IDX 8 1 6 2 5 3 4 4 3 5 11 6 9 7 10 8 7 9 2 11 1 12
REMARK H PARENT 7 10
REMARK Flexibility Score: inf
ROOT
ATOM      1  C   UNL     1     143.880 133.175 138.242  1.00  0.00     0.161 A 
ATOM      2  C   UNL     1     142.981 132.286 137.626  1.00  0.00     0.157 A 
ATOM      3  C   UNL     1     141.750 132.750 137.157  1.00  0.00     0.051 A 
ATOM      4  C   UNL     1     141.401 134.095 137.291  1.00  0.00     0.012 A 
ATOM      5  C   UNL     1     142.290 135.005 137.892  1.00  0.00    -0.022 A 
ATOM      6  C   UNL     1     143.522 134.532 138.375  1.00  0.00     0.058 A 
ENDROOT
BRANCH   1   7
ATOM      7  O   UNL     1     145.109 132.680 138.708  1.00  0.00    -0.493 OA
ATOM      8  C   UNL     1     146.334 132.750 137.987  1.00  0.00     0.278 C 
ENDBRANCH   1   7
BRANCH   2   9
ATOM      9  O   UNL     1     143.295 130.935 137.474  1.00  0.00    -0.504 OA
ATOM     10  H   UNL     1     142.587 130.232 137.302  1.00  0.00     0.293 HD
ENDBRANCH   2   9
BRANCH   5  11
ATOM     11  C   UNL     1     141.964 136.442 138.067  1.00  0.00     0.000 C 
ATOM     12  C   UNL     1     142.046 137.354 137.097  1.00  0.00     0.009 C 
ENDBRANCH   5  11
TORSDOF 3
ENDMDL
MODEL 8
REMARK VINA RESULT:    -3.443     11.221     12.565
REMARK INTER + INTRA:          -4.017
REMARK INTER:                  -3.914
REMARK INTRA:                  -0.103
REMARK UNBOUND:                -0.070
REMARK SMILES C=Cc1ccc(O)c(OC)c1
REMARK SMILES IDX 8 1 6 2 5 3 4 4 3 5 11 6 9 7 10 8 7 9 2 11 1 12
REMARK H PARENT 7 10
REMARK Flexibility Score: inf
ROOT
ATOM      1  C   UNL     1     133.170 137.709 138.298  1.00  0.00     0.161 A 
ATOM      2  C   UNL     1     132.396 138.535 137.465  1.00  0.00     0.157 A 
ATOM      3  C   UNL     1     132.848 139.814 137.133  1.00  0.00     0.051 A 
ATOM      4  C   UNL     1     134.069 140.284 137.620  1.00  0.00     0.012 A 
ATOM      5  C   UNL     1     134.867 139.470 138.445  1.00  0.00    -0.022 A 
ATOM      6  C   UNL     1     134.403 138.188 138.788  1.00  0.00     0.058 A 
ENDROOT
BRANCH   1   7
ATOM      7  O   UNL     1     132.689 136.429 138.620  1.00  0.00    -0.493 OA
ATOM      8  C   UNL     1     133.000 135.244 137.895  1.00  0.00     0.278 C 
ENDBRANCH   1   7
BRANCH   2   9
ATOM      9  O   UNL     1     131.170 138.101 136.959  1.00  0.00    -0.504 OA
ATOM     10  H   UNL     1     130.349 138.002 137.543  1.00  0.00     0.293 HD
ENDBRANCH   2   9
BRANCH   5  11
ATOM     11  C   UNL     1     136.168 139.922 138.996  1.00  0.00     0.000 C 
ATOM     12  C   UNL     1     136.440 141.182 139.341  1.00  0.00     0.009 C 
ENDBRANCH   5  11
TORSDOF 3
ENDMDL
MODEL 9
REMARK VINA RESULT:    -3.307      8.491     10.228
REMARK INTER + INTRA:          -3.860
REMARK INTER:                  -3.771
REMARK INTRA:                  -0.088
REMARK UNBOUND:                -0.070
REMARK SMILES C=Cc1ccc(O)c(OC)c1
REMARK SMILES IDX 8 1 6 2 5 3 4 4 3 5 11 6 9 7 10 8 7 9 2 11 1 12
REMARK H PARENT 7 10
REMARK Flexibility Score: inf
ROOT
ATOM      1  C   UNL     1     148.526 143.186 137.890  1.00  0.00     0.161 A 
ATOM      2  C   UNL     1     148.054 141.923 137.491  1.00  0.00     0.157 A 
ATOM      3  C   UNL     1     146.720 141.573 137.714  1.00  0.00     0.051 A 
ATOM      4  C   UNL     1     145.844 142.470 138.327  1.00  0.00     0.012 A 
ATOM      5  C   UNL     1     146.291 143.745 138.722  1.00  0.00    -0.022 A 
ATOM      6  C   UNL     1     147.638 144.088 138.509  1.00  0.00     0.058 A 
ENDROOT
BRANCH   1   7
ATOM      7  O   UNL     1     149.873 143.509 137.658  1.00  0.00    -0.493 OA
ATOM      8  C   UNL     1     150.487 144.735 138.042  1.00  0.00     0.278 C 
ENDBRANCH   1   7
BRANCH   2   9
ATOM      9  O   UNL     1     148.899 141.000 136.875  1.00  0.00    -0.504 OA
ATOM     10  H   UNL     1     149.644 141.282 136.249  1.00  0.00     0.293 HD
ENDBRANCH   2   9
BRANCH   5  11
ATOM     11  C   UNL     1     145.405 144.732 139.386  1.00  0.00     0.000 C 
ATOM     12  C   UNL     1     144.075 144.734 139.283  1.00  0.00     0.009 C 
ENDBRANCH   5  11
TORSDOF 3
ENDMDL
