MODEL 1
REMARK VINA RESULT:    -5.341      0.000      0.000
REMARK INTER + INTRA:          -5.497
REMARK INTER:                  -5.497
REMARK INTRA:                   0.000
REMARK UNBOUND:                 0.000
REMARK SMILES O=c1ccc2ccc(O)cc2o1
REMARK SMILES IDX 6 1 7 2 8 3 10 4 11 5 5 6 4 7 3 8 2 9 1 10 12 11 9 12
REMARK H PARENT 9 13
REMARK Flexibility Score: inf
ROOT
ATOM      1  C   UNL     1      21.447  -0.569 -22.448  1.00  0.00     0.016 A 
ATOM      2  C   UNL     1      21.869   0.585 -23.117  1.00  0.00     0.047 A 
ATOM      3  C   UNL     1      21.874   1.824 -22.457  1.00  0.00     0.119 A 
ATOM      4  C   UNL     1      21.456   1.906 -21.124  1.00  0.00     0.094 A 
ATOM      5  C   UNL     1      21.033   0.758 -20.447  1.00  0.00     0.142 A 
ATOM      6  C   UNL     1      21.028  -0.489 -21.112  1.00  0.00     0.018 A 
ATOM      7  C   UNL     1      20.600  -1.619 -20.410  1.00  0.00     0.019 A 
ATOM      8  C   UNL     1      20.194  -1.486 -19.083  1.00  0.00     0.094 A 
ATOM      9  C   UNL     1      20.224  -0.221 -18.487  1.00  0.00     0.336 A 
ATOM     10  O   UNL     1      19.860  -0.080 -17.290  1.00  0.00    -0.246 OA
ATOM     11  O   UNL     1      20.636   0.841 -19.179  1.00  0.00    -0.423 OA
ENDROOT
BRANCH   3  12
ATOM     12  O   UNL     1      22.293   2.977 -23.117  1.00  0.00    -0.508 OA
ATOM     13  H   UNL     1      21.809   3.859 -22.998  1.00  0.00     0.293 HD
ENDBRANCH   3  12
TORSDOF 1
ENDMDL
MODEL 2
REMARK VINA RESULT:    -5.291      1.234      4.228
REMARK INTER + INTRA:          -5.446
REMARK INTER:                  -5.446
REMARK INTRA:                   0.000
REMARK UNBOUND:                 0.000
REMARK SMILES O=c1ccc2ccc(O)cc2o1
REMARK SMILES IDX 6 1 7 2 8 3 10 4 11 5 5 6 4 7 3 8 2 9 1 10 12 11 9 12
REMARK H PARENT 9 13
REMARK Flexibility Score: inf
ROOT
ATOM      1  C   UNL     1      19.604  -1.237 -19.375  1.00  0.00     0.016 A 
ATOM      2  C   UNL     1      19.608  -0.731 -18.071  1.00  0.00     0.047 A 
ATOM      3  C   UNL     1      20.365   0.407 -17.757  1.00  0.00     0.119 A 
ATOM      4  C   UNL     1      21.119   1.042 -18.751  1.00  0.00     0.094 A 
ATOM      5  C   UNL     1      21.121   0.543 -20.058  1.00  0.00     0.142 A 
ATOM      6  C   UNL     1      20.359  -0.604 -20.373  1.00  0.00     0.018 A 
ATOM      7  C   UNL     1      20.380  -1.080 -21.688  1.00  0.00     0.019 A 
ATOM      8  C   UNL     1      21.147  -0.413 -22.643  1.00  0.00     0.094 A 
ATOM      9  C   UNL     1      21.878   0.716 -22.259  1.00  0.00     0.336 A 
ATOM     10  O   UNL     1      22.577   1.331 -23.107  1.00  0.00    -0.246 OA
ATOM     11  O   UNL     1      21.840   1.148 -21.000  1.00  0.00    -0.423 OA
ENDROOT
BRANCH   3  12
ATOM     12  O   UNL     1      20.373   0.917 -16.460  1.00  0.00    -0.508 OA
ATOM     13  H   UNL     1      19.829   0.489 -15.720  1.00  0.00     0.293 HD
ENDBRANCH   3  12
TORSDOF 1
ENDMDL
MODEL 3
REMARK VINA RESULT:    -5.261     16.641     19.383
REMARK INTER + INTRA:          -5.415
REMARK INTER:                  -5.415
REMARK INTRA:                   0.000
REMARK UNBOUND:                 0.000
REMARK SMILES O=c1ccc2ccc(O)cc2o1
REMARK SMILES IDX 6 1 7 2 8 3 10 4 11 5 5 6 4 7 3 8 2 9 1 10 12 11 9 12
REMARK H PARENT 9 13
REMARK Flexibility Score: inf
ROOT
ATOM      1  C   UNL     1       8.164  -8.039  -6.645  1.00  0.00     0.016 A 
ATOM      2  C   UNL     1       7.583  -7.135  -5.750  1.00  0.00     0.047 A 
ATOM      3  C   UNL     1       8.059  -5.818  -5.666  1.00  0.00     0.119 A 
ATOM      4  C   UNL     1       9.119  -5.405  -6.481  1.00  0.00     0.094 A 
ATOM      5  C   UNL     1       9.707  -6.302  -7.380  1.00  0.00     0.142 A 
ATOM      6  C   UNL     1       9.226  -7.628  -7.463  1.00  0.00     0.018 A 
ATOM      7  C   UNL     1       9.833  -8.502  -8.370  1.00  0.00     0.019 A 
ATOM      8  C   UNL     1      10.886  -8.043  -9.161  1.00  0.00     0.094 A 
ATOM      9  C   UNL     1      11.310  -6.717  -9.025  1.00  0.00     0.336 A 
ATOM     10  O   UNL     1      12.259  -6.284  -9.729  1.00  0.00    -0.246 OA
ATOM     11  O   UNL     1      10.715  -5.905  -8.153  1.00  0.00    -0.423 OA
ENDROOT
BRANCH   3  12
ATOM     12  O   UNL     1       7.485  -4.912  -4.777  1.00  0.00    -0.508 OA
ATOM     13  H   UNL     1       7.239  -3.972  -5.064  1.00  0.00     0.293 HD
ENDBRANCH   3  12
TORSDOF 1
ENDMDL
MODEL 4
REMARK VINA RESULT:    -5.094     18.655     20.333
REMARK INTER + INTRA:          -5.243
REMARK INTER:                  -5.243
REMARK INTRA:                   0.000
REMARK UNBOUND:                 0.000
REMARK SMILES O=c1ccc2ccc(O)cc2o1
REMARK SMILES IDX 6 1 7 2 8 3 10 4 11 5 5 6 4 7 3 8 2 9 1 10 12 11 9 12
REMARK H PARENT 9 13
REMARK Flexibility Score: inf
ROOT
ATOM      1  C   UNL     1       4.797   3.979  -7.363  1.00  0.00     0.016 A 
ATOM      2  C   UNL     1       5.791   3.000  -7.270  1.00  0.00     0.047 A 
ATOM      3  C   UNL     1       6.843   2.970  -8.198  1.00  0.00     0.119 A 
ATOM      4  C   UNL     1       6.900   3.923  -9.221  1.00  0.00     0.094 A 
ATOM      5  C   UNL     1       5.910   4.906  -9.323  1.00  0.00     0.142 A 
ATOM      6  C   UNL     1       4.851   4.935  -8.387  1.00  0.00     0.018 A 
ATOM      7  C   UNL     1       3.876   5.930  -8.514  1.00  0.00     0.019 A 
ATOM      8  C   UNL     1       3.976   6.857  -9.550  1.00  0.00     0.094 A 
ATOM      9  C   UNL     1       5.052   6.767 -10.440  1.00  0.00     0.336 A 
ATOM     10  O   UNL     1       5.159   7.595 -11.383  1.00  0.00    -0.246 OA
ATOM     11  O   UNL     1       5.967   5.810 -10.298  1.00  0.00    -0.423 OA
ENDROOT
BRANCH   3  12
ATOM     12  O   UNL     1       7.837   1.998  -8.111  1.00  0.00    -0.508 OA
ATOM     13  H   UNL     1       7.794   1.146  -8.659  1.00  0.00     0.293 HD
ENDBRANCH   3  12
TORSDOF 1
ENDMDL
MODEL 5
REMARK VINA RESULT:    -5.071      2.735      4.068
REMARK INTER + INTRA:          -5.219
REMARK INTER:                  -5.219
REMARK INTRA:                   0.000
REMARK UNBOUND:                 0.000
REMARK SMILES O=c1ccc2ccc(O)cc2o1
REMARK SMILES IDX 6 1 7 2 8 3 10 4 11 5 5 6 4 7 3 8 2 9 1 10 12 11 9 12
REMARK H PARENT 9 13
REMARK Flexibility Score: inf
ROOT
ATOM      1  C   UNL     1      21.226   0.930 -20.062  1.00  0.00     0.016 A 
ATOM      2  C   UNL     1      20.091   0.189 -20.406  1.00  0.00     0.047 A 
ATOM      3  C   UNL     1      19.275  -0.362 -19.406  1.00  0.00     0.119 A 
ATOM      4  C   UNL     1      19.596  -0.168 -18.057  1.00  0.00     0.094 A 
ATOM      5  C   UNL     1      20.729   0.573 -17.704  1.00  0.00     0.142 A 
ATOM      6  C   UNL     1      21.550   1.126 -18.712  1.00  0.00     0.018 A 
ATOM      7  C   UNL     1      22.676   1.862 -18.328  1.00  0.00     0.019 A 
ATOM      8  C   UNL     1      22.954   2.028 -16.972  1.00  0.00     0.094 A 
ATOM      9  C   UNL     1      22.098   1.451 -16.028  1.00  0.00     0.336 A 
ATOM     10  O   UNL     1      22.332   1.589 -14.799  1.00  0.00    -0.246 OA
ATOM     11  O   UNL     1      21.032   0.755 -16.420  1.00  0.00    -0.423 OA
ENDROOT
BRANCH   3  12
ATOM     12  O   UNL     1      18.143  -1.102 -19.741  1.00  0.00    -0.508 OA
ATOM     13  H   UNL     1      17.432  -1.319 -19.053  1.00  0.00     0.293 HD
ENDBRANCH   3  12
TORSDOF 1
ENDMDL
MODEL 6
REMARK VINA RESULT:    -4.972      2.626      4.955
REMARK INTER + INTRA:          -5.117
REMARK INTER:                  -5.117
REMARK INTRA:                   0.000
REMARK UNBOUND:                 0.000
REMARK SMILES O=c1ccc2ccc(O)cc2o1
REMARK SMILES IDX 6 1 7 2 8 3 10 4 11 5 5 6 4 7 3 8 2 9 1 10 12 11 9 12
REMARK H PARENT 9 13
REMARK Flexibility Score: inf
ROOT
ATOM      1  C   UNL     1      19.085   0.492 -16.136  1.00  0.00     0.016 A 
ATOM      2  C   UNL     1      19.978   1.190 -15.317  1.00  0.00     0.047 A 
ATOM      3  C   UNL     1      21.274   1.482 -15.770  1.00  0.00     0.119 A 
ATOM      4  C   UNL     1      21.676   1.074 -17.048  1.00  0.00     0.094 A 
ATOM      5  C   UNL     1      20.789   0.375 -17.874  1.00  0.00     0.142 A 
ATOM      6  C   UNL     1      19.485   0.082 -17.416  1.00  0.00     0.018 A 
ATOM      7  C   UNL     1      18.621  -0.619 -18.264  1.00  0.00     0.019 A 
ATOM      8  C   UNL     1      19.068  -1.003 -19.528  1.00  0.00     0.094 A 
ATOM      9  C   UNL     1      20.373  -0.679 -19.915  1.00  0.00     0.336 A 
ATOM     10  O   UNL     1      20.795  -1.019 -21.051  1.00  0.00    -0.246 OA
ATOM     11  O   UNL     1      21.175  -0.012 -19.088  1.00  0.00    -0.423 OA
ENDROOT
BRANCH   3  12
ATOM     12  O   UNL     1      22.169   2.178 -14.960  1.00  0.00    -0.508 OA
ATOM     13  H   UNL     1      22.686   2.976 -15.308  1.00  0.00     0.293 HD
ENDBRANCH   3  12
TORSDOF 1
ENDMDL
MODEL 7
REMARK VINA RESULT:    -4.955     17.082     19.921
REMARK INTER + INTRA:          -5.100
REMARK INTER:                  -5.100
REMARK INTRA:                   0.000
REMARK UNBOUND:                 0.000
REMARK SMILES O=c1ccc2ccc(O)cc2o1
REMARK SMILES IDX 6 1 7 2 8 3 10 4 11 5 5 6 4 7 3 8 2 9 1 10 12 11 9 12
REMARK H PARENT 9 13
REMARK Flexibility Score: inf
ROOT
ATOM      1  C   UNL     1       8.684  -5.975  -6.450  1.00  0.00     0.016 A 
ATOM      2  C   UNL     1       7.701  -6.638  -5.708  1.00  0.00     0.047 A 
ATOM      3  C   UNL     1       7.458  -8.004  -5.917  1.00  0.00     0.119 A 
ATOM      4  C   UNL     1       8.202  -8.708  -6.871  1.00  0.00     0.094 A 
ATOM      5  C   UNL     1       9.187  -8.054  -7.618  1.00  0.00     0.142 A 
ATOM      6  C   UNL     1       9.431  -6.678  -7.406  1.00  0.00     0.018 A 
ATOM      7  C   UNL     1      10.422  -6.051  -8.167  1.00  0.00     0.019 A 
ATOM      8  C   UNL     1      11.137  -6.795  -9.105  1.00  0.00     0.094 A 
ATOM      9  C   UNL     1      10.842  -8.153  -9.262  1.00  0.00     0.336 A 
ATOM     10  O   UNL     1      11.475  -8.842 -10.104  1.00  0.00    -0.246 OA
ATOM     11  O   UNL     1       9.892  -8.727  -8.524  1.00  0.00    -0.423 OA
ENDROOT
BRANCH   3  12
ATOM     12  O   UNL     1       6.480  -8.671  -5.182  1.00  0.00    -0.508 OA
ATOM     13  H   UNL     1       5.502  -8.630  -5.444  1.00  0.00     0.293 HD
ENDBRANCH   3  12
TORSDOF 1
ENDMDL
MODEL 8
REMARK VINA RESULT:    -4.929     15.578     18.278
REMARK INTER + INTRA:          -5.073
REMARK INTER:                  -5.073
REMARK INTRA:                   0.000
REMARK UNBOUND:                 0.000
REMARK SMILES O=c1ccc2ccc(O)cc2o1
REMARK SMILES IDX 6 1 7 2 8 3 10 4 11 5 5 6 4 7 3 8 2 9 1 10 12 11 9 12
REMARK H PARENT 9 13
REMARK Flexibility Score: inf
ROOT
ATOM      1  C   UNL     1       8.724  -6.675  -7.021  1.00  0.00     0.016 A 
ATOM      2  C   UNL     1       7.468  -6.058  -7.017  1.00  0.00     0.047 A 
ATOM      3  C   UNL     1       7.090  -5.216  -8.073  1.00  0.00     0.119 A 
ATOM      4  C   UNL     1       7.970  -4.992  -9.138  1.00  0.00     0.094 A 
ATOM      5  C   UNL     1       9.228  -5.604  -9.151  1.00  0.00     0.142 A 
ATOM      6  C   UNL     1       9.609  -6.451  -8.086  1.00  0.00     0.018 A 
ATOM      7  C   UNL     1      10.872  -7.049  -8.127  1.00  0.00     0.019 A 
ATOM      8  C   UNL     1      11.714  -6.795  -9.210  1.00  0.00     0.094 A 
ATOM      9  C   UNL     1      11.271  -5.944 -10.228  1.00  0.00     0.336 A 
ATOM     10  O   UNL     1      12.017  -5.701 -11.213  1.00  0.00    -0.246 OA
ATOM     11  O   UNL     1      10.063  -5.387 -10.165  1.00  0.00    -0.423 OA
ENDROOT
BRANCH   3  12
ATOM     12  O   UNL     1       5.841  -4.599  -8.075  1.00  0.00    -0.508 OA
ATOM     13  H   UNL     1       4.996  -5.114  -7.854  1.00  0.00     0.293 HD
ENDBRANCH   3  12
TORSDOF 1
ENDMDL
MODEL 9
REMARK VINA RESULT:    -4.903     17.100     18.737
REMARK INTER + INTRA:          -5.046
REMARK INTER:                  -5.046
REMARK INTRA:                   0.000
REMARK UNBOUND:                 0.000
REMARK SMILES O=c1ccc2ccc(O)cc2o1
REMARK SMILES IDX 6 1 7 2 8 3 10 4 11 5 5 6 4 7 3 8 2 9 1 10 12 11 9 12
REMARK H PARENT 9 13
REMARK Flexibility Score: inf
ROOT
ATOM      1  C   UNL     1       7.672  -6.705  -7.367  1.00  0.00     0.016 A 
ATOM      2  C   UNL     1       8.355  -5.930  -6.424  1.00  0.00     0.047 A 
ATOM      3  C   UNL     1       9.685  -5.545  -6.654  1.00  0.00     0.119 A 
ATOM      4  C   UNL     1      10.331  -5.935  -7.833  1.00  0.00     0.094 A 
ATOM      5  C   UNL     1       9.656  -6.710  -8.782  1.00  0.00     0.142 A 
ATOM      6  C   UNL     1       8.317  -7.098  -8.548  1.00  0.00     0.018 A 
ATOM      7  C   UNL     1       7.668  -7.872  -9.515  1.00  0.00     0.019 A 
ATOM      8  C   UNL     1       8.354  -8.236 -10.673  1.00  0.00     0.094 A 
ATOM      9  C   UNL     1       9.678  -7.817 -10.837  1.00  0.00     0.336 A 
ATOM     10  O   UNL     1      10.315  -8.135 -11.876  1.00  0.00    -0.246 OA
ATOM     11  O   UNL     1      10.274  -7.080  -9.901  1.00  0.00    -0.423 OA
ENDROOT
BRANCH   3  12
ATOM     12  O   UNL     1      10.371  -4.773  -5.719  1.00  0.00    -0.508 OA
ATOM     13  H   UNL     1      11.287  -4.389  -5.922  1.00  0.00     0.293 HD
ENDBRANCH   3  12
TORSDOF 1
ENDMDL
