MODEL 1
REMARK VINA RESULT:     1.479      0.000      0.000
REMARK INTER + INTRA:           2.609
REMARK INTER:                   2.128
REMARK INTRA:                   0.482
REMARK UNBOUND:                 0.482
REMARK SMILES O=c1c(O[C@@H]2O[C@@H](CO)[C@@H](O)[C@H](O)[C@@H]2O)c(-c2ccc(O)cc2)oc2cc(O)cc(O)c12
REMARK SMILES IDX 4 1 3 2 16 3 24 4 2 5 25 6 1 7 32 8 26 9 30 10 27 11 29 12
REMARK SMILES IDX 17 13 18 14 19 15 20 16 23 17 22 18 21 19 31 21 28 23 5 25
REMARK SMILES IDX 14 26 6 27 12 28 7 29 10 30 15 31 13 33 8 35 9 36 11 38
REMARK H PARENT 21 20 31 22 28 24 15 32 13 34 9 37 11 39
REMARK Flexibility Score: inf
ROOT
ATOM      1  O   UNL     1     -34.732  10.344 -39.560  1.00  0.00    -0.454 OA
ENDROOT
BRANCH   1   2
ATOM      2  C   UNL     1     -35.709  10.336 -40.629  1.00  0.00     0.214 A 
ATOM      3  C   UNL     1     -35.481   9.943 -41.978  1.00  0.00     0.180 A 
ATOM      4  O   UNL     1     -36.476  10.142 -42.970  1.00  0.00    -0.452 OA
ATOM      5  C   UNL     1     -36.969  11.056 -40.505  1.00  0.00     0.239 A 
ATOM      6  C   UNL     1     -37.708  10.104 -42.635  1.00  0.00     0.146 A 
ATOM      7  O   UNL     1     -37.148  11.948 -39.659  1.00  0.00    -0.285 OA
ATOM      8  C   UNL     1     -38.032  10.791 -41.452  1.00  0.00     0.111 A 
ATOM      9  C   UNL     1     -38.666   9.630 -43.476  1.00  0.00     0.094 A 
ATOM     10  C   UNL     1     -39.410  11.131 -41.242  1.00  0.00     0.134 A 
ATOM     11  C   UNL     1     -40.014   9.639 -43.066  1.00  0.00     0.123 A 
ATOM     12  C   UNL     1     -40.373  10.519 -42.006  1.00  0.00     0.093 A 
BRANCH   3  13
ATOM     13  C   UNL     1     -34.244   9.260 -42.371  1.00  0.00     0.021 A 
ATOM     14  C   UNL     1     -33.822   9.460 -43.713  1.00  0.00     0.016 A 
ATOM     15  C   UNL     1     -32.523   9.162 -44.125  1.00  0.00     0.047 A 
ATOM     16  C   UNL     1     -31.490   8.957 -43.174  1.00  0.00     0.115 A 
ATOM     17  C   UNL     1     -33.180   9.030 -41.434  1.00  0.00     0.016 A 
ATOM     18  C   UNL     1     -31.824   8.942 -41.827  1.00  0.00     0.047 A 
BRANCH  16  19
ATOM     19  O   UNL     1     -30.128   8.876 -43.551  1.00  0.00    -0.508 OA
ATOM     20  H   UNL     1     -29.783   7.869 -43.585  1.00  0.00     0.293 HD
ENDBRANCH  16  19
ENDBRANCH   3  13
BRANCH  10  21
ATOM     21  O   UNL     1     -39.850  12.037 -40.250  1.00  0.00    -0.507 OA
ATOM     22  H   UNL     1     -39.240  12.736 -39.802  1.00  0.00     0.293 HD
ENDBRANCH  10  21
BRANCH  11  23
ATOM     23  O   UNL     1     -41.003   8.883 -43.644  1.00  0.00    -0.508 OA
ATOM     24  H   UNL     1     -41.924   8.706 -43.218  1.00  0.00     0.293 HD
ENDBRANCH  11  23
ENDBRANCH   1   2
BRANCH   1  25
ATOM     25  C   UNL     1     -33.457  11.091 -39.564  1.00  0.00     0.339 C 
ATOM     26  C   UNL     1     -33.470  12.489 -38.955  1.00  0.00     0.214 C 
ATOM     27  O   UNL     1     -32.361  10.357 -38.907  1.00  0.00    -0.332 OA
ATOM     28  C   UNL     1     -33.538  12.644 -37.431  1.00  0.00     0.180 C 
ATOM     29  C   UNL     1     -32.795   9.965 -37.639  1.00  0.00     0.179 C 
ATOM     30  C   UNL     1     -32.918  11.347 -36.805  1.00  0.00     0.177 C 
BRANCH  26  31
ATOM     31  O   UNL     1     -34.342  13.338 -39.733  1.00  0.00    -0.384 OA
ATOM     32  H   UNL     1     -34.823  13.995 -39.118  1.00  0.00     0.211 HD
ENDBRANCH  26  31
BRANCH  28  33
ATOM     33  O   UNL     1     -34.744  13.154 -36.865  1.00  0.00    -0.387 OA
ATOM     34  H   UNL     1     -34.831  12.762 -35.919  1.00  0.00     0.211 HD
ENDBRANCH  28  33
BRANCH  29  35
ATOM     35  C   UNL     1     -31.828   9.022 -36.865  1.00  0.00     0.191 C 
BRANCH  35  36
ATOM     36  O   UNL     1     -31.771   9.206 -35.436  1.00  0.00    -0.394 OA
ATOM     37  H   UNL     1     -32.203   8.374 -35.036  1.00  0.00     0.210 HD
ENDBRANCH  35  36
ENDBRANCH  29  35
BRANCH  30  38
ATOM     38  O   UNL     1     -31.655  11.699 -36.243  1.00  0.00    -0.387 OA
ATOM     39  H   UNL     1     -31.346  12.603 -36.615  1.00  0.00     0.211 HD
ENDBRANCH  30  38
ENDBRANCH   1  25
TORSDOF 11
ENDMDL
