MODEL 1
REMARK VINA RESULT:    -4.940      0.000      0.000
REMARK INTER + INTRA:          -8.188
REMARK INTER:                  -7.539
REMARK INTRA:                  -0.649
REMARK UNBOUND:                -0.649
REMARK SMILES OC[C@H]1O[C@H](O[C@]2(CO)O[C@H](CO)[C@@H](O)[C@H]2O)[C@@H](O)[C@H](O)[C@@H]1O
REMARK SMILES IDX 6 1 5 2 3 3 22 4 4 5 20 6 18 7 2 8 1 9 23 11 21 13 19 15
REMARK SMILES IDX 7 17 16 18 10 19 14 20 11 21 8 22 9 23 17 25 15 27 12 29
REMARK SMILES IDX 13 30
REMARK H PARENT 1 10 23 12 21 14 19 16 9 24 17 26 15 28 13 31
REMARK Flexibility Score: inf
ROOT
ATOM      1  O   UNL     1       4.703  29.413  11.786  1.00  0.00    -0.313 OA
ENDROOT
BRANCH   1   2
ATOM      2  C   UNL     1       3.437  29.417  11.128  1.00  0.00     0.285 C 
ATOM      3  C   UNL     1       3.136  27.195  11.858  1.00  0.00     0.178 C 
ATOM      4  C   UNL     1       2.398  27.727  13.130  1.00  0.00     0.177 C 
ATOM      5  O   UNL     1       3.059  28.097  10.757  1.00  0.00    -0.341 OA
ATOM      6  C   UNL     1       1.528  28.946  12.771  1.00  0.00     0.179 C 
ATOM      7  C   UNL     1       2.366  30.041  12.064  1.00  0.00     0.202 C 
BRANCH   3   8
ATOM      8  C   UNL     1       2.564  25.844  11.411  1.00  0.00     0.191 C 
BRANCH   8   9
ATOM      9  O   UNL     1       1.243  25.703  11.866  1.00  0.00    -0.394 OA
ATOM     10  H   UNL     1       1.138  26.291  12.659  1.00  0.00     0.210 HD
ENDBRANCH   8   9
ENDBRANCH   3   8
BRANCH   4  11
ATOM     11  O   UNL     1       3.341  28.085  14.110  1.00  0.00    -0.387 OA
ATOM     12  H   UNL     1       3.478  27.285  14.678  1.00  0.00     0.211 HD
ENDBRANCH   4  11
BRANCH   6  13
ATOM     13  O   UNL     1       0.859  29.454  13.898  1.00  0.00    -0.387 OA
ATOM     14  H   UNL     1       0.011  29.866  13.591  1.00  0.00     0.211 HD
ENDBRANCH   6  13
BRANCH   7  15
ATOM     15  O   UNL     1       1.527  30.918  11.348  1.00  0.00    -0.385 OA
ATOM     16  H   UNL     1       1.566  30.651  10.390  1.00  0.00     0.211 HD
ENDBRANCH   7  15
ENDBRANCH   1   2
BRANCH   1  17
ATOM     17  C   UNL     1       5.620  30.410  11.334  1.00  0.00     0.224 C 
ATOM     18  C   UNL     1       7.045  30.110  11.868  1.00  0.00     0.208 C 
ATOM     19  O   UNL     1       5.684  30.292   9.931  1.00  0.00    -0.337 OA
ATOM     20  C   UNL     1       7.709  29.324  10.739  1.00  0.00     0.180 C 
ATOM     21  C   UNL     1       6.663  29.330   9.621  1.00  0.00     0.179 C 
BRANCH  17  22
ATOM     22  C   UNL     1       5.108  31.846  11.634  1.00  0.00     0.225 C 
BRANCH  22  23
ATOM     23  O   UNL     1       5.183  32.124  13.008  1.00  0.00    -0.391 OA
ATOM     24  H   UNL     1       4.334  31.795  13.404  1.00  0.00     0.210 HD
ENDBRANCH  22  23
ENDBRANCH  17  22
BRANCH  18  25
ATOM     25  O   UNL     1       7.752  31.293  12.158  1.00  0.00    -0.385 OA
ATOM     26  H   UNL     1       8.361  31.460  11.392  1.00  0.00     0.211 HD
ENDBRANCH  18  25
BRANCH  20  27
ATOM     27  O   UNL     1       8.892  29.937  10.290  1.00  0.00    -0.387 OA
ATOM     28  H   UNL     1       9.026  29.643   9.350  1.00  0.00     0.211 HD
ENDBRANCH  20  27
BRANCH  21  29
ATOM     29  C   UNL     1       5.999  27.952   9.422  1.00  0.00     0.191 C 
BRANCH  29  30
ATOM     30  O   UNL     1       6.801  26.943   9.982  1.00  0.00    -0.394 OA
ATOM     31  H   UNL     1       6.203  26.365  10.523  1.00  0.00     0.210 HD
ENDBRANCH  29  30
ENDBRANCH  21  29
ENDBRANCH   1  17
TORSDOF 13
ENDMDL
MODEL 2
REMARK VINA RESULT:    -4.587      1.512      5.977
REMARK INTER + INTRA:          -7.649
REMARK INTER:                  -6.377
REMARK INTRA:                  -1.272
REMARK UNBOUND:                -0.649
REMARK SMILES OC[C@H]1O[C@H](O[C@]2(CO)O[C@H](CO)[C@@H](O)[C@H]2O)[C@@H](O)[C@H](O)[C@@H]1O
REMARK SMILES IDX 6 1 5 2 3 3 22 4 4 5 20 6 18 7 2 8 1 9 23 11 21 13 19 15
REMARK SMILES IDX 7 17 16 18 10 19 14 20 11 21 8 22 9 23 17 25 15 27 12 29
REMARK SMILES IDX 13 30
REMARK H PARENT 1 10 23 12 21 14 19 16 9 24 17 26 15 28 13 31
REMARK Flexibility Score: inf
ROOT
ATOM      1  O   UNL     1       4.748  28.904  11.249  1.00  0.00    -0.313 OA
ENDROOT
BRANCH   1   2
ATOM      2  C   UNL     1       5.317  28.812   9.945  1.00  0.00     0.285 C 
ATOM      3  C   UNL     1       6.476  30.817  10.392  1.00  0.00     0.178 C 
ATOM      4  C   UNL     1       7.695  29.982  10.906  1.00  0.00     0.177 C 
ATOM      5  O   UNL     1       5.671  30.102   9.459  1.00  0.00    -0.341 OA
ATOM      6  C   UNL     1       7.876  28.717  10.046  1.00  0.00     0.179 C 
ATOM      7  C   UNL     1       6.567  27.890   9.986  1.00  0.00     0.202 C 
BRANCH   3   8
ATOM      8  C   UNL     1       6.939  32.118   9.726  1.00  0.00     0.191 C 
BRANCH   8   9
ATOM      9  O   UNL     1       8.335  32.115   9.574  1.00  0.00    -0.394 OA
ATOM     10  H   UNL     1       8.714  31.582  10.321  1.00  0.00     0.210 HD
ENDBRANCH   8   9
ENDBRANCH   3   8
BRANCH   4  11
ATOM     11  O   UNL     1       7.488  29.620  12.249  1.00  0.00    -0.387 OA
ATOM     12  H   UNL     1       7.196  28.674  12.247  1.00  0.00     0.211 HD
ENDBRANCH   4  11
BRANCH   6  13
ATOM     13  O   UNL     1       8.959  27.940  10.491  1.00  0.00    -0.387 OA
ATOM     14  H   UNL     1       9.797  28.417  10.255  1.00  0.00     0.211 HD
ENDBRANCH   6  13
BRANCH   7  15
ATOM     15  O   UNL     1       6.584  27.022   8.877  1.00  0.00    -0.385 OA
ATOM     16  H   UNL     1       7.509  27.025   8.511  1.00  0.00     0.211 HD
ENDBRANCH   7  15
ENDBRANCH   1   2
BRANCH   1  17
ATOM     17  C   UNL     1       3.492  28.245  11.405  1.00  0.00     0.224 C 
ATOM     18  C   UNL     1       3.090  28.201  12.903  1.00  0.00     0.208 C 
ATOM     19  O   UNL     1       2.532  29.046  10.756  1.00  0.00    -0.337 OA
ATOM     20  C   UNL     1       2.202  29.429  13.088  1.00  0.00     0.180 C 
ATOM     21  C   UNL     1       2.077  30.010  11.677  1.00  0.00     0.179 C 
BRANCH  17  22
ATOM     22  C   UNL     1       3.470  26.864  10.692  1.00  0.00     0.225 C 
BRANCH  22  23
ATOM     23  O   UNL     1       4.128  25.894  11.464  1.00  0.00    -0.391 OA
ATOM     24  H   UNL     1       4.997  25.725  11.016  1.00  0.00     0.210 HD
ENDBRANCH  22  23
ENDBRANCH  17  22
BRANCH  18  25
ATOM     25  O   UNL     1       2.404  27.014  13.225  1.00  0.00    -0.385 OA
ATOM     26  H   UNL     1       1.497  27.280  13.529  1.00  0.00     0.211 HD
ENDBRANCH  18  25
BRANCH  20  27
ATOM     27  O   UNL     1       0.928  29.093  13.580  1.00  0.00    -0.387 OA
ATOM     28  H   UNL     1       0.272  29.382  12.893  1.00  0.00     0.211 HD
ENDBRANCH  20  27
BRANCH  21  29
ATOM     29  C   UNL     1       2.874  31.318  11.501  1.00  0.00     0.191 C 
BRANCH  29  30
ATOM     30  O   UNL     1       3.149  31.538  10.141  1.00  0.00    -0.394 OA
ATOM     31  H   UNL     1       3.378  32.499  10.044  1.00  0.00     0.210 HD
ENDBRANCH  29  30
ENDBRANCH  21  29
ENDBRANCH   1  17
TORSDOF 13
ENDMDL
MODEL 3
REMARK VINA RESULT:    -4.423      1.700      4.579
REMARK INTER + INTRA:          -7.399
REMARK INTER:                  -6.045
REMARK INTRA:                  -1.354
REMARK UNBOUND:                -0.649
REMARK SMILES OC[C@H]1O[C@H](O[C@]2(CO)O[C@H](CO)[C@@H](O)[C@H]2O)[C@@H](O)[C@H](O)[C@@H]1O
REMARK SMILES IDX 6 1 5 2 3 3 22 4 4 5 20 6 18 7 2 8 1 9 23 11 21 13 19 15
REMARK SMILES IDX 7 17 16 18 10 19 14 20 11 21 8 22 9 23 17 25 15 27 12 29
REMARK SMILES IDX 13 30
REMARK H PARENT 1 10 23 12 21 14 19 16 9 24 17 26 15 28 13 31
REMARK Flexibility Score: inf
ROOT
ATOM      1  O   UNL     1       3.037  27.841  10.654  1.00  0.00    -0.313 OA
ENDROOT
BRANCH   1   2
ATOM      2  C   UNL     1       3.493  27.932  12.002  1.00  0.00     0.285 C 
ATOM      3  C   UNL     1       3.557  30.275  11.741  1.00  0.00     0.178 C 
ATOM      4  C   UNL     1       2.100  30.363  12.303  1.00  0.00     0.177 C 
ATOM      5  O   UNL     1       4.255  29.118  12.196  1.00  0.00    -0.341 OA
ATOM      6  C   UNL     1       1.901  29.338  13.434  1.00  0.00     0.179 C 
ATOM      7  C   UNL     1       2.276  27.909  12.966  1.00  0.00     0.202 C 
BRANCH   3   8
ATOM      8  C   UNL     1       4.376  31.511  12.132  1.00  0.00     0.191 C 
BRANCH   8   9
ATOM      9  O   UNL     1       5.609  31.124  12.681  1.00  0.00    -0.394 OA
ATOM     10  H   UNL     1       5.427  30.748  13.583  1.00  0.00     0.210 HD
ENDBRANCH   8   9
ENDBRANCH   3   8
BRANCH   4  11
ATOM     11  O   UNL     1       1.179  30.118  11.269  1.00  0.00    -0.387 OA
ATOM     12  H   UNL     1       1.065  30.973  10.781  1.00  0.00     0.211 HD
ENDBRANCH   4  11
BRANCH   6  13
ATOM     13  O   UNL     1       0.595  29.386  13.952  1.00  0.00    -0.387 OA
ATOM     14  H   UNL     1       0.086  28.624  13.573  1.00  0.00     0.211 HD
ENDBRANCH   6  13
BRANCH   7  15
ATOM     15  O   UNL     1       2.532  27.078  14.075  1.00  0.00    -0.385 OA
ATOM     16  H   UNL     1       2.171  27.538  14.880  1.00  0.00     0.211 HD
ENDBRANCH   7  15
ENDBRANCH   1   2
BRANCH   1  17
ATOM     17  C   UNL     1       3.931  27.179   9.759  1.00  0.00     0.224 C 
ATOM     18  C   UNL     1       4.822  26.174  10.535  1.00  0.00     0.208 C 
ATOM     19  O   UNL     1       3.134  26.415   8.883  1.00  0.00    -0.337 OA
ATOM     20  C   UNL     1       4.084  24.843  10.406  1.00  0.00     0.180 C 
ATOM     21  C   UNL     1       2.903  25.164   9.487  1.00  0.00     0.179 C 
BRANCH  17  22
ATOM     22  C   UNL     1       4.717  28.188   8.875  1.00  0.00     0.225 C 
BRANCH  22  23
ATOM     23  O   UNL     1       5.773  28.765   9.597  1.00  0.00    -0.391 OA
ATOM     24  H   UNL     1       6.133  29.493   9.027  1.00  0.00     0.210 HD
ENDBRANCH  22  23
ENDBRANCH  17  22
BRANCH  18  25
ATOM     25  O   UNL     1       6.120  26.099   9.992  1.00  0.00    -0.385 OA
ATOM     26  H   UNL     1       6.078  25.459   9.234  1.00  0.00     0.211 HD
ENDBRANCH  18  25
BRANCH  20  27
ATOM     27  O   UNL     1       4.886  23.846   9.822  1.00  0.00    -0.387 OA
ATOM     28  H   UNL     1       4.319  23.034   9.744  1.00  0.00     0.211 HD
ENDBRANCH  20  27
BRANCH  21  29
ATOM     29  C   UNL     1       1.556  25.187  10.238  1.00  0.00     0.191 C 
BRANCH  29  30
ATOM     30  O   UNL     1       1.699  24.599  11.506  1.00  0.00    -0.394 OA
ATOM     31  H   UNL     1       2.228  25.230  12.060  1.00  0.00     0.210 HD
ENDBRANCH  29  30
ENDBRANCH  21  29
ENDBRANCH   1  17
TORSDOF 13
ENDMDL
MODEL 4
REMARK VINA RESULT:    -4.378      1.988      5.344
REMARK INTER + INTRA:          -7.331
REMARK INTER:                  -5.896
REMARK INTRA:                  -1.435
REMARK UNBOUND:                -0.649
REMARK SMILES OC[C@H]1O[C@H](O[C@]2(CO)O[C@H](CO)[C@@H](O)[C@H]2O)[C@@H](O)[C@H](O)[C@@H]1O
REMARK SMILES IDX 6 1 5 2 3 3 22 4 4 5 20 6 18 7 2 8 1 9 23 11 21 13 19 15
REMARK SMILES IDX 7 17 16 18 10 19 14 20 11 21 8 22 9 23 17 25 15 27 12 29
REMARK SMILES IDX 13 30
REMARK H PARENT 1 10 23 12 21 14 19 16 9 24 17 26 15 28 13 31
REMARK Flexibility Score: inf
ROOT
ATOM      1  O   UNL     1       3.264  27.237  10.348  1.00  0.00    -0.313 OA
ENDROOT
BRANCH   1   2
ATOM      2  C   UNL     1       3.824  28.083  11.350  1.00  0.00     0.285 C 
ATOM      3  C   UNL     1       4.757  29.386   9.621  1.00  0.00     0.178 C 
ATOM      4  C   UNL     1       3.492  30.306   9.651  1.00  0.00     0.177 C 
ATOM      5  O   UNL     1       4.993  28.732  10.865  1.00  0.00    -0.341 OA
ATOM      6  C   UNL     1       3.005  30.498  11.099  1.00  0.00     0.179 C 
ATOM      7  C   UNL     1       2.769  29.133  11.794  1.00  0.00     0.202 C 
BRANCH   3   8
ATOM      8  C   UNL     1       6.013  30.187   9.255  1.00  0.00     0.191 C 
BRANCH   8   9
ATOM      9  O   UNL     1       7.126  29.334   9.177  1.00  0.00    -0.394 OA
ATOM     10  H   UNL     1       6.789  28.401   9.223  1.00  0.00     0.210 HD
ENDBRANCH   8   9
ENDBRANCH   3   8
BRANCH   4  11
ATOM     11  O   UNL     1       2.470  29.731   8.875  1.00  0.00    -0.387 OA
ATOM     12  H   UNL     1       1.805  29.361   9.510  1.00  0.00     0.211 HD
ENDBRANCH   4  11
BRANCH   6  13
ATOM     13  O   UNL     1       1.861  31.312  11.156  1.00  0.00    -0.387 OA
ATOM     14  H   UNL     1       1.066  30.722  11.215  1.00  0.00     0.211 HD
ENDBRANCH   6  13
BRANCH   7  15
ATOM     15  O   UNL     1       2.774  29.286  13.194  1.00  0.00    -0.385 OA
ATOM     16  H   UNL     1       3.549  28.770  13.547  1.00  0.00     0.211 HD
ENDBRANCH   7  15
ENDBRANCH   1   2
BRANCH   1  17
ATOM     17  C   UNL     1       3.009  25.895  10.766  1.00  0.00     0.224 C 
ATOM     18  C   UNL     1       2.329  25.097   9.623  1.00  0.00     0.208 C 
ATOM     19  O   UNL     1       4.265  25.295  10.983  1.00  0.00    -0.337 OA
ATOM     20  C   UNL     1       3.489  24.404   8.910  1.00  0.00     0.180 C 
ATOM     21  C   UNL     1       4.712  24.768   9.756  1.00  0.00     0.179 C 
BRANCH  17  22
ATOM     22  C   UNL     1       2.255  25.846  12.124  1.00  0.00     0.225 C 
BRANCH  22  23
ATOM     23  O   UNL     1       0.885  26.090  11.942  1.00  0.00    -0.391 OA
ATOM     24  H   UNL     1       0.491  26.151  12.851  1.00  0.00     0.210 HD
ENDBRANCH  22  23
ENDBRANCH  17  22
BRANCH  18  25
ATOM     25  O   UNL     1       1.398  24.165  10.121  1.00  0.00    -0.385 OA
ATOM     26  H   UNL     1       1.918  23.460  10.589  1.00  0.00     0.211 HD
ENDBRANCH  18  25
BRANCH  20  27
ATOM     27  O   UNL     1       3.331  23.007   8.875  1.00  0.00    -0.387 OA
ATOM     28  H   UNL     1       4.198  22.630   8.571  1.00  0.00     0.211 HD
ENDBRANCH  20  27
BRANCH  21  29
ATOM     29  C   UNL     1       5.636  25.784   9.055  1.00  0.00     0.191 C 
BRANCH  29  30
ATOM     30  O   UNL     1       6.485  26.395   9.995  1.00  0.00    -0.394 OA
ATOM     31  H   UNL     1       5.902  26.839  10.665  1.00  0.00     0.210 HD
ENDBRANCH  29  30
ENDBRANCH  21  29
ENDBRANCH   1  17
TORSDOF 13
ENDMDL
MODEL 5
REMARK VINA RESULT:    -4.171      2.040      4.934
REMARK INTER + INTRA:          -7.014
REMARK INTER:                  -6.268
REMARK INTRA:                  -0.747
REMARK UNBOUND:                -0.649
REMARK SMILES OC[C@H]1O[C@H](O[C@]2(CO)O[C@H](CO)[C@@H](O)[C@H]2O)[C@@H](O)[C@H](O)[C@@H]1O
REMARK SMILES IDX 6 1 5 2 3 3 22 4 4 5 20 6 18 7 2 8 1 9 23 11 21 13 19 15
REMARK SMILES IDX 7 17 16 18 10 19 14 20 11 21 8 22 9 23 17 25 15 27 12 29
REMARK SMILES IDX 13 30
REMARK H PARENT 1 10 23 12 21 14 19 16 9 24 17 26 15 28 13 31
REMARK Flexibility Score: inf
ROOT
ATOM      1  O   UNL     1       2.728  27.395  10.977  1.00  0.00    -0.313 OA
ENDROOT
BRANCH   1   2
ATOM      2  C   UNL     1       3.247  26.237  11.628  1.00  0.00     0.285 C 
ATOM      3  C   UNL     1       1.175  25.181  11.234  1.00  0.00     0.178 C 
ATOM      4  C   UNL     1       1.742  24.597   9.898  1.00  0.00     0.177 C 
ATOM      5  O   UNL     1       2.194  25.462  12.190  1.00  0.00    -0.341 OA
ATOM      6  C   UNL     1       3.219  24.200  10.073  1.00  0.00     0.179 C 
ATOM      7  C   UNL     1       4.057  25.388  10.610  1.00  0.00     0.202 C 
BRANCH   3   8
ATOM      8  C   UNL     1       0.171  24.216  11.876  1.00  0.00     0.191 C 
BRANCH   8   9
ATOM      9  O   UNL     1       0.264  22.949  11.278  1.00  0.00    -0.394 OA
ATOM     10  H   UNL     1       0.626  22.325  11.961  1.00  0.00     0.210 HD
ENDBRANCH   8   9
ENDBRANCH   3   8
BRANCH   4  11
ATOM     11  O   UNL     1       1.623  25.556   8.875  1.00  0.00    -0.387 OA
ATOM     12  H   UNL     1       0.719  25.952   8.961  1.00  0.00     0.211 HD
ENDBRANCH   4  11
BRANCH   6  13
ATOM     13  O   UNL     1       3.760  23.682   8.884  1.00  0.00    -0.387 OA
ATOM     14  H   UNL     1       3.188  22.925   8.591  1.00  0.00     0.211 HD
ENDBRANCH   6  13
BRANCH   7  15
ATOM     15  O   UNL     1       5.255  24.924  11.189  1.00  0.00    -0.385 OA
ATOM     16  H   UNL     1       5.916  24.810  10.454  1.00  0.00     0.211 HD
ENDBRANCH   7  15
ENDBRANCH   1   2
BRANCH   1  17
ATOM     17  C   UNL     1       3.558  28.554  11.056  1.00  0.00     0.224 C 
ATOM     18  C   UNL     1       2.857  29.765  10.387  1.00  0.00     0.208 C 
ATOM     19  O   UNL     1       3.683  28.868  12.424  1.00  0.00    -0.337 OA
ATOM     20  C   UNL     1       2.157  30.477  11.543  1.00  0.00     0.180 C 
ATOM     21  C   UNL     1       2.598  29.691  12.781  1.00  0.00     0.179 C 
BRANCH  17  22
ATOM     22  C   UNL     1       4.995  28.272  10.534  1.00  0.00     0.225 C 
BRANCH  22  23
ATOM     23  O   UNL     1       5.918  29.157  11.113  1.00  0.00    -0.391 OA
ATOM     24  H   UNL     1       5.886  29.986  10.570  1.00  0.00     0.210 HD
ENDBRANCH  22  23
ENDBRANCH  17  22
BRANCH  18  25
ATOM     25  O   UNL     1       3.779  30.611   9.742  1.00  0.00    -0.385 OA
ATOM     26  H   UNL     1       4.672  30.409  10.126  1.00  0.00     0.211 HD
ENDBRANCH  18  25
BRANCH  20  27
ATOM     27  O   UNL     1       2.560  31.819  11.661  1.00  0.00    -0.387 OA
ATOM     28  H   UNL     1       1.936  32.248  12.304  1.00  0.00     0.211 HD
ENDBRANCH  20  27
BRANCH  21  29
ATOM     29  C   UNL     1       1.462  28.832  13.373  1.00  0.00     0.191 C 
BRANCH  29  30
ATOM     30  O   UNL     1       1.998  27.788  14.147  1.00  0.00    -0.394 OA
ATOM     31  H   UNL     1       1.663  27.913  15.073  1.00  0.00     0.210 HD
ENDBRANCH  29  30
ENDBRANCH  21  29
ENDBRANCH   1  17
TORSDOF 13
ENDMDL
MODEL 6
REMARK VINA RESULT:    -4.092      1.914      4.724
REMARK INTER + INTRA:          -6.893
REMARK INTER:                  -5.583
REMARK INTRA:                  -1.310
REMARK UNBOUND:                -0.649
REMARK SMILES OC[C@H]1O[C@H](O[C@]2(CO)O[C@H](CO)[C@@H](O)[C@H]2O)[C@@H](O)[C@H](O)[C@@H]1O
REMARK SMILES IDX 6 1 5 2 3 3 22 4 4 5 20 6 18 7 2 8 1 9 23 11 21 13 19 15
REMARK SMILES IDX 7 17 16 18 10 19 14 20 11 21 8 22 9 23 17 25 15 27 12 29
REMARK SMILES IDX 13 30
REMARK H PARENT 1 10 23 12 21 14 19 16 9 24 17 26 15 28 13 31
REMARK Flexibility Score: inf
ROOT
ATOM      1  O   UNL     1       4.307  27.846  11.228  1.00  0.00    -0.313 OA
ENDROOT
BRANCH   1   2
ATOM      2  C   UNL     1       4.001  27.530   9.872  1.00  0.00     0.285 C 
ATOM      3  C   UNL     1       5.984  26.257   9.800  1.00  0.00     0.178 C 
ATOM      4  C   UNL     1       5.168  24.986  10.207  1.00  0.00     0.177 C 
ATOM      5  O   UNL     1       5.188  27.238   9.143  1.00  0.00    -0.341 OA
ATOM      6  C   UNL     1       3.786  25.000   9.528  1.00  0.00     0.179 C 
ATOM      7  C   UNL     1       3.029  26.319   9.827  1.00  0.00     0.202 C 
BRANCH   3   8
ATOM      8  C   UNL     1       7.151  25.890   8.875  1.00  0.00     0.191 C 
BRANCH   8   9
ATOM      9  O   UNL     1       7.806  24.743   9.351  1.00  0.00    -0.394 OA
ATOM     10  H   UNL     1       7.461  23.968   8.834  1.00  0.00     0.210 HD
ENDBRANCH   8   9
ENDBRANCH   3   8
BRANCH   4  11
ATOM     11  O   UNL     1       5.012  24.951  11.605  1.00  0.00    -0.387 OA
ATOM     12  H   UNL     1       5.509  24.157  11.926  1.00  0.00     0.211 HD
ENDBRANCH   4  11
BRANCH   6  13
ATOM     13  O   UNL     1       3.023  23.875   9.884  1.00  0.00    -0.387 OA
ATOM     14  H   UNL     1       3.051  23.785  10.871  1.00  0.00     0.211 HD
ENDBRANCH   6  13
BRANCH   7  15
ATOM     15  O   UNL     1       2.012  26.530   8.875  1.00  0.00    -0.385 OA
ATOM     16  H   UNL     1       1.184  26.105   9.226  1.00  0.00     0.211 HD
ENDBRANCH   7  15
ENDBRANCH   1   2
BRANCH   1  17
ATOM     17  C   UNL     1       4.336  29.242  11.530  1.00  0.00     0.224 C 
ATOM     18  C   UNL     1       3.331  30.007  10.630  1.00  0.00     0.208 C 
ATOM     19  O   UNL     1       3.873  29.378  12.854  1.00  0.00    -0.337 OA
ATOM     20  C   UNL     1       2.061  30.090  11.475  1.00  0.00     0.180 C 
ATOM     21  C   UNL     1       2.469  29.473  12.815  1.00  0.00     0.179 C 
BRANCH  17  22
ATOM     22  C   UNL     1       5.783  29.809  11.506  1.00  0.00     0.225 C 
BRANCH  22  23
ATOM     23  O   UNL     1       5.949  30.791  12.494  1.00  0.00    -0.391 OA
ATOM     24  H   UNL     1       5.983  31.661  12.017  1.00  0.00     0.210 HD
ENDBRANCH  22  23
ENDBRANCH  17  22
BRANCH  18  25
ATOM     25  O   UNL     1       3.807  31.286  10.285  1.00  0.00    -0.385 OA
ATOM     26  H   UNL     1       4.201  31.212   9.377  1.00  0.00     0.211 HD
ENDBRANCH  18  25
BRANCH  20  27
ATOM     27  O   UNL     1       1.641  31.418  11.670  1.00  0.00    -0.387 OA
ATOM     28  H   UNL     1       1.448  31.790  10.769  1.00  0.00     0.211 HD
ENDBRANCH  20  27
BRANCH  21  29
ATOM     29  C   UNL     1       1.845  28.081  13.042  1.00  0.00     0.191 C 
BRANCH  29  30
ATOM     30  O   UNL     1       2.766  27.236  13.685  1.00  0.00    -0.394 OA
ATOM     31  H   UNL     1       3.512  27.085  13.048  1.00  0.00     0.210 HD
ENDBRANCH  29  30
ENDBRANCH  21  29
ENDBRANCH   1  17
TORSDOF 13
ENDMDL
MODEL 7
REMARK VINA RESULT:    -4.043      1.670      2.207
REMARK INTER + INTRA:          -6.819
REMARK INTER:                  -5.471
REMARK INTRA:                  -1.348
REMARK UNBOUND:                -0.649
REMARK SMILES OC[C@H]1O[C@H](O[C@]2(CO)O[C@H](CO)[C@@H](O)[C@H]2O)[C@@H](O)[C@H](O)[C@@H]1O
REMARK SMILES IDX 6 1 5 2 3 3 22 4 4 5 20 6 18 7 2 8 1 9 23 11 21 13 19 15
REMARK SMILES IDX 7 17 16 18 10 19 14 20 11 21 8 22 9 23 17 25 15 27 12 29
REMARK SMILES IDX 13 30
REMARK H PARENT 1 10 23 12 21 14 19 16 9 24 17 26 15 28 13 31
REMARK Flexibility Score: inf
ROOT
ATOM      1  O   UNL     1       5.040  28.340  10.104  1.00  0.00    -0.313 OA
ENDROOT
BRANCH   1   2
ATOM      2  C   UNL     1       3.638  28.540  10.272  1.00  0.00     0.285 C 
ATOM      3  C   UNL     1       3.321  26.285   9.660  1.00  0.00     0.178 C 
ATOM      4  C   UNL     1       3.372  25.882  11.170  1.00  0.00     0.177 C 
ATOM      5  O   UNL     1       2.901  27.632   9.462  1.00  0.00    -0.341 OA
ATOM      6  C   UNL     1       2.671  26.948  12.031  1.00  0.00     0.179 C 
ATOM      7  C   UNL     1       3.262  28.357  11.767  1.00  0.00     0.202 C 
BRANCH   3   8
ATOM      8  C   UNL     1       2.374  25.368   8.875  1.00  0.00     0.191 C 
BRANCH   8   9
ATOM      9  O   UNL     1       2.294  24.110   9.493  1.00  0.00    -0.394 OA
ATOM     10  H   UNL     1       1.351  23.806   9.426  1.00  0.00     0.210 HD
ENDBRANCH   8   9
ENDBRANCH   3   8
BRANCH   4  11
ATOM     11  O   UNL     1       4.712  25.744  11.578  1.00  0.00    -0.387 OA
ATOM     12  H   UNL     1       4.893  26.483  12.212  1.00  0.00     0.211 HD
ENDBRANCH   4  11
BRANCH   6  13
ATOM     13  O   UNL     1       2.711  26.618  13.397  1.00  0.00    -0.387 OA
ATOM     14  H   UNL     1       2.611  27.457  13.918  1.00  0.00     0.211 HD
ENDBRANCH   6  13
BRANCH   7  15
ATOM     15  O   UNL     1       2.358  29.355  12.181  1.00  0.00    -0.385 OA
ATOM     16  H   UNL     1       1.800  28.968  12.909  1.00  0.00     0.211 HD
ENDBRANCH   7  15
ENDBRANCH   1   2
BRANCH   1  17
ATOM     17  C   UNL     1       5.809  29.537   9.979  1.00  0.00     0.224 C 
ATOM     18  C   UNL     1       6.721  29.722  11.220  1.00  0.00     0.208 C 
ATOM     19  O   UNL     1       6.665  29.354   8.875  1.00  0.00    -0.337 OA
ATOM     20  C   UNL     1       8.053  29.104  10.799  1.00  0.00     0.180 C 
ATOM     21  C   UNL     1       7.834  28.718   9.334  1.00  0.00     0.179 C 
BRANCH  17  22
ATOM     22  C   UNL     1       4.916  30.765   9.648  1.00  0.00     0.225 C 
BRANCH  22  23
ATOM     23  O   UNL     1       5.668  31.777   9.033  1.00  0.00    -0.391 OA
ATOM     24  H   UNL     1       5.015  32.446   8.701  1.00  0.00     0.210 HD
ENDBRANCH  22  23
ENDBRANCH  17  22
BRANCH  18  25
ATOM     25  O   UNL     1       6.868  31.080  11.562  1.00  0.00    -0.385 OA
ATOM     26  H   UNL     1       7.243  31.539  10.766  1.00  0.00     0.211 HD
ENDBRANCH  18  25
BRANCH  20  27
ATOM     27  O   UNL     1       9.117  30.018  10.898  1.00  0.00    -0.387 OA
ATOM     28  H   UNL     1       9.581  30.012  10.020  1.00  0.00     0.211 HD
ENDBRANCH  20  27
BRANCH  21  29
ATOM     29  C   UNL     1       7.714  27.194   9.133  1.00  0.00     0.191 C 
BRANCH  29  30
ATOM     30  O   UNL     1       7.604  26.549  10.377  1.00  0.00    -0.394 OA
ATOM     31  H   UNL     1       7.831  25.594  10.228  1.00  0.00     0.210 HD
ENDBRANCH  29  30
ENDBRANCH  21  29
ENDBRANCH   1  17
TORSDOF 13
ENDMDL
MODEL 8
REMARK VINA RESULT:    -3.863      2.064      4.436
REMARK INTER + INTRA:          -6.544
REMARK INTER:                  -5.532
REMARK INTRA:                  -1.012
REMARK UNBOUND:                -0.649
REMARK SMILES OC[C@H]1O[C@H](O[C@]2(CO)O[C@H](CO)[C@@H](O)[C@H]2O)[C@@H](O)[C@H](O)[C@@H]1O
REMARK SMILES IDX 6 1 5 2 3 3 22 4 4 5 20 6 18 7 2 8 1 9 23 11 21 13 19 15
REMARK SMILES IDX 7 17 16 18 10 19 14 20 11 21 8 22 9 23 17 25 15 27 12 29
REMARK SMILES IDX 13 30
REMARK H PARENT 1 10 23 12 21 14 19 16 9 24 17 26 15 28 13 31
REMARK Flexibility Score: inf
ROOT
ATOM      1  O   UNL     1       2.704  27.400  11.099  1.00  0.00    -0.313 OA
ENDROOT
BRANCH   1   2
ATOM      2  C   UNL     1       3.222  26.240  11.746  1.00  0.00     0.285 C 
ATOM      3  C   UNL     1       1.218  25.128  11.193  1.00  0.00     0.178 C 
ATOM      4  C   UNL     1       1.885  24.607   9.878  1.00  0.00     0.177 C 
ATOM      5  O   UNL     1       2.166  25.412  12.218  1.00  0.00    -0.341 OA
ATOM      6  C   UNL     1       3.362  24.254  10.132  1.00  0.00     0.179 C 
ATOM      7  C   UNL     1       4.123  25.451  10.756  1.00  0.00     0.202 C 
BRANCH   3   8
ATOM      8  C   UNL     1       0.210  24.110  11.742  1.00  0.00     0.191 C 
BRANCH   8   9
ATOM      9  O   UNL     1       0.337  22.888  11.064  1.00  0.00    -0.394 OA
ATOM     10  H   UNL     1       1.286  22.604  11.139  1.00  0.00     0.210 HD
ENDBRANCH   8   9
ENDBRANCH   3   8
BRANCH   4  11
ATOM     11  O   UNL     1       1.795  25.593   8.878  1.00  0.00    -0.387 OA
ATOM     12  H   UNL     1       2.411  26.322   9.143  1.00  0.00     0.211 HD
ENDBRANCH   4  11
BRANCH   6  13
ATOM     13  O   UNL     1       3.992  23.792   8.964  1.00  0.00    -0.387 OA
ATOM     14  H   UNL     1       4.391  24.574   8.501  1.00  0.00     0.211 HD
ENDBRANCH   6  13
BRANCH   7  15
ATOM     15  O   UNL     1       5.299  25.009  11.394  1.00  0.00    -0.385 OA
ATOM     16  H   UNL     1       5.994  24.896  10.691  1.00  0.00     0.211 HD
ENDBRANCH   7  15
ENDBRANCH   1   2
BRANCH   1  17
ATOM     17  C   UNL     1       2.688  28.581  11.901  1.00  0.00     0.224 C 
ATOM     18  C   UNL     1       4.120  28.913  12.396  1.00  0.00     0.208 C 
ATOM     19  O   UNL     1       2.299  29.639  11.056  1.00  0.00    -0.337 OA
ATOM     20  C   UNL     1       4.650  29.907  11.363  1.00  0.00     0.180 C 
ATOM     21  C   UNL     1       3.457  30.144  10.434  1.00  0.00     0.179 C 
BRANCH  17  22
ATOM     22  C   UNL     1       1.621  28.500  13.028  1.00  0.00     0.225 C 
BRANCH  22  23
ATOM     23  O   UNL     1       2.075  27.700  14.088  1.00  0.00    -0.391 OA
ATOM     24  H   UNL     1       1.883  28.207  14.920  1.00  0.00     0.210 HD
ENDBRANCH  22  23
ENDBRANCH  17  22
BRANCH  18  25
ATOM     25  O   UNL     1       4.110  29.470  13.689  1.00  0.00    -0.385 OA
ATOM     26  H   UNL     1       3.158  29.544  13.963  1.00  0.00     0.211 HD
ENDBRANCH  18  25
BRANCH  20  27
ATOM     27  O   UNL     1       5.047  31.121  11.951  1.00  0.00    -0.387 OA
ATOM     28  H   UNL     1       5.476  30.891  12.817  1.00  0.00     0.211 HD
ENDBRANCH  20  27
BRANCH  21  29
ATOM     29  C   UNL     1       3.640  29.484   9.053  1.00  0.00     0.191 C 
BRANCH  29  30
ATOM     30  O   UNL     1       4.643  28.502   9.114  1.00  0.00    -0.394 OA
ATOM     31  H   UNL     1       5.499  28.974   9.291  1.00  0.00     0.210 HD
ENDBRANCH  29  30
ENDBRANCH  21  29
ENDBRANCH   1  17
TORSDOF 13
ENDMDL
MODEL 9
REMARK VINA RESULT:    -3.673      2.087      4.398
REMARK INTER + INTRA:          -6.254
REMARK INTER:                  -5.730
REMARK INTRA:                  -0.523
REMARK UNBOUND:                -0.649
REMARK SMILES OC[C@H]1O[C@H](O[C@]2(CO)O[C@H](CO)[C@@H](O)[C@H]2O)[C@@H](O)[C@H](O)[C@@H]1O
REMARK SMILES IDX 6 1 5 2 3 3 22 4 4 5 20 6 18 7 2 8 1 9 23 11 21 13 19 15
REMARK SMILES IDX 7 17 16 18 10 19 14 20 11 21 8 22 9 23 17 25 15 27 12 29
REMARK SMILES IDX 13 30
REMARK H PARENT 1 10 23 12 21 14 19 16 9 24 17 26 15 28 13 31
REMARK Flexibility Score: inf
ROOT
ATOM      1  O   UNL     1       3.896  27.467  11.051  1.00  0.00    -0.313 OA
ENDROOT
BRANCH   1   2
ATOM      2  C   UNL     1       2.767  28.335  10.965  1.00  0.00     0.285 C 
ATOM      3  C   UNL     1       2.886  28.597  13.306  1.00  0.00     0.178 C 
ATOM      4  C   UNL     1       3.785  29.861  13.105  1.00  0.00     0.177 C 
ATOM      5  O   UNL     1       2.041  28.337  12.188  1.00  0.00    -0.341 OA
ATOM      6  C   UNL     1       3.308  30.666  11.881  1.00  0.00     0.179 C 
ATOM      7  C   UNL     1       3.241  29.772  10.617  1.00  0.00     0.202 C 
BRANCH   3   8
ATOM      8  C   UNL     1       2.003  28.739  14.551  1.00  0.00     0.191 C 
BRANCH   8   9
ATOM      9  O   UNL     1       1.964  27.528  15.259  1.00  0.00    -0.394 OA
ATOM     10  H   UNL     1       2.813  27.047  15.073  1.00  0.00     0.210 HD
ENDBRANCH   8   9
ENDBRANCH   3   8
BRANCH   4  11
ATOM     11  O   UNL     1       5.123  29.468  12.925  1.00  0.00    -0.387 OA
ATOM     12  H   UNL     1       5.496  30.045  12.211  1.00  0.00     0.211 HD
ENDBRANCH   4  11
BRANCH   6  13
ATOM     13  O   UNL     1       4.105  31.804  11.669  1.00  0.00    -0.387 OA
ATOM     14  H   UNL     1       3.885  32.468  12.372  1.00  0.00     0.211 HD
ENDBRANCH   6  13
BRANCH   7  15
ATOM     15  O   UNL     1       2.401  30.354   9.647  1.00  0.00    -0.385 OA
ATOM     16  H   UNL     1       2.947  31.013   9.138  1.00  0.00     0.211 HD
ENDBRANCH   7  15
ENDBRANCH   1   2
BRANCH   1  17
ATOM     17  C   UNL     1       4.298  26.877   9.814  1.00  0.00     0.224 C 
ATOM     18  C   UNL     1       5.133  25.597  10.076  1.00  0.00     0.208 C 
ATOM     19  O   UNL     1       3.119  26.461   9.164  1.00  0.00    -0.337 OA
ATOM     20  C   UNL     1       4.111  24.464  10.013  1.00  0.00     0.180 C 
ATOM     21  C   UNL     1       2.808  25.165   9.617  1.00  0.00     0.179 C 
BRANCH  17  22
ATOM     22  C   UNL     1       4.980  27.911   8.875  1.00  0.00     0.225 C 
BRANCH  22  23
ATOM     23  O   UNL     1       6.241  28.277   9.369  1.00  0.00    -0.391 OA
ATOM     24  H   UNL     1       6.714  27.429   9.578  1.00  0.00     0.210 HD
ENDBRANCH  22  23
ENDBRANCH  17  22
BRANCH  18  25
ATOM     25  O   UNL     1       6.148  25.431   9.114  1.00  0.00    -0.385 OA
ATOM     26  H   UNL     1       6.864  24.891   9.541  1.00  0.00     0.211 HD
ENDBRANCH  18  25
BRANCH  20  27
ATOM     27  O   UNL     1       4.447  23.500   9.046  1.00  0.00    -0.387 OA
ATOM     28  H   UNL     1       4.342  23.936   8.160  1.00  0.00     0.211 HD
ENDBRANCH  20  27
BRANCH  21  29
ATOM     29  C   UNL     1       1.800  25.245  10.781  1.00  0.00     0.191 C 
BRANCH  29  30
ATOM     30  O   UNL     1       2.469  25.120  12.011  1.00  0.00    -0.394 OA
ATOM     31  H   UNL     1       3.098  24.357  11.922  1.00  0.00     0.210 HD
ENDBRANCH  29  30
ENDBRANCH  21  29
ENDBRANCH   1  17
TORSDOF 13
ENDMDL
