MODEL 1
REMARK VINA RESULT:    -3.027      0.000      0.000
REMARK INTER + INTRA:          -3.411
REMARK INTER:                  -3.381
REMARK INTRA:                  -0.029
REMARK UNBOUND:                -0.029
REMARK SMILES CCCC(=O)[O-]
REMARK SMILES IDX 3 1 4 2 5 3 6 4 2 5 1 6
REMARK H PARENT
REMARK Flexibility Score: inf
ROOT
ATOM      1  C   UNL     1      48.075  14.417  19.838  1.00  0.00     0.052 C 
ENDROOT
BRANCH   1   2
ATOM      2  C   UNL     1      49.164  14.560  18.819  1.00  0.00     0.041 C 
ATOM      3  O   UNL     1      49.658  15.691  18.572  1.00  0.00    -0.550 OA
ATOM      4  O   UNL     1      49.656  13.437  18.164  1.00  0.00    -0.550 OA
ENDBRANCH   1   2
BRANCH   1   5
ATOM      5  C   UNL     1      47.716  15.763  20.478  1.00  0.00     0.003 C 
ATOM      6  C   UNL     1      48.398  15.963  21.831  1.00  0.00     0.004 C 
ENDBRANCH   1   5
TORSDOF 2
ENDMDL
MODEL 2
REMARK VINA RESULT:    -2.911      1.183      1.814
REMARK INTER + INTRA:          -3.280
REMARK INTER:                  -3.271
REMARK INTRA:                  -0.009
REMARK UNBOUND:                -0.029
REMARK SMILES CCCC(=O)[O-]
REMARK SMILES IDX 3 1 4 2 5 3 6 4 2 5 1 6
REMARK H PARENT
REMARK Flexibility Score: inf
ROOT
ATOM      1  C   UNL     1      48.508  14.010  19.093  1.00  0.00     0.052 C 
ENDROOT
BRANCH   1   2
ATOM      2  C   UNL     1      49.290  13.787  17.835  1.00  0.00     0.041 C 
ATOM      3  O   UNL     1      49.775  12.652  17.581  1.00  0.00    -0.550 OA
ATOM      4  O   UNL     1      49.456  14.824  16.926  1.00  0.00    -0.550 OA
ENDBRANCH   1   2
BRANCH   1   5
ATOM      5  C   UNL     1      48.779  15.395  19.691  1.00  0.00     0.003 C 
ATOM      6  C   UNL     1      47.740  15.788  20.742  1.00  0.00     0.004 C 
ENDBRANCH   1   5
TORSDOF 2
ENDMDL
MODEL 3
REMARK VINA RESULT:    -2.848     17.588     18.371
REMARK INTER + INTRA:          -3.210
REMARK INTER:                  -3.172
REMARK INTRA:                  -0.038
REMARK UNBOUND:                -0.029
REMARK SMILES CCCC(=O)[O-]
REMARK SMILES IDX 3 1 4 2 5 3 6 4 2 5 1 6
REMARK H PARENT
REMARK Flexibility Score: inf
ROOT
ATOM      1  C   UNL     1      55.297  -1.105  18.824  1.00  0.00     0.052 C 
ENDROOT
BRANCH   1   2
ATOM      2  C   UNL     1      56.783  -1.281  18.897  1.00  0.00     0.041 C 
ATOM      3  O   UNL     1      57.541  -0.589  18.168  1.00  0.00    -0.550 OA
ATOM      4  O   UNL     1      57.333  -2.187  19.796  1.00  0.00    -0.550 OA
ENDBRANCH   1   2
BRANCH   1   5
ATOM      5  C   UNL     1      54.556  -2.213  19.581  1.00  0.00     0.003 C 
ATOM      6  C   UNL     1      54.189  -3.390  18.676  1.00  0.00     0.004 C 
ENDBRANCH   1   5
TORSDOF 2
ENDMDL
MODEL 4
REMARK VINA RESULT:    -2.841      2.663      3.233
REMARK INTER + INTRA:          -3.203
REMARK INTER:                  -3.154
REMARK INTRA:                  -0.049
REMARK UNBOUND:                -0.029
REMARK SMILES CCCC(=O)[O-]
REMARK SMILES IDX 3 1 4 2 5 3 6 4 2 5 1 6
REMARK H PARENT
REMARK Flexibility Score: inf
ROOT
ATOM      1  C   UNL     1      49.654  12.927  17.472  1.00  0.00     0.052 C 
ENDROOT
BRANCH   1   2
ATOM      2  C   UNL     1      49.334  13.408  16.090  1.00  0.00     0.041 C 
ATOM      3  O   UNL     1      48.173  13.808  15.809  1.00  0.00    -0.550 OA
ATOM      4  O   UNL     1      50.327  13.447  15.119  1.00  0.00    -0.550 OA
ENDBRANCH   1   2
BRANCH   1   5
ATOM      5  C   UNL     1      48.917  13.742  18.541  1.00  0.00     0.003 C 
ATOM      6  C   UNL     1      49.607  15.074  18.836  1.00  0.00     0.004 C 
ENDBRANCH   1   5
TORSDOF 2
ENDMDL
MODEL 5
REMARK VINA RESULT:    -2.823     17.661     18.245
REMARK INTER + INTRA:          -3.182
REMARK INTER:                  -3.145
REMARK INTRA:                  -0.037
REMARK UNBOUND:                -0.029
REMARK SMILES CCCC(=O)[O-]
REMARK SMILES IDX 3 1 4 2 5 3 6 4 2 5 1 6
REMARK H PARENT
REMARK Flexibility Score: inf
ROOT
ATOM      1  C   UNL     1      56.339  -2.100  19.437  1.00  0.00     0.052 C 
ENDROOT
BRANCH   1   2
ATOM      2  C   UNL     1      54.893  -1.971  19.069  1.00  0.00     0.041 C 
ATOM      3  O   UNL     1      54.333  -0.843  19.081  1.00  0.00    -0.550 OA
ATOM      4  O   UNL     1      54.171  -3.092  18.681  1.00  0.00    -0.550 OA
ENDBRANCH   1   2
BRANCH   1   5
ATOM      5  C   UNL     1      57.134  -0.843  19.065  1.00  0.00     0.003 C 
ATOM      6  C   UNL     1      57.868  -0.993  17.732  1.00  0.00     0.004 C 
ENDBRANCH   1   5
TORSDOF 2
ENDMDL
MODEL 6
REMARK VINA RESULT:    -2.818     11.937     12.825
REMARK INTER + INTRA:          -3.176
REMARK INTER:                  -3.168
REMARK INTRA:                  -0.009
REMARK UNBOUND:                -0.029
REMARK SMILES CCCC(=O)[O-]
REMARK SMILES IDX 3 1 4 2 5 3 6 4 2 5 1 6
REMARK H PARENT
REMARK Flexibility Score: inf
ROOT
ATOM      1  C   UNL     1      51.699   3.157  19.306  1.00  0.00     0.052 C 
ENDROOT
BRANCH   1   2
ATOM      2  C   UNL     1      52.980   2.418  19.548  1.00  0.00     0.041 C 
ATOM      3  O   UNL     1      53.045   1.177  19.347  1.00  0.00    -0.550 OA
ATOM      4  O   UNL     1      54.113   3.107  19.963  1.00  0.00    -0.550 OA
ENDBRANCH   1   2
BRANCH   1   5
ATOM      5  C   UNL     1      50.572   2.650  20.214  1.00  0.00     0.003 C 
ATOM      6  C   UNL     1      49.908   3.779  21.002  1.00  0.00     0.004 C 
ENDBRANCH   1   5
TORSDOF 2
ENDMDL
MODEL 7
REMARK VINA RESULT:    -2.814     18.216     18.743
REMARK INTER + INTRA:          -3.172
REMARK INTER:                  -3.157
REMARK INTRA:                  -0.015
REMARK UNBOUND:                -0.029
REMARK SMILES CCCC(=O)[O-]
REMARK SMILES IDX 3 1 4 2 5 3 6 4 2 5 1 6
REMARK H PARENT
REMARK Flexibility Score: inf
ROOT
ATOM      1  C   UNL     1      55.094  -1.632  19.075  1.00  0.00     0.052 C 
ENDROOT
BRANCH   1   2
ATOM      2  C   UNL     1      54.273  -2.884  19.132  1.00  0.00     0.041 C 
ATOM      3  O   UNL     1      54.337  -3.729  18.200  1.00  0.00    -0.550 OA
ATOM      4  O   UNL     1      53.462  -3.135  20.232  1.00  0.00    -0.550 OA
ENDBRANCH   1   2
BRANCH   1   5
ATOM      5  C   UNL     1      56.570  -1.906  19.389  1.00  0.00     0.003 C 
ATOM      6  C   UNL     1      57.513  -1.104  18.493  1.00  0.00     0.004 C 
ENDBRANCH   1   5
TORSDOF 2
ENDMDL
MODEL 8
REMARK VINA RESULT:    -2.807      2.424      4.015
REMARK INTER + INTRA:          -3.164
REMARK INTER:                  -3.096
REMARK INTRA:                  -0.068
REMARK UNBOUND:                -0.029
REMARK SMILES CCCC(=O)[O-]
REMARK SMILES IDX 3 1 4 2 5 3 6 4 2 5 1 6
REMARK H PARENT
REMARK Flexibility Score: inf
ROOT
ATOM      1  C   UNL     1      49.610  12.720  17.397  1.00  0.00     0.052 C 
ENDROOT
BRANCH   1   2
ATOM      2  C   UNL     1      49.123  13.648  18.467  1.00  0.00     0.041 C 
ATOM      3  O   UNL     1      48.145  13.323  19.192  1.00  0.00    -0.550 OA
ATOM      4  O   UNL     1      49.770  14.857  18.688  1.00  0.00    -0.550 OA
ENDBRANCH   1   2
BRANCH   1   5
ATOM      5  C   UNL     1      49.778  13.442  16.054  1.00  0.00     0.003 C 
ATOM      6  C   UNL     1      48.442  13.898  15.468  1.00  0.00     0.004 C 
ENDBRANCH   1   5
TORSDOF 2
ENDMDL
MODEL 9
REMARK VINA RESULT:    -2.799     17.754     18.413
REMARK INTER + INTRA:          -3.155
REMARK INTER:                  -3.124
REMARK INTRA:                  -0.032
REMARK UNBOUND:                -0.029
REMARK SMILES CCCC(=O)[O-]
REMARK SMILES IDX 3 1 4 2 5 3 6 4 2 5 1 6
REMARK H PARENT
REMARK Flexibility Score: inf
ROOT
ATOM      1  C   UNL     1      55.847  -2.664  18.773  1.00  0.00     0.052 C 
ENDROOT
BRANCH   1   2
ATOM      2  C   UNL     1      54.518  -2.201  19.287  1.00  0.00     0.041 C 
ATOM      3  O   UNL     1      53.737  -3.012  19.850  1.00  0.00    -0.550 OA
ATOM      4  O   UNL     1      54.156  -0.864  19.174  1.00  0.00    -0.550 OA
ENDBRANCH   1   2
BRANCH   1   5
ATOM      5  C   UNL     1      57.004  -1.880  19.404  1.00  0.00     0.003 C 
ATOM      6  C   UNL     1      57.597  -0.847  18.446  1.00  0.00     0.004 C 
ENDBRANCH   1   5
TORSDOF 2
ENDMDL
