MODEL 1
REMARK VINA RESULT:    -3.959      0.000      0.000
REMARK INTER + INTRA:          -5.627
REMARK INTER:                  -5.347
REMARK INTRA:                  -0.280
REMARK UNBOUND:                -0.280
REMARK SMILES CCCCCCCC(=O)[O-]
REMARK SMILES IDX 5 1 6 2 7 3 8 4 9 5 10 6 4 7 3 8 2 9 1 10
REMARK H PARENT
REMARK Flexibility Score: inf
ROOT
ATOM      1  C   UNL     1      -0.242   3.176  -4.083  1.00  0.00     0.000 C 
ENDROOT
BRANCH   1   2
ATOM      2  C   UNL     1       1.279   2.996  -4.230  1.00  0.00     0.006 C 
BRANCH   2   3
ATOM      3  C   UNL     1       1.894   2.263  -3.031  1.00  0.00     0.053 C 
BRANCH   3   4
ATOM      4  C   UNL     1       3.330   1.911  -3.271  1.00  0.00     0.041 C 
ATOM      5  O   UNL     1       3.714   1.556  -4.416  1.00  0.00    -0.550 OA
ATOM      6  O   UNL     1       4.251   2.003  -2.234  1.00  0.00    -0.550 OA
ENDBRANCH   3   4
ENDBRANCH   2   3
ENDBRANCH   1   2
BRANCH   1   7
ATOM      7  C   UNL     1      -0.737   2.888  -2.656  1.00  0.00     0.000 C 
BRANCH   7   8
ATOM      8  C   UNL     1      -2.218   2.484  -2.613  1.00  0.00    -0.000 C 
BRANCH   8   9
ATOM      9  C   UNL     1      -2.597   1.655  -3.846  1.00  0.00    -0.003 C 
ATOM     10  C   UNL     1      -3.400   0.419  -3.455  1.00  0.00     0.004 C 
ENDBRANCH   8   9
ENDBRANCH   7   8
ENDBRANCH   1   7
TORSDOF 6
ENDMDL
MODEL 2
REMARK VINA RESULT:    -3.946      1.022      1.340
REMARK INTER + INTRA:          -5.610
REMARK INTER:                  -5.410
REMARK INTRA:                  -0.200
REMARK UNBOUND:                -0.280
REMARK SMILES CCCCCCCC(=O)[O-]
REMARK SMILES IDX 5 1 6 2 7 3 8 4 9 5 10 6 4 7 3 8 2 9 1 10
REMARK H PARENT
REMARK Flexibility Score: inf
ROOT
ATOM      1  C   UNL     1       0.188   2.939  -3.095  1.00  0.00     0.000 C 
ENDROOT
BRANCH   1   2
ATOM      2  C   UNL     1       1.668   3.080  -3.490  1.00  0.00     0.006 C 
BRANCH   2   3
ATOM      3  C   UNL     1       2.505   1.874  -3.042  1.00  0.00     0.053 C 
BRANCH   3   4
ATOM      4  C   UNL     1       3.909   1.949  -3.556  1.00  0.00     0.041 C 
ATOM      5  O   UNL     1       4.128   2.153  -4.779  1.00  0.00    -0.550 OA
ATOM      6  O   UNL     1       4.979   1.822  -2.678  1.00  0.00    -0.550 OA
ENDBRANCH   3   4
ENDBRANCH   2   3
ENDBRANCH   1   2
BRANCH   1   7
ATOM      7  C   UNL     1      -0.754   2.973  -4.309  1.00  0.00     0.000 C 
BRANCH   7   8
ATOM      8  C   UNL     1      -2.080   2.242  -4.051  1.00  0.00    -0.000 C 
BRANCH   8   9
ATOM      9  C   UNL     1      -2.463   2.307  -2.568  1.00  0.00    -0.003 C 
ATOM     10  C   UNL     1      -3.919   2.726  -2.391  1.00  0.00     0.004 C 
ENDBRANCH   8   9
ENDBRANCH   7   8
ENDBRANCH   1   7
TORSDOF 6
ENDMDL
MODEL 3
REMARK VINA RESULT:    -3.896      1.016      1.353
REMARK INTER + INTRA:          -5.543
REMARK INTER:                  -5.272
REMARK INTRA:                  -0.272
REMARK UNBOUND:                -0.280
REMARK SMILES CCCCCCCC(=O)[O-]
REMARK SMILES IDX 5 1 6 2 7 3 8 4 9 5 10 6 4 7 3 8 2 9 1 10
REMARK H PARENT
REMARK Flexibility Score: inf
ROOT
ATOM      1  C   UNL     1      -1.200   3.070  -4.279  1.00  0.00     0.000 C 
ENDROOT
BRANCH   1   2
ATOM      2  C   UNL     1       0.289   3.297  -4.591  1.00  0.00     0.006 C 
BRANCH   2   3
ATOM      3  C   UNL     1       1.171   3.151  -3.343  1.00  0.00     0.053 C 
BRANCH   3   4
ATOM      4  C   UNL     1       2.455   2.444  -3.650  1.00  0.00     0.041 C 
ATOM      5  O   UNL     1       2.852   1.501  -2.916  1.00  0.00    -0.550 OA
ATOM      6  O   UNL     1       3.201   2.810  -4.764  1.00  0.00    -0.550 OA
ENDBRANCH   3   4
ENDBRANCH   2   3
ENDBRANCH   1   2
BRANCH   1   7
ATOM      7  C   UNL     1      -1.440   2.629  -2.826  1.00  0.00     0.000 C 
BRANCH   7   8
ATOM      8  C   UNL     1      -2.825   1.998  -2.619  1.00  0.00    -0.000 C 
BRANCH   8   9
ATOM      9  C   UNL     1      -3.223   1.141  -3.827  1.00  0.00    -0.003 C 
ATOM     10  C   UNL     1      -3.722  -0.232  -3.388  1.00  0.00     0.004 C 
ENDBRANCH   8   9
ENDBRANCH   7   8
ENDBRANCH   1   7
TORSDOF 6
ENDMDL
MODEL 4
REMARK VINA RESULT:    -3.769      1.358      1.733
REMARK INTER + INTRA:          -5.371
REMARK INTER:                  -5.044
REMARK INTRA:                  -0.327
REMARK UNBOUND:                -0.280
REMARK SMILES CCCCCCCC(=O)[O-]
REMARK SMILES IDX 5 1 6 2 7 3 8 4 9 5 10 6 4 7 3 8 2 9 1 10
REMARK H PARENT
REMARK Flexibility Score: inf
ROOT
ATOM      1  C   UNL     1      -0.643   2.991  -4.340  1.00  0.00     0.000 C 
ENDROOT
BRANCH   1   2
ATOM      2  C   UNL     1       0.133   3.199  -3.027  1.00  0.00     0.006 C 
BRANCH   2   3
ATOM      3  C   UNL     1       1.554   3.724  -3.272  1.00  0.00     0.053 C 
BRANCH   3   4
ATOM      4  C   UNL     1       2.484   2.631  -3.701  1.00  0.00     0.041 C 
ATOM      5  O   UNL     1       3.069   2.695  -4.814  1.00  0.00    -0.550 OA
ATOM      6  O   UNL     1       2.728   1.555  -2.857  1.00  0.00    -0.550 OA
ENDBRANCH   3   4
ENDBRANCH   2   3
ENDBRANCH   1   2
BRANCH   1   7
ATOM      7  C   UNL     1      -2.038   2.386  -4.113  1.00  0.00     0.000 C 
BRANCH   7   8
ATOM      8  C   UNL     1      -2.367   2.196  -2.625  1.00  0.00    -0.000 C 
BRANCH   8   9
ATOM      9  C   UNL     1      -3.807   2.624  -2.322  1.00  0.00    -0.003 C 
ATOM     10  C   UNL     1      -4.436   3.330  -3.519  1.00  0.00     0.004 C 
ENDBRANCH   8   9
ENDBRANCH   7   8
ENDBRANCH   1   7
TORSDOF 6
ENDMDL
MODEL 5
REMARK VINA RESULT:    -3.723      3.554      5.687
REMARK INTER + INTRA:          -5.309
REMARK INTER:                  -5.128
REMARK INTRA:                  -0.181
REMARK UNBOUND:                -0.280
REMARK SMILES CCCCCCCC(=O)[O-]
REMARK SMILES IDX 5 1 6 2 7 3 8 4 9 5 10 6 4 7 3 8 2 9 1 10
REMARK H PARENT
REMARK Flexibility Score: inf
ROOT
ATOM      1  C   UNL     1      -1.037   2.764  -3.551  1.00  0.00     0.000 C 
ENDROOT
BRANCH   1   2
ATOM      2  C   UNL     1      -2.066   2.367  -2.478  1.00  0.00     0.006 C 
BRANCH   2   3
ATOM      3  C   UNL     1      -3.480   2.229  -3.056  1.00  0.00     0.053 C 
BRANCH   3   4
ATOM      4  C   UNL     1      -3.649   0.948  -3.814  1.00  0.00     0.041 C 
ATOM      5  O   UNL     1      -3.458  -0.157  -3.244  1.00  0.00    -0.550 OA
ATOM      6  O   UNL     1      -4.047   0.976  -5.146  1.00  0.00    -0.550 OA
ENDBRANCH   3   4
ENDBRANCH   2   3
ENDBRANCH   1   2
BRANCH   1   7
ATOM      7  C   UNL     1       0.279   3.281  -2.946  1.00  0.00     0.000 C 
BRANCH   7   8
ATOM      8  C   UNL     1       1.491   3.019  -3.853  1.00  0.00    -0.000 C 
BRANCH   8   9
ATOM      9  C   UNL     1       2.498   2.088  -3.167  1.00  0.00    -0.003 C 
ATOM     10  C   UNL     1       3.619   1.688  -4.122  1.00  0.00     0.004 C 
ENDBRANCH   8   9
ENDBRANCH   7   8
ENDBRANCH   1   7
TORSDOF 6
ENDMDL
MODEL 6
REMARK VINA RESULT:    -3.533      1.805      2.985
REMARK INTER + INTRA:          -5.053
REMARK INTER:                  -4.597
REMARK INTRA:                  -0.456
REMARK UNBOUND:                -0.280
REMARK SMILES CCCCCCCC(=O)[O-]
REMARK SMILES IDX 5 1 6 2 7 3 8 4 9 5 10 6 4 7 3 8 2 9 1 10
REMARK H PARENT
REMARK Flexibility Score: inf
ROOT
ATOM      1  C   UNL     1      -2.599   2.575  -2.287  1.00  0.00     0.000 C 
ENDROOT
BRANCH   1   2
ATOM      2  C   UNL     1      -1.186   2.145  -2.718  1.00  0.00     0.006 C 
BRANCH   2   3
ATOM      3  C   UNL     1      -0.245   3.344  -2.894  1.00  0.00     0.053 C 
BRANCH   3   4
ATOM      4  C   UNL     1       0.989   2.975  -3.660  1.00  0.00     0.041 C 
ATOM      5  O   UNL     1       1.839   2.194  -3.157  1.00  0.00    -0.550 OA
ATOM      6  O   UNL     1       1.185   3.472  -4.943  1.00  0.00    -0.550 OA
ENDBRANCH   3   4
ENDBRANCH   2   3
ENDBRANCH   1   2
BRANCH   1   7
ATOM      7  C   UNL     1      -3.586   2.628  -3.464  1.00  0.00     0.000 C 
BRANCH   7   8
ATOM      8  C   UNL     1      -3.415   1.449  -4.434  1.00  0.00    -0.000 C 
BRANCH   8   9
ATOM      9  C   UNL     1      -3.383   1.935  -5.888  1.00  0.00    -0.003 C 
ATOM     10  C   UNL     1      -2.110   2.724  -6.178  1.00  0.00     0.004 C 
ENDBRANCH   8   9
ENDBRANCH   7   8
ENDBRANCH   1   7
TORSDOF 6
ENDMDL
MODEL 7
REMARK VINA RESULT:    -3.501      3.047      5.504
REMARK INTER + INTRA:          -5.010
REMARK INTER:                  -4.726
REMARK INTRA:                  -0.284
REMARK UNBOUND:                -0.280
REMARK SMILES CCCCCCCC(=O)[O-]
REMARK SMILES IDX 5 1 6 2 7 3 8 4 9 5 10 6 4 7 3 8 2 9 1 10
REMARK H PARENT
REMARK Flexibility Score: inf
ROOT
ATOM      1  C   UNL     1       1.386   3.555  -4.464  1.00  0.00     0.000 C 
ENDROOT
BRANCH   1   2
ATOM      2  C   UNL     1       0.431   2.969  -3.408  1.00  0.00     0.006 C 
BRANCH   2   3
ATOM      3  C   UNL     1      -0.989   2.776  -3.956  1.00  0.00     0.053 C 
BRANCH   3   4
ATOM      4  C   UNL     1      -1.897   2.153  -2.941  1.00  0.00     0.041 C 
ATOM      5  O   UNL     1      -1.994   2.648  -1.787  1.00  0.00    -0.550 OA
ATOM      6  O   UNL     1      -2.659   1.041  -3.279  1.00  0.00    -0.550 OA
ENDBRANCH   3   4
ENDBRANCH   2   3
ENDBRANCH   1   2
BRANCH   1   7
ATOM      7  C   UNL     1       2.735   2.820  -4.514  1.00  0.00     0.000 C 
BRANCH   7   8
ATOM      8  C   UNL     1       2.947   1.887  -3.312  1.00  0.00    -0.000 C 
BRANCH   8   9
ATOM      9  C   UNL     1       4.181   2.305  -2.505  1.00  0.00    -0.003 C 
ATOM     10  C   UNL     1       5.112   3.184  -3.334  1.00  0.00     0.004 C 
ENDBRANCH   8   9
ENDBRANCH   7   8
ENDBRANCH   1   7
TORSDOF 6
ENDMDL
MODEL 8
REMARK VINA RESULT:    -3.456      4.407      5.651
REMARK INTER + INTRA:          -4.949
REMARK INTER:                  -4.483
REMARK INTRA:                  -0.466
REMARK UNBOUND:                -0.280
REMARK SMILES CCCCCCCC(=O)[O-]
REMARK SMILES IDX 5 1 6 2 7 3 8 4 9 5 10 6 4 7 3 8 2 9 1 10
REMARK H PARENT
REMARK Flexibility Score: inf
ROOT
ATOM      1  C   UNL     1      -0.937   2.627  -2.799  1.00  0.00     0.000 C 
ENDROOT
BRANCH   1   2
ATOM      2  C   UNL     1      -2.371   2.431  -2.277  1.00  0.00     0.006 C 
BRANCH   2   3
ATOM      3  C   UNL     1      -3.129   1.350  -3.059  1.00  0.00     0.053 C 
BRANCH   3   4
ATOM      4  C   UNL     1      -4.540   1.760  -3.350  1.00  0.00     0.041 C 
ATOM      5  O   UNL     1      -5.467   0.909  -3.322  1.00  0.00    -0.550 OA
ATOM      6  O   UNL     1      -4.835   3.090  -3.624  1.00  0.00    -0.550 OA
ENDBRANCH   3   4
ENDBRANCH   2   3
ENDBRANCH   1   2
BRANCH   1   7
ATOM      7  C   UNL     1      -0.828   3.776  -3.814  1.00  0.00     0.000 C 
BRANCH   7   8
ATOM      8  C   UNL     1      -0.205   3.333  -5.146  1.00  0.00    -0.000 C 
BRANCH   8   9
ATOM      9  C   UNL     1      -1.151   3.621  -6.318  1.00  0.00    -0.003 C 
ATOM     10  C   UNL     1      -2.304   2.623  -6.355  1.00  0.00     0.004 C 
ENDBRANCH   8   9
ENDBRANCH   7   8
ENDBRANCH   1   7
TORSDOF 6
ENDMDL
MODEL 9
REMARK VINA RESULT:    -3.385      3.691      5.703
REMARK INTER + INTRA:          -4.852
REMARK INTER:                  -4.579
REMARK INTRA:                  -0.273
REMARK UNBOUND:                -0.280
REMARK SMILES CCCCCCCC(=O)[O-]
REMARK SMILES IDX 5 1 6 2 7 3 8 4 9 5 10 6 4 7 3 8 2 9 1 10
REMARK H PARENT
REMARK Flexibility Score: inf
ROOT
ATOM      1  C   UNL     1      -0.464   3.010  -2.632  1.00  0.00     0.000 C 
ENDROOT
BRANCH   1   2
ATOM      2  C   UNL     1      -1.863   2.421  -2.882  1.00  0.00     0.006 C 
BRANCH   2   3
ATOM      3  C   UNL     1      -2.261   2.484  -4.362  1.00  0.00     0.053 C 
BRANCH   3   4
ATOM      4  C   UNL     1      -3.306   3.527  -4.614  1.00  0.00     0.041 C 
ATOM      5  O   UNL     1      -2.982   4.740  -4.711  1.00  0.00    -0.550 OA
ATOM      6  O   UNL     1      -4.636   3.155  -4.770  1.00  0.00    -0.550 OA
ENDBRANCH   3   4
ENDBRANCH   2   3
ENDBRANCH   1   2
BRANCH   1   7
ATOM      7  C   UNL     1       0.394   3.062  -3.906  1.00  0.00     0.000 C 
BRANCH   7   8
ATOM      8  C   UNL     1       1.883   3.292  -3.610  1.00  0.00    -0.000 C 
BRANCH   8   9
ATOM      9  C   UNL     1       2.572   1.980  -3.216  1.00  0.00    -0.003 C 
ATOM     10  C   UNL     1       3.748   1.676  -4.138  1.00  0.00     0.004 C 
ENDBRANCH   8   9
ENDBRANCH   7   8
ENDBRANCH   1   7
TORSDOF 6
ENDMDL
