MODEL 1
REMARK VINA RESULT:    -4.235      0.000      0.000
REMARK INTER + INTRA:          -5.450
REMARK INTER:                  -5.101
REMARK INTRA:                  -0.349
REMARK UNBOUND:                -0.349
REMARK SMILES NC(=O)C[C@H]([NH3+])C(=O)[O-]
REMARK SMILES IDX 4 1 5 2 6 3 7 7 8 8 9 9 2 10 3 11 1 12
REMARK H PARENT 6 4 6 5 6 6 1 13 1 14
REMARK Flexibility Score: inf
ROOT
ATOM      1  C   UNL     1      -1.045 -13.766 -15.336  1.00  0.00     0.171 C 
ENDROOT
BRANCH   1   2
ATOM      2  C   UNL     1      -0.384 -13.017 -14.162  1.00  0.00     0.237 C 
BRANCH   2   3
ATOM      3  N   UNL     1       1.041 -12.796 -14.433  1.00  0.00    -0.350 N 
ATOM      4  H   UNL     1       1.329 -13.340 -15.279  1.00  0.00     0.345 HD
ATOM      5  H   UNL     1       1.212 -11.782 -14.624  1.00  0.00     0.345 HD
ATOM      6  H   UNL     1       1.625 -13.097 -13.619  1.00  0.00     0.345 HD
ENDBRANCH   2   3
BRANCH   2   7
ATOM      7  C   UNL     1      -0.551 -13.781 -12.873  1.00  0.00     0.100 C 
ATOM      8  O   UNL     1      -1.554 -13.573 -12.140  1.00  0.00    -0.544 OA
ATOM      9  O   UNL     1       0.391 -14.729 -12.493  1.00  0.00    -0.544 OA
ENDBRANCH   2   7
ENDBRANCH   1   2
BRANCH   1  10
ATOM     10  C   UNL     1      -0.064 -14.654 -16.047  1.00  0.00     0.223 C 
ATOM     11  O   UNL     1       0.319 -14.357 -17.211  1.00  0.00    -0.275 OA
ATOM     12  N   UNL     1       0.410 -15.852 -15.431  1.00  0.00    -0.369 N 
ATOM     13  H   UNL     1       0.088 -16.123 -14.476  1.00  0.00     0.159 HD
ATOM     14  H   UNL     1       1.080 -16.473 -15.935  1.00  0.00     0.159 HD
ENDBRANCH   1  10
TORSDOF 4
ENDMDL
MODEL 2
REMARK VINA RESULT:    -4.200     14.835     15.951
REMARK INTER + INTRA:          -5.409
REMARK INTER:                  -4.914
REMARK INTRA:                  -0.495
REMARK UNBOUND:                -0.349
REMARK SMILES NC(=O)C[C@H]([NH3+])C(=O)[O-]
REMARK SMILES IDX 4 1 5 2 6 3 7 7 8 8 9 9 2 10 3 11 1 12
REMARK H PARENT 6 4 6 5 6 6 1 13 1 14
REMARK Flexibility Score: inf
ROOT
ATOM      1  C   UNL     1       7.049 -11.792 -29.380  1.00  0.00     0.171 C 
ENDROOT
BRANCH   1   2
ATOM      2  C   UNL     1       6.954 -13.252 -28.895  1.00  0.00     0.237 C 
BRANCH   2   3
ATOM      3  N   UNL     1       5.841 -13.940 -29.560  1.00  0.00    -0.350 N 
ATOM      4  H   UNL     1       5.596 -14.810 -29.032  1.00  0.00     0.345 HD
ATOM      5  H   UNL     1       4.999 -13.320 -29.576  1.00  0.00     0.345 HD
ATOM      6  H   UNL     1       6.098 -14.198 -30.541  1.00  0.00     0.345 HD
ENDBRANCH   2   3
BRANCH   2   7
ATOM      7  C   UNL     1       6.778 -13.314 -27.400  1.00  0.00     0.100 C 
ATOM      8  O   UNL     1       7.374 -14.198 -26.729  1.00  0.00    -0.544 OA
ATOM      9  O   UNL     1       5.970 -12.388 -26.750  1.00  0.00    -0.544 OA
ENDBRANCH   2   7
ENDBRANCH   1   2
BRANCH   1  10
ATOM     10  C   UNL     1       5.743 -11.311 -29.944  1.00  0.00     0.223 C 
ATOM     11  O   UNL     1       5.506 -11.443 -31.175  1.00  0.00    -0.275 OA
ATOM     12  N   UNL     1       4.782 -10.670 -29.104  1.00  0.00    -0.369 N 
ATOM     13  H   UNL     1       4.969 -10.534 -28.086  1.00  0.00     0.159 HD
ATOM     14  H   UNL     1       3.882 -10.324 -29.503  1.00  0.00     0.159 HD
ENDBRANCH   1  10
TORSDOF 4
ENDMDL
MODEL 3
REMARK VINA RESULT:    -4.196      2.169      2.776
REMARK INTER + INTRA:          -5.404
REMARK INTER:                  -5.048
REMARK INTRA:                  -0.356
REMARK UNBOUND:                -0.349
REMARK SMILES NC(=O)C[C@H]([NH3+])C(=O)[O-]
REMARK SMILES IDX 4 1 5 2 6 3 7 7 8 8 9 9 2 10 3 11 1 12
REMARK H PARENT 6 4 6 5 6 6 1 13 1 14
REMARK Flexibility Score: inf
ROOT
ATOM      1  C   UNL     1      -0.689 -13.259 -12.824  1.00  0.00     0.171 C 
ENDROOT
BRANCH   1   2
ATOM      2  C   UNL     1       0.707 -13.649 -13.348  1.00  0.00     0.237 C 
BRANCH   2   3
ATOM      3  N   UNL     1       1.058 -12.840 -14.521  1.00  0.00    -0.350 N 
ATOM      4  H   UNL     1       1.155 -13.457 -15.361  1.00  0.00     0.345 HD
ATOM      5  H   UNL     1       0.300 -12.145 -14.713  1.00  0.00     0.345 HD
ATOM      6  H   UNL     1       1.960 -12.332 -14.366  1.00  0.00     0.345 HD
ENDBRANCH   2   3
BRANCH   2   7
ATOM      7  C   UNL     1       0.761 -15.114 -13.698  1.00  0.00     0.100 C 
ATOM      8  O   UNL     1       1.070 -15.475 -14.864  1.00  0.00    -0.544 OA
ATOM      9  O   UNL     1       0.485 -16.076 -12.733  1.00  0.00    -0.544 OA
ENDBRANCH   2   7
ENDBRANCH   1   2
BRANCH   1  10
ATOM     10  C   UNL     1      -1.767 -13.616 -13.807  1.00  0.00     0.223 C 
ATOM     11  O   UNL     1      -1.718 -13.162 -14.981  1.00  0.00    -0.275 OA
ATOM     12  N   UNL     1      -2.869 -14.433 -13.410  1.00  0.00    -0.369 N 
ATOM     13  H   UNL     1      -2.936 -14.801 -12.436  1.00  0.00     0.159 HD
ATOM     14  H   UNL     1      -3.624 -14.667 -14.092  1.00  0.00     0.159 HD
ENDBRANCH   1  10
TORSDOF 4
ENDMDL
MODEL 4
REMARK VINA RESULT:    -4.164      1.881      3.106
REMARK INTER + INTRA:          -5.366
REMARK INTER:                  -5.243
REMARK INTRA:                  -0.123
REMARK UNBOUND:                -0.349
REMARK SMILES NC(=O)C[C@H]([NH3+])C(=O)[O-]
REMARK SMILES IDX 4 1 5 2 6 3 7 7 8 8 9 9 2 10 3 11 1 12
REMARK H PARENT 6 4 6 5 6 6 1 13 1 14
REMARK Flexibility Score: inf
ROOT
ATOM      1  C   UNL     1       0.481 -14.909 -13.391  1.00  0.00     0.171 C 
ENDROOT
BRANCH   1   2
ATOM      2  C   UNL     1       0.721 -14.069 -14.662  1.00  0.00     0.237 C 
BRANCH   2   3
ATOM      3  N   UNL     1       1.057 -12.686 -14.305  1.00  0.00    -0.350 N 
ATOM      4  H   UNL     1       0.694 -12.469 -13.347  1.00  0.00     0.345 HD
ATOM      5  H   UNL     1       2.096 -12.564 -14.294  1.00  0.00     0.345 HD
ATOM      6  H   UNL     1       0.638 -12.014 -14.989  1.00  0.00     0.345 HD
ENDBRANCH   2   3
BRANCH   2   7
ATOM      7  C   UNL     1      -0.489 -14.091 -15.559  1.00  0.00     0.100 C 
ATOM      8  O   UNL     1      -1.522 -13.443 -15.244  1.00  0.00    -0.544 OA
ATOM      9  O   UNL     1      -0.469 -14.813 -16.746  1.00  0.00    -0.544 OA
ENDBRANCH   2   7
ENDBRANCH   1   2
BRANCH   1  10
ATOM     10  C   UNL     1       0.937 -16.329 -13.574  1.00  0.00     0.223 C 
ATOM     11  O   UNL     1       1.424 -16.960 -12.597  1.00  0.00    -0.275 OA
ATOM     12  N   UNL     1       0.860 -16.957 -14.854  1.00  0.00    -0.369 N 
ATOM     13  H   UNL     1       0.478 -16.443 -15.678  1.00  0.00     0.159 HD
ATOM     14  H   UNL     1       1.191 -17.939 -14.979  1.00  0.00     0.159 HD
ENDBRANCH   1  10
TORSDOF 4
ENDMDL
MODEL 5
REMARK VINA RESULT:    -4.096     14.301     16.165
REMARK INTER + INTRA:          -5.283
REMARK INTER:                  -5.025
REMARK INTRA:                  -0.258
REMARK UNBOUND:                -0.349
REMARK SMILES NC(=O)C[C@H]([NH3+])C(=O)[O-]
REMARK SMILES IDX 4 1 5 2 6 3 7 7 8 8 9 9 2 10 3 11 1 12
REMARK H PARENT 6 4 6 5 6 6 1 13 1 14
REMARK Flexibility Score: inf
ROOT
ATOM      1  C   UNL     1       6.757 -12.866 -28.426  1.00  0.00     0.171 C 
ENDROOT
BRANCH   1   2
ATOM      2  C   UNL     1       6.466 -11.381 -28.721  1.00  0.00     0.237 C 
BRANCH   2   3
ATOM      3  N   UNL     1       5.028 -11.174 -28.932  1.00  0.00    -0.350 N 
ATOM      4  H   UNL     1       4.566 -12.088 -29.142  1.00  0.00     0.345 HD
ATOM      5  H   UNL     1       4.595 -10.781 -28.065  1.00  0.00     0.345 HD
ATOM      6  H   UNL     1       4.862 -10.516 -29.729  1.00  0.00     0.345 HD
ENDBRANCH   2   3
BRANCH   2   7
ATOM      7  C   UNL     1       7.237 -10.911 -29.927  1.00  0.00     0.100 C 
ATOM      8  O   UNL     1       6.626 -10.504 -30.951  1.00  0.00    -0.544 OA
ATOM      9  O   UNL     1       8.627 -10.908 -29.914  1.00  0.00    -0.544 OA
ENDBRANCH   2   7
ENDBRANCH   1   2
BRANCH   1  10
ATOM     10  C   UNL     1       6.624 -13.174 -26.961  1.00  0.00     0.223 C 
ATOM     11  O   UNL     1       5.909 -12.438 -26.230  1.00  0.00    -0.275 OA
ATOM     12  N   UNL     1       7.332 -14.271 -26.383  1.00  0.00    -0.369 N 
ATOM     13  H   UNL     1       7.944 -14.880 -26.971  1.00  0.00     0.159 HD
ATOM     14  H   UNL     1       7.248 -14.473 -25.363  1.00  0.00     0.159 HD
ENDBRANCH   1  10
TORSDOF 4
ENDMDL
MODEL 6
REMARK VINA RESULT:    -4.081     15.778     16.577
REMARK INTER + INTRA:          -5.264
REMARK INTER:                  -4.896
REMARK INTRA:                  -0.368
REMARK UNBOUND:                -0.349
REMARK SMILES NC(=O)C[C@H]([NH3+])C(=O)[O-]
REMARK SMILES IDX 4 1 5 2 6 3 7 7 8 8 9 9 2 10 3 11 1 12
REMARK H PARENT 6 4 6 5 6 6 1 13 1 14
REMARK Flexibility Score: inf
ROOT
ATOM      1  C   UNL     1       6.397 -12.373 -27.821  1.00  0.00     0.171 C 
ENDROOT
BRANCH   1   2
ATOM      2  C   UNL     1       7.324 -13.411 -28.484  1.00  0.00     0.237 C 
BRANCH   2   3
ATOM      3  N   UNL     1       8.613 -12.800 -28.829  1.00  0.00    -0.350 N 
ATOM      4  H   UNL     1       9.276 -13.538 -29.163  1.00  0.00     0.345 HD
ATOM      5  H   UNL     1       8.482 -12.107 -29.601  1.00  0.00     0.345 HD
ATOM      6  H   UNL     1       9.029 -12.318 -27.999  1.00  0.00     0.345 HD
ENDBRANCH   2   3
BRANCH   2   7
ATOM      7  C   UNL     1       6.684 -13.995 -29.717  1.00  0.00     0.100 C 
ATOM      8  O   UNL     1       5.718 -14.796 -29.610  1.00  0.00    -0.544 OA
ATOM      9  O   UNL     1       7.145 -13.643 -30.980  1.00  0.00    -0.544 OA
ENDBRANCH   2   7
ENDBRANCH   1   2
BRANCH   1  10
ATOM     10  C   UNL     1       6.165 -11.189 -28.716  1.00  0.00     0.223 C 
ATOM     11  O   UNL     1       7.123 -10.421 -28.998  1.00  0.00    -0.275 OA
ATOM     12  N   UNL     1       4.859 -10.904 -29.218  1.00  0.00    -0.369 N 
ATOM     13  H   UNL     1       4.050 -11.519 -28.978  1.00  0.00     0.159 HD
ATOM     14  H   UNL     1       4.699 -10.073 -29.827  1.00  0.00     0.159 HD
ENDBRANCH   1  10
TORSDOF 4
ENDMDL
MODEL 7
REMARK VINA RESULT:    -4.074      2.448      3.715
REMARK INTER + INTRA:          -5.257
REMARK INTER:                  -4.973
REMARK INTRA:                  -0.284
REMARK UNBOUND:                -0.349
REMARK SMILES NC(=O)C[C@H]([NH3+])C(=O)[O-]
REMARK SMILES IDX 4 1 5 2 6 3 7 7 8 8 9 9 2 10 3 11 1 12
REMARK H PARENT 6 4 6 5 6 6 1 13 1 14
REMARK Flexibility Score: inf
ROOT
ATOM      1  C   UNL     1       0.634 -14.924 -13.400  1.00  0.00     0.171 C 
ENDROOT
BRANCH   1   2
ATOM      2  C   UNL     1       1.200 -15.859 -14.488  1.00  0.00     0.237 C 
BRANCH   2   3
ATOM      3  N   UNL     1       0.375 -15.793 -15.700  1.00  0.00    -0.350 N 
ATOM      4  H   UNL     1       0.990 -15.701 -16.541  1.00  0.00     0.345 HD
ATOM      5  H   UNL     1      -0.182 -16.673 -15.798  1.00  0.00     0.345 HD
ATOM      6  H   UNL     1      -0.276 -14.976 -15.661  1.00  0.00     0.345 HD
ENDBRANCH   2   3
BRANCH   2   7
ATOM      7  C   UNL     1       1.275 -17.280 -13.991  1.00  0.00     0.100 C 
ATOM      8  O   UNL     1       2.180 -18.049 -14.410  1.00  0.00    -0.544 OA
ATOM      9  O   UNL     1       0.356 -17.746 -13.058  1.00  0.00    -0.544 OA
ENDBRANCH   2   7
ENDBRANCH   1   2
BRANCH   1  10
ATOM     10  C   UNL     1       0.085 -13.657 -13.993  1.00  0.00     0.223 C 
ATOM     11  O   UNL     1      -1.153 -13.551 -14.204  1.00  0.00    -0.275 OA
ATOM     12  N   UNL     1       0.958 -12.587 -14.354  1.00  0.00    -0.369 N 
ATOM     13  H   UNL     1       1.988 -12.666 -14.204  1.00  0.00     0.159 HD
ATOM     14  H   UNL     1       0.574 -11.715 -14.779  1.00  0.00     0.159 HD
ENDBRANCH   1  10
TORSDOF 4
ENDMDL
MODEL 8
REMARK VINA RESULT:    -4.015     15.196     16.335
REMARK INTER + INTRA:          -5.185
REMARK INTER:                  -4.715
REMARK INTRA:                  -0.470
REMARK UNBOUND:                -0.349
REMARK SMILES NC(=O)C[C@H]([NH3+])C(=O)[O-]
REMARK SMILES IDX 4 1 5 2 6 3 7 7 8 8 9 9 2 10 3 11 1 12
REMARK H PARENT 6 4 6 5 6 6 1 13 1 14
REMARK Flexibility Score: inf
ROOT
ATOM      1  C   UNL     1       7.193 -10.785 -29.818  1.00  0.00     0.171 C 
ENDROOT
BRANCH   1   2
ATOM      2  C   UNL     1       5.963 -11.629 -29.430  1.00  0.00     0.237 C 
BRANCH   2   3
ATOM      3  N   UNL     1       4.790 -10.767 -29.240  1.00  0.00    -0.350 N 
ATOM      4  H   UNL     1       5.076  -9.882 -28.761  1.00  0.00     0.345 HD
ATOM      5  H   UNL     1       4.379 -10.517 -30.168  1.00  0.00     0.345 HD
ATOM      6  H   UNL     1       4.065 -11.250 -28.660  1.00  0.00     0.345 HD
ENDBRANCH   2   3
BRANCH   2   7
ATOM      7  C   UNL     1       6.228 -12.424 -28.178  1.00  0.00     0.100 C 
ATOM      8  O   UNL     1       6.074 -11.892 -27.047  1.00  0.00    -0.544 OA
ATOM      9  O   UNL     1       6.628 -13.752 -28.261  1.00  0.00    -0.544 OA
ENDBRANCH   2   7
ENDBRANCH   1   2
BRANCH   1  10
ATOM     10  C   UNL     1       7.080  -9.377 -29.306  1.00  0.00     0.223 C 
ATOM     11  O   UNL     1       6.665  -8.465 -30.070  1.00  0.00    -0.275 OA
ATOM     12  N   UNL     1       7.476  -9.056 -27.972  1.00  0.00    -0.369 N 
ATOM     13  H   UNL     1       7.841  -9.795 -27.332  1.00  0.00     0.159 HD
ATOM     14  H   UNL     1       7.410  -8.074 -27.625  1.00  0.00     0.159 HD
ENDBRANCH   1  10
TORSDOF 4
ENDMDL
MODEL 9
REMARK VINA RESULT:    -3.977     16.672     17.676
REMARK INTER + INTRA:          -5.140
REMARK INTER:                  -4.657
REMARK INTRA:                  -0.483
REMARK UNBOUND:                -0.349
REMARK SMILES NC(=O)C[C@H]([NH3+])C(=O)[O-]
REMARK SMILES IDX 4 1 5 2 6 3 7 7 8 8 9 9 2 10 3 11 1 12
REMARK H PARENT 6 4 6 5 6 6 1 13 1 14
REMARK Flexibility Score: inf
ROOT
ATOM      1  C   UNL     1       7.116 -11.051 -30.232  1.00  0.00     0.171 C 
ENDROOT
BRANCH   1   2
ATOM      2  C   UNL     1       6.942 -12.219 -31.224  1.00  0.00     0.237 C 
BRANCH   2   3
ATOM      3  N   UNL     1       5.776 -11.990 -32.085  1.00  0.00    -0.350 N 
ATOM      4  H   UNL     1       5.194 -11.213 -31.694  1.00  0.00     0.345 HD
ATOM      5  H   UNL     1       6.092 -11.710 -33.043  1.00  0.00     0.345 HD
ATOM      6  H   UNL     1       5.190 -12.854 -32.154  1.00  0.00     0.345 HD
ENDBRANCH   2   3
BRANCH   2   7
ATOM      7  C   UNL     1       6.793 -13.528 -30.493  1.00  0.00     0.100 C 
ATOM      8  O   UNL     1       7.593 -14.475 -30.722  1.00  0.00    -0.544 OA
ATOM      9  O   UNL     1       5.783 -13.697 -29.553  1.00  0.00    -0.544 OA
ENDBRANCH   2   7
ENDBRANCH   1   2
BRANCH   1  10
ATOM     10  C   UNL     1       5.837 -10.283 -30.054  1.00  0.00     0.223 C 
ATOM     11  O   UNL     1       5.642  -9.230 -30.719  1.00  0.00    -0.275 OA
ATOM     12  N   UNL     1       4.857 -10.715 -29.110  1.00  0.00    -0.369 N 
ATOM     13  H   UNL     1       5.011 -11.574 -28.537  1.00  0.00     0.159 HD
ATOM     14  H   UNL     1       3.977 -10.170 -28.978  1.00  0.00     0.159 HD
ENDBRANCH   1  10
TORSDOF 4
ENDMDL
