MODEL 1
REMARK VINA RESULT:    -3.656      0.000      0.000
REMARK INTER + INTRA:          -4.415
REMARK INTER:                  -4.297
REMARK INTRA:                  -0.118
REMARK UNBOUND:                -0.118
REMARK SMILES O=C([O-])CCC(=O)[O-]
REMARK SMILES IDX 4 1 2 2 1 3 3 4 5 5 6 6 7 7 8 8
REMARK H PARENT
REMARK Flexibility Score: inf
ROOT
ATOM      1  C   UNL     1       1.783   7.417  -8.515  1.00  0.00     0.059 C 
ENDROOT
BRANCH   1   2
ATOM      2  C   UNL     1       2.268   7.971  -9.820  1.00  0.00     0.042 C 
ATOM      3  O   UNL     1       2.075   7.333 -10.889  1.00  0.00    -0.550 OA
ATOM      4  O   UNL     1       2.969   9.169  -9.851  1.00  0.00    -0.550 OA
ENDBRANCH   1   2
BRANCH   1   5
ATOM      5  C   UNL     1       0.493   8.103  -8.055  1.00  0.00     0.059 C 
BRANCH   5   6
ATOM      6  C   UNL     1      -0.722   7.433  -8.619  1.00  0.00     0.042 C 
ATOM      7  O   UNL     1      -1.840   8.011  -8.579  1.00  0.00    -0.550 OA
ATOM      8  O   UNL     1      -0.628   6.153  -9.150  1.00  0.00    -0.550 OA
ENDBRANCH   5   6
ENDBRANCH   1   5
TORSDOF 3
ENDMDL
MODEL 2
REMARK VINA RESULT:    -3.655      0.059      3.755
REMARK INTER + INTRA:          -4.414
REMARK INTER:                  -4.298
REMARK INTRA:                  -0.116
REMARK UNBOUND:                -0.118
REMARK SMILES O=C([O-])CCC(=O)[O-]
REMARK SMILES IDX 4 1 2 2 1 3 3 4 5 5 6 6 7 7 8 8
REMARK H PARENT
REMARK Flexibility Score: inf
ROOT
ATOM      1  C   UNL     1       0.528   8.111  -7.993  1.00  0.00     0.059 C 
ENDROOT
BRANCH   1   2
ATOM      2  C   UNL     1      -0.698   7.479  -8.577  1.00  0.00     0.042 C 
ATOM      3  O   UNL     1      -1.802   8.083  -8.537  1.00  0.00    -0.550 OA
ATOM      4  O   UNL     1      -0.630   6.206  -9.128  1.00  0.00    -0.550 OA
ENDBRANCH   1   2
BRANCH   1   5
ATOM      5  C   UNL     1       1.807   7.429  -8.490  1.00  0.00     0.059 C 
BRANCH   5   6
ATOM      6  C   UNL     1       2.264   7.997  -9.799  1.00  0.00     0.042 C 
ATOM      7  O   UNL     1       2.077   7.357 -10.867  1.00  0.00    -0.550 OA
ATOM      8  O   UNL     1       2.934   9.213  -9.835  1.00  0.00    -0.550 OA
ENDBRANCH   5   6
ENDBRANCH   1   5
TORSDOF 3
ENDMDL
MODEL 3
REMARK VINA RESULT:    -3.640      1.975      3.554
REMARK INTER + INTRA:          -4.396
REMARK INTER:                  -4.301
REMARK INTRA:                  -0.095
REMARK UNBOUND:                -0.118
REMARK SMILES O=C([O-])CCC(=O)[O-]
REMARK SMILES IDX 4 1 2 2 1 3 3 4 5 5 6 6 7 7 8 8
REMARK H PARENT
REMARK Flexibility Score: inf
ROOT
ATOM      1  C   UNL     1      -0.552   7.881 -10.310  1.00  0.00     0.059 C 
ENDROOT
BRANCH   1   2
ATOM      2  C   UNL     1      -1.455   6.715 -10.572  1.00  0.00     0.042 C 
ATOM      3  O   UNL     1      -2.376   6.433  -9.760  1.00  0.00    -0.550 OA
ATOM      4  O   UNL     1      -1.256   5.916 -11.690  1.00  0.00    -0.550 OA
ENDBRANCH   1   2
BRANCH   1   5
ATOM      5  C   UNL     1      -0.360   8.120  -8.809  1.00  0.00     0.059 C 
BRANCH   5   6
ATOM      6  C   UNL     1       0.893   7.475  -8.301  1.00  0.00     0.042 C 
ATOM      7  O   UNL     1       1.069   7.321  -7.064  1.00  0.00    -0.550 OA
ATOM      8  O   UNL     1       1.884   7.082  -9.191  1.00  0.00    -0.550 OA
ENDBRANCH   5   6
ENDBRANCH   1   5
TORSDOF 3
ENDMDL
MODEL 4
REMARK VINA RESULT:    -3.638      1.427      3.756
REMARK INTER + INTRA:          -4.394
REMARK INTER:                  -4.279
REMARK INTRA:                  -0.115
REMARK UNBOUND:                -0.118
REMARK SMILES O=C([O-])CCC(=O)[O-]
REMARK SMILES IDX 4 1 2 2 1 3 3 4 5 5 6 6 7 7 8 8
REMARK H PARENT
REMARK Flexibility Score: inf
ROOT
ATOM      1  C   UNL     1      -0.079   7.063 -10.275  1.00  0.00     0.059 C 
ENDROOT
BRANCH   1   2
ATOM      2  C   UNL     1      -1.242   7.059  -9.331  1.00  0.00     0.042 C 
ATOM      3  O   UNL     1      -2.289   6.422  -9.619  1.00  0.00    -0.550 OA
ATOM      4  O   UNL     1      -1.185   7.792  -8.153  1.00  0.00    -0.550 OA
ENDBRANCH   1   2
BRANCH   1   5
ATOM      5  C   UNL     1       0.755   8.341 -10.139  1.00  0.00     0.059 C 
BRANCH   5   6
ATOM      6  C   UNL     1       2.084   8.070  -9.503  1.00  0.00     0.042 C 
ATOM      7  O   UNL     1       3.096   8.739  -9.840  1.00  0.00    -0.550 OA
ATOM      8  O   UNL     1       2.213   7.052  -8.568  1.00  0.00    -0.550 OA
ENDBRANCH   5   6
ENDBRANCH   1   5
TORSDOF 3
ENDMDL
MODEL 5
REMARK VINA RESULT:    -3.633      2.044      2.677
REMARK INTER + INTRA:          -4.388
REMARK INTER:                  -4.299
REMARK INTRA:                  -0.089
REMARK UNBOUND:                -0.118
REMARK SMILES O=C([O-])CCC(=O)[O-]
REMARK SMILES IDX 4 1 2 2 1 3 3 4 5 5 6 6 7 7 8 8
REMARK H PARENT
REMARK Flexibility Score: inf
ROOT
ATOM      1  C   UNL     1      -0.282   8.079  -8.873  1.00  0.00     0.059 C 
ENDROOT
BRANCH   1   2
ATOM      2  C   UNL     1       0.966   7.470  -8.311  1.00  0.00     0.042 C 
ATOM      3  O   UNL     1       1.859   7.032  -9.084  1.00  0.00    -0.550 OA
ATOM      4  O   UNL     1       1.125   7.350  -6.937  1.00  0.00    -0.550 OA
ENDBRANCH   1   2
BRANCH   1   5
ATOM      5  C   UNL     1      -0.397   7.840 -10.383  1.00  0.00     0.059 C 
BRANCH   5   6
ATOM      6  C   UNL     1      -1.317   6.700 -10.695  1.00  0.00     0.042 C 
ATOM      7  O   UNL     1      -1.134   6.003 -11.727  1.00  0.00    -0.550 OA
ATOM      8  O   UNL     1      -2.402   6.435  -9.869  1.00  0.00    -0.550 OA
ENDBRANCH   5   6
ENDBRANCH   1   5
TORSDOF 3
ENDMDL
MODEL 6
REMARK VINA RESULT:    -3.633      1.433      1.958
REMARK INTER + INTRA:          -4.388
REMARK INTER:                  -4.270
REMARK INTRA:                  -0.117
REMARK UNBOUND:                -0.118
REMARK SMILES O=C([O-])CCC(=O)[O-]
REMARK SMILES IDX 4 1 2 2 1 3 3 4 5 5 6 6 7 7 8 8
REMARK H PARENT
REMARK Flexibility Score: inf
ROOT
ATOM      1  C   UNL     1       0.730   8.409 -10.066  1.00  0.00     0.059 C 
ENDROOT
BRANCH   1   2
ATOM      2  C   UNL     1       2.066   8.083  -9.472  1.00  0.00     0.042 C 
ATOM      3  O   UNL     1       3.091   8.720  -9.834  1.00  0.00    -0.550 OA
ATOM      4  O   UNL     1       2.187   7.052  -8.551  1.00  0.00    -0.550 OA
ENDBRANCH   1   2
BRANCH   1   5
ATOM      5  C   UNL     1      -0.113   7.147 -10.284  1.00  0.00     0.059 C 
BRANCH   5   6
ATOM      6  C   UNL     1      -1.273   7.086  -9.338  1.00  0.00     0.042 C 
ATOM      7  O   UNL     1      -2.299   6.421  -9.636  1.00  0.00    -0.550 OA
ATOM      8  O   UNL     1      -1.237   7.798  -8.146  1.00  0.00    -0.550 OA
ENDBRANCH   5   6
ENDBRANCH   1   5
TORSDOF 3
ENDMDL
MODEL 7
REMARK VINA RESULT:    -3.609      0.205      1.624
REMARK INTER + INTRA:          -4.360
REMARK INTER:                  -4.241
REMARK INTRA:                  -0.119
REMARK UNBOUND:                -0.118
REMARK SMILES O=C([O-])CCC(=O)[O-]
REMARK SMILES IDX 4 1 2 2 1 3 3 4 5 5 6 6 7 7 8 8
REMARK H PARENT
REMARK Flexibility Score: inf
ROOT
ATOM      1  C   UNL     1       1.667   7.440  -8.457  1.00  0.00     0.059 C 
ENDROOT
BRANCH   1   2
ATOM      2  C   UNL     1       2.237   7.970  -9.738  1.00  0.00     0.042 C 
ATOM      3  O   UNL     1       2.892   9.045  -9.741  1.00  0.00    -0.550 OA
ATOM      4  O   UNL     1       2.009   7.298 -10.931  1.00  0.00    -0.550 OA
ENDBRANCH   1   2
BRANCH   1   5
ATOM      5  C   UNL     1       0.335   8.115  -8.110  1.00  0.00     0.059 C 
BRANCH   5   6
ATOM      6  C   UNL     1      -0.823   7.418  -8.755  1.00  0.00     0.042 C 
ATOM      7  O   UNL     1      -0.715   6.220  -9.125  1.00  0.00    -0.550 OA
ATOM      8  O   UNL     1      -2.008   8.105  -8.985  1.00  0.00    -0.550 OA
ENDBRANCH   5   6
ENDBRANCH   1   5
TORSDOF 3
ENDMDL
MODEL 8
REMARK VINA RESULT:    -3.545      1.459      1.847
REMARK INTER + INTRA:          -4.285
REMARK INTER:                  -4.152
REMARK INTRA:                  -0.132
REMARK UNBOUND:                -0.118
REMARK SMILES O=C([O-])CCC(=O)[O-]
REMARK SMILES IDX 4 1 2 2 1 3 3 4 5 5 6 6 7 7 8 8
REMARK H PARENT
REMARK Flexibility Score: inf
ROOT
ATOM      1  C   UNL     1       0.598   8.779  -9.888  1.00  0.00     0.059 C 
ENDROOT
BRANCH   1   2
ATOM      2  C   UNL     1       1.615   7.679  -9.929  1.00  0.00     0.042 C 
ATOM      3  O   UNL     1       2.017   7.151  -8.859  1.00  0.00    -0.550 OA
ATOM      4  O   UNL     1       2.148   7.267 -11.143  1.00  0.00    -0.550 OA
ENDBRANCH   1   2
BRANCH   1   5
ATOM      5  C   UNL     1      -0.777   8.294 -10.361  1.00  0.00     0.059 C 
BRANCH   5   6
ATOM      6  C   UNL     1      -1.494   7.531  -9.289  1.00  0.00     0.042 C 
ATOM      7  O   UNL     1      -1.364   7.862  -8.081  1.00  0.00    -0.550 OA
ATOM      8  O   UNL     1      -2.270   6.429  -9.621  1.00  0.00    -0.550 OA
ENDBRANCH   5   6
ENDBRANCH   1   5
TORSDOF 3
ENDMDL
MODEL 9
REMARK VINA RESULT:    -3.222      3.158      5.245
REMARK INTER + INTRA:          -3.905
REMARK INTER:                  -3.866
REMARK INTRA:                  -0.039
REMARK UNBOUND:                -0.118
REMARK SMILES O=C([O-])CCC(=O)[O-]
REMARK SMILES IDX 4 1 2 2 1 3 3 4 5 5 6 6 7 7 8 8
REMARK H PARENT
REMARK Flexibility Score: inf
ROOT
ATOM      1  C   UNL     1      -3.087   8.732 -10.431  1.00  0.00     0.059 C 
ENDROOT
BRANCH   1   2
ATOM      2  C   UNL     1      -4.461   8.804 -11.026  1.00  0.00     0.042 C 
ATOM      3  O   UNL     1      -5.335   9.548 -10.509  1.00  0.00    -0.550 OA
ATOM      4  O   UNL     1      -4.786   8.020 -12.125  1.00  0.00    -0.550 OA
ENDBRANCH   1   2
BRANCH   1   5
ATOM      5  C   UNL     1      -2.574   7.289 -10.369  1.00  0.00     0.059 C 
BRANCH   5   6
ATOM      6  C   UNL     1      -1.605   7.094  -9.244  1.00  0.00     0.042 C 
ATOM      7  O   UNL     1      -1.643   7.849  -8.237  1.00  0.00    -0.550 OA
ATOM      8  O   UNL     1      -0.632   6.107  -9.326  1.00  0.00    -0.550 OA
ENDBRANCH   5   6
ENDBRANCH   1   5
TORSDOF 3
ENDMDL
