MODEL 1
REMARK VINA RESULT:    -6.792      0.000      0.000
REMARK INTER + INTRA:         -11.263
REMARK INTER:                 -10.167
REMARK INTRA:                  -1.096
REMARK UNBOUND:                -1.096
REMARK SMILES COC(=O)C1=CO[C@H](O[C@H]2O[C@@H](CO)[C@@H](O)[C@H](O)[C@@H]2O)[C@H]2C(CO)=CC[C@H]12
REMARK SMILES IDX 9 1 8 2 5 3 6 4 27 5 7 6 21 7 26 8 22 9 25 10 3 11 4 12 2 13
REMARK SMILES IDX 1 14 23 15 24 16 10 18 19 19 11 20 17 21 12 22 15 23 20 24
REMARK SMILES IDX 18 26 13 28 14 29 16 31
REMARK H PARENT 24 17 20 25 18 27 14 30 16 32
REMARK Flexibility Score: inf
ROOT
ATOM      1  O   UNL     1       8.024  13.014 -18.485  1.00  0.00    -0.310 OA
ENDROOT
BRANCH   1   2
ATOM      2  C   UNL     1       8.778  13.956 -19.228  1.00  0.00     0.316 C 
ATOM      3  C   UNL     1       8.857  15.673 -21.606  1.00  0.00     0.076 C 
ATOM      4  C   UNL     1       9.059  14.338 -21.711  1.00  0.00     0.202 C 
ATOM      5  C   UNL     1       8.777  16.223 -20.201  1.00  0.00     0.047 C 
ATOM      6  O   UNL     1       9.027  13.494 -20.576  1.00  0.00    -0.471 OA
ATOM      7  C   UNL     1       7.982  15.262 -19.325  1.00  0.00     0.094 C 
ATOM      8  C   UNL     1       8.128  17.573 -19.901  1.00  0.00     0.037 C 
ATOM      9  C   UNL     1       7.725  16.102 -18.114  1.00  0.00    -0.039 C 
ATOM     10  C   UNL     1       7.740  17.392 -18.461  1.00  0.00    -0.024 C 
BRANCH   3  11
ATOM     11  C   UNL     1       8.935  16.552 -22.799  1.00  0.00     0.337 C 
ATOM     12  O   UNL     1       7.966  17.305 -23.095  1.00  0.00    -0.246 OA
BRANCH  11  13
ATOM     13  O   UNL     1      10.083  16.553 -23.596  1.00  0.00    -0.466 OA
ATOM     14  C   UNL     1      10.074  16.177 -24.968  1.00  0.00     0.282 C 
ENDBRANCH  11  13
ENDBRANCH   3  11
BRANCH   9  15
ATOM     15  C   UNL     1       7.229  15.614 -16.783  1.00  0.00     0.187 C 
BRANCH  15  16
ATOM     16  O   UNL     1       8.311  15.137 -16.035  1.00  0.00    -0.392 OA
ATOM     17  H   UNL     1       8.192  15.493 -15.117  1.00  0.00     0.211 HD
ENDBRANCH  15  16
ENDBRANCH   9  15
ENDBRANCH   1   2
BRANCH   1  18
ATOM     18  C   UNL     1       8.813  12.292 -17.556  1.00  0.00     0.286 C 
ATOM     19  C   UNL     1       9.063  10.884 -18.138  1.00  0.00     0.202 C 
ATOM     20  O   UNL     1       8.144  12.183 -16.307  1.00  0.00    -0.341 OA
ATOM     21  C   UNL     1       9.834   9.987 -17.142  1.00  0.00     0.179 C 
ATOM     22  C   UNL     1       8.998  11.580 -15.349  1.00  0.00     0.178 C 
ATOM     23  C   UNL     1       9.250  10.099 -15.715  1.00  0.00     0.177 C 
BRANCH  19  24
ATOM     24  O   UNL     1       9.779  10.970 -19.345  1.00  0.00    -0.385 OA
ATOM     25  H   UNL     1      10.033  10.044 -19.599  1.00  0.00     0.211 HD
ENDBRANCH  19  24
BRANCH  21  26
ATOM     26  O   UNL     1      11.217  10.256 -17.148  1.00  0.00    -0.387 OA
ATOM     27  H   UNL     1      11.569  10.130 -16.231  1.00  0.00     0.211 HD
ENDBRANCH  21  26
BRANCH  22  28
ATOM     28  C   UNL     1       8.356  11.701 -13.959  1.00  0.00     0.191 C 
BRANCH  28  29
ATOM     29  O   UNL     1       8.862  12.822 -13.284  1.00  0.00    -0.394 OA
ATOM     30  H   UNL     1       8.769  12.635 -12.313  1.00  0.00     0.210 HD
ENDBRANCH  28  29
ENDBRANCH  22  28
BRANCH  23  31
ATOM     31  O   UNL     1       8.039   9.385 -15.644  1.00  0.00    -0.387 OA
ATOM     32  H   UNL     1       8.116   8.631 -16.283  1.00  0.00     0.211 HD
ENDBRANCH  23  31
ENDBRANCH   1  18
TORSDOF 11
ENDMDL
MODEL 2
REMARK VINA RESULT:    -6.467      2.521      8.202
REMARK INTER + INTRA:         -10.778
REMARK INTER:                  -9.328
REMARK INTRA:                  -1.449
REMARK UNBOUND:                -1.096
REMARK SMILES COC(=O)C1=CO[C@H](O[C@H]2O[C@@H](CO)[C@@H](O)[C@H](O)[C@@H]2O)[C@H]2C(CO)=CC[C@H]12
REMARK SMILES IDX 9 1 8 2 5 3 6 4 27 5 7 6 21 7 26 8 22 9 25 10 3 11 4 12 2 13
REMARK SMILES IDX 1 14 23 15 24 16 10 18 19 19 11 20 17 21 12 22 15 23 20 24
REMARK SMILES IDX 18 26 13 28 14 29 16 31
REMARK H PARENT 24 17 20 25 18 27 14 30 16 32
REMARK Flexibility Score: inf
ROOT
ATOM      1  O   UNL     1       8.073  10.745 -17.760  1.00  0.00    -0.310 OA
ENDROOT
BRANCH   1   2
ATOM      2  C   UNL     1       8.056  10.592 -16.352  1.00  0.00     0.316 C 
ATOM      3  C   UNL     1       7.183   8.929 -14.098  1.00  0.00     0.076 C 
ATOM      4  C   UNL     1       6.302   9.724 -14.751  1.00  0.00     0.202 C 
ATOM      5  C   UNL     1       8.635   9.095 -14.479  1.00  0.00     0.047 C 
ATOM      6  O   UNL     1       6.705  10.534 -15.838  1.00  0.00    -0.471 OA
ATOM      7  C   UNL     1       8.747   9.273 -15.988  1.00  0.00     0.094 C 
ATOM      8  C   UNL     1       9.673   8.011 -14.187  1.00  0.00     0.037 C 
ATOM      9  C   UNL     1      10.214   9.084 -16.206  1.00  0.00    -0.039 C 
ATOM     10  C   UNL     1      10.710   8.318 -15.229  1.00  0.00    -0.024 C 
BRANCH   3  11
ATOM     11  C   UNL     1       6.756   8.116 -12.932  1.00  0.00     0.337 C 
ATOM     12  O   UNL     1       6.545   6.878 -13.067  1.00  0.00    -0.246 OA
BRANCH  11  13
ATOM     13  O   UNL     1       6.590   8.716 -11.681  1.00  0.00    -0.466 OA
ATOM     14  C   UNL     1       6.910   8.060 -10.460  1.00  0.00     0.282 C 
ENDBRANCH  11  13
ENDBRANCH   3  11
BRANCH   9  15
ATOM     15  C   UNL     1      10.979   9.421 -17.454  1.00  0.00     0.187 C 
BRANCH  15  16
ATOM     16  O   UNL     1      10.204   9.089 -18.572  1.00  0.00    -0.392 OA
ATOM     17  H   UNL     1       9.265   9.047 -18.257  1.00  0.00     0.211 HD
ENDBRANCH  15  16
ENDBRANCH   9  15
ENDBRANCH   1   2
BRANCH   1  18
ATOM     18  C   UNL     1       8.007  12.101 -18.164  1.00  0.00     0.286 C 
ATOM     19  C   UNL     1       9.201  12.377 -19.104  1.00  0.00     0.202 C 
ATOM     20  O   UNL     1       8.076  12.964 -17.037  1.00  0.00    -0.341 OA
ATOM     21  C   UNL     1       9.268  13.866 -19.515  1.00  0.00     0.179 C 
ATOM     22  C   UNL     1       7.872  14.308 -17.439  1.00  0.00     0.178 C 
ATOM     23  C   UNL     1       9.063  14.795 -18.297  1.00  0.00     0.177 C 
BRANCH  19  24
ATOM     24  O   UNL     1       9.114  11.575 -20.256  1.00  0.00    -0.385 OA
ATOM     25  H   UNL     1       9.319  12.159 -21.032  1.00  0.00     0.211 HD
ENDBRANCH  19  24
BRANCH  21  26
ATOM     26  O   UNL     1       8.359  14.172 -20.547  1.00  0.00    -0.387 OA
ATOM     27  H   UNL     1       7.614  14.704 -20.166  1.00  0.00     0.211 HD
ENDBRANCH  21  26
BRANCH  22  28
ATOM     28  C   UNL     1       7.700  15.185 -16.190  1.00  0.00     0.191 C 
BRANCH  28  29
ATOM     29  O   UNL     1       8.572  14.765 -15.174  1.00  0.00    -0.394 OA
ATOM     30  H   UNL     1       8.866  15.584 -14.696  1.00  0.00     0.210 HD
ENDBRANCH  28  29
ENDBRANCH  22  28
BRANCH  23  31
ATOM     31  O   UNL     1      10.232  14.810 -17.513  1.00  0.00    -0.387 OA
ATOM     32  H   UNL     1      10.343  13.892 -17.152  1.00  0.00     0.211 HD
ENDBRANCH  23  31
ENDBRANCH   1  18
TORSDOF 11
ENDMDL
MODEL 3
REMARK VINA RESULT:    -6.413      1.859      3.300
REMARK INTER + INTRA:         -10.696
REMARK INTER:                  -9.210
REMARK INTRA:                  -1.487
REMARK UNBOUND:                -1.096
REMARK SMILES COC(=O)C1=CO[C@H](O[C@H]2O[C@@H](CO)[C@@H](O)[C@H](O)[C@@H]2O)[C@H]2C(CO)=CC[C@H]12
REMARK SMILES IDX 9 1 8 2 5 3 6 4 27 5 7 6 21 7 26 8 22 9 25 10 3 11 4 12 2 13
REMARK SMILES IDX 1 14 23 15 24 16 10 18 19 19 11 20 17 21 12 22 15 23 20 24
REMARK SMILES IDX 18 26 13 28 14 29 16 31
REMARK H PARENT 24 17 20 25 18 27 14 30 16 32
REMARK Flexibility Score: inf
ROOT
ATOM      1  O   UNL     1       7.810  13.038 -16.162  1.00  0.00    -0.310 OA
ENDROOT
BRANCH   1   2
ATOM      2  C   UNL     1       8.326  13.232 -17.467  1.00  0.00     0.316 C 
ATOM      3  C   UNL     1       8.429  15.008 -19.801  1.00  0.00     0.076 C 
ATOM      4  C   UNL     1       7.335  14.247 -19.560  1.00  0.00     0.202 C 
ATOM      5  C   UNL     1       9.626  14.747 -18.917  1.00  0.00     0.047 C 
ATOM      6  O   UNL     1       7.268  13.383 -18.442  1.00  0.00    -0.471 OA
ATOM      7  C   UNL     1       9.159  14.519 -17.484  1.00  0.00     0.094 C 
ATOM      8  C   UNL     1      10.743  15.776 -18.749  1.00  0.00     0.037 C 
ATOM      9  C   UNL     1      10.446  14.616 -16.729  1.00  0.00    -0.039 C 
ATOM     10  C   UNL     1      11.302  15.379 -17.414  1.00  0.00    -0.024 C 
BRANCH   3  11
ATOM     11  C   UNL     1       8.503  15.878 -21.000  1.00  0.00     0.337 C 
ATOM     12  O   UNL     1       8.239  17.110 -20.906  1.00  0.00    -0.246 OA
BRANCH  11  13
ATOM     13  O   UNL     1       8.869  15.339 -22.236  1.00  0.00    -0.466 OA
ATOM     14  C   UNL     1       9.262  16.141 -23.345  1.00  0.00     0.282 C 
ENDBRANCH  11  13
ENDBRANCH   3  11
BRANCH   9  15
ATOM     15  C   UNL     1      10.674  14.198 -15.304  1.00  0.00     0.187 C 
BRANCH  15  16
ATOM     16  O   UNL     1       9.627  14.681 -14.510  1.00  0.00    -0.392 OA
ATOM     17  H   UNL     1       8.995  15.130 -15.127  1.00  0.00     0.211 HD
ENDBRANCH  15  16
ENDBRANCH   9  15
ENDBRANCH   1   2
BRANCH   1  18
ATOM     18  C   UNL     1       7.696  11.668 -15.818  1.00  0.00     0.286 C 
ATOM     19  C   UNL     1       8.465  11.444 -14.498  1.00  0.00     0.202 C 
ATOM     20  O   UNL     1       8.247  10.846 -16.838  1.00  0.00    -0.341 OA
ATOM     21  C   UNL     1       8.482   9.951 -14.097  1.00  0.00     0.179 C 
ATOM     22  C   UNL     1       8.005   9.481 -16.547  1.00  0.00     0.178 C 
ATOM     23  C   UNL     1       8.818   9.047 -15.305  1.00  0.00     0.177 C 
BRANCH  19  24
ATOM     24  O   UNL     1       7.895  12.203 -13.461  1.00  0.00    -0.385 OA
ATOM     25  H   UNL     1       7.075  11.726 -13.169  1.00  0.00     0.211 HD
ENDBRANCH  19  24
BRANCH  21  26
ATOM     26  O   UNL     1       7.277   9.554 -13.485  1.00  0.00    -0.387 OA
ATOM     27  H   UNL     1       6.588   9.436 -14.187  1.00  0.00     0.211 HD
ENDBRANCH  21  26
BRANCH  22  28
ATOM     28  C   UNL     1       8.379   8.632 -17.772  1.00  0.00     0.191 C 
BRANCH  28  29
ATOM     29  O   UNL     1       9.649   8.994 -18.247  1.00  0.00    -0.394 OA
ATOM     30  H   UNL     1       9.631   8.865 -19.231  1.00  0.00     0.210 HD
ENDBRANCH  28  29
ENDBRANCH  22  28
BRANCH  23  31
ATOM     31  O   UNL     1      10.194   9.135 -15.591  1.00  0.00    -0.387 OA
ATOM     32  H   UNL     1      10.671   8.765 -14.804  1.00  0.00     0.211 HD
ENDBRANCH  23  31
ENDBRANCH   1  18
TORSDOF 11
ENDMDL
MODEL 4
REMARK VINA RESULT:    -6.370      3.014      9.140
REMARK INTER + INTRA:         -10.631
REMARK INTER:                  -9.161
REMARK INTRA:                  -1.471
REMARK UNBOUND:                -1.096
REMARK SMILES COC(=O)C1=CO[C@H](O[C@H]2O[C@@H](CO)[C@@H](O)[C@H](O)[C@@H]2O)[C@H]2C(CO)=CC[C@H]12
REMARK SMILES IDX 9 1 8 2 5 3 6 4 27 5 7 6 21 7 26 8 22 9 25 10 3 11 4 12 2 13
REMARK SMILES IDX 1 14 23 15 24 16 10 18 19 19 11 20 17 21 12 22 15 23 20 24
REMARK SMILES IDX 18 26 13 28 14 29 16 31
REMARK H PARENT 24 17 20 25 18 27 14 30 16 32
REMARK Flexibility Score: inf
ROOT
ATOM      1  O   UNL     1       6.906  11.123 -15.977  1.00  0.00    -0.310 OA
ENDROOT
BRANCH   1   2
ATOM      2  C   UNL     1       7.500  10.437 -14.888  1.00  0.00     0.316 C 
ATOM      3  C   UNL     1       7.040   8.716 -12.557  1.00  0.00     0.076 C 
ATOM      4  C   UNL     1       6.746  10.038 -12.508  1.00  0.00     0.202 C 
ATOM      5  C   UNL     1       7.772   8.245 -13.792  1.00  0.00     0.047 C 
ATOM      6  O   UNL     1       6.963  10.883 -13.621  1.00  0.00    -0.471 OA
ATOM      7  C   UNL     1       7.197   8.941 -15.019  1.00  0.00     0.094 C 
ATOM      8  C   UNL     1       7.782   6.775 -14.209  1.00  0.00     0.037 C 
ATOM      9  C   UNL     1       7.784   8.129 -16.129  1.00  0.00    -0.039 C 
ATOM     10  C   UNL     1       8.044   6.896 -15.683  1.00  0.00    -0.024 C 
BRANCH   3  11
ATOM     11  C   UNL     1       6.847   7.848 -11.369  1.00  0.00     0.337 C 
ATOM     12  O   UNL     1       5.876   7.042 -11.326  1.00  0.00    -0.246 OA
BRANCH  11  13
ATOM     13  O   UNL     1       7.741   7.917 -10.297  1.00  0.00    -0.466 OA
ATOM     14  C   UNL     1       7.358   7.655  -8.952  1.00  0.00     0.282 C 
ENDBRANCH  11  13
ENDBRANCH   3  11
BRANCH   9  15
ATOM     15  C   UNL     1       7.811   8.498 -17.584  1.00  0.00     0.187 C 
BRANCH  15  16
ATOM     16  O   UNL     1       9.051   9.071 -17.891  1.00  0.00    -0.392 OA
ATOM     17  H   UNL     1       9.070   9.952 -17.437  1.00  0.00     0.211 HD
ENDBRANCH  15  16
ENDBRANCH   9  15
ENDBRANCH   1   2
BRANCH   1  18
ATOM     18  C   UNL     1       7.770  12.085 -16.554  1.00  0.00     0.286 C 
ATOM     19  C   UNL     1       7.183  13.484 -16.269  1.00  0.00     0.202 C 
ATOM     20  O   UNL     1       7.876  11.887 -17.958  1.00  0.00    -0.341 OA
ATOM     21  C   UNL     1       8.010  14.598 -16.953  1.00  0.00     0.179 C 
ATOM     22  C   UNL     1       8.846  12.766 -18.502  1.00  0.00     0.178 C 
ATOM     23  C   UNL     1       8.350  14.228 -18.415  1.00  0.00     0.177 C 
BRANCH  19  24
ATOM     24  O   UNL     1       7.130  13.722 -14.884  1.00  0.00    -0.385 OA
ATOM     25  H   UNL     1       7.814  13.139 -14.462  1.00  0.00     0.211 HD
ENDBRANCH  19  24
BRANCH  21  26
ATOM     26  O   UNL     1       9.174  14.916 -16.225  1.00  0.00    -0.387 OA
ATOM     27  H   UNL     1       8.920  15.089 -15.283  1.00  0.00     0.211 HD
ENDBRANCH  21  26
BRANCH  22  28
ATOM     28  C   UNL     1       9.124  12.366 -19.959  1.00  0.00     0.191 C 
BRANCH  28  29
ATOM     29  O   UNL     1       9.827  11.153 -20.006  1.00  0.00    -0.394 OA
ATOM     30  H   UNL     1      10.657  11.285 -19.476  1.00  0.00     0.210 HD
ENDBRANCH  28  29
ENDBRANCH  22  28
BRANCH  23  31
ATOM     31  O   UNL     1       7.206  14.384 -19.219  1.00  0.00    -0.387 OA
ATOM     32  H   UNL     1       7.371  13.871 -20.052  1.00  0.00     0.211 HD
ENDBRANCH  23  31
ENDBRANCH   1  18
TORSDOF 11
ENDMDL
MODEL 5
REMARK VINA RESULT:    -6.272      2.134      3.006
REMARK INTER + INTRA:         -10.484
REMARK INTER:                  -9.096
REMARK INTRA:                  -1.389
REMARK UNBOUND:                -1.096
REMARK SMILES COC(=O)C1=CO[C@H](O[C@H]2O[C@@H](CO)[C@@H](O)[C@H](O)[C@@H]2O)[C@H]2C(CO)=CC[C@H]12
REMARK SMILES IDX 9 1 8 2 5 3 6 4 27 5 7 6 21 7 26 8 22 9 25 10 3 11 4 12 2 13
REMARK SMILES IDX 1 14 23 15 24 16 10 18 19 19 11 20 17 21 12 22 15 23 20 24
REMARK SMILES IDX 18 26 13 28 14 29 16 31
REMARK H PARENT 24 17 20 25 18 27 14 30 16 32
REMARK Flexibility Score: inf
ROOT
ATOM      1  O   UNL     1       7.891  11.595 -17.381  1.00  0.00    -0.310 OA
ENDROOT
BRANCH   1   2
ATOM      2  C   UNL     1       8.539  12.239 -18.464  1.00  0.00     0.316 C 
ATOM      3  C   UNL     1       8.491  14.508 -20.323  1.00  0.00     0.076 C 
ATOM      4  C   UNL     1       7.659  13.454 -20.499  1.00  0.00     0.202 C 
ATOM      5  C   UNL     1       9.540  14.353 -19.246  1.00  0.00     0.047 C 
ATOM      6  O   UNL     1       7.669  12.350 -19.615  1.00  0.00    -0.471 OA
ATOM      7  C   UNL     1       8.926  13.659 -18.037  1.00  0.00     0.094 C 
ATOM      8  C   UNL     1      10.241  15.561 -18.625  1.00  0.00     0.037 C 
ATOM      9  C   UNL     1       9.971  13.893 -16.993  1.00  0.00    -0.039 C 
ATOM     10  C   UNL     1      10.656  15.000 -17.296  1.00  0.00    -0.024 C 
BRANCH   3  11
ATOM     11  C   UNL     1       8.500  15.641 -21.282  1.00  0.00     0.337 C 
ATOM     12  O   UNL     1       8.158  16.796 -20.901  1.00  0.00    -0.246 OA
BRANCH  11  13
ATOM     13  O   UNL     1       8.891  15.435 -22.607  1.00  0.00    -0.466 OA
ATOM     14  C   UNL     1       9.267  16.496 -23.477  1.00  0.00     0.282 C 
ENDBRANCH  11  13
ENDBRANCH   3  11
BRANCH   9  15
ATOM     15  C   UNL     1      10.068  13.205 -15.661  1.00  0.00     0.187 C 
BRANCH  15  16
ATOM     16  O   UNL     1      10.729  11.982 -15.823  1.00  0.00    -0.392 OA
ATOM     17  H   UNL     1      11.124  11.997 -16.732  1.00  0.00     0.211 HD
ENDBRANCH  15  16
ENDBRANCH   9  15
ENDBRANCH   1   2
BRANCH   1  18
ATOM     18  C   UNL     1       8.214  10.219 -17.290  1.00  0.00     0.286 C 
ATOM     19  C   UNL     1       6.975   9.409 -17.729  1.00  0.00     0.202 C 
ATOM     20  O   UNL     1       8.565   9.872 -15.957  1.00  0.00    -0.341 OA
ATOM     21  C   UNL     1       7.203   7.888 -17.564  1.00  0.00     0.179 C 
ATOM     22  C   UNL     1       9.017   8.530 -15.906  1.00  0.00     0.178 C 
ATOM     23  C   UNL     1       7.848   7.561 -16.198  1.00  0.00     0.177 C 
BRANCH  19  24
ATOM     24  O   UNL     1       6.651   9.693 -19.068  1.00  0.00    -0.385 OA
ATOM     25  H   UNL     1       7.102  10.545 -19.302  1.00  0.00     0.211 HD
ENDBRANCH  19  24
BRANCH  21  26
ATOM     26  O   UNL     1       7.957   7.348 -18.625  1.00  0.00    -0.387 OA
ATOM     27  H   UNL     1       8.702   6.816 -18.246  1.00  0.00     0.211 HD
ENDBRANCH  21  26
BRANCH  22  28
ATOM     28  C   UNL     1       9.624   8.257 -14.522  1.00  0.00     0.191 C 
BRANCH  28  29
ATOM     29  O   UNL     1       9.250   6.984 -14.067  1.00  0.00    -0.394 OA
ATOM     30  H   UNL     1       9.844   6.770 -13.300  1.00  0.00     0.210 HD
ENDBRANCH  28  29
ENDBRANCH  22  28
BRANCH  23  31
ATOM     31  O   UNL     1       6.881   7.673 -15.181  1.00  0.00    -0.387 OA
ATOM     32  H   UNL     1       6.826   6.785 -14.743  1.00  0.00     0.211 HD
ENDBRANCH  23  31
ENDBRANCH   1  18
TORSDOF 11
ENDMDL
MODEL 6
REMARK VINA RESULT:    -6.230      2.927      7.909
REMARK INTER + INTRA:         -10.422
REMARK INTER:                  -9.614
REMARK INTRA:                  -0.808
REMARK UNBOUND:                -1.096
REMARK SMILES COC(=O)C1=CO[C@H](O[C@H]2O[C@@H](CO)[C@@H](O)[C@H](O)[C@@H]2O)[C@H]2C(CO)=CC[C@H]12
REMARK SMILES IDX 9 1 8 2 5 3 6 4 27 5 7 6 21 7 26 8 22 9 25 10 3 11 4 12 2 13
REMARK SMILES IDX 1 14 23 15 24 16 10 18 19 19 11 20 17 21 12 22 15 23 20 24
REMARK SMILES IDX 18 26 13 28 14 29 16 31
REMARK H PARENT 24 17 20 25 18 27 14 30 16 32
REMARK Flexibility Score: inf
ROOT
ATOM      1  O   UNL     1      10.193  11.293 -15.846  1.00  0.00    -0.310 OA
ENDROOT
BRANCH   1   2
ATOM      2  C   UNL     1       9.187  10.325 -16.089  1.00  0.00     0.316 C 
ATOM      3  C   UNL     1       8.285   7.579 -15.587  1.00  0.00     0.076 C 
ATOM      4  C   UNL     1       9.280   7.828 -16.472  1.00  0.00     0.202 C 
ATOM      5  C   UNL     1       7.569   8.790 -15.036  1.00  0.00     0.047 C 
ATOM      6  O   UNL     1       9.727   9.145 -16.728  1.00  0.00    -0.471 OA
ATOM      7  C   UNL     1       8.583   9.892 -14.749  1.00  0.00     0.094 C 
ATOM      8  C   UNL     1       6.762   8.728 -13.740  1.00  0.00     0.037 C 
ATOM      9  C   UNL     1       7.772  10.840 -13.925  1.00  0.00    -0.039 C 
ATOM     10  C   UNL     1       6.797  10.165 -13.309  1.00  0.00    -0.024 C 
BRANCH   3  11
ATOM     11  C   UNL     1       7.797   6.197 -15.358  1.00  0.00     0.337 C 
ATOM     12  O   UNL     1       8.304   5.490 -14.442  1.00  0.00    -0.246 OA
BRANCH  11  13
ATOM     13  O   UNL     1       6.772   5.674 -16.151  1.00  0.00    -0.466 OA
ATOM     14  C   UNL     1       7.015   4.958 -17.357  1.00  0.00     0.282 C 
ENDBRANCH  11  13
ENDBRANCH   3  11
BRANCH   9  15
ATOM     15  C   UNL     1       8.139  12.255 -13.578  1.00  0.00     0.187 C 
BRANCH  15  16
ATOM     16  O   UNL     1       8.193  12.388 -12.186  1.00  0.00    -0.392 OA
ATOM     17  H   UNL     1       8.494  13.315 -12.007  1.00  0.00     0.211 HD
ENDBRANCH  15  16
ENDBRANCH   9  15
ENDBRANCH   1   2
BRANCH   1  18
ATOM     18  C   UNL     1      10.265  12.275 -16.866  1.00  0.00     0.286 C 
ATOM     19  C   UNL     1       9.901  13.639 -16.240  1.00  0.00     0.202 C 
ATOM     20  O   UNL     1       9.359  11.973 -17.918  1.00  0.00    -0.341 OA
ATOM     21  C   UNL     1       9.853  14.758 -17.305  1.00  0.00     0.179 C 
ATOM     22  C   UNL     1       9.538  12.883 -18.990  1.00  0.00     0.178 C 
ATOM     23  C   UNL     1       9.087  14.301 -18.568  1.00  0.00     0.177 C 
BRANCH  19  24
ATOM     24  O   UNL     1      10.825  13.983 -15.237  1.00  0.00    -0.385 OA
ATOM     25  H   UNL     1      10.300  14.230 -14.431  1.00  0.00     0.211 HD
ENDBRANCH  19  24
BRANCH  21  26
ATOM     26  O   UNL     1      11.139  15.230 -17.634  1.00  0.00    -0.387 OA
ATOM     27  H   UNL     1      11.055  15.904 -18.356  1.00  0.00     0.211 HD
ENDBRANCH  21  26
BRANCH  22  28
ATOM     28  C   UNL     1       8.737  12.391 -20.205  1.00  0.00     0.191 C 
BRANCH  28  29
ATOM     29  O   UNL     1       9.538  11.578 -21.021  1.00  0.00    -0.394 OA
ATOM     30  H   UNL     1      10.112  12.188 -21.553  1.00  0.00     0.210 HD
ENDBRANCH  28  29
ENDBRANCH  22  28
BRANCH  23  31
ATOM     31  O   UNL     1       7.705  14.295 -18.304  1.00  0.00    -0.387 OA
ATOM     32  H   UNL     1       7.511  15.117 -17.783  1.00  0.00     0.211 HD
ENDBRANCH  23  31
ENDBRANCH   1  18
TORSDOF 11
ENDMDL
MODEL 7
REMARK VINA RESULT:    -6.218      1.933      7.457
REMARK INTER + INTRA:         -10.404
REMARK INTER:                  -8.780
REMARK INTRA:                  -1.624
REMARK UNBOUND:                -1.096
REMARK SMILES COC(=O)C1=CO[C@H](O[C@H]2O[C@@H](CO)[C@@H](O)[C@H](O)[C@@H]2O)[C@H]2C(CO)=CC[C@H]12
REMARK SMILES IDX 9 1 8 2 5 3 6 4 27 5 7 6 21 7 26 8 22 9 25 10 3 11 4 12 2 13
REMARK SMILES IDX 1 14 23 15 24 16 10 18 19 19 11 20 17 21 12 22 15 23 20 24
REMARK SMILES IDX 18 26 13 28 14 29 16 31
REMARK H PARENT 24 17 20 25 18 27 14 30 16 32
REMARK Flexibility Score: inf
ROOT
ATOM      1  O   UNL     1       9.193  12.861 -17.916  1.00  0.00    -0.310 OA
ENDROOT
BRANCH   1   2
ATOM      2  C   UNL     1       8.304  11.954 -17.287  1.00  0.00     0.316 C 
ATOM      3  C   UNL     1       8.018   9.343 -15.980  1.00  0.00     0.076 C 
ATOM      4  C   UNL     1       8.129   9.433 -17.327  1.00  0.00     0.202 C 
ATOM      5  C   UNL     1       7.868  10.651 -15.239  1.00  0.00     0.047 C 
ATOM      6  O   UNL     1       8.266  10.683 -17.975  1.00  0.00    -0.471 OA
ATOM      7  C   UNL     1       8.791  11.693 -15.857  1.00  0.00     0.094 C 
ATOM      8  C   UNL     1       8.174  10.769 -13.746  1.00  0.00     0.037 C 
ATOM      9  C   UNL     1       8.763  12.773 -14.823  1.00  0.00    -0.039 C 
ATOM     10  C   UNL     1       8.484  12.234 -13.632  1.00  0.00    -0.024 C 
BRANCH   3  11
ATOM     11  C   UNL     1       7.833   8.029 -15.317  1.00  0.00     0.337 C 
ATOM     12  O   UNL     1       8.740   7.152 -15.384  1.00  0.00    -0.246 OA
BRANCH  11  13
ATOM     13  O   UNL     1       6.658   7.758 -14.611  1.00  0.00    -0.466 OA
ATOM     14  C   UNL     1       6.638   7.485 -13.215  1.00  0.00     0.282 C 
ENDBRANCH  11  13
ENDBRANCH   3  11
BRANCH   9  15
ATOM     15  C   UNL     1       9.256  14.181 -14.993  1.00  0.00     0.187 C 
BRANCH  15  16
ATOM     16  O   UNL     1       8.231  14.965 -15.536  1.00  0.00    -0.392 OA
ATOM     17  H   UNL     1       8.204  15.798 -14.998  1.00  0.00     0.211 HD
ENDBRANCH  15  16
ENDBRANCH   9  15
ENDBRANCH   1   2
BRANCH   1  18
ATOM     18  C   UNL     1       8.534  13.740 -18.811  1.00  0.00     0.286 C 
ATOM     19  C   UNL     1       9.133  13.523 -20.218  1.00  0.00     0.202 C 
ATOM     20  O   UNL     1       8.720  15.092 -18.415  1.00  0.00    -0.341 OA
ATOM     21  C   UNL     1       8.544  14.517 -21.245  1.00  0.00     0.179 C 
ATOM     22  C   UNL     1       7.947  15.951 -19.235  1.00  0.00     0.178 C 
ATOM     23  C   UNL     1       8.503  15.954 -20.678  1.00  0.00     0.177 C 
BRANCH  19  24
ATOM     24  O   UNL     1       8.903  12.206 -20.652  1.00  0.00    -0.385 OA
ATOM     25  H   UNL     1       8.327  12.262 -21.459  1.00  0.00     0.211 HD
ENDBRANCH  19  24
BRANCH  21  26
ATOM     26  O   UNL     1       7.273  14.114 -21.702  1.00  0.00    -0.387 OA
ATOM     27  H   UNL     1       6.632  14.173 -20.949  1.00  0.00     0.211 HD
ENDBRANCH  21  26
BRANCH  22  28
ATOM     28  C   UNL     1       7.963  17.365 -18.637  1.00  0.00     0.191 C 
BRANCH  28  29
ATOM     29  O   UNL     1       7.768  18.323 -19.643  1.00  0.00    -0.394 OA
ATOM     30  H   UNL     1       8.149  19.175 -19.302  1.00  0.00     0.210 HD
ENDBRANCH  28  29
ENDBRANCH  22  28
BRANCH  23  31
ATOM     31  O   UNL     1       9.801  16.499 -20.680  1.00  0.00    -0.387 OA
ATOM     32  H   UNL     1       9.756  17.338 -21.208  1.00  0.00     0.211 HD
ENDBRANCH  23  31
ENDBRANCH   1  18
TORSDOF 11
ENDMDL
MODEL 8
REMARK VINA RESULT:    -6.191      2.650      8.115
REMARK INTER + INTRA:         -10.364
REMARK INTER:                  -9.152
REMARK INTRA:                  -1.212
REMARK UNBOUND:                -1.096
REMARK SMILES COC(=O)C1=CO[C@H](O[C@H]2O[C@@H](CO)[C@@H](O)[C@H](O)[C@@H]2O)[C@H]2C(CO)=CC[C@H]12
REMARK SMILES IDX 9 1 8 2 5 3 6 4 27 5 7 6 21 7 26 8 22 9 25 10 3 11 4 12 2 13
REMARK SMILES IDX 1 14 23 15 24 16 10 18 19 19 11 20 17 21 12 22 15 23 20 24
REMARK SMILES IDX 18 26 13 28 14 29 16 31
REMARK H PARENT 24 17 20 25 18 27 14 30 16 32
REMARK Flexibility Score: inf
ROOT
ATOM      1  O   UNL     1       8.607  11.149 -16.591  1.00  0.00    -0.310 OA
ENDROOT
BRANCH   1   2
ATOM      2  C   UNL     1       7.756  10.066 -16.259  1.00  0.00     0.316 C 
ATOM      3  C   UNL     1       7.611   7.275 -15.365  1.00  0.00     0.076 C 
ATOM      4  C   UNL     1       7.938   7.574 -16.645  1.00  0.00     0.202 C 
ATOM      5  C   UNL     1       7.158   8.434 -14.508  1.00  0.00     0.047 C 
ATOM      6  O   UNL     1       8.011   8.913 -17.095  1.00  0.00    -0.471 OA
ATOM      7  C   UNL     1       8.022   9.654 -14.807  1.00  0.00     0.094 C 
ATOM      8  C   UNL     1       7.185   8.366 -12.981  1.00  0.00     0.037 C 
ATOM      9  C   UNL     1       7.669  10.559 -13.670  1.00  0.00    -0.039 C 
ATOM     10  C   UNL     1       7.267   9.823 -12.629  1.00  0.00    -0.024 C 
BRANCH   3  11
ATOM     11  C   UNL     1       7.497   5.865 -14.916  1.00  0.00     0.337 C 
ATOM     12  O   UNL     1       8.514   5.254 -14.484  1.00  0.00    -0.246 OA
BRANCH  11  13
ATOM     13  O   UNL     1       6.263   5.211 -14.966  1.00  0.00    -0.466 OA
ATOM     14  C   UNL     1       5.912   4.299 -16.001  1.00  0.00     0.282 C 
ENDBRANCH  11  13
ENDBRANCH   3  11
BRANCH   9  15
ATOM     15  C   UNL     1       7.986  12.024 -13.568  1.00  0.00     0.187 C 
BRANCH  15  16
ATOM     16  O   UNL     1       8.099  12.377 -12.218  1.00  0.00    -0.392 OA
ATOM     17  H   UNL     1       8.250  13.357 -12.199  1.00  0.00     0.211 HD
ENDBRANCH  15  16
ENDBRANCH   9  15
ENDBRANCH   1   2
BRANCH   1  18
ATOM     18  C   UNL     1       8.270  11.749 -17.830  1.00  0.00     0.286 C 
ATOM     19  C   UNL     1       9.518  11.697 -18.738  1.00  0.00     0.202 C 
ATOM     20  O   UNL     1       7.870  13.100 -17.642  1.00  0.00    -0.341 OA
ATOM     21  C   UNL     1       9.273  12.424 -20.081  1.00  0.00     0.179 C 
ATOM     22  C   UNL     1       7.407  13.645 -18.865  1.00  0.00     0.178 C 
ATOM     23  C   UNL     1       8.578  13.788 -19.864  1.00  0.00     0.177 C 
BRANCH  19  24
ATOM     24  O   UNL     1       9.891  10.365 -18.986  1.00  0.00    -0.385 OA
ATOM     25  H   UNL     1       9.055   9.853 -19.143  1.00  0.00     0.211 HD
ENDBRANCH  19  24
BRANCH  21  26
ATOM     26  O   UNL     1       8.553  11.626 -20.991  1.00  0.00    -0.387 OA
ATOM     27  H   UNL     1       7.623  11.529 -20.662  1.00  0.00     0.211 HD
ENDBRANCH  21  26
BRANCH  22  28
ATOM     28  C   UNL     1       6.750  15.006 -18.590  1.00  0.00     0.191 C 
BRANCH  28  29
ATOM     29  O   UNL     1       7.578  15.792 -17.775  1.00  0.00    -0.394 OA
ATOM     30  H   UNL     1       8.004  16.466 -18.368  1.00  0.00     0.210 HD
ENDBRANCH  28  29
ENDBRANCH  22  28
BRANCH  23  31
ATOM     31  O   UNL     1       9.510  14.718 -19.365  1.00  0.00    -0.387 OA
ATOM     32  H   UNL     1       9.502  15.490 -19.988  1.00  0.00     0.211 HD
ENDBRANCH  23  31
ENDBRANCH   1  18
TORSDOF 11
ENDMDL
MODEL 9
REMARK VINA RESULT:    -6.066      2.439      4.874
REMARK INTER + INTRA:         -10.176
REMARK INTER:                  -8.662
REMARK INTRA:                  -1.514
REMARK UNBOUND:                -1.096
REMARK SMILES COC(=O)C1=CO[C@H](O[C@H]2O[C@@H](CO)[C@@H](O)[C@H](O)[C@@H]2O)[C@H]2C(CO)=CC[C@H]12
REMARK SMILES IDX 9 1 8 2 5 3 6 4 27 5 7 6 21 7 26 8 22 9 25 10 3 11 4 12 2 13
REMARK SMILES IDX 1 14 23 15 24 16 10 18 19 19 11 20 17 21 12 22 15 23 20 24
REMARK SMILES IDX 18 26 13 28 14 29 16 31
REMARK H PARENT 24 17 20 25 18 27 14 30 16 32
REMARK Flexibility Score: inf
ROOT
ATOM      1  O   UNL     1       9.025  11.498 -15.707  1.00  0.00    -0.310 OA
ENDROOT
BRANCH   1   2
ATOM      2  C   UNL     1       8.348  12.476 -16.478  1.00  0.00     0.316 C 
ATOM      3  C   UNL     1       8.512  15.126 -17.727  1.00  0.00     0.076 C 
ATOM      4  C   UNL     1       8.331  15.003 -16.391  1.00  0.00     0.202 C 
ATOM      5  C   UNL     1       8.439  13.846 -18.527  1.00  0.00     0.047 C 
ATOM      6  O   UNL     1       8.247  13.734 -15.771  1.00  0.00    -0.471 OA
ATOM      7  C   UNL     1       9.142  12.730 -17.764  1.00  0.00     0.094 C 
ATOM      8  C   UNL     1       9.045  13.735 -19.926  1.00  0.00     0.037 C 
ATOM      9  C   UNL     1       9.263  11.675 -18.817  1.00  0.00    -0.039 C 
ATOM     10  C   UNL     1       9.278  12.255 -20.021  1.00  0.00    -0.024 C 
BRANCH   3  11
ATOM     11  C   UNL     1       8.556  16.462 -18.371  1.00  0.00     0.337 C 
ATOM     12  O   UNL     1       9.654  16.928 -18.787  1.00  0.00    -0.246 OA
BRANCH  11  13
ATOM     13  O   UNL     1       7.384  17.207 -18.522  1.00  0.00    -0.466 OA
ATOM     14  C   UNL     1       7.377  18.625 -18.635  1.00  0.00     0.282 C 
ENDBRANCH  11  13
ENDBRANCH   3  11
BRANCH   9  15
ATOM     15  C   UNL     1       9.618  10.233 -18.595  1.00  0.00     0.187 C 
BRANCH  15  16
ATOM     16  O   UNL     1      10.707  10.157 -17.718  1.00  0.00    -0.392 OA
ATOM     17  H   UNL     1      11.517  10.091 -18.286  1.00  0.00     0.211 HD
ENDBRANCH  15  16
ENDBRANCH   9  15
ENDBRANCH   1   2
BRANCH   1  18
ATOM     18  C   UNL     1       8.155  10.495 -15.212  1.00  0.00     0.286 C 
ATOM     19  C   UNL     1       8.129  10.604 -13.673  1.00  0.00     0.202 C 
ATOM     20  O   UNL     1       8.610   9.203 -15.594  1.00  0.00    -0.341 OA
ATOM     21  C   UNL     1       7.282   9.478 -13.037  1.00  0.00     0.179 C 
ATOM     22  C   UNL     1       7.663   8.221 -15.211  1.00  0.00     0.178 C 
ATOM     23  C   UNL     1       7.605   8.105 -13.671  1.00  0.00     0.177 C 
BRANCH  19  24
ATOM     24  O   UNL     1       7.622  11.854 -13.277  1.00  0.00    -0.385 OA
ATOM     25  H   UNL     1       7.076  11.702 -12.462  1.00  0.00     0.211 HD
ENDBRANCH  19  24
BRANCH  21  26
ATOM     26  O   UNL     1       5.902   9.755 -13.100  1.00  0.00    -0.387 OA
ATOM     27  H   UNL     1       5.403   8.941 -12.833  1.00  0.00     0.211 HD
ENDBRANCH  21  26
BRANCH  22  28
ATOM     28  C   UNL     1       8.049   6.878 -15.849  1.00  0.00     0.191 C 
BRANCH  28  29
ATOM     29  O   UNL     1       7.671   5.815 -15.015  1.00  0.00    -0.394 OA
ATOM     30  H   UNL     1       8.469   5.231 -14.920  1.00  0.00     0.210 HD
ENDBRANCH  28  29
ENDBRANCH  22  28
BRANCH  23  31
ATOM     31  O   UNL     1       8.844   7.643 -13.188  1.00  0.00    -0.387 OA
ATOM     32  H   UNL     1       8.647   6.876 -12.590  1.00  0.00     0.211 HD
ENDBRANCH  23  31
ENDBRANCH   1  18
TORSDOF 11
ENDMDL
