MODEL 1
REMARK VINA RESULT:    -3.618      0.000      0.000
REMARK INTER + INTRA:          -5.714
REMARK INTER:                  -5.521
REMARK INTRA:                  -0.193
REMARK UNBOUND:                -0.193
REMARK SMILES CC1=CCC[C@@H](C)C(=O)C[C@H](C(C)C)C(=O)C1
REMARK SMILES IDX 8 1 9 2 6 3 7 4 5 5 4 6 3 7 2 8 1 9 10 11 11 12 15 13 16 14
REMARK SMILES IDX 17 15 12 17 13 18 14 19
REMARK H PARENT
REMARK Flexibility Score: 70.00
ROOT
ATOM      1  C   UNL     1     -13.246   7.746 -15.750  1.00  0.00     0.136 C 
ATOM      2  O   UNL     1     -14.116   8.257 -15.059  1.00  0.00    -0.299 OA
ENDROOT
BRANCH   1   3
ATOM      3  C   UNL     1     -13.671   6.876 -16.920  1.00  0.00     0.053 C 
ATOM      4  C   UNL     1     -14.975   7.389 -17.544  1.00  0.00     0.016 C 
BRANCH   3   5
ATOM      5  C   UNL     1     -13.792   5.389 -16.529  1.00  0.00     0.015 C 
BRANCH   5   6
ATOM      6  C   UNL     1     -12.423   4.675 -16.471  1.00  0.00     0.028 C 
BRANCH   6   7
ATOM      7  C   UNL     1     -12.234   3.981 -15.145  1.00  0.00    -0.028 C 
ATOM      8  C   UNL     1     -11.409   4.397 -14.153  1.00  0.00    -0.070 CG0
ATOM      9  C   UNL     1     -11.393   3.601 -12.873  1.00  0.00     0.039 C 
ATOM     10  G   UNL     1     -10.460   5.580 -14.297  1.00  0.00     0.000 G0
ENDBRANCH   6   7
ENDBRANCH   5   6
ENDBRANCH   3   5
ENDBRANCH   1   3
BRANCH   1  11
ATOM     11  C   UNL     1     -11.796   8.007 -15.393  1.00  0.00     0.087 C 
BRANCH  11  12
ATOM     12  C   UNL     1     -11.515   8.011 -13.866  1.00  0.00     0.066 C 
BRANCH  12  13
ATOM     13  C   UNL     1     -10.729   6.783 -13.414  1.00  0.00     0.140 C 
ATOM     14  O   UNL     1     -10.288   6.759 -12.274  1.00  0.00    -0.299 OA
BRANCH  13  15
ATOM     15  C   UNL     1     -10.452   5.576 -14.293  1.00  0.00     0.106 CG0
ATOM     16  G   UNL     1     -11.404   4.398 -14.137  1.00  0.00     0.000 G0
ENDBRANCH  13  15
ENDBRANCH  12  13
BRANCH  12  17
ATOM     17  C   UNL     1     -10.852   9.349 -13.407  1.00  0.00    -0.006 C 
ATOM     18  C   UNL     1     -10.614  10.288 -14.599  1.00  0.00     0.008 C 
ATOM     19  C   UNL     1     -11.626  10.101 -12.307  1.00  0.00     0.008 C 
ENDBRANCH  12  17
ENDBRANCH  11  12
ENDBRANCH   1  11
TORSDOF 1
ENDMDL
MODEL 2
REMARK VINA RESULT:    -3.490      4.168      5.983
REMARK INTER + INTRA:          -5.520
REMARK INTER:                  -5.169
REMARK INTRA:                  -0.351
REMARK UNBOUND:                -0.193
REMARK SMILES CC1=CCC[C@@H](C)C(=O)C[C@H](C(C)C)C(=O)C1
REMARK SMILES IDX 8 1 9 2 6 3 7 4 5 5 4 6 3 7 2 8 1 9 10 11 11 12 15 13 16 14
REMARK SMILES IDX 17 15 12 17 13 18 14 19
REMARK H PARENT
REMARK Flexibility Score: 70.00
ROOT
ATOM      1  C   UNL     1     -16.205   2.887 -14.228  1.00  0.00     0.136 C 
ATOM      2  O   UNL     1     -16.325   3.828 -15.000  1.00  0.00    -0.299 OA
ENDROOT
BRANCH   1   3
ATOM      3  C   UNL     1     -17.370   2.547 -13.315  1.00  0.00     0.053 C 
ATOM      4  C   UNL     1     -18.709   2.890 -13.979  1.00  0.00     0.016 C 
BRANCH   3   5
ATOM      5  C   UNL     1     -17.247   3.224 -11.935  1.00  0.00     0.015 C 
BRANCH   5   6
ATOM      6  C   UNL     1     -16.426   2.383 -10.930  1.00  0.00     0.028 C 
BRANCH   6   7
ATOM      7  C   UNL     1     -15.349   3.219 -10.284  1.00  0.00    -0.028 C 
ATOM      8  C   UNL     1     -14.031   3.175 -10.597  1.00  0.00    -0.070 CG0
ATOM      9  C   UNL     1     -13.107   4.127  -9.879  1.00  0.00     0.039 C 
ATOM     10  G   UNL     1     -13.437   2.175 -11.581  1.00  0.00     0.000 G0
ENDBRANCH   6   7
ENDBRANCH   5   6
ENDBRANCH   3   5
ENDBRANCH   1   3
BRANCH   1  11
ATOM     11  C   UNL     1     -14.897   2.120 -14.226  1.00  0.00     0.087 C 
BRANCH  11  12
ATOM     12  C   UNL     1     -13.638   3.023 -14.122  1.00  0.00     0.066 C 
BRANCH  12  13
ATOM     13  C   UNL     1     -12.827   2.750 -12.858  1.00  0.00     0.140 C 
ATOM     14  O   UNL     1     -11.631   3.008 -12.864  1.00  0.00    -0.299 OA
BRANCH  13  15
ATOM     15  C   UNL     1     -13.408   2.173 -11.579  1.00  0.00     0.106 CG0
ATOM     16  G   UNL     1     -14.038   3.172 -10.617  1.00  0.00     0.000 G0
ENDBRANCH  13  15
ENDBRANCH  12  13
BRANCH  12  17
ATOM     17  C   UNL     1     -12.771   2.950 -15.419  1.00  0.00    -0.006 C 
ATOM     18  C   UNL     1     -13.140   1.723 -16.266  1.00  0.00     0.008 C 
ATOM     19  C   UNL     1     -12.825   4.216 -16.296  1.00  0.00     0.008 C 
ENDBRANCH  12  17
ENDBRANCH  11  12
ENDBRANCH   1  11
TORSDOF 1
ENDMDL
MODEL 3
REMARK VINA RESULT:    -3.469     14.855     17.424
REMARK INTER + INTRA:          -5.488
REMARK INTER:                  -5.526
REMARK INTRA:                   0.038
REMARK UNBOUND:                -0.193
REMARK SMILES CC1=CCC[C@@H](C)C(=O)C[C@H](C(C)C)C(=O)C1
REMARK SMILES IDX 8 1 9 2 6 3 7 4 5 5 4 6 3 7 2 8 1 9 10 11 11 12 15 13 16 14
REMARK SMILES IDX 17 15 12 17 13 18 14 19
REMARK H PARENT
REMARK Flexibility Score: 70.00
ROOT
ATOM      1  C   UNL     1     -25.320   7.163 -21.748  1.00  0.00     0.136 C 
ATOM      2  O   UNL     1     -24.593   6.864 -20.812  1.00  0.00    -0.299 OA
ENDROOT
BRANCH   1   3
ATOM      3  C   UNL     1     -24.760   8.058 -22.840  1.00  0.00     0.053 C 
ATOM      4  C   UNL     1     -23.230   7.961 -22.902  1.00  0.00     0.016 C 
BRANCH   3   5
ATOM      5  C   UNL     1     -25.215   9.523 -22.686  1.00  0.00     0.015 C 
BRANCH   5   6
ATOM      6  C   UNL     1     -26.559   9.807 -23.395  1.00  0.00     0.028 C 
BRANCH   6   7
ATOM      7  C   UNL     1     -27.426  10.716 -22.559  1.00  0.00    -0.028 C 
ATOM      8  C   UNL     1     -28.389  10.305 -21.697  1.00  0.00    -0.070 CG0
ATOM      9  C   UNL     1     -29.119  11.361 -20.906  1.00  0.00     0.039 C 
ATOM     10  G   UNL     1     -28.808   8.849 -21.543  1.00  0.00     0.000 G0
ENDBRANCH   6   7
ENDBRANCH   5   6
ENDBRANCH   3   5
ENDBRANCH   1   3
BRANCH   1  11
ATOM     11  C   UNL     1     -26.738   6.627 -21.760  1.00  0.00     0.087 C 
BRANCH  11  12
ATOM     12  C   UNL     1     -27.485   6.794 -20.408  1.00  0.00     0.066 C 
BRANCH  12  13
ATOM     13  C   UNL     1     -28.261   8.106 -20.329  1.00  0.00     0.140 C 
ATOM     14  O   UNL     1     -28.453   8.606 -19.230  1.00  0.00    -0.299 OA
BRANCH  13  15
ATOM     15  C   UNL     1     -28.819   8.842 -21.535  1.00  0.00     0.106 CG0
ATOM     16  G   UNL     1     -28.392  10.296 -21.693  1.00  0.00     0.000 G0
ENDBRANCH  13  15
ENDBRANCH  12  13
BRANCH  12  17
ATOM     17  C   UNL     1     -28.373   5.551 -20.086  1.00  0.00    -0.006 C 
ATOM     18  C   UNL     1     -28.104   4.405 -21.072  1.00  0.00     0.008 C 
ATOM     19  C   UNL     1     -28.242   5.030 -18.641  1.00  0.00     0.008 C 
ENDBRANCH  12  17
ENDBRANCH  11  12
ENDBRANCH   1  11
TORSDOF 1
ENDMDL
MODEL 4
REMARK VINA RESULT:    -3.417      2.681      4.804
REMARK INTER + INTRA:          -5.408
REMARK INTER:                  -5.252
REMARK INTRA:                  -0.156
REMARK UNBOUND:                -0.193
REMARK SMILES CC1=CCC[C@@H](C)C(=O)C[C@H](C(C)C)C(=O)C1
REMARK SMILES IDX 8 1 9 2 6 3 7 4 5 5 4 6 3 7 2 8 1 9 10 11 11 12 15 13 16 14
REMARK SMILES IDX 17 15 12 17 13 18 14 19
REMARK H PARENT
REMARK Flexibility Score: 70.00
ROOT
ATOM      1  C   UNL     1     -13.033   2.753 -12.928  1.00  0.00     0.136 C 
ATOM      2  O   UNL     1     -13.325   1.958 -12.046  1.00  0.00    -0.299 OA
ENDROOT
BRANCH   1   3
ATOM      3  C   UNL     1     -13.802   2.696 -14.236  1.00  0.00     0.053 C 
ATOM      4  C   UNL     1     -15.195   2.089 -14.030  1.00  0.00     0.016 C 
BRANCH   3   5
ATOM      5  C   UNL     1     -13.028   1.943 -15.336  1.00  0.00     0.015 C 
BRANCH   5   6
ATOM      6  C   UNL     1     -12.780   2.812 -16.591  1.00  0.00     0.028 C 
BRANCH   6   7
ATOM      7  C   UNL     1     -13.291   4.216 -16.382  1.00  0.00    -0.028 C 
ATOM      8  C   UNL     1     -12.520   5.299 -16.119  1.00  0.00    -0.070 CG0
ATOM      9  C   UNL     1     -13.207   6.635 -15.993  1.00  0.00     0.039 C 
ATOM     10  G   UNL     1     -11.017   5.218 -15.883  1.00  0.00     0.000 G0
ENDBRANCH   6   7
ENDBRANCH   5   6
ENDBRANCH   3   5
ENDBRANCH   1   3
BRANCH   1  11
ATOM     11  C   UNL     1     -11.917   3.745 -12.663  1.00  0.00     0.087 C 
BRANCH  11  12
ATOM     12  C   UNL     1     -10.756   3.676 -13.693  1.00  0.00     0.066 C 
BRANCH  12  13
ATOM     13  C   UNL     1     -10.568   4.989 -14.448  1.00  0.00     0.140 C 
ATOM     14  O   UNL     1     -10.020   5.919 -13.874  1.00  0.00    -0.299 OA
BRANCH  13  15
ATOM     15  C   UNL     1     -11.019   5.224 -15.879  1.00  0.00     0.106 CG0
ATOM     16  G   UNL     1     -12.524   5.304 -16.104  1.00  0.00     0.000 G0
ENDBRANCH  13  15
ENDBRANCH  12  13
BRANCH  12  17
ATOM     17  C   UNL     1      -9.435   3.166 -13.035  1.00  0.00    -0.006 C 
ATOM     18  C   UNL     1      -9.485   3.307 -11.507  1.00  0.00     0.008 C 
ATOM     19  C   UNL     1      -9.053   1.720 -13.407  1.00  0.00     0.008 C 
ENDBRANCH  12  17
ENDBRANCH  11  12
ENDBRANCH   1  11
TORSDOF 1
ENDMDL
MODEL 5
REMARK VINA RESULT:    -3.135      2.914      5.987
REMARK INTER + INTRA:          -4.978
REMARK INTER:                  -4.915
REMARK INTRA:                  -0.064
REMARK UNBOUND:                -0.193
REMARK SMILES CC1=CCC[C@@H](C)C(=O)C[C@H](C(C)C)C(=O)C1
REMARK SMILES IDX 8 1 9 2 6 3 7 4 5 5 4 6 3 7 2 8 1 9 10 11 11 12 15 13 16 14
REMARK SMILES IDX 17 15 12 17 13 18 14 19
REMARK H PARENT
REMARK Flexibility Score: 70.00
ROOT
ATOM      1  C   UNL     1     -12.237   2.829 -11.660  1.00  0.00     0.136 C 
ATOM      2  O   UNL     1     -12.785   3.767 -11.099  1.00  0.00    -0.299 OA
ENDROOT
BRANCH   1   3
ATOM      3  C   UNL     1     -11.136   2.089 -10.921  1.00  0.00     0.053 C 
ATOM      4  C   UNL     1     -11.721   1.049  -9.957  1.00  0.00     0.016 C 
BRANCH   3   5
ATOM      5  C   UNL     1     -10.178   3.047 -10.187  1.00  0.00     0.015 C 
BRANCH   5   6
ATOM      6  C   UNL     1      -9.048   3.576 -11.099  1.00  0.00     0.028 C 
BRANCH   6   7
ATOM      7  C   UNL     1      -9.391   4.940 -11.645  1.00  0.00    -0.028 C 
ATOM      8  C   UNL     1      -9.627   5.225 -12.949  1.00  0.00    -0.070 CG0
ATOM      9  C   UNL     1     -10.009   6.641 -13.299  1.00  0.00     0.039 C 
ATOM     10  G   UNL     1      -9.459   4.209 -14.071  1.00  0.00     0.000 G0
ENDBRANCH   6   7
ENDBRANCH   5   6
ENDBRANCH   3   5
ENDBRANCH   1   3
BRANCH   1  11
ATOM     11  C   UNL     1     -12.686   2.467 -13.062  1.00  0.00     0.087 C 
BRANCH  11  12
ATOM     12  C   UNL     1     -11.968   3.270 -14.180  1.00  0.00     0.066 C 
BRANCH  12  13
ATOM     13  C   UNL     1     -10.454   3.072 -14.161  1.00  0.00     0.140 C 
ATOM     14  O   UNL     1     -10.014   1.932 -14.208  1.00  0.00    -0.299 OA
BRANCH  13  15
ATOM     15  C   UNL     1      -9.446   4.205 -14.085  1.00  0.00     0.106 CG0
ATOM     16  G   UNL     1      -9.644   5.206 -12.954  1.00  0.00     0.000 G0
ENDBRANCH  13  15
ENDBRANCH  12  13
BRANCH  12  17
ATOM     17  C   UNL     1     -12.592   2.985 -15.583  1.00  0.00    -0.006 C 
ATOM     18  C   UNL     1     -13.945   2.270 -15.454  1.00  0.00     0.008 C 
ATOM     19  C   UNL     1     -12.751   4.231 -16.476  1.00  0.00     0.008 C 
ENDBRANCH  12  17
ENDBRANCH  11  12
ENDBRANCH   1  11
TORSDOF 1
ENDMDL
MODEL 6
REMARK VINA RESULT:    -3.102      3.262      4.355
REMARK INTER + INTRA:          -4.928
REMARK INTER:                  -5.253
REMARK INTRA:                   0.325
REMARK UNBOUND:                -0.193
REMARK SMILES CC1=CCC[C@@H](C)C(=O)C[C@H](C(C)C)C(=O)C1
REMARK SMILES IDX 8 1 9 2 6 3 7 4 5 5 4 6 3 7 2 8 1 9 10 11 11 12 15 13 16 14
REMARK SMILES IDX 17 15 12 17 13 18 14 19
REMARK H PARENT
REMARK Flexibility Score: 70.00
ROOT
ATOM      1  C   UNL     1     -11.488   4.292 -15.178  1.00  0.00     0.136 C 
ATOM      2  O   UNL     1     -11.096   5.449 -15.231  1.00  0.00    -0.299 OA
ENDROOT
BRANCH   1   3
ATOM      3  C   UNL     1     -12.288   3.747 -16.348  1.00  0.00     0.053 C 
ATOM      4  C   UNL     1     -12.373   4.773 -17.485  1.00  0.00     0.016 C 
BRANCH   3   5
ATOM      5  C   UNL     1     -13.692   3.271 -15.925  1.00  0.00     0.015 C 
BRANCH   5   6
ATOM      6  C   UNL     1     -13.647   2.056 -14.970  1.00  0.00     0.028 C 
BRANCH   6   7
ATOM      7  C   UNL     1     -14.676   2.195 -13.875  1.00  0.00    -0.028 C 
ATOM      8  C   UNL     1     -14.402   2.314 -12.554  1.00  0.00    -0.070 CG0
ATOM      9  C   UNL     1     -15.564   2.497 -11.610  1.00  0.00     0.039 C 
ATOM     10  G   UNL     1     -12.996   2.206 -11.978  1.00  0.00     0.000 G0
ENDBRANCH   6   7
ENDBRANCH   5   6
ENDBRANCH   3   5
ENDBRANCH   1   3
BRANCH   1  11
ATOM     11  C   UNL     1     -11.156   3.475 -13.946  1.00  0.00     0.087 C 
BRANCH  11  12
ATOM     12  C   UNL     1     -11.349   4.244 -12.610  1.00  0.00     0.066 C 
BRANCH  12  13
ATOM     13  C   UNL     1     -12.282   3.514 -11.646  1.00  0.00     0.140 C 
ATOM     14  O   UNL     1     -12.476   4.000 -10.541  1.00  0.00    -0.299 OA
BRANCH  13  15
ATOM     15  C   UNL     1     -12.992   2.211 -11.968  1.00  0.00     0.106 CG0
ATOM     16  G   UNL     1     -14.387   2.336 -12.567  1.00  0.00     0.000 G0
ENDBRANCH  13  15
ENDBRANCH  12  13
BRANCH  12  17
ATOM     17  C   UNL     1      -9.979   4.611 -11.956  1.00  0.00    -0.006 C 
ATOM     18  C   UNL     1      -9.060   3.384 -11.864  1.00  0.00     0.008 C 
ATOM     19  C   UNL     1      -9.229   5.765 -12.651  1.00  0.00     0.008 C 
ENDBRANCH  12  17
ENDBRANCH  11  12
ENDBRANCH   1  11
TORSDOF 1
ENDMDL
MODEL 7
REMARK VINA RESULT:    -2.917      3.391      5.533
REMARK INTER + INTRA:          -4.645
REMARK INTER:                  -4.336
REMARK INTRA:                  -0.309
REMARK UNBOUND:                -0.193
REMARK SMILES CC1=CCC[C@@H](C)C(=O)C[C@H](C(C)C)C(=O)C1
REMARK SMILES IDX 8 1 9 2 6 3 7 4 5 5 4 6 3 7 2 8 1 9 10 11 11 12 15 13 16 14
REMARK SMILES IDX 17 15 12 17 13 18 14 19
REMARK H PARENT
REMARK Flexibility Score: 70.00
ROOT
ATOM      1  C   UNL     1     -13.579   2.363 -12.741  1.00  0.00     0.136 C 
ATOM      2  O   UNL     1     -14.692   2.544 -13.213  1.00  0.00    -0.299 OA
ENDROOT
BRANCH   1   3
ATOM      3  C   UNL     1     -13.439   2.280 -11.231  1.00  0.00     0.053 C 
ATOM      4  C   UNL     1     -14.468   1.312 -10.634  1.00  0.00     0.016 C 
BRANCH   3   5
ATOM      5  C   UNL     1     -13.526   3.665 -10.559  1.00  0.00     0.015 C 
BRANCH   5   6
ATOM      6  C   UNL     1     -12.138   4.306 -10.333  1.00  0.00     0.028 C 
BRANCH   6   7
ATOM      7  C   UNL     1     -11.059   3.253 -10.298  1.00  0.00    -0.028 C 
ATOM      8  C   UNL     1      -9.990   3.199 -11.129  1.00  0.00    -0.070 CG0
ATOM      9  C   UNL     1      -8.983   2.098 -10.907  1.00  0.00     0.039 C 
ATOM     10  G   UNL     1      -9.795   4.148 -12.304  1.00  0.00     0.000 G0
ENDBRANCH   6   7
ENDBRANCH   5   6
ENDBRANCH   3   5
ENDBRANCH   1   3
BRANCH   1  11
ATOM     11  C   UNL     1     -12.405   2.237 -13.692  1.00  0.00     0.087 C 
BRANCH  11  12
ATOM     12  C   UNL     1     -11.755   3.596 -14.072  1.00  0.00     0.066 C 
BRANCH  12  13
ATOM     13  C   UNL     1     -10.287   3.675 -13.662  1.00  0.00     0.140 C 
ATOM     14  O   UNL     1      -9.436   3.328 -14.469  1.00  0.00    -0.299 OA
BRANCH  13  15
ATOM     15  C   UNL     1      -9.804   4.159 -12.306  1.00  0.00     0.106 CG0
ATOM     16  G   UNL     1      -9.991   3.194 -11.143  1.00  0.00     0.000 G0
ENDBRANCH  13  15
ENDBRANCH  12  13
BRANCH  12  17
ATOM     17  C   UNL     1     -11.976   3.936 -15.581  1.00  0.00    -0.006 C 
ATOM     18  C   UNL     1     -12.896   2.906 -16.253  1.00  0.00     0.008 C 
ATOM     19  C   UNL     1     -12.515   5.356 -15.843  1.00  0.00     0.008 C 
ENDBRANCH  12  17
ENDBRANCH  11  12
ENDBRANCH   1  11
TORSDOF 1
ENDMDL
MODEL 8
REMARK VINA RESULT:    -2.912     14.103     16.783
REMARK INTER + INTRA:          -4.638
REMARK INTER:                  -4.803
REMARK INTRA:                   0.165
REMARK UNBOUND:                -0.193
REMARK SMILES CC1=CCC[C@@H](C)C(=O)C[C@H](C(C)C)C(=O)C1
REMARK SMILES IDX 8 1 9 2 6 3 7 4 5 5 4 6 3 7 2 8 1 9 10 11 11 12 15 13 16 14
REMARK SMILES IDX 17 15 12 17 13 18 14 19
REMARK H PARENT
REMARK Flexibility Score: 70.00
ROOT
ATOM      1  C   UNL     1     -26.804  10.032 -23.300  1.00  0.00     0.136 C 
ATOM      2  O   UNL     1     -26.194  11.091 -23.255  1.00  0.00    -0.299 OA
ENDROOT
BRANCH   1   3
ATOM      3  C   UNL     1     -28.307  10.055 -23.084  1.00  0.00     0.053 C 
ATOM      4  C   UNL     1     -28.707  11.163 -22.102  1.00  0.00     0.016 C 
BRANCH   3   5
ATOM      5  C   UNL     1     -28.853   8.687 -22.627  1.00  0.00     0.015 C 
BRANCH   5   6
ATOM      6  C   UNL     1     -28.942   8.566 -21.088  1.00  0.00     0.028 C 
BRANCH   6   7
ATOM      7  C   UNL     1     -29.123   7.126 -20.673  1.00  0.00    -0.028 C 
ATOM      8  C   UNL     1     -28.122   6.274 -20.345  1.00  0.00    -0.070 CG0
ATOM      9  C   UNL     1     -28.501   4.883 -19.902  1.00  0.00     0.039 C 
ATOM     10  G   UNL     1     -26.646   6.631 -20.467  1.00  0.00     0.000 G0
ENDBRANCH   6   7
ENDBRANCH   5   6
ENDBRANCH   3   5
ENDBRANCH   1   3
BRANCH   1  11
ATOM     11  C   UNL     1     -26.022   8.760 -23.562  1.00  0.00     0.087 C 
BRANCH  11  12
ATOM     12  C   UNL     1     -25.385   8.139 -22.289  1.00  0.00     0.066 C 
BRANCH  12  13
ATOM     13  C   UNL     1     -26.087   6.856 -21.851  1.00  0.00     0.140 C 
ATOM     14  O   UNL     1     -26.221   5.957 -22.669  1.00  0.00    -0.299 OA
BRANCH  13  15
ATOM     15  C   UNL     1     -26.638   6.618 -20.457  1.00  0.00     0.106 CG0
ATOM     16  G   UNL     1     -28.119   6.273 -20.368  1.00  0.00     0.000 G0
ENDBRANCH  13  15
ENDBRANCH  12  13
BRANCH  12  17
ATOM     17  C   UNL     1     -23.843   7.954 -22.451  1.00  0.00    -0.006 C 
ATOM     18  C   UNL     1     -23.122   9.309 -22.502  1.00  0.00     0.008 C 
ATOM     19  C   UNL     1     -23.190   7.064 -21.375  1.00  0.00     0.008 C 
ENDBRANCH  12  17
ENDBRANCH  11  12
ENDBRANCH   1  11
TORSDOF 1
ENDMDL
MODEL 9
REMARK VINA RESULT:    -2.817      3.337      5.756
REMARK INTER + INTRA:          -4.493
REMARK INTER:                  -4.416
REMARK INTRA:                  -0.078
REMARK UNBOUND:                -0.193
REMARK SMILES CC1=CCC[C@@H](C)C(=O)C[C@H](C(C)C)C(=O)C1
REMARK SMILES IDX 8 1 9 2 6 3 7 4 5 5 4 6 3 7 2 8 1 9 10 11 11 12 15 13 16 14
REMARK SMILES IDX 17 15 12 17 13 18 14 19
REMARK H PARENT
REMARK Flexibility Score: 70.00
ROOT
ATOM      1  C   UNL     1     -13.243   2.541 -12.075  1.00  0.00     0.136 C 
ATOM      2  O   UNL     1     -13.924   2.125 -13.001  1.00  0.00    -0.299 OA
ENDROOT
BRANCH   1   3
ATOM      3  C   UNL     1     -13.897   2.708 -10.715  1.00  0.00     0.053 C 
ATOM      4  C   UNL     1     -15.412   2.487 -10.801  1.00  0.00     0.016 C 
BRANCH   3   5
ATOM      5  C   UNL     1     -13.572   4.072 -10.074  1.00  0.00     0.015 C 
BRANCH   5   6
ATOM      6  C   UNL     1     -12.249   4.055  -9.276  1.00  0.00     0.028 C 
BRANCH   6   7
ATOM      7  C   UNL     1     -11.624   5.428  -9.242  1.00  0.00    -0.028 C 
ATOM      8  C   UNL     1     -10.710   5.894 -10.127  1.00  0.00    -0.070 CG0
ATOM      9  C   UNL     1     -10.237   7.317  -9.963  1.00  0.00     0.039 C 
ATOM     10  G   UNL     1     -10.095   5.037 -11.226  1.00  0.00     0.000 G0
ENDBRANCH   6   7
ENDBRANCH   5   6
ENDBRANCH   3   5
ENDBRANCH   1   3
BRANCH   1  11
ATOM     11  C   UNL     1     -11.787   2.869 -12.342  1.00  0.00     0.087 C 
BRANCH  11  12
ATOM     12  C   UNL     1     -11.579   4.105 -13.261  1.00  0.00     0.066 C 
BRANCH  12  13
ATOM     13  C   UNL     1     -10.699   5.171 -12.614  1.00  0.00     0.140 C 
ATOM     14  O   UNL     1     -10.462   6.193 -13.242  1.00  0.00    -0.299 OA
BRANCH  13  15
ATOM     15  C   UNL     1     -10.090   5.049 -11.228  1.00  0.00     0.106 CG0
ATOM     16  G   UNL     1     -10.716   5.911 -10.140  1.00  0.00     0.000 G0
ENDBRANCH  13  15
ENDBRANCH  12  13
BRANCH  12  17
ATOM     17  C   UNL     1     -11.072   3.687 -14.678  1.00  0.00    -0.006 C 
ATOM     18  C   UNL     1     -10.146   2.465 -14.599  1.00  0.00     0.008 C 
ATOM     19  C   UNL     1     -12.191   3.420 -15.703  1.00  0.00     0.008 C 
ENDBRANCH  12  17
ENDBRANCH  11  12
ENDBRANCH   1  11
TORSDOF 1
ENDMDL
