MODEL 1
REMARK VINA RESULT:    -1.643      0.000      0.000
REMARK INTER + INTRA:          -1.398
REMARK INTER:                  -2.507
REMARK INTRA:                   1.109
REMARK UNBOUND:                 1.109
REMARK SMILES CC1=CCC[C@H](C)C(=O)C[C@H](C(C)C)C(=O)C1
REMARK SMILES IDX 8 1 9 2 6 3 7 4 5 5 4 6 3 7 2 8 1 9 10 11 11 12 15 13 16 14
REMARK SMILES IDX 17 15 12 17 13 18 14 19
REMARK H PARENT
REMARK Flexibility Score: 70.00
ROOT
ATOM      1  C   UNL     1       7.886  -2.601  -3.816  1.00  0.00     0.136 C 
ATOM      2  O   UNL     1       7.461  -3.605  -4.371  1.00  0.00    -0.299 OA
ENDROOT
BRANCH   1   3
ATOM      3  C   UNL     1       7.109  -1.985  -2.662  1.00  0.00     0.053 C 
ATOM      4  C   UNL     1       5.610  -1.920  -2.989  1.00  0.00     0.016 C 
BRANCH   3   5
ATOM      5  C   UNL     1       7.353  -2.774  -1.353  1.00  0.00     0.015 C 
BRANCH   5   6
ATOM      6  C   UNL     1       8.851  -2.870  -0.993  1.00  0.00     0.028 C 
BRANCH   6   7
ATOM      7  C   UNL     1       9.305  -4.305  -0.911  1.00  0.00    -0.028 C 
ATOM      8  C   UNL     1      10.258  -4.858  -1.700  1.00  0.00    -0.070 CG0
ATOM      9  C   UNL     1      10.559  -6.324  -1.522  1.00  0.00     0.039 C 
ATOM     10  G   UNL     1      11.026  -4.067  -2.749  1.00  0.00     0.000 G0
ENDBRANCH   6   7
ENDBRANCH   5   6
ENDBRANCH   3   5
ENDBRANCH   1   3
BRANCH   1  11
ATOM     11  C   UNL     1       9.193  -2.002  -4.279  1.00  0.00     0.087 C 
BRANCH  11  12
ATOM     12  C   UNL     1      10.123  -3.002  -5.025  1.00  0.00     0.066 C 
BRANCH  12  13
ATOM     13  C   UNL     1      10.408  -4.217  -4.152  1.00  0.00     0.140 C 
ATOM     14  O   UNL     1      10.182  -5.340  -4.584  1.00  0.00    -0.299 OA
BRANCH  13  15
ATOM     15  C   UNL     1      11.028  -4.058  -2.787  1.00  0.00     0.106 CG0
ATOM     16  G   UNL     1      10.291  -4.860  -1.724  1.00  0.00     0.000 G0
ENDBRANCH  13  15
ENDBRANCH  12  13
BRANCH  12  17
ATOM     17  C   UNL     1       9.620  -3.425  -6.446  1.00  0.00    -0.006 C 
ATOM     18  C   UNL     1      10.745  -4.113  -7.242  1.00  0.00     0.008 C 
ATOM     19  C   UNL     1       9.090  -2.234  -7.268  1.00  0.00     0.008 C 
ENDBRANCH  12  17
ENDBRANCH  11  12
ENDBRANCH   1  11
TORSDOF 1
ENDMDL
