MODEL 1
REMARK VINA RESULT:    -2.478      0.000      0.000
REMARK INTER + INTRA:          -2.807
REMARK INTER:                  -2.768
REMARK INTRA:                  -0.039
REMARK UNBOUND:                -0.039
REMARK SMILES CCCC(=O)[O-]
REMARK SMILES IDX 3 1 4 2 5 3 6 4 2 5 1 6
REMARK H PARENT
REMARK Flexibility Score: inf
ROOT
ATOM      1  C   UNL     1      57.431  17.476  49.674  1.00  0.00     0.052 C 
ENDROOT
BRANCH   1   2
ATOM      2  C   UNL     1      56.271  18.047  50.430  1.00  0.00     0.041 C 
ATOM      3  O   UNL     1      56.299  18.102  51.688  1.00  0.00    -0.550 OA
ATOM      4  O   UNL     1      55.144  18.488  49.748  1.00  0.00    -0.550 OA
ENDBRANCH   1   2
BRANCH   1   5
ATOM      5  C   UNL     1      58.148  16.381  50.474  1.00  0.00     0.003 C 
ATOM      6  C   UNL     1      59.560  16.793  50.889  1.00  0.00     0.004 C 
ENDBRANCH   1   5
TORSDOF 2
ENDMDL
MODEL 2
REMARK VINA RESULT:    -2.426     21.565     22.347
REMARK INTER + INTRA:          -2.748
REMARK INTER:                  -2.689
REMARK INTRA:                  -0.059
REMARK UNBOUND:                -0.039
REMARK SMILES CCCC(=O)[O-]
REMARK SMILES IDX 3 1 4 2 5 3 6 4 2 5 1 6
REMARK H PARENT
REMARK Flexibility Score: inf
ROOT
ATOM      1  C   UNL     1      72.689  30.416  59.891  1.00  0.00     0.052 C 
ENDROOT
BRANCH   1   2
ATOM      2  C   UNL     1      72.342  29.838  61.229  1.00  0.00     0.041 C 
ATOM      3  O   UNL     1      73.125  29.982  62.205  1.00  0.00    -0.550 OA
ATOM      4  O   UNL     1      71.169  29.110  61.390  1.00  0.00    -0.550 OA
ENDBRANCH   1   2
BRANCH   1   5
ATOM      5  C   UNL     1      71.495  31.139  59.257  1.00  0.00     0.003 C 
ATOM      6  C   UNL     1      71.252  32.515  59.876  1.00  0.00     0.004 C 
ENDBRANCH   1   5
TORSDOF 2
ENDMDL
MODEL 3
REMARK VINA RESULT:    -2.425     10.136     10.772
REMARK INTER + INTRA:          -2.747
REMARK INTER:                  -2.709
REMARK INTRA:                  -0.038
REMARK UNBOUND:                -0.039
REMARK SMILES CCCC(=O)[O-]
REMARK SMILES IDX 3 1 4 2 5 3 6 4 2 5 1 6
REMARK H PARENT
REMARK Flexibility Score: inf
ROOT
ATOM      1  C   UNL     1      58.898  28.287  48.636  1.00  0.00     0.052 C 
ENDROOT
BRANCH   1   2
ATOM      2  C   UNL     1      59.854  27.137  48.720  1.00  0.00     0.041 C 
ATOM      3  O   UNL     1      59.422  25.960  48.835  1.00  0.00    -0.550 OA
ATOM      4  O   UNL     1      61.224  27.367  48.706  1.00  0.00    -0.550 OA
ENDBRANCH   1   2
BRANCH   1   5
ATOM      5  C   UNL     1      58.084  28.445  49.926  1.00  0.00     0.003 C 
ATOM      6  C   UNL     1      56.632  27.996  49.756  1.00  0.00     0.004 C 
ENDBRANCH   1   5
TORSDOF 2
ENDMDL
MODEL 4
REMARK VINA RESULT:    -2.335      2.557      3.401
REMARK INTER + INTRA:          -2.646
REMARK INTER:                  -2.584
REMARK INTRA:                  -0.062
REMARK UNBOUND:                -0.039
REMARK SMILES CCCC(=O)[O-]
REMARK SMILES IDX 3 1 4 2 5 3 6 4 2 5 1 6
REMARK H PARENT
REMARK Flexibility Score: inf
ROOT
ATOM      1  C   UNL     1      57.676  17.105  49.565  1.00  0.00     0.052 C 
ENDROOT
BRANCH   1   2
ATOM      2  C   UNL     1      59.001  17.801  49.537  1.00  0.00     0.041 C 
ATOM      3  O   UNL     1      59.170  18.815  48.808  1.00  0.00    -0.550 OA
ATOM      4  O   UNL     1      60.062  17.311  50.289  1.00  0.00    -0.550 OA
ENDBRANCH   1   2
BRANCH   1   5
ATOM      5  C   UNL     1      56.534  18.069  49.914  1.00  0.00     0.003 C 
ATOM      6  C   UNL     1      56.532  18.456  51.393  1.00  0.00     0.004 C 
ENDBRANCH   1   5
TORSDOF 2
ENDMDL
MODEL 5
REMARK VINA RESULT:    -2.309      2.151      3.192
REMARK INTER + INTRA:          -2.618
REMARK INTER:                  -2.553
REMARK INTRA:                  -0.064
REMARK UNBOUND:                -0.039
REMARK SMILES CCCC(=O)[O-]
REMARK SMILES IDX 3 1 4 2 5 3 6 4 2 5 1 6
REMARK H PARENT
REMARK Flexibility Score: inf
ROOT
ATOM      1  C   UNL     1      57.515  18.502  50.850  1.00  0.00     0.052 C 
ENDROOT
BRANCH   1   2
ATOM      2  C   UNL     1      58.076  17.469  49.923  1.00  0.00     0.041 C 
ATOM      3  O   UNL     1      57.920  16.244  50.169  1.00  0.00    -0.550 OA
ATOM      4  O   UNL     1      58.801  17.858  48.803  1.00  0.00    -0.550 OA
ENDBRANCH   1   2
BRANCH   1   5
ATOM      5  C   UNL     1      56.021  18.277  51.117  1.00  0.00     0.003 C 
ATOM      6  C   UNL     1      55.167  18.507  49.871  1.00  0.00     0.004 C 
ENDBRANCH   1   5
TORSDOF 2
ENDMDL
MODEL 6
REMARK VINA RESULT:    -2.285     10.136     10.557
REMARK INTER + INTRA:          -2.591
REMARK INTER:                  -2.523
REMARK INTRA:                  -0.068
REMARK UNBOUND:                -0.039
REMARK SMILES CCCC(=O)[O-]
REMARK SMILES IDX 3 1 4 2 5 3 6 4 2 5 1 6
REMARK H PARENT
REMARK Flexibility Score: inf
ROOT
ATOM      1  C   UNL     1      58.760  28.398  48.541  1.00  0.00     0.052 C 
ENDROOT
BRANCH   1   2
ATOM      2  C   UNL     1      57.849  28.379  49.729  1.00  0.00     0.041 C 
ATOM      3  O   UNL     1      56.636  28.068  49.594  1.00  0.00    -0.550 OA
ATOM      4  O   UNL     1      58.331  28.737  50.983  1.00  0.00    -0.550 OA
ENDBRANCH   1   2
BRANCH   1   5
ATOM      5  C   UNL     1      59.919  27.406  48.696  1.00  0.00     0.003 C 
ATOM      6  C   UNL     1      59.434  25.986  48.986  1.00  0.00     0.004 C 
ENDBRANCH   1   5
TORSDOF 2
ENDMDL
MODEL 7
REMARK VINA RESULT:    -2.240     21.265     21.884
REMARK INTER + INTRA:          -2.541
REMARK INTER:                  -2.489
REMARK INTRA:                  -0.052
REMARK UNBOUND:                -0.039
REMARK SMILES CCCC(=O)[O-]
REMARK SMILES IDX 3 1 4 2 5 3 6 4 2 5 1 6
REMARK H PARENT
REMARK Flexibility Score: inf
ROOT
ATOM      1  C   UNL     1      71.245  29.321  60.811  1.00  0.00     0.052 C 
ENDROOT
BRANCH   1   2
ATOM      2  C   UNL     1      71.650  30.390  59.843  1.00  0.00     0.041 C 
ATOM      3  O   UNL     1      72.296  30.092  58.804  1.00  0.00    -0.550 OA
ATOM      4  O   UNL     1      71.345  31.720  60.106  1.00  0.00    -0.550 OA
ENDBRANCH   1   2
BRANCH   1   5
ATOM      5  C   UNL     1      72.456  28.548  61.346  1.00  0.00     0.003 C 
ATOM      6  C   UNL     1      73.125  29.257  62.524  1.00  0.00     0.004 C 
ENDBRANCH   1   5
TORSDOF 2
ENDMDL
MODEL 8
REMARK VINA RESULT:    -2.232     11.310     11.577
REMARK INTER + INTRA:          -2.531
REMARK INTER:                  -2.505
REMARK INTRA:                  -0.027
REMARK UNBOUND:                -0.039
REMARK SMILES CCCC(=O)[O-]
REMARK SMILES IDX 3 1 4 2 5 3 6 4 2 5 1 6
REMARK H PARENT
REMARK Flexibility Score: inf
ROOT
ATOM      1  C   UNL     1      56.573  28.223  49.751  1.00  0.00     0.052 C 
ENDROOT
BRANCH   1   2
ATOM      2  C   UNL     1      55.841  29.450  50.202  1.00  0.00     0.041 C 
ATOM      3  O   UNL     1      56.385  30.254  51.004  1.00  0.00    -0.550 OA
ATOM      4  O   UNL     1      54.545  29.688  49.762  1.00  0.00    -0.550 OA
ENDBRANCH   1   2
BRANCH   1   5
ATOM      5  C   UNL     1      58.090  28.369  49.927  1.00  0.00     0.003 C 
ATOM      6  C   UNL     1      58.833  28.364  48.591  1.00  0.00     0.004 C 
ENDBRANCH   1   5
TORSDOF 2
ENDMDL
MODEL 9
REMARK VINA RESULT:    -2.230      8.796      9.440
REMARK INTER + INTRA:          -2.529
REMARK INTER:                  -2.500
REMARK INTRA:                  -0.029
REMARK UNBOUND:                -0.039
REMARK SMILES CCCC(=O)[O-]
REMARK SMILES IDX 3 1 4 2 5 3 6 4 2 5 1 6
REMARK H PARENT
REMARK Flexibility Score: inf
ROOT
ATOM      1  C   UNL     1      56.971  27.155  49.759  1.00  0.00     0.052 C 
ENDROOT
BRANCH   1   2
ATOM      2  C   UNL     1      57.246  25.709  50.032  1.00  0.00     0.041 C 
ATOM      3  O   UNL     1      58.183  25.117  49.433  1.00  0.00    -0.550 OA
ATOM      4  O   UNL     1      56.446  25.003  50.922  1.00  0.00    -0.550 OA
ENDBRANCH   1   2
BRANCH   1   5
ATOM      5  C   UNL     1      58.233  28.013  49.914  1.00  0.00     0.003 C 
ATOM      6  C   UNL     1      58.806  28.454  48.567  1.00  0.00     0.004 C 
ENDBRANCH   1   5
TORSDOF 2
ENDMDL
