MODEL 1
REMARK VINA RESULT:    -4.740      0.000      0.000
REMARK INTER + INTRA:          -5.035
REMARK INTER:                  -5.017
REMARK INTRA:                  -0.018
REMARK UNBOUND:                -0.018
REMARK SMILES O=C([O-])c1cccnc1
REMARK SMILES IDX 4 1 5 2 9 3 6 4 8 5 7 6 2 7 1 8 3 9
REMARK H PARENT
REMARK Flexibility Score: inf
ROOT
ATOM      1  C   UNL     1      14.292  28.753  31.300  1.00  0.00     0.016 A 
ATOM      2  C   UNL     1      14.572  29.999  30.715  1.00  0.00     0.013 A 
ATOM      3  C   UNL     1      13.682  27.764  30.509  1.00  0.00     0.120 A 
ATOM      4  C   UNL     1      14.246  30.234  29.377  1.00  0.00     0.021 A 
ATOM      5  N   UNL     1      13.375  28.020  29.209  1.00  0.00    -0.264 NA
ATOM      6  C   UNL     1      13.641  29.221  28.633  1.00  0.00     0.111 A 
ENDROOT
BRANCH   1   7
ATOM      7  C   UNL     1      14.629  28.484  32.715  1.00  0.00     0.073 C 
ATOM      8  O   UNL     1      14.179  29.220  33.632  1.00  0.00    -0.545 OA
ATOM      9  O   UNL     1      15.450  27.413  33.052  1.00  0.00    -0.545 OA
ENDBRANCH   1   7
TORSDOF 1
ENDMDL
MODEL 2
REMARK VINA RESULT:    -4.734      0.935      1.620
REMARK INTER + INTRA:          -5.029
REMARK INTER:                  -5.011
REMARK INTRA:                  -0.018
REMARK UNBOUND:                -0.018
REMARK SMILES O=C([O-])c1cccnc1
REMARK SMILES IDX 4 1 5 2 9 3 6 4 8 5 7 6 2 7 1 8 3 9
REMARK H PARENT
REMARK Flexibility Score: inf
ROOT
ATOM      1  C   UNL     1      14.369  28.764  31.537  1.00  0.00     0.016 A 
ATOM      2  C   UNL     1      13.722  27.783  30.767  1.00  0.00     0.013 A 
ATOM      3  C   UNL     1      14.701  29.984  30.923  1.00  0.00     0.120 A 
ATOM      4  C   UNL     1      13.424  28.028  29.425  1.00  0.00     0.021 A 
ATOM      5  N   UNL     1      14.400  30.197  29.614  1.00  0.00    -0.264 NA
ATOM      6  C   UNL     1      13.775  29.255  28.860  1.00  0.00     0.111 A 
ENDROOT
BRANCH   1   7
ATOM      7  C   UNL     1      14.693  28.523  32.959  1.00  0.00     0.073 C 
ATOM      8  O   UNL     1      14.268  29.301  33.854  1.00  0.00    -0.545 OA
ATOM      9  O   UNL     1      15.473  27.433  33.329  1.00  0.00    -0.545 OA
ENDBRANCH   1   7
TORSDOF 1
ENDMDL
MODEL 3
REMARK VINA RESULT:    -4.693      3.368      4.372
REMARK INTER + INTRA:          -4.986
REMARK INTER:                  -4.963
REMARK INTRA:                  -0.023
REMARK UNBOUND:                -0.018
REMARK SMILES O=C([O-])c1cccnc1
REMARK SMILES IDX 4 1 5 2 9 3 6 4 8 5 7 6 2 7 1 8 3 9
REMARK H PARENT
REMARK Flexibility Score: inf
ROOT
ATOM      1  C   UNL     1      13.831  29.400  29.084  1.00  0.00     0.016 A 
ATOM      2  C   UNL     1      13.462  28.091  29.437  1.00  0.00     0.013 A 
ATOM      3  C   UNL     1      14.541  30.171  30.021  1.00  0.00     0.120 A 
ATOM      4  C   UNL     1      13.800  27.582  30.693  1.00  0.00     0.021 A 
ATOM      5  N   UNL     1      14.858  29.650  31.237  1.00  0.00    -0.264 NA
ATOM      6  C   UNL     1      14.506  28.386  31.589  1.00  0.00     0.111 A 
ENDROOT
BRANCH   1   7
ATOM      7  C   UNL     1      13.482  29.957  27.760  1.00  0.00     0.073 C 
ATOM      8  O   UNL     1      13.153  29.197  26.811  1.00  0.00    -0.545 OA
ATOM      9  O   UNL     1      13.513  31.330  27.543  1.00  0.00    -0.545 OA
ENDBRANCH   1   7
TORSDOF 1
ENDMDL
MODEL 4
REMARK VINA RESULT:    -4.627      3.092      4.413
REMARK INTER + INTRA:          -4.916
REMARK INTER:                  -4.898
REMARK INTRA:                  -0.018
REMARK UNBOUND:                -0.018
REMARK SMILES O=C([O-])c1cccnc1
REMARK SMILES IDX 4 1 5 2 9 3 6 4 8 5 7 6 2 7 1 8 3 9
REMARK H PARENT
REMARK Flexibility Score: inf
ROOT
ATOM      1  C   UNL     1      14.979  28.217  32.949  1.00  0.00     0.016 A 
ATOM      2  C   UNL     1      14.319  29.275  33.595  1.00  0.00     0.013 A 
ATOM      3  C   UNL     1      15.836  27.401  33.709  1.00  0.00     0.120 A 
ATOM      4  C   UNL     1      14.519  29.499  34.959  1.00  0.00     0.021 A 
ATOM      5  N   UNL     1      16.013  27.642  35.036  1.00  0.00    -0.264 NA
ATOM      6  C   UNL     1      15.379  28.663  35.670  1.00  0.00     0.111 A 
ENDROOT
BRANCH   1   7
ATOM      7  C   UNL     1      14.781  27.963  31.507  1.00  0.00     0.073 C 
ATOM      8  O   UNL     1      15.754  28.003  30.708  1.00  0.00    -0.545 OA
ATOM      9  O   UNL     1      13.514  27.677  31.010  1.00  0.00    -0.545 OA
ENDBRANCH   1   7
TORSDOF 1
ENDMDL
MODEL 5
REMARK VINA RESULT:    -4.460      5.891      6.720
REMARK INTER + INTRA:          -4.739
REMARK INTER:                  -4.723
REMARK INTRA:                  -0.016
REMARK UNBOUND:                -0.018
REMARK SMILES O=C([O-])c1cccnc1
REMARK SMILES IDX 4 1 5 2 9 3 6 4 8 5 7 6 2 7 1 8 3 9
REMARK H PARENT
REMARK Flexibility Score: inf
ROOT
ATOM      1  C   UNL     1       9.775  25.118  28.705  1.00  0.00     0.016 A 
ATOM      2  C   UNL     1       9.582  23.977  27.909  1.00  0.00     0.013 A 
ATOM      3  C   UNL     1       8.990  26.255  28.446  1.00  0.00     0.120 A 
ATOM      4  C   UNL     1       8.630  23.987  26.887  1.00  0.00     0.021 A 
ATOM      5  N   UNL     1       8.069  26.238  27.444  1.00  0.00    -0.264 NA
ATOM      6  C   UNL     1       7.875  25.140  26.668  1.00  0.00     0.111 A 
ENDROOT
BRANCH   1   7
ATOM      7  C   UNL     1      10.778  25.127  29.791  1.00  0.00     0.073 C 
ATOM      8  O   UNL     1      10.537  24.563  30.891  1.00  0.00    -0.545 OA
ATOM      9  O   UNL     1      12.003  25.759  29.613  1.00  0.00    -0.545 OA
ENDBRANCH   1   7
TORSDOF 1
ENDMDL
MODEL 6
REMARK VINA RESULT:    -4.426      2.739      3.698
REMARK INTER + INTRA:          -4.703
REMARK INTER:                  -4.685
REMARK INTRA:                  -0.018
REMARK UNBOUND:                -0.018
REMARK SMILES O=C([O-])c1cccnc1
REMARK SMILES IDX 4 1 5 2 9 3 6 4 8 5 7 6 2 7 1 8 3 9
REMARK H PARENT
REMARK Flexibility Score: inf
ROOT
ATOM      1  C   UNL     1      14.473  28.954  31.056  1.00  0.00     0.016 A 
ATOM      2  C   UNL     1      13.925  29.608  32.171  1.00  0.00     0.013 A 
ATOM      3  C   UNL     1      15.342  27.871  31.275  1.00  0.00     0.120 A 
ATOM      4  C   UNL     1      14.244  29.180  33.462  1.00  0.00     0.021 A 
ATOM      5  N   UNL     1      15.638  27.476  32.544  1.00  0.00    -0.264 NA
ATOM      6  C   UNL     1      15.112  28.101  33.629  1.00  0.00     0.111 A 
ENDROOT
BRANCH   1   7
ATOM      7  C   UNL     1      14.147  29.391  29.682  1.00  0.00     0.073 C 
ATOM      8  O   UNL     1      14.473  30.539  29.279  1.00  0.00    -0.545 OA
ATOM      9  O   UNL     1      13.474  28.539  28.813  1.00  0.00    -0.545 OA
ENDBRANCH   1   7
TORSDOF 1
ENDMDL
MODEL 7
REMARK VINA RESULT:    -4.393      2.442      3.052
REMARK INTER + INTRA:          -4.668
REMARK INTER:                  -4.645
REMARK INTRA:                  -0.024
REMARK UNBOUND:                -0.018
REMARK SMILES O=C([O-])c1cccnc1
REMARK SMILES IDX 4 1 5 2 9 3 6 4 8 5 7 6 2 7 1 8 3 9
REMARK H PARENT
REMARK Flexibility Score: inf
ROOT
ATOM      1  C   UNL     1      13.772  29.962  28.657  1.00  0.00     0.016 A 
ATOM      2  C   UNL     1      13.993  31.324  28.397  1.00  0.00     0.013 A 
ATOM      3  C   UNL     1      13.130  29.188  27.674  1.00  0.00     0.120 A 
ATOM      4  C   UNL     1      13.581  31.883  27.186  1.00  0.00     0.021 A 
ATOM      5  N   UNL     1      12.738  29.758  26.502  1.00  0.00    -0.264 NA
ATOM      6  C   UNL     1      12.948  31.075  26.241  1.00  0.00     0.111 A 
ENDROOT
BRANCH   1   7
ATOM      7  C   UNL     1      14.201  29.351  29.934  1.00  0.00     0.073 C 
ATOM      8  O   UNL     1      14.898  30.005  30.755  1.00  0.00    -0.545 OA
ATOM      9  O   UNL     1      13.841  28.045  30.246  1.00  0.00    -0.545 OA
ENDBRANCH   1   7
TORSDOF 1
ENDMDL
MODEL 8
REMARK VINA RESULT:    -4.302      2.927      4.392
REMARK INTER + INTRA:          -4.572
REMARK INTER:                  -4.556
REMARK INTRA:                  -0.016
REMARK UNBOUND:                -0.018
REMARK SMILES O=C([O-])c1cccnc1
REMARK SMILES IDX 4 1 5 2 9 3 6 4 8 5 7 6 2 7 1 8 3 9
REMARK H PARENT
REMARK Flexibility Score: inf
ROOT
ATOM      1  C   UNL     1      14.802  28.290  32.721  1.00  0.00     0.016 A 
ATOM      2  C   UNL     1      15.687  27.475  33.445  1.00  0.00     0.013 A 
ATOM      3  C   UNL     1      14.166  29.350  33.392  1.00  0.00     0.120 A 
ATOM      4  C   UNL     1      15.921  27.724  34.799  1.00  0.00     0.021 A 
ATOM      5  N   UNL     1      14.412  29.569  34.713  1.00  0.00    -0.264 NA
ATOM      6  C   UNL     1      15.267  28.787  35.422  1.00  0.00     0.111 A 
ENDROOT
BRANCH   1   7
ATOM      7  C   UNL     1      14.541  28.043  31.287  1.00  0.00     0.073 C 
ATOM      8  O   UNL     1      15.381  28.386  30.414  1.00  0.00    -0.545 OA
ATOM      9  O   UNL     1      13.361  27.428  30.882  1.00  0.00    -0.545 OA
ENDBRANCH   1   7
TORSDOF 1
ENDMDL
MODEL 9
REMARK VINA RESULT:    -4.237      6.850      7.761
REMARK INTER + INTRA:          -4.503
REMARK INTER:                  -4.486
REMARK INTRA:                  -0.017
REMARK UNBOUND:                -0.018
REMARK SMILES O=C([O-])c1cccnc1
REMARK SMILES IDX 4 1 5 2 9 3 6 4 8 5 7 6 2 7 1 8 3 9
REMARK H PARENT
REMARK Flexibility Score: inf
ROOT
ATOM      1  C   UNL     1       9.199  24.738  28.383  1.00  0.00     0.016 A 
ATOM      2  C   UNL     1      10.537  24.326  28.268  1.00  0.00     0.013 A 
ATOM      3  C   UNL     1       8.711  25.077  29.657  1.00  0.00     0.120 A 
ATOM      4  C   UNL     1      11.351  24.260  29.401  1.00  0.00     0.021 A 
ATOM      5  N   UNL     1       9.525  25.003  30.745  1.00  0.00    -0.264 NA
ATOM      6  C   UNL     1      10.821  24.606  30.644  1.00  0.00     0.111 A 
ENDROOT
BRANCH   1   7
ATOM      7  C   UNL     1       8.322  24.815  27.196  1.00  0.00     0.073 C 
ATOM      8  O   UNL     1       7.967  23.769  26.592  1.00  0.00    -0.545 OA
ATOM      9  O   UNL     1       7.875  26.047  26.729  1.00  0.00    -0.545 OA
ENDBRANCH   1   7
TORSDOF 1
ENDMDL
