MODEL 1
REMARK VINA RESULT:    -2.959      0.000      0.000
REMARK INTER + INTRA:          -3.800
REMARK INTER:                  -3.565
REMARK INTRA:                  -0.235
REMARK UNBOUND:                -0.235
REMARK SMILES Oc1cc(O)c2cc(O)c(-c3ccc(O)c(O)c3)[o+]c2c1
REMARK SMILES IDX 10 1 19 2 20 3 21 4 2 5 3 6 4 7 6 8 7 9 8 10 11 11 12 12
REMARK SMILES IDX 13 13 14 14 18 15 16 16 15 17 17 19 9 21 1 23 5 25
REMARK H PARENT 15 18 17 20 9 22 1 24 5 26
REMARK Flexibility Score: inf
ROOT
ATOM      1  C   UNL     1      12.271  35.087  13.614  1.00  0.00     0.402 A 
ATOM      2  O   UNL     1      13.038  36.167  13.486  1.00  0.00    -0.202 OA
ATOM      3  C   UNL     1      14.087  36.224  12.671  1.00  0.00     0.368 A 
ATOM      4  C   UNL     1      14.830  37.404  12.602  1.00  0.00     0.162 A 
ATOM      5  C   UNL     1      15.935  37.495  11.755  1.00  0.00     0.128 A 
ATOM      6  C   UNL     1      16.299  36.397  10.967  1.00  0.00     0.093 A 
ATOM      7  C   UNL     1      15.570  35.202  11.017  1.00  0.00     0.136 A 
ATOM      8  C   UNL     1      14.448  35.106  11.881  1.00  0.00     0.125 A 
ATOM      9  C   UNL     1      13.668  33.946  12.006  1.00  0.00     0.078 A 
ATOM     10  C   UNL     1      12.578  33.924  12.882  1.00  0.00     0.223 A 
ENDROOT
BRANCH   1  11
ATOM     11  C   UNL     1      11.123  35.150  14.548  1.00  0.00     0.087 A 
ATOM     12  C   UNL     1      11.312  35.199  15.939  1.00  0.00     0.022 A 
ATOM     13  C   UNL     1      10.212  35.233  16.801  1.00  0.00     0.051 A 
ATOM     14  C   UNL     1       8.909  35.206  16.286  1.00  0.00     0.157 A 
ATOM     15  C   UNL     1       9.815  35.100  14.037  1.00  0.00     0.068 A 
ATOM     16  C   UNL     1       8.711  35.136  14.897  1.00  0.00     0.158 A 
BRANCH  14  17
ATOM     17  O   UNL     1       7.814  35.243  17.148  1.00  0.00    -0.504 OA
ATOM     18  H   UNL     1       7.731  35.948  17.871  1.00  0.00     0.293 HD
ENDBRANCH  14  17
BRANCH  16  19
ATOM     19  O   UNL     1       7.428  35.100  14.353  1.00  0.00    -0.504 OA
ATOM     20  H   UNL     1       7.196  34.510  13.562  1.00  0.00     0.293 HD
ENDBRANCH  16  19
ENDBRANCH   1  11
BRANCH  10  21
ATOM     21  O   UNL     1      11.834  32.756  13.044  1.00  0.00    -0.500 OA
ATOM     22  H   UNL     1      12.256  31.840  12.964  1.00  0.00     0.294 HD
ENDBRANCH  10  21
BRANCH   5  23
ATOM     23  O   UNL     1      16.664  38.681  11.700  1.00  0.00    -0.507 OA
ATOM     24  H   UNL     1      17.501  38.763  11.136  1.00  0.00     0.293 HD
ENDBRANCH   5  23
BRANCH   7  25
ATOM     25  O   UNL     1      15.997  34.153  10.198  1.00  0.00    -0.507 OA
ATOM     26  H   UNL     1      16.910  33.725  10.249  1.00  0.00     0.293 HD
ENDBRANCH   7  25
TORSDOF 6
ENDMDL
MODEL 2
REMARK VINA RESULT:    -2.416      5.172      6.783
REMARK INTER + INTRA:          -3.145
REMARK INTER:                  -2.923
REMARK INTRA:                  -0.222
REMARK UNBOUND:                -0.235
REMARK SMILES Oc1cc(O)c2cc(O)c(-c3ccc(O)c(O)c3)[o+]c2c1
REMARK SMILES IDX 10 1 19 2 20 3 21 4 2 5 3 6 4 7 6 8 7 9 8 10 11 11 12 12
REMARK SMILES IDX 13 13 14 14 18 15 16 16 15 17 17 19 9 21 1 23 5 25
REMARK H PARENT 15 18 17 20 9 22 1 24 5 26
REMARK Flexibility Score: inf
ROOT
ATOM      1  C   UNL     1      16.229  36.726  11.805  1.00  0.00     0.402 A 
ATOM      2  O   UNL     1      16.467  36.299  13.042  1.00  0.00    -0.202 OA
ATOM      3  C   UNL     1      16.532  35.011  13.370  1.00  0.00     0.368 A 
ATOM      4  C   UNL     1      16.790  34.660  14.696  1.00  0.00     0.162 A 
ATOM      5  C   UNL     1      16.867  33.318  15.069  1.00  0.00     0.128 A 
ATOM      6  C   UNL     1      16.686  32.317  14.109  1.00  0.00     0.093 A 
ATOM      7  C   UNL     1      16.426  32.642  12.771  1.00  0.00     0.136 A 
ATOM      8  C   UNL     1      16.344  34.007  12.390  1.00  0.00     0.125 A 
ATOM      9  C   UNL     1      16.075  34.427  11.077  1.00  0.00     0.078 A 
ATOM     10  C   UNL     1      16.006  35.790  10.776  1.00  0.00     0.223 A 
ENDROOT
BRANCH   1  11
ATOM     11  C   UNL     1      16.191  38.186  11.563  1.00  0.00     0.087 A 
ATOM     12  C   UNL     1      17.125  38.814  10.721  1.00  0.00     0.022 A 
ATOM     13  C   UNL     1      17.084  40.197  10.528  1.00  0.00     0.051 A 
ATOM     14  C   UNL     1      16.118  40.974  11.182  1.00  0.00     0.157 A 
ATOM     15  C   UNL     1      15.239  38.972  12.233  1.00  0.00     0.068 A 
ATOM     16  C   UNL     1      15.194  40.358  12.041  1.00  0.00     0.158 A 
BRANCH  14  17
ATOM     17  O   UNL     1      16.078  42.354  10.984  1.00  0.00    -0.504 OA
ATOM     18  H   UNL     1      15.243  42.819  10.649  1.00  0.00     0.293 HD
ENDBRANCH  14  17
BRANCH  16  19
ATOM     19  O   UNL     1      14.226  41.103  12.713  1.00  0.00    -0.504 OA
ATOM     20  H   UNL     1      13.381  41.424  12.254  1.00  0.00     0.293 HD
ENDBRANCH  16  19
ENDBRANCH   1  11
BRANCH  10  21
ATOM     21  O   UNL     1      15.689  36.207   9.484  1.00  0.00    -0.500 OA
ATOM     22  H   UNL     1      14.758  36.097   9.101  1.00  0.00     0.294 HD
ENDBRANCH  10  21
BRANCH   5  23
ATOM     23  O   UNL     1      17.125  32.988  16.398  1.00  0.00    -0.507 OA
ATOM     24  H   UNL     1      18.050  32.710  16.706  1.00  0.00     0.293 HD
ENDBRANCH   5  23
BRANCH   7  25
ATOM     25  O   UNL     1      16.259  31.586  11.872  1.00  0.00    -0.507 OA
ATOM     26  H   UNL     1      16.755  30.708  11.926  1.00  0.00     0.293 HD
ENDBRANCH   7  25
TORSDOF 6
ENDMDL
MODEL 3
REMARK VINA RESULT:    -2.366     17.711     19.620
REMARK INTER + INTRA:          -3.086
REMARK INTER:                  -3.061
REMARK INTRA:                  -0.025
REMARK UNBOUND:                -0.235
REMARK SMILES Oc1cc(O)c2cc(O)c(-c3ccc(O)c(O)c3)[o+]c2c1
REMARK SMILES IDX 10 1 19 2 20 3 21 4 2 5 3 6 4 7 6 8 7 9 8 10 11 11 12 12
REMARK SMILES IDX 13 13 14 14 18 15 16 16 15 17 17 19 9 21 1 23 5 25
REMARK H PARENT 15 18 17 20 9 22 1 24 5 26
REMARK Flexibility Score: inf
ROOT
ATOM      1  C   UNL     1      -1.681  41.557  24.113  1.00  0.00     0.402 A 
ATOM      2  O   UNL     1      -2.238  42.510  24.854  1.00  0.00    -0.202 OA
ATOM      3  C   UNL     1      -2.040  43.808  24.644  1.00  0.00     0.368 A 
ATOM      4  C   UNL     1      -2.673  44.735  25.475  1.00  0.00     0.162 A 
ATOM      5  C   UNL     1      -2.485  46.103  25.277  1.00  0.00     0.128 A 
ATOM      6  C   UNL     1      -1.661  46.550  24.239  1.00  0.00     0.093 A 
ATOM      7  C   UNL     1      -1.015  45.641  23.391  1.00  0.00     0.136 A 
ATOM      8  C   UNL     1      -1.201  44.248  23.592  1.00  0.00     0.125 A 
ATOM      9  C   UNL     1      -0.584  43.265  22.802  1.00  0.00     0.078 A 
ATOM     10  C   UNL     1      -0.812  41.911  23.062  1.00  0.00     0.223 A 
ENDROOT
BRANCH   1  11
ATOM     11  C   UNL     1      -1.987  40.145  24.439  1.00  0.00     0.087 A 
ATOM     12  C   UNL     1      -1.819  39.642  25.740  1.00  0.00     0.022 A 
ATOM     13  C   UNL     1      -2.092  38.299  26.018  1.00  0.00     0.051 A 
ATOM     14  C   UNL     1      -2.523  37.439  25.000  1.00  0.00     0.157 A 
ATOM     15  C   UNL     1      -2.399  39.274  23.417  1.00  0.00     0.068 A 
ATOM     16  C   UNL     1      -2.674  37.930  23.693  1.00  0.00     0.158 A 
BRANCH  14  17
ATOM     17  O   UNL     1      -2.797  36.101  25.282  1.00  0.00    -0.504 OA
ATOM     18  H   UNL     1      -3.747  35.752  25.326  1.00  0.00     0.293 HD
ENDBRANCH  14  17
BRANCH  16  19
ATOM     19  O   UNL     1      -3.094  37.098  22.655  1.00  0.00    -0.504 OA
ATOM     20  H   UNL     1      -4.071  37.014  22.395  1.00  0.00     0.293 HD
ENDBRANCH  16  19
ENDBRANCH   1  11
BRANCH  10  21
ATOM     21  O   UNL     1      -0.161  40.934  22.309  1.00  0.00    -0.500 OA
ATOM     22  H   UNL     1       0.447  41.175  21.536  1.00  0.00     0.294 HD
ENDBRANCH  10  21
BRANCH   5  23
ATOM     23  O   UNL     1      -3.125  47.013  26.117  1.00  0.00    -0.507 OA
ATOM     24  H   UNL     1      -3.665  46.707  26.918  1.00  0.00     0.293 HD
ENDBRANCH   5  23
BRANCH   7  25
ATOM     25  O   UNL     1      -0.210  46.167  22.377  1.00  0.00    -0.507 OA
ATOM     26  H   UNL     1       0.635  46.695  22.536  1.00  0.00     0.293 HD
ENDBRANCH   7  25
TORSDOF 6
ENDMDL
MODEL 4
REMARK VINA RESULT:    -1.709     17.141     19.125
REMARK INTER + INTRA:          -2.294
REMARK INTER:                  -2.051
REMARK INTRA:                  -0.243
REMARK UNBOUND:                -0.235
REMARK SMILES Oc1cc(O)c2cc(O)c(-c3ccc(O)c(O)c3)[o+]c2c1
REMARK SMILES IDX 10 1 19 2 20 3 21 4 2 5 3 6 4 7 6 8 7 9 8 10 11 11 12 12
REMARK SMILES IDX 13 13 14 14 18 15 16 16 15 17 17 19 9 21 1 23 5 25
REMARK H PARENT 15 18 17 20 9 22 1 24 5 26
REMARK Flexibility Score: inf
ROOT
ATOM      1  C   UNL     1      -1.503  39.843  24.219  1.00  0.00     0.402 A 
ATOM      2  O   UNL     1      -2.056  40.795  24.966  1.00  0.00    -0.202 OA
ATOM      3  C   UNL     1      -1.950  42.092  24.693  1.00  0.00     0.368 A 
ATOM      4  C   UNL     1      -2.569  43.017  25.535  1.00  0.00     0.162 A 
ATOM      5  C   UNL     1      -2.477  44.384  25.272  1.00  0.00     0.128 A 
ATOM      6  C   UNL     1      -1.763  44.831  24.155  1.00  0.00     0.093 A 
ATOM      7  C   UNL     1      -1.133  43.924  23.294  1.00  0.00     0.136 A 
ATOM      8  C   UNL     1      -1.222  42.533  23.561  1.00  0.00     0.125 A 
ATOM      9  C   UNL     1      -0.612  41.552  22.761  1.00  0.00     0.078 A 
ATOM     10  C   UNL     1      -0.740  40.200  23.091  1.00  0.00     0.223 A 
ENDROOT
BRANCH   1  11
ATOM     11  C   UNL     1      -1.701  38.432  24.622  1.00  0.00     0.087 A 
ATOM     12  C   UNL     1      -2.958  37.812  24.525  1.00  0.00     0.022 A 
ATOM     13  C   UNL     1      -3.125  36.486  24.935  1.00  0.00     0.051 A 
ATOM     14  C   UNL     1      -2.043  35.766  25.459  1.00  0.00     0.157 A 
ATOM     15  C   UNL     1      -0.625  37.713  25.169  1.00  0.00     0.068 A 
ATOM     16  C   UNL     1      -0.788  36.385  25.579  1.00  0.00     0.158 A 
BRANCH  14  17
ATOM     17  O   UNL     1      -2.213  34.443  25.864  1.00  0.00    -0.504 OA
ATOM     18  H   UNL     1      -3.013  33.895  25.569  1.00  0.00     0.293 HD
ENDBRANCH  14  17
BRANCH  16  19
ATOM     19  O   UNL     1       0.307  35.699  26.103  1.00  0.00    -0.504 OA
ATOM     20  H   UNL     1       1.024  36.165  26.647  1.00  0.00     0.293 HD
ENDBRANCH  16  19
ENDBRANCH   1  11
BRANCH  10  21
ATOM     21  O   UNL     1      -0.094  39.229  22.325  1.00  0.00    -0.500 OA
ATOM     22  H   UNL     1       0.756  39.433  21.813  1.00  0.00     0.294 HD
ENDBRANCH  10  21
BRANCH   5  23
ATOM     23  O   UNL     1      -3.101  45.292  26.125  1.00  0.00    -0.507 OA
ATOM     24  H   UNL     1      -4.042  45.625  25.949  1.00  0.00     0.293 HD
ENDBRANCH   5  23
BRANCH   7  25
ATOM     25  O   UNL     1      -0.441  44.449  22.199  1.00  0.00    -0.507 OA
ATOM     26  H   UNL     1      -0.589  44.167  21.241  1.00  0.00     0.293 HD
ENDBRANCH   7  25
TORSDOF 6
ENDMDL
MODEL 5
REMARK VINA RESULT:    -0.693     14.124     15.455
REMARK INTER + INTRA:          -1.071
REMARK INTER:                  -1.340
REMARK INTRA:                   0.269
REMARK UNBOUND:                -0.235
REMARK SMILES Oc1cc(O)c2cc(O)c(-c3ccc(O)c(O)c3)[o+]c2c1
REMARK SMILES IDX 10 1 19 2 20 3 21 4 2 5 3 6 4 7 6 8 7 9 8 10 11 11 12 12
REMARK SMILES IDX 13 13 14 14 18 15 16 16 15 17 17 19 9 21 1 23 5 25
REMARK H PARENT 15 18 17 20 9 22 1 24 5 26
REMARK Flexibility Score: inf
ROOT
ATOM      1  C   UNL     1      -1.786  33.488  14.719  1.00  0.00     0.402 A 
ATOM      2  O   UNL     1      -1.997  32.186  14.555  1.00  0.00    -0.202 OA
ATOM      3  C   UNL     1      -2.359  31.645  13.395  1.00  0.00     0.368 A 
ATOM      4  C   UNL     1      -2.553  30.264  13.320  1.00  0.00     0.162 A 
ATOM      5  C   UNL     1      -2.931  29.669  12.116  1.00  0.00     0.128 A 
ATOM      6  C   UNL     1      -3.113  30.459  10.975  1.00  0.00     0.093 A 
ATOM      7  C   UNL     1      -2.923  31.846  11.024  1.00  0.00     0.136 A 
ATOM      8  C   UNL     1      -2.543  32.455  12.248  1.00  0.00     0.125 A 
ATOM      9  C   UNL     1      -2.344  33.837  12.393  1.00  0.00     0.078 A 
ATOM     10  C   UNL     1      -1.974  34.366  13.633  1.00  0.00     0.223 A 
ENDROOT
BRANCH   1  11
ATOM     11  C   UNL     1      -1.376  33.969  16.058  1.00  0.00     0.087 A 
ATOM     12  C   UNL     1      -1.666  35.275  16.488  1.00  0.00     0.022 A 
ATOM     13  C   UNL     1      -1.247  35.713  17.748  1.00  0.00     0.051 A 
ATOM     14  C   UNL     1      -0.523  34.858  18.589  1.00  0.00     0.157 A 
ATOM     15  C   UNL     1      -0.631  33.123  16.896  1.00  0.00     0.068 A 
ATOM     16  C   UNL     1      -0.212  33.558  18.159  1.00  0.00     0.158 A 
BRANCH  14  17
ATOM     17  O   UNL     1      -0.110  35.298  19.846  1.00  0.00    -0.504 OA
ATOM     18  H   UNL     1      -0.382  36.204  20.208  1.00  0.00     0.293 HD
ENDBRANCH  14  17
BRANCH  16  19
ATOM     19  O   UNL     1       0.514  32.685  18.969  1.00  0.00    -0.504 OA
ATOM     20  H   UNL     1       1.473  32.432  18.763  1.00  0.00     0.293 HD
ENDBRANCH  16  19
ENDBRANCH   1  11
BRANCH  10  21
ATOM     21  O   UNL     1      -1.825  35.744  13.790  1.00  0.00    -0.500 OA
ATOM     22  H   UNL     1      -2.599  36.382  13.656  1.00  0.00     0.294 HD
ENDBRANCH  10  21
BRANCH   5  23
ATOM     23  O   UNL     1      -3.120  28.289  12.061  1.00  0.00    -0.507 OA
ATOM     24  H   UNL     1      -2.409  27.670  11.691  1.00  0.00     0.293 HD
ENDBRANCH   5  23
BRANCH   7  25
ATOM     25  O   UNL     1      -3.123  32.564   9.842  1.00  0.00    -0.507 OA
ATOM     26  H   UNL     1      -2.637  33.417   9.604  1.00  0.00     0.293 HD
ENDBRANCH   7  25
TORSDOF 6
ENDMDL
