MODEL 1
REMARK VINA RESULT:    -2.634      0.000      0.000
REMARK INTER + INTRA:          -6.328
REMARK INTER:                  -4.790
REMARK INTRA:                  -1.538
REMARK UNBOUND:                -1.538
REMARK SMILES CCCCCCCCCCCCCC[C@H](C)C(=O)[O-]
REMARK SMILES IDX 9 1 10 2 11 3 12 4 13 5 14 6 15 7 16 8 17 9 18 10 19 11 8 12
REMARK SMILES IDX 7 13 6 14 5 15 4 16 3 17 2 18 1 19
REMARK H PARENT
REMARK Flexibility Score: inf
ROOT
ATOM      1  C   UNL     1     -15.843  14.533  -9.268  1.00  0.00     0.000 C 
ENDROOT
BRANCH   1   2
ATOM      2  C   UNL     1     -16.499  15.013  -7.961  1.00  0.00     0.000 C 
BRANCH   2   3
ATOM      3  C   UNL     1     -16.582  16.546  -7.868  1.00  0.00     0.000 C 
BRANCH   3   4
ATOM      4  C   UNL     1     -15.763  17.249  -8.965  1.00  0.00     0.000 C 
BRANCH   4   5
ATOM      5  C   UNL     1     -16.645  18.039  -9.947  1.00  0.00     0.001 C 
BRANCH   5   6
ATOM      6  C   UNL     1     -16.117  19.461 -10.207  1.00  0.00     0.009 C 
BRANCH   6   7
ATOM      7  C   UNL     1     -16.003  19.770 -11.715  1.00  0.00     0.032 C 
ATOM      8  C   UNL     1     -16.025  18.476 -12.536  1.00  0.00     0.014 C 
BRANCH   7   9
ATOM      9  C   UNL     1     -14.755  20.552 -12.027  1.00  0.00     0.044 C 
ATOM     10  O   UNL     1     -14.778  21.811 -12.065  1.00  0.00    -0.550 OA
ATOM     11  O   UNL     1     -13.563  19.881 -12.275  1.00  0.00    -0.550 OA
ENDBRANCH   7   9
ENDBRANCH   6   7
ENDBRANCH   5   6
ENDBRANCH   4   5
ENDBRANCH   3   4
ENDBRANCH   2   3
ENDBRANCH   1   2
BRANCH   1  12
ATOM     12  C   UNL     1     -16.871  14.004 -10.282  1.00  0.00     0.000 C 
BRANCH  12  13
ATOM     13  C   UNL     1     -16.929  14.857 -11.561  1.00  0.00    -0.000 C 
BRANCH  13  14
ATOM     14  C   UNL     1     -16.553  14.057 -12.818  1.00  0.00    -0.000 C 
BRANCH  14  15
ATOM     15  C   UNL     1     -17.125  12.629 -12.801  1.00  0.00    -0.000 C 
BRANCH  15  16
ATOM     16  C   UNL     1     -16.038  11.551 -12.641  1.00  0.00    -0.000 C 
BRANCH  16  17
ATOM     17  C   UNL     1     -14.626  11.986 -13.076  1.00  0.00    -0.000 C 
BRANCH  17  18
ATOM     18  C   UNL     1     -13.731  12.382 -11.893  1.00  0.00    -0.003 C 
ATOM     19  C   UNL     1     -14.125  11.626 -10.629  1.00  0.00     0.004 C 
ENDBRANCH  17  18
ENDBRANCH  16  17
ENDBRANCH  15  16
ENDBRANCH  14  15
ENDBRANCH  13  14
ENDBRANCH  12  13
ENDBRANCH   1  12
TORSDOF 14
ENDMDL
MODEL 2
REMARK VINA RESULT:    -2.480      1.025      1.727
REMARK INTER + INTRA:          -6.048
REMARK INTER:                  -4.809
REMARK INTRA:                  -1.239
REMARK UNBOUND:                -1.538
REMARK SMILES CCCCCCCCCCCCCC[C@H](C)C(=O)[O-]
REMARK SMILES IDX 9 1 10 2 11 3 12 4 13 5 14 6 15 7 16 8 17 9 18 10 19 11 8 12
REMARK SMILES IDX 7 13 6 14 5 15 4 16 3 17 2 18 1 19
REMARK H PARENT
REMARK Flexibility Score: inf
ROOT
ATOM      1  C   UNL     1     -15.503  15.338  -8.864  1.00  0.00     0.000 C 
ENDROOT
BRANCH   1   2
ATOM      2  C   UNL     1     -16.224  16.412  -8.030  1.00  0.00     0.000 C 
BRANCH   2   3
ATOM      3  C   UNL     1     -16.740  17.580  -8.886  1.00  0.00     0.000 C 
BRANCH   3   4
ATOM      4  C   UNL     1     -16.872  17.208 -10.374  1.00  0.00     0.000 C 
BRANCH   4   5
ATOM      5  C   UNL     1     -16.753  18.429 -11.301  1.00  0.00     0.001 C 
BRANCH   5   6
ATOM      6  C   UNL     1     -15.992  19.598 -10.649  1.00  0.00     0.009 C 
BRANCH   6   7
ATOM      7  C   UNL     1     -15.727  20.745 -11.647  1.00  0.00     0.032 C 
ATOM      8  C   UNL     1     -16.647  20.625 -12.867  1.00  0.00     0.014 C 
BRANCH   7   9
ATOM      9  C   UNL     1     -14.289  20.770 -12.092  1.00  0.00     0.044 C 
ATOM     10  O   UNL     1     -13.757  19.749 -12.602  1.00  0.00    -0.550 OA
ATOM     11  O   UNL     1     -13.538  21.930 -11.941  1.00  0.00    -0.550 OA
ENDBRANCH   7   9
ENDBRANCH   6   7
ENDBRANCH   5   6
ENDBRANCH   4   5
ENDBRANCH   3   4
ENDBRANCH   2   3
ENDBRANCH   1   2
BRANCH   1  12
ATOM     12  C   UNL     1     -15.942  13.912  -8.492  1.00  0.00     0.000 C 
BRANCH  12  13
ATOM     13  C   UNL     1     -17.123  13.418  -9.346  1.00  0.00    -0.000 C 
BRANCH  13  14
ATOM     14  C   UNL     1     -17.125  14.028 -10.756  1.00  0.00    -0.000 C 
BRANCH  14  15
ATOM     15  C   UNL     1     -16.715  13.013 -11.838  1.00  0.00    -0.000 C 
BRANCH  15  16
ATOM     16  C   UNL     1     -16.344  11.638 -11.258  1.00  0.00    -0.000 C 
BRANCH  16  17
ATOM     17  C   UNL     1     -14.836  11.325 -11.246  1.00  0.00    -0.000 C 
BRANCH  17  18
ATOM     18  C   UNL     1     -13.970  12.538 -11.613  1.00  0.00    -0.003 C 
ATOM     19  C   UNL     1     -13.434  12.420 -13.036  1.00  0.00     0.004 C 
ENDBRANCH  17  18
ENDBRANCH  16  17
ENDBRANCH  15  16
ENDBRANCH  14  15
ENDBRANCH  13  14
ENDBRANCH  12  13
ENDBRANCH   1  12
TORSDOF 14
ENDMDL
MODEL 3
REMARK VINA RESULT:    -2.478      2.949      6.373
REMARK INTER + INTRA:          -6.045
REMARK INTER:                  -4.770
REMARK INTRA:                  -1.275
REMARK UNBOUND:                -1.538
REMARK SMILES CCCCCCCCCCCCCC[C@H](C)C(=O)[O-]
REMARK SMILES IDX 9 1 10 2 11 3 12 4 13 5 14 6 15 7 16 8 17 9 18 10 19 11 8 12
REMARK SMILES IDX 7 13 6 14 5 15 4 16 3 17 2 18 1 19
REMARK H PARENT
REMARK Flexibility Score: inf
ROOT
ATOM      1  C   UNL     1     -15.773  14.817  -7.664  1.00  0.00     0.000 C 
ENDROOT
BRANCH   1   2
ATOM      2  C   UNL     1     -16.825  13.700  -7.788  1.00  0.00     0.000 C 
BRANCH   2   3
ATOM      3  C   UNL     1     -17.122  13.325  -9.249  1.00  0.00     0.000 C 
BRANCH   3   4
ATOM      4  C   UNL     1     -16.251  14.107 -10.249  1.00  0.00     0.000 C 
BRANCH   4   5
ATOM      5  C   UNL     1     -16.808  14.062 -11.680  1.00  0.00     0.001 C 
BRANCH   5   6
ATOM      6  C   UNL     1     -15.701  14.069 -12.750  1.00  0.00     0.009 C 
BRANCH   6   7
ATOM      7  C   UNL     1     -15.248  12.642 -13.124  1.00  0.00     0.032 C 
ATOM      8  C   UNL     1     -16.328  11.618 -12.759  1.00  0.00     0.014 C 
BRANCH   7   9
ATOM      9  C   UNL     1     -13.951  12.279 -12.450  1.00  0.00     0.044 C 
ATOM     10  O   UNL     1     -12.856  12.401 -13.059  1.00  0.00    -0.550 OA
ATOM     11  O   UNL     1     -13.960  11.805 -11.144  1.00  0.00    -0.550 OA
ENDBRANCH   7   9
ENDBRANCH   6   7
ENDBRANCH   5   6
ENDBRANCH   4   5
ENDBRANCH   3   4
ENDBRANCH   2   3
ENDBRANCH   1   2
BRANCH   1  12
ATOM     12  C   UNL     1     -16.376  16.139  -7.162  1.00  0.00     0.000 C 
BRANCH  12  13
ATOM     13  C   UNL     1     -17.040  16.949  -8.289  1.00  0.00    -0.000 C 
BRANCH  13  14
ATOM     14  C   UNL     1     -16.014  17.626  -9.211  1.00  0.00    -0.000 C 
BRANCH  14  15
ATOM     15  C   UNL     1     -16.613  18.806  -9.995  1.00  0.00    -0.000 C 
BRANCH  15  16
ATOM     16  C   UNL     1     -16.690  18.541 -11.508  1.00  0.00    -0.000 C 
BRANCH  16  17
ATOM     17  C   UNL     1     -15.438  18.959 -12.303  1.00  0.00    -0.000 C 
BRANCH  17  18
ATOM     18  C   UNL     1     -14.650  20.090 -11.627  1.00  0.00    -0.003 C 
ATOM     19  C   UNL     1     -14.334  21.207 -12.617  1.00  0.00     0.004 C 
ENDBRANCH  17  18
ENDBRANCH  16  17
ENDBRANCH  15  16
ENDBRANCH  14  15
ENDBRANCH  13  14
ENDBRANCH  12  13
ENDBRANCH   1  12
TORSDOF 14
ENDMDL
MODEL 4
REMARK VINA RESULT:    -2.430      3.101      6.964
REMARK INTER + INTRA:          -5.956
REMARK INTER:                  -5.477
REMARK INTRA:                  -0.480
REMARK UNBOUND:                -1.538
REMARK SMILES CCCCCCCCCCCCCC[C@H](C)C(=O)[O-]
REMARK SMILES IDX 9 1 10 2 11 3 12 4 13 5 14 6 15 7 16 8 17 9 18 10 19 11 8 12
REMARK SMILES IDX 7 13 6 14 5 15 4 16 3 17 2 18 1 19
REMARK H PARENT
REMARK Flexibility Score: inf
ROOT
ATOM      1  C   UNL     1     -15.661  16.344  -8.457  1.00  0.00     0.000 C 
ENDROOT
BRANCH   1   2
ATOM      2  C   UNL     1     -16.375  15.432  -7.444  1.00  0.00     0.000 C 
BRANCH   2   3
ATOM      3  C   UNL     1     -16.576  14.002  -7.972  1.00  0.00     0.000 C 
BRANCH   3   4
ATOM      4  C   UNL     1     -16.829  13.964  -9.490  1.00  0.00     0.000 C 
BRANCH   4   5
ATOM      5  C   UNL     1     -15.533  13.804 -10.302  1.00  0.00     0.001 C 
BRANCH   5   6
ATOM      6  C   UNL     1     -14.892  12.415 -10.129  1.00  0.00     0.009 C 
BRANCH   6   7
ATOM      7  C   UNL     1     -14.756  11.668 -11.473  1.00  0.00     0.032 C 
ATOM      8  C   UNL     1     -13.747  12.375 -12.385  1.00  0.00     0.014 C 
BRANCH   7   9
ATOM      9  C   UNL     1     -16.082  11.548 -12.175  1.00  0.00     0.044 C 
ATOM     10  O   UNL     1     -16.806  10.530 -12.010  1.00  0.00    -0.550 OA
ATOM     11  O   UNL     1     -16.516  12.567 -13.014  1.00  0.00    -0.550 OA
ENDBRANCH   7   9
ENDBRANCH   6   7
ENDBRANCH   5   6
ENDBRANCH   4   5
ENDBRANCH   3   4
ENDBRANCH   2   3
ENDBRANCH   1   2
BRANCH   1  12
ATOM     12  C   UNL     1     -16.378  17.691  -8.643  1.00  0.00     0.000 C 
BRANCH  12  13
ATOM     13  C   UNL     1     -16.926  17.875 -10.069  1.00  0.00    -0.000 C 
BRANCH  13  14
ATOM     14  C   UNL     1     -16.872  19.338 -10.536  1.00  0.00    -0.000 C 
BRANCH  14  15
ATOM     15  C   UNL     1     -16.377  19.476 -11.986  1.00  0.00    -0.000 C 
BRANCH  15  16
ATOM     16  C   UNL     1     -15.219  20.478 -12.130  1.00  0.00    -0.000 C 
BRANCH  16  17
ATOM     17  C   UNL     1     -13.906  19.879 -12.668  1.00  0.00    -0.000 C 
BRANCH  17  18
ATOM     18  C   UNL     1     -12.838  20.943 -12.961  1.00  0.00    -0.003 C 
ATOM     19  C   UNL     1     -12.952  22.117 -11.995  1.00  0.00     0.004 C 
ENDBRANCH  17  18
ENDBRANCH  16  17
ENDBRANCH  15  16
ENDBRANCH  14  15
ENDBRANCH  13  14
ENDBRANCH  12  13
ENDBRANCH   1  12
TORSDOF 14
ENDMDL
MODEL 5
REMARK VINA RESULT:    -2.228      1.292      3.067
REMARK INTER + INTRA:          -5.589
REMARK INTER:                  -4.368
REMARK INTRA:                  -1.221
REMARK UNBOUND:                -1.538
REMARK SMILES CCCCCCCCCCCCCC[C@H](C)C(=O)[O-]
REMARK SMILES IDX 9 1 10 2 11 3 12 4 13 5 14 6 15 7 16 8 17 9 18 10 19 11 8 12
REMARK SMILES IDX 7 13 6 14 5 15 4 16 3 17 2 18 1 19
REMARK H PARENT
REMARK Flexibility Score: inf
ROOT
ATOM      1  C   UNL     1     -15.941  15.771  -9.676  1.00  0.00     0.000 C 
ENDROOT
BRANCH   1   2
ATOM      2  C   UNL     1     -17.123  16.065 -10.618  1.00  0.00     0.000 C 
BRANCH   2   3
ATOM      3  C   UNL     1     -16.837  15.656 -12.072  1.00  0.00     0.000 C 
BRANCH   3   4
ATOM      4  C   UNL     1     -17.125  16.791 -13.071  1.00  0.00     0.000 C 
BRANCH   4   5
ATOM      5  C   UNL     1     -16.993  18.185 -12.437  1.00  0.00     0.001 C 
BRANCH   5   6
ATOM      6  C   UNL     1     -15.599  18.803 -12.645  1.00  0.00     0.009 C 
BRANCH   6   7
ATOM      7  C   UNL     1     -15.206  19.749 -11.490  1.00  0.00     0.032 C 
ATOM      8  C   UNL     1     -16.452  20.235 -10.741  1.00  0.00     0.014 C 
BRANCH   7   9
ATOM      9  C   UNL     1     -14.417  20.931 -11.988  1.00  0.00     0.044 C 
ATOM     10  O   UNL     1     -14.985  22.030 -12.221  1.00  0.00    -0.550 OA
ATOM     11  O   UNL     1     -13.047  20.811 -12.192  1.00  0.00    -0.550 OA
ENDBRANCH   7   9
ENDBRANCH   6   7
ENDBRANCH   5   6
ENDBRANCH   4   5
ENDBRANCH   3   4
ENDBRANCH   2   3
ENDBRANCH   1   2
BRANCH   1  12
ATOM     12  C   UNL     1     -16.367  15.711  -8.200  1.00  0.00     0.000 C 
BRANCH  12  13
ATOM     13  C   UNL     1     -16.738  14.288  -7.750  1.00  0.00    -0.000 C 
BRANCH  13  14
ATOM     14  C   UNL     1     -15.535  13.517  -7.186  1.00  0.00    -0.000 C 
BRANCH  14  15
ATOM     15  C   UNL     1     -14.506  13.153  -8.270  1.00  0.00    -0.000 C 
BRANCH  15  16
ATOM     16  C   UNL     1     -15.135  12.426  -9.471  1.00  0.00    -0.000 C 
BRANCH  16  17
ATOM     17  C   UNL     1     -14.486  12.741 -10.832  1.00  0.00    -0.000 C 
BRANCH  17  18
ATOM     18  C   UNL     1     -15.451  12.558 -12.013  1.00  0.00    -0.003 C 
ATOM     19  C   UNL     1     -16.085  11.171 -11.994  1.00  0.00     0.004 C 
ENDBRANCH  17  18
ENDBRANCH  16  17
ENDBRANCH  15  16
ENDBRANCH  14  15
ENDBRANCH  13  14
ENDBRANCH  12  13
ENDBRANCH   1  12
TORSDOF 14
ENDMDL
MODEL 6
REMARK VINA RESULT:    -2.122      1.281      2.105
REMARK INTER + INTRA:          -5.397
REMARK INTER:                  -3.852
REMARK INTRA:                  -1.544
REMARK UNBOUND:                -1.538
REMARK SMILES CCCCCCCCCCCCCC[C@H](C)C(=O)[O-]
REMARK SMILES IDX 9 1 10 2 11 3 12 4 13 5 14 6 15 7 16 8 17 9 18 10 19 11 8 12
REMARK SMILES IDX 7 13 6 14 5 15 4 16 3 17 2 18 1 19
REMARK H PARENT
REMARK Flexibility Score: inf
ROOT
ATOM      1  C   UNL     1     -15.379  13.522  -7.031  1.00  0.00     0.000 C 
ENDROOT
BRANCH   1   2
ATOM      2  C   UNL     1     -16.586  14.467  -6.898  1.00  0.00     0.000 C 
BRANCH   2   3
ATOM      3  C   UNL     1     -16.213  15.942  -7.123  1.00  0.00     0.000 C 
BRANCH   3   4
ATOM      4  C   UNL     1     -16.884  16.537  -8.373  1.00  0.00     0.000 C 
BRANCH   4   5
ATOM      5  C   UNL     1     -15.919  17.392  -9.211  1.00  0.00     0.001 C 
BRANCH   5   6
ATOM      6  C   UNL     1     -16.509  18.765  -9.580  1.00  0.00     0.009 C 
BRANCH   6   7
ATOM      7  C   UNL     1     -16.705  18.922 -11.102  1.00  0.00     0.032 C 
ATOM      8  C   UNL     1     -16.787  17.550 -11.781  1.00  0.00     0.014 C 
BRANCH   7   9
ATOM      9  C   UNL     1     -15.599  19.734 -11.723  1.00  0.00     0.044 C 
ATOM     10  O   UNL     1     -15.574  20.987 -11.597  1.00  0.00    -0.550 OA
ATOM     11  O   UNL     1     -14.593  19.098 -12.441  1.00  0.00    -0.550 OA
ENDBRANCH   7   9
ENDBRANCH   6   7
ENDBRANCH   5   6
ENDBRANCH   4   5
ENDBRANCH   3   4
ENDBRANCH   2   3
ENDBRANCH   1   2
BRANCH   1  12
ATOM     12  C   UNL     1     -14.686  13.643  -8.398  1.00  0.00     0.000 C 
BRANCH  12  13
ATOM     13  C   UNL     1     -15.466  12.935  -9.519  1.00  0.00    -0.000 C 
BRANCH  13  14
ATOM     14  C   UNL     1     -15.990  13.916 -10.580  1.00  0.00    -0.000 C 
BRANCH  14  15
ATOM     15  C   UNL     1     -15.115  13.939 -11.845  1.00  0.00    -0.000 C 
BRANCH  15  16
ATOM     16  C   UNL     1     -15.905  13.609 -13.124  1.00  0.00    -0.000 C 
BRANCH  16  17
ATOM     17  C   UNL     1     -17.125  12.692 -12.914  1.00  0.00    -0.000 C 
BRANCH  17  18
ATOM     18  C   UNL     1     -16.795  11.204 -13.101  1.00  0.00    -0.003 C 
ATOM     19  C   UNL     1     -16.588  10.514 -11.757  1.00  0.00     0.004 C 
ENDBRANCH  17  18
ENDBRANCH  16  17
ENDBRANCH  15  16
ENDBRANCH  14  15
ENDBRANCH  13  14
ENDBRANCH  12  13
ENDBRANCH   1  12
TORSDOF 14
ENDMDL
MODEL 7
REMARK VINA RESULT:    -2.067      3.401      6.745
REMARK INTER + INTRA:          -5.296
REMARK INTER:                  -4.547
REMARK INTRA:                  -0.749
REMARK UNBOUND:                -1.538
REMARK SMILES CCCCCCCCCCCCCC[C@H](C)C(=O)[O-]
REMARK SMILES IDX 9 1 10 2 11 3 12 4 13 5 14 6 15 7 16 8 17 9 18 10 19 11 8 12
REMARK SMILES IDX 7 13 6 14 5 15 4 16 3 17 2 18 1 19
REMARK H PARENT
REMARK Flexibility Score: inf
ROOT
ATOM      1  C   UNL     1     -15.055  13.857  -7.894  1.00  0.00     0.000 C 
ENDROOT
BRANCH   1   2
ATOM      2  C   UNL     1     -15.178  14.119  -9.405  1.00  0.00     0.000 C 
BRANCH   2   3
ATOM      3  C   UNL     1     -16.638  14.141  -9.886  1.00  0.00     0.000 C 
BRANCH   3   4
ATOM      4  C   UNL     1     -16.824  14.971 -11.169  1.00  0.00     0.000 C 
BRANCH   4   5
ATOM      5  C   UNL     1     -16.973  14.095 -12.423  1.00  0.00     0.001 C 
BRANCH   5   6
ATOM      6  C   UNL     1     -15.627  13.821 -13.120  1.00  0.00     0.009 C 
BRANCH   6   7
ATOM      7  C   UNL     1     -14.719  12.897 -12.282  1.00  0.00     0.032 C 
ATOM      8  C   UNL     1     -13.362  12.705 -12.969  1.00  0.00     0.014 C 
BRANCH   7   9
ATOM      9  C   UNL     1     -15.363  11.557 -12.042  1.00  0.00     0.044 C 
ATOM     10  O   UNL     1     -15.493  11.108 -10.872  1.00  0.00    -0.550 OA
ATOM     11  O   UNL     1     -15.820  10.806 -13.118  1.00  0.00    -0.550 OA
ENDBRANCH   7   9
ENDBRANCH   6   7
ENDBRANCH   5   6
ENDBRANCH   4   5
ENDBRANCH   3   4
ENDBRANCH   2   3
ENDBRANCH   1   2
BRANCH   1  12
ATOM     12  C   UNL     1     -16.321  14.263  -7.121  1.00  0.00     0.000 C 
BRANCH  12  13
ATOM     13  C   UNL     1     -16.305  15.743  -6.700  1.00  0.00    -0.000 C 
BRANCH  13  14
ATOM     14  C   UNL     1     -17.072  16.642  -7.682  1.00  0.00    -0.000 C 
BRANCH  14  15
ATOM     15  C   UNL     1     -16.135  17.476  -8.573  1.00  0.00    -0.000 C 
BRANCH  15  16
ATOM     16  C   UNL     1     -16.895  18.389  -9.550  1.00  0.00    -0.000 C 
BRANCH  16  17
ATOM     17  C   UNL     1     -16.008  19.131 -10.567  1.00  0.00    -0.000 C 
BRANCH  17  18
ATOM     18  C   UNL     1     -16.527  20.538 -10.901  1.00  0.00    -0.003 C 
ATOM     19  C   UNL     1     -15.793  21.123 -12.102  1.00  0.00     0.004 C 
ENDBRANCH  17  18
ENDBRANCH  16  17
ENDBRANCH  15  16
ENDBRANCH  14  15
ENDBRANCH  13  14
ENDBRANCH  12  13
ENDBRANCH   1  12
TORSDOF 14
ENDMDL
MODEL 8
REMARK VINA RESULT:    -1.976      1.444      2.541
REMARK INTER + INTRA:          -5.131
REMARK INTER:                  -4.224
REMARK INTRA:                  -0.907
REMARK UNBOUND:                -1.538
REMARK SMILES CCCCCCCCCCCCCC[C@H](C)C(=O)[O-]
REMARK SMILES IDX 9 1 10 2 11 3 12 4 13 5 14 6 15 7 16 8 17 9 18 10 19 11 8 12
REMARK SMILES IDX 7 13 6 14 5 15 4 16 3 17 2 18 1 19
REMARK H PARENT
REMARK Flexibility Score: inf
ROOT
ATOM      1  C   UNL     1     -15.429  15.429  -8.746  1.00  0.00     0.000 C 
ENDROOT
BRANCH   1   2
ATOM      2  C   UNL     1     -16.476  16.285  -9.480  1.00  0.00     0.000 C 
BRANCH   2   3
ATOM      3  C   UNL     1     -17.125  17.339  -8.568  1.00  0.00     0.000 C 
BRANCH   3   4
ATOM      4  C   UNL     1     -16.723  18.776  -8.948  1.00  0.00     0.000 C 
BRANCH   4   5
ATOM      5  C   UNL     1     -15.993  18.848 -10.299  1.00  0.00     0.001 C 
BRANCH   5   6
ATOM      6  C   UNL     1     -16.361  20.105 -11.107  1.00  0.00     0.009 C 
BRANCH   6   7
ATOM      7  C   UNL     1     -15.607  20.170 -12.452  1.00  0.00     0.032 C 
ATOM      8  C   UNL     1     -15.494  18.776 -13.078  1.00  0.00     0.014 C 
BRANCH   7   9
ATOM      9  C   UNL     1     -14.235  20.769 -12.288  1.00  0.00     0.044 C 
ATOM     10  O   UNL     1     -14.094  21.946 -11.862  1.00  0.00    -0.550 OA
ATOM     11  O   UNL     1     -13.110  20.018 -12.609  1.00  0.00    -0.550 OA
ENDBRANCH   7   9
ENDBRANCH   6   7
ENDBRANCH   5   6
ENDBRANCH   4   5
ENDBRANCH   3   4
ENDBRANCH   2   3
ENDBRANCH   1   2
BRANCH   1  12
ATOM     12  C   UNL     1     -15.941  14.902  -7.395  1.00  0.00     0.000 C 
BRANCH  12  13
ATOM     13  C   UNL     1     -15.439  13.481  -7.089  1.00  0.00    -0.000 C 
BRANCH  13  14
ATOM     14  C   UNL     1     -14.222  13.091  -7.942  1.00  0.00    -0.000 C 
BRANCH  14  15
ATOM     15  C   UNL     1     -14.574  12.071  -9.039  1.00  0.00    -0.000 C 
BRANCH  15  16
ATOM     16  C   UNL     1     -14.544  12.680 -10.452  1.00  0.00    -0.000 C 
BRANCH  16  17
ATOM     17  C   UNL     1     -15.414  11.947 -11.491  1.00  0.00    -0.000 C 
BRANCH  17  18
ATOM     18  C   UNL     1     -14.778  11.917 -12.889  1.00  0.00    -0.003 C 
ATOM     19  C   UNL     1     -13.911  13.149 -13.125  1.00  0.00     0.004 C 
ENDBRANCH  17  18
ENDBRANCH  16  17
ENDBRANCH  15  16
ENDBRANCH  14  15
ENDBRANCH  13  14
ENDBRANCH  12  13
ENDBRANCH   1  12
TORSDOF 14
ENDMDL
MODEL 9
REMARK VINA RESULT:    -1.705      1.444      3.126
REMARK INTER + INTRA:          -4.638
REMARK INTER:                  -3.665
REMARK INTRA:                  -0.974
REMARK UNBOUND:                -1.538
REMARK SMILES CCCCCCCCCCCCCC[C@H](C)C(=O)[O-]
REMARK SMILES IDX 9 1 10 2 11 3 12 4 13 5 14 6 15 7 16 8 17 9 18 10 19 11 8 12
REMARK SMILES IDX 7 13 6 14 5 15 4 16 3 17 2 18 1 19
REMARK H PARENT
REMARK Flexibility Score: inf
ROOT
ATOM      1  C   UNL     1     -16.449  16.058 -12.412  1.00  0.00     0.000 C 
ENDROOT
BRANCH   1   2
ATOM      2  C   UNL     1     -16.990  16.078 -10.971  1.00  0.00     0.000 C 
BRANCH   2   3
ATOM      3  C   UNL     1     -16.809  17.443 -10.288  1.00  0.00     0.000 C 
BRANCH   3   4
ATOM      4  C   UNL     1     -16.988  18.620 -11.265  1.00  0.00     0.000 C 
BRANCH   4   5
ATOM      5  C   UNL     1     -16.092  19.819 -10.915  1.00  0.00     0.001 C 
BRANCH   5   6
ATOM      6  C   UNL     1     -15.978  20.832 -12.068  1.00  0.00     0.009 C 
BRANCH   6   7
ATOM      7  C   UNL     1     -14.724  20.588 -12.933  1.00  0.00     0.032 C 
ATOM      8  C   UNL     1     -14.415  19.090 -13.028  1.00  0.00     0.014 C 
BRANCH   7   9
ATOM      9  C   UNL     1     -13.526  21.323 -12.390  1.00  0.00     0.044 C 
ATOM     10  O   UNL     1     -13.581  21.902 -11.273  1.00  0.00    -0.550 OA
ATOM     11  O   UNL     1     -12.347  21.362 -13.125  1.00  0.00    -0.550 OA
ENDBRANCH   7   9
ENDBRANCH   6   7
ENDBRANCH   5   6
ENDBRANCH   4   5
ENDBRANCH   3   4
ENDBRANCH   2   3
ENDBRANCH   1   2
BRANCH   1  12
ATOM     12  C   UNL     1     -16.715  14.721 -13.122  1.00  0.00     0.000 C 
BRANCH  12  13
ATOM     13  C   UNL     1     -16.303  13.509 -12.270  1.00  0.00    -0.000 C 
BRANCH  13  14
ATOM     14  C   UNL     1     -14.802  13.505 -11.940  1.00  0.00    -0.000 C 
BRANCH  14  15
ATOM     15  C   UNL     1     -14.476  12.679 -10.683  1.00  0.00    -0.000 C 
BRANCH  15  16
ATOM     16  C   UNL     1     -15.520  12.854  -9.566  1.00  0.00    -0.000 C 
BRANCH  16  17
ATOM     17  C   UNL     1     -14.997  13.548  -8.294  1.00  0.00    -0.000 C 
BRANCH  17  18
ATOM     18  C   UNL     1     -16.063  13.663  -7.195  1.00  0.00    -0.003 C 
ATOM     19  C   UNL     1     -16.972  14.864  -7.434  1.00  0.00     0.004 C 
ENDBRANCH  17  18
ENDBRANCH  16  17
ENDBRANCH  15  16
ENDBRANCH  14  15
ENDBRANCH  13  14
ENDBRANCH  12  13
ENDBRANCH   1  12
TORSDOF 14
ENDMDL
