MODEL 1
REMARK VINA RESULT:    -4.958      0.000      0.000
REMARK INTER + INTRA:          -6.048
REMARK INTER:                  -5.827
REMARK INTRA:                  -0.221
REMARK UNBOUND:                -0.221
REMARK SMILES O=c1c(O)c(-c2ccc(O)c(O)c2)oc2cc(O)ccc12
REMARK SMILES IDX 5 1 3 2 2 3 1 4 21 5 15 6 14 7 16 8 17 9 19 10 20 11 6 12
REMARK SMILES IDX 7 13 8 14 9 15 13 16 11 17 10 18 12 20 4 22 18 24
REMARK H PARENT 10 19 12 21 4 23 18 25
REMARK Flexibility Score: inf
ROOT
ATOM      1  C   UNL     1      10.637  -5.966  20.757  1.00  0.00     0.180 A 
ATOM      2  C   UNL     1      11.896  -6.271  20.199  1.00  0.00     0.208 A 
ATOM      3  C   UNL     1      12.754  -5.218  19.849  1.00  0.00     0.235 A 
ATOM      4  O   UNL     1      13.881  -5.465  19.339  1.00  0.00    -0.285 OA
ATOM      5  C   UNL     1      12.350  -3.893  20.078  1.00  0.00     0.069 A 
ATOM      6  C   UNL     1      11.084  -3.671  20.662  1.00  0.00     0.142 A 
ATOM      7  O   UNL     1      10.298  -4.696  20.972  1.00  0.00    -0.452 OA
ATOM      8  C   UNL     1      10.650  -2.366  20.916  1.00  0.00     0.094 A 
ATOM      9  C   UNL     1      11.464  -1.276  20.592  1.00  0.00     0.119 A 
ATOM     10  C   UNL     1      12.721  -1.492  20.011  1.00  0.00     0.047 A 
ATOM     11  C   UNL     1      13.165  -2.793  19.755  1.00  0.00     0.020 A 
ENDROOT
BRANCH   1  12
ATOM     12  C   UNL     1       9.669  -7.020  21.135  1.00  0.00     0.025 A 
ATOM     13  C   UNL     1       8.528  -7.225  20.344  1.00  0.00     0.016 A 
ATOM     14  C   UNL     1       7.611  -8.228  20.670  1.00  0.00     0.051 A 
ATOM     15  C   UNL     1       7.827  -9.051  21.779  1.00  0.00     0.157 A 
ATOM     16  C   UNL     1       9.896  -7.863  22.238  1.00  0.00     0.062 A 
ATOM     17  C   UNL     1       8.978  -8.872  22.565  1.00  0.00     0.158 A 
BRANCH  15  18
ATOM     18  O   UNL     1       6.894 -10.042  22.080  1.00  0.00    -0.504 OA
ATOM     19  H   UNL     1       7.138 -11.026  22.088  1.00  0.00     0.293 HD
ENDBRANCH  15  18
BRANCH  17  20
ATOM     20  O   UNL     1       9.207  -9.697  23.665  1.00  0.00    -0.504 OA
ATOM     21  H   UNL     1       8.444 -10.066  24.221  1.00  0.00     0.293 HD
ENDBRANCH  17  20
ENDBRANCH   1  12
BRANCH   2  22
ATOM     22  O   UNL     1      12.291  -7.601  20.028  1.00  0.00    -0.502 OA
ATOM     23  H   UNL     1      11.645  -8.375  20.127  1.00  0.00     0.293 HD
ENDBRANCH   2  22
BRANCH   9  24
ATOM     24  O   UNL     1      11.015   0.018  20.851  1.00  0.00    -0.508 OA
ATOM     25  H   UNL     1      10.925   0.368  21.797  1.00  0.00     0.293 HD
ENDBRANCH   9  24
TORSDOF 5
ENDMDL
MODEL 2
REMARK VINA RESULT:    -4.508      3.329      6.487
REMARK INTER + INTRA:          -5.519
REMARK INTER:                  -5.347
REMARK INTRA:                  -0.173
REMARK UNBOUND:                -0.221
REMARK SMILES O=c1c(O)c(-c2ccc(O)c(O)c2)oc2cc(O)ccc12
REMARK SMILES IDX 5 1 3 2 2 3 1 4 21 5 15 6 14 7 16 8 17 9 19 10 20 11 6 12
REMARK SMILES IDX 7 13 8 14 9 15 13 16 11 17 10 18 12 20 4 22 18 24
REMARK H PARENT 10 19 12 21 4 23 18 25
REMARK Flexibility Score: inf
ROOT
ATOM      1  C   UNL     1      13.227  -4.911  20.420  1.00  0.00     0.180 A 
ATOM      2  C   UNL     1      12.646  -6.100  19.930  1.00  0.00     0.208 A 
ATOM      3  C   UNL     1      13.370  -7.298  20.032  1.00  0.00     0.235 A 
ATOM      4  O   UNL     1      12.876  -8.372  19.591  1.00  0.00    -0.285 OA
ATOM      5  C   UNL     1      14.638  -7.290  20.633  1.00  0.00     0.069 A 
ATOM      6  C   UNL     1      15.139  -6.063  21.120  1.00  0.00     0.142 A 
ATOM      7  O   UNL     1      14.426  -4.949  20.997  1.00  0.00    -0.452 OA
ATOM      8  C   UNL     1      16.395  -6.015  21.735  1.00  0.00     0.094 A 
ATOM      9  C   UNL     1      17.160  -7.178  21.869  1.00  0.00     0.119 A 
ATOM     10  C   UNL     1      16.667  -8.397  21.385  1.00  0.00     0.047 A 
ATOM     11  C   UNL     1      15.412  -8.456  20.771  1.00  0.00     0.020 A 
ENDROOT
BRANCH   1  12
ATOM     12  C   UNL     1      12.535  -3.605  20.333  1.00  0.00     0.025 A 
ATOM     13  C   UNL     1      13.033  -2.618  19.469  1.00  0.00     0.016 A 
ATOM     14  C   UNL     1      12.384  -1.385  19.354  1.00  0.00     0.051 A 
ATOM     15  C   UNL     1      11.222  -1.126  20.087  1.00  0.00     0.157 A 
ATOM     16  C   UNL     1      11.354  -3.351  21.053  1.00  0.00     0.062 A 
ATOM     17  C   UNL     1      10.701  -2.115  20.938  1.00  0.00     0.158 A 
BRANCH  15  18
ATOM     18  O   UNL     1      10.598   0.113  19.953  1.00  0.00    -0.504 OA
ATOM     19  H   UNL     1      10.433   0.721  20.748  1.00  0.00     0.293 HD
ENDBRANCH  15  18
BRANCH  17  20
ATOM     20  O   UNL     1       9.535  -1.869  21.661  1.00  0.00    -0.504 OA
ATOM     21  H   UNL     1       8.650  -2.292  21.404  1.00  0.00     0.293 HD
ENDBRANCH  17  20
ENDBRANCH   1  12
BRANCH   2  22
ATOM     22  O   UNL     1      11.361  -6.086  19.381  1.00  0.00    -0.502 OA
ATOM     23  H   UNL     1      11.072  -5.399  18.695  1.00  0.00     0.293 HD
ENDBRANCH   2  22
BRANCH   9  24
ATOM     24  O   UNL     1      18.409  -7.112  22.483  1.00  0.00    -0.508 OA
ATOM     25  H   UNL     1      18.640  -7.696  23.279  1.00  0.00     0.293 HD
ENDBRANCH   9  24
TORSDOF 5
ENDMDL
MODEL 3
REMARK VINA RESULT:    -4.378     14.008     15.915
REMARK INTER + INTRA:          -5.367
REMARK INTER:                  -5.050
REMARK INTRA:                  -0.317
REMARK UNBOUND:                -0.221
REMARK SMILES O=c1c(O)c(-c2ccc(O)c(O)c2)oc2cc(O)ccc12
REMARK SMILES IDX 5 1 3 2 2 3 1 4 21 5 15 6 14 7 16 8 17 9 19 10 20 11 6 12
REMARK SMILES IDX 7 13 8 14 9 15 13 16 11 17 10 18 12 20 4 22 18 24
REMARK H PARENT 10 19 12 21 4 23 18 25
REMARK Flexibility Score: inf
ROOT
ATOM      1  C   UNL     1      12.007   8.199  25.642  1.00  0.00     0.180 A 
ATOM      2  C   UNL     1      10.649   8.559  25.776  1.00  0.00     0.208 A 
ATOM      3  C   UNL     1       9.960   8.177  26.937  1.00  0.00     0.235 A 
ATOM      4  O   UNL     1       8.742   8.478  27.077  1.00  0.00    -0.285 OA
ATOM      5  C   UNL     1      10.638   7.468  27.941  1.00  0.00     0.069 A 
ATOM      6  C   UNL     1      12.003   7.166  27.741  1.00  0.00     0.142 A 
ATOM      7  O   UNL     1      12.617   7.539  26.623  1.00  0.00    -0.452 OA
ATOM      8  C   UNL     1      12.717   6.470  28.722  1.00  0.00     0.094 A 
ATOM      9  C   UNL     1      12.084   6.067  29.903  1.00  0.00     0.119 A 
ATOM     10  C   UNL     1      10.729   6.363  30.104  1.00  0.00     0.047 A 
ATOM     11  C   UNL     1      10.007   7.061  29.130  1.00  0.00     0.020 A 
ENDROOT
BRANCH   1  12
ATOM     12  C   UNL     1      12.796   8.549  24.439  1.00  0.00     0.025 A 
ATOM     13  C   UNL     1      13.468   9.780  24.389  1.00  0.00     0.016 A 
ATOM     14  C   UNL     1      14.236  10.122  23.274  1.00  0.00     0.051 A 
ATOM     15  C   UNL     1      14.358   9.236  22.199  1.00  0.00     0.157 A 
ATOM     16  C   UNL     1      12.937   7.649  23.367  1.00  0.00     0.062 A 
ATOM     17  C   UNL     1      13.710   7.990  22.247  1.00  0.00     0.158 A 
BRANCH  15  18
ATOM     18  O   UNL     1      15.130   9.606  21.098  1.00  0.00    -0.504 OA
ATOM     19  H   UNL     1      15.428   8.934  20.400  1.00  0.00     0.293 HD
ENDBRANCH  15  18
BRANCH  17  20
ATOM     20  O   UNL     1      13.837   7.096  21.186  1.00  0.00    -0.504 OA
ATOM     21  H   UNL     1      14.345   6.224  21.283  1.00  0.00     0.293 HD
ENDBRANCH  17  20
ENDBRANCH   1  12
BRANCH   2  22
ATOM     22  O   UNL     1      10.014   9.309  24.783  1.00  0.00    -0.502 OA
ATOM     23  H   UNL     1      10.504   9.652  23.965  1.00  0.00     0.293 HD
ENDBRANCH   2  22
BRANCH   9  24
ATOM     24  O   UNL     1      12.809   5.374  30.869  1.00  0.00    -0.508 OA
ATOM     25  H   UNL     1      12.353   4.764  31.537  1.00  0.00     0.293 HD
ENDBRANCH   9  24
TORSDOF 5
ENDMDL
MODEL 4
REMARK VINA RESULT:    -4.378     12.803     15.599
REMARK INTER + INTRA:          -5.367
REMARK INTER:                  -5.051
REMARK INTRA:                  -0.316
REMARK UNBOUND:                -0.221
REMARK SMILES O=c1c(O)c(-c2ccc(O)c(O)c2)oc2cc(O)ccc12
REMARK SMILES IDX 5 1 3 2 2 3 1 4 21 5 15 6 14 7 16 8 17 9 19 10 20 11 6 12
REMARK SMILES IDX 7 13 8 14 9 15 13 16 11 17 10 18 12 20 4 22 18 24
REMARK H PARENT 10 19 12 21 4 23 18 25
REMARK Flexibility Score: inf
ROOT
ATOM      1  C   UNL     1      13.948   8.606  21.652  1.00  0.00     0.180 A 
ATOM      2  C   UNL     1      13.070   9.141  22.619  1.00  0.00     0.208 A 
ATOM      3  C   UNL     1      13.606   9.647  23.813  1.00  0.00     0.235 A 
ATOM      4  O   UNL     1      12.840  10.121  24.697  1.00  0.00    -0.285 OA
ATOM      5  C   UNL     1      14.995   9.628  24.009  1.00  0.00     0.069 A 
ATOM      6  C   UNL     1      15.808   9.097  22.984  1.00  0.00     0.142 A 
ATOM      7  O   UNL     1      15.261   8.621  21.871  1.00  0.00    -0.452 OA
ATOM      8  C   UNL     1      17.198   9.071  23.136  1.00  0.00     0.094 A 
ATOM      9  C   UNL     1      17.790   9.565  24.303  1.00  0.00     0.119 A 
ATOM     10  C   UNL     1      16.986  10.091  25.324  1.00  0.00     0.047 A 
ATOM     11  C   UNL     1      15.596  10.125  25.180  1.00  0.00     0.020 A 
ENDROOT
BRANCH   1  12
ATOM     12  C   UNL     1      13.459   8.037  20.376  1.00  0.00     0.025 A 
ATOM     13  C   UNL     1      13.070   6.689  20.327  1.00  0.00     0.016 A 
ATOM     14  C   UNL     1      12.586   6.135  19.139  1.00  0.00     0.051 A 
ATOM     15  C   UNL     1      12.467   6.921  17.989  1.00  0.00     0.157 A 
ATOM     16  C   UNL     1      13.318   8.831  19.225  1.00  0.00     0.062 A 
ATOM     17  C   UNL     1      12.830   8.278  18.032  1.00  0.00     0.158 A 
BRANCH  15  18
ATOM     18  O   UNL     1      11.982   6.340  16.818  1.00  0.00    -0.504 OA
ATOM     19  H   UNL     1      12.578   5.808  16.194  1.00  0.00     0.293 HD
ENDBRANCH  15  18
BRANCH  17  20
ATOM     20  O   UNL     1      12.701   9.071  16.893  1.00  0.00    -0.504 OA
ATOM     21  H   UNL     1      12.583  10.076  16.956  1.00  0.00     0.293 HD
ENDBRANCH  17  20
ENDBRANCH   1  12
BRANCH   2  22
ATOM     22  O   UNL     1      11.695   9.191  22.375  1.00  0.00    -0.502 OA
ATOM     23  H   UNL     1      11.072   9.788  22.906  1.00  0.00     0.293 HD
ENDBRANCH   2  22
BRANCH   9  24
ATOM     24  O   UNL     1      19.176   9.530  24.440  1.00  0.00    -0.508 OA
ATOM     25  H   UNL     1      19.689   8.657  24.412  1.00  0.00     0.293 HD
ENDBRANCH   9  24
TORSDOF 5
ENDMDL
MODEL 5
REMARK VINA RESULT:    -4.353     12.739     15.216
REMARK INTER + INTRA:          -5.337
REMARK INTER:                  -5.176
REMARK INTRA:                  -0.161
REMARK UNBOUND:                -0.221
REMARK SMILES O=c1c(O)c(-c2ccc(O)c(O)c2)oc2cc(O)ccc12
REMARK SMILES IDX 5 1 3 2 2 3 1 4 21 5 15 6 14 7 16 8 17 9 19 10 20 11 6 12
REMARK SMILES IDX 7 13 8 14 9 15 13 16 11 17 10 18 12 20 4 22 18 24
REMARK H PARENT 10 19 12 21 4 23 18 25
REMARK Flexibility Score: inf
ROOT
ATOM      1  C   UNL     1      13.212   8.376  22.154  1.00  0.00     0.180 A 
ATOM      2  C   UNL     1      14.371   9.044  22.603  1.00  0.00     0.208 A 
ATOM      3  C   UNL     1      14.412   9.513  23.925  1.00  0.00     0.235 A 
ATOM      4  O   UNL     1      15.433  10.122  24.346  1.00  0.00    -0.285 OA
ATOM      5  C   UNL     1      13.314   9.292  24.770  1.00  0.00     0.069 A 
ATOM      6  C   UNL     1      12.200   8.595  24.252  1.00  0.00     0.142 A 
ATOM      7  O   UNL     1      12.198   8.174  22.993  1.00  0.00    -0.452 OA
ATOM      8  C   UNL     1      11.091   8.345  25.067  1.00  0.00     0.094 A 
ATOM      9  C   UNL     1      11.076   8.785  26.395  1.00  0.00     0.119 A 
ATOM     10  C   UNL     1      12.179   9.479  26.912  1.00  0.00     0.047 A 
ATOM     11  C   UNL     1      13.294   9.731  26.106  1.00  0.00     0.020 A 
ENDROOT
BRANCH   1  12
ATOM     12  C   UNL     1      13.084   7.868  20.769  1.00  0.00     0.025 A 
ATOM     13  C   UNL     1      12.876   6.497  20.554  1.00  0.00     0.016 A 
ATOM     14  C   UNL     1      12.732   5.999  19.257  1.00  0.00     0.051 A 
ATOM     15  C   UNL     1      12.778   6.861  18.158  1.00  0.00     0.157 A 
ATOM     16  C   UNL     1      13.108   8.738  19.664  1.00  0.00     0.062 A 
ATOM     17  C   UNL     1      12.962   8.239  18.361  1.00  0.00     0.158 A 
BRANCH  15  18
ATOM     18  O   UNL     1      12.633   6.334  16.875  1.00  0.00    -0.504 OA
ATOM     19  H   UNL     1      11.724   6.197  16.449  1.00  0.00     0.293 HD
ENDBRANCH  15  18
BRANCH  17  20
ATOM     20  O   UNL     1      12.995   9.107  17.271  1.00  0.00    -0.504 OA
ATOM     21  H   UNL     1      13.328   8.807  16.362  1.00  0.00     0.293 HD
ENDBRANCH  17  20
ENDBRANCH   1  12
BRANCH   2  22
ATOM     22  O   UNL     1      15.468   9.206  21.753  1.00  0.00    -0.502 OA
ATOM     23  H   UNL     1      15.841   8.445  21.198  1.00  0.00     0.293 HD
ENDBRANCH   2  22
BRANCH   9  24
ATOM     24  O   UNL     1       9.963   8.528  27.191  1.00  0.00    -0.508 OA
ATOM     25  H   UNL     1      10.052   8.095  28.103  1.00  0.00     0.293 HD
ENDBRANCH   9  24
TORSDOF 5
ENDMDL
MODEL 6
REMARK VINA RESULT:    -4.306      8.133      9.697
REMARK INTER + INTRA:          -5.283
REMARK INTER:                  -4.959
REMARK INTRA:                  -0.323
REMARK UNBOUND:                -0.221
REMARK SMILES O=c1c(O)c(-c2ccc(O)c(O)c2)oc2cc(O)ccc12
REMARK SMILES IDX 5 1 3 2 2 3 1 4 21 5 15 6 14 7 16 8 17 9 19 10 20 11 6 12
REMARK SMILES IDX 7 13 8 14 9 15 13 16 11 17 10 18 12 20 4 22 18 24
REMARK H PARENT 10 19 12 21 4 23 18 25
REMARK Flexibility Score: inf
ROOT
ATOM      1  C   UNL     1      10.514  -1.433  14.030  1.00  0.00     0.180 A 
ATOM      2  C   UNL     1      11.791  -1.284  14.610  1.00  0.00     0.208 A 
ATOM      3  C   UNL     1      12.773  -2.250  14.341  1.00  0.00     0.235 A 
ATOM      4  O   UNL     1      13.920  -2.145  14.856  1.00  0.00    -0.285 OA
ATOM      5  C   UNL     1      12.469  -3.326  13.492  1.00  0.00     0.069 A 
ATOM      6  C   UNL     1      11.174  -3.391  12.933  1.00  0.00     0.142 A 
ATOM      7  O   UNL     1      10.271  -2.460  13.218  1.00  0.00    -0.452 OA
ATOM      8  C   UNL     1      10.835  -4.441  12.073  1.00  0.00     0.094 A 
ATOM      9  C   UNL     1      11.773  -5.432  11.765  1.00  0.00     0.119 A 
ATOM     10  C   UNL     1      13.059  -5.372  12.320  1.00  0.00     0.047 A 
ATOM     11  C   UNL     1      13.408  -4.324  13.178  1.00  0.00     0.020 A 
ENDROOT
BRANCH   1  12
ATOM     12  C   UNL     1       9.420  -0.466  14.280  1.00  0.00     0.025 A 
ATOM     13  C   UNL     1       9.213   0.588  13.377  1.00  0.00     0.016 A 
ATOM     14  C   UNL     1       8.175   1.500  13.581  1.00  0.00     0.051 A 
ATOM     15  C   UNL     1       7.319   1.365  14.678  1.00  0.00     0.157 A 
ATOM     16  C   UNL     1       8.546  -0.614  15.371  1.00  0.00     0.062 A 
ATOM     17  C   UNL     1       7.502   0.300  15.576  1.00  0.00     0.158 A 
BRANCH  15  18
ATOM     18  O   UNL     1       6.293   2.292  14.857  1.00  0.00    -0.504 OA
ATOM     19  H   UNL     1       6.414   3.276  14.648  1.00  0.00     0.293 HD
ENDBRANCH  15  18
BRANCH  17  20
ATOM     20  O   UNL     1       6.644   0.151  16.665  1.00  0.00    -0.504 OA
ATOM     21  H   UNL     1       6.492   0.901  17.329  1.00  0.00     0.293 HD
ENDBRANCH  17  20
ENDBRANCH   1  12
BRANCH   2  22
ATOM     22  O   UNL     1      12.080  -0.177  15.411  1.00  0.00    -0.502 OA
ATOM     23  H   UNL     1      12.158   0.760  15.034  1.00  0.00     0.293 HD
ENDBRANCH   2  22
BRANCH   9  24
ATOM     24  O   UNL     1      11.419  -6.471  10.908  1.00  0.00    -0.508 OA
ATOM     25  H   UNL     1      11.976  -7.315  10.839  1.00  0.00     0.293 HD
ENDBRANCH   9  24
TORSDOF 5
ENDMDL
MODEL 7
REMARK VINA RESULT:    -4.193      7.650     10.341
REMARK INTER + INTRA:          -5.149
REMARK INTER:                  -4.833
REMARK INTRA:                  -0.316
REMARK UNBOUND:                -0.221
REMARK SMILES O=c1c(O)c(-c2ccc(O)c(O)c2)oc2cc(O)ccc12
REMARK SMILES IDX 5 1 3 2 2 3 1 4 21 5 15 6 14 7 16 8 17 9 19 10 20 11 6 12
REMARK SMILES IDX 7 13 8 14 9 15 13 16 11 17 10 18 12 20 4 22 18 24
REMARK H PARENT 10 19 12 21 4 23 18 25
REMARK Flexibility Score: inf
ROOT
ATOM      1  C   UNL     1      10.737   0.415  14.078  1.00  0.00     0.180 A 
ATOM      2  C   UNL     1       9.365   0.270  14.372  1.00  0.00     0.208 A 
ATOM      3  C   UNL     1       8.467   1.244  13.909  1.00  0.00     0.235 A 
ATOM      4  O   UNL     1       7.236   1.142  14.168  1.00  0.00    -0.285 OA
ATOM      5  C   UNL     1       8.949   2.323  13.152  1.00  0.00     0.069 A 
ATOM      6  C   UNL     1      10.333   2.385  12.881  1.00  0.00     0.142 A 
ATOM      7  O   UNL     1      11.151   1.446  13.344  1.00  0.00    -0.452 OA
ATOM      8  C   UNL     1      10.851   3.439  12.121  1.00  0.00     0.094 A 
ATOM      9  C   UNL     1      10.004   4.437  11.629  1.00  0.00     0.119 A 
ATOM     10  C   UNL     1       8.629   4.381  11.898  1.00  0.00     0.047 A 
ATOM     11  C   UNL     1       8.102   3.330  12.655  1.00  0.00     0.020 A 
ENDROOT
BRANCH   1  12
ATOM     12  C   UNL     1      11.748  -0.560  14.546  1.00  0.00     0.025 A 
ATOM     13  C   UNL     1      12.039  -1.683  13.757  1.00  0.00     0.016 A 
ATOM     14  C   UNL     1      13.005  -2.606  14.169  1.00  0.00     0.051 A 
ATOM     15  C   UNL     1      13.704  -2.413  15.364  1.00  0.00     0.157 A 
ATOM     16  C   UNL     1      12.467  -0.355  15.736  1.00  0.00     0.062 A 
ATOM     17  C   UNL     1      13.439  -1.279  16.150  1.00  0.00     0.158 A 
BRANCH  15  18
ATOM     18  O   UNL     1      14.660  -3.351  15.749  1.00  0.00    -0.504 OA
ATOM     19  H   UNL     1      14.431  -4.329  15.883  1.00  0.00     0.293 HD
ENDBRANCH  15  18
BRANCH  17  20
ATOM     20  O   UNL     1      14.142  -1.073  17.336  1.00  0.00    -0.504 OA
ATOM     21  H   UNL     1      15.023  -1.539  17.520  1.00  0.00     0.293 HD
ENDBRANCH  17  20
ENDBRANCH   1  12
BRANCH   2  22
ATOM     22  O   UNL     1       8.907  -0.841  15.085  1.00  0.00    -0.502 OA
ATOM     23  H   UNL     1       8.187  -0.772  15.794  1.00  0.00     0.293 HD
ENDBRANCH   2  22
BRANCH   9  24
ATOM     24  O   UNL     1      10.536   5.481  10.876  1.00  0.00    -0.508 OA
ATOM     25  H   UNL     1      10.810   5.351   9.909  1.00  0.00     0.293 HD
ENDBRANCH   9  24
TORSDOF 5
ENDMDL
MODEL 8
REMARK VINA RESULT:    -4.128      8.138     10.707
REMARK INTER + INTRA:          -5.073
REMARK INTER:                  -4.757
REMARK INTRA:                  -0.316
REMARK UNBOUND:                -0.221
REMARK SMILES O=c1c(O)c(-c2ccc(O)c(O)c2)oc2cc(O)ccc12
REMARK SMILES IDX 5 1 3 2 2 3 1 4 21 5 15 6 14 7 16 8 17 9 19 10 20 11 6 12
REMARK SMILES IDX 7 13 8 14 9 15 13 16 11 17 10 18 12 20 4 22 18 24
REMARK H PARENT 10 19 12 21 4 23 18 25
REMARK Flexibility Score: inf
ROOT
ATOM      1  C   UNL     1       8.654   0.531  14.310  1.00  0.00     0.180 A 
ATOM      2  C   UNL     1       7.655   0.377  15.294  1.00  0.00     0.208 A 
ATOM      3  C   UNL     1       6.530   1.214  15.252  1.00  0.00     0.235 A 
ATOM      4  O   UNL     1       5.627   1.103  16.127  1.00  0.00    -0.285 OA
ATOM      5  C   UNL     1       6.415   2.166  14.227  1.00  0.00     0.069 A 
ATOM      6  C   UNL     1       7.447   2.242  13.266  1.00  0.00     0.142 A 
ATOM      7  O   UNL     1       8.500   1.436  13.346  1.00  0.00    -0.452 OA
ATOM      8  C   UNL     1       7.364   3.170  12.222  1.00  0.00     0.094 A 
ATOM      9  C   UNL     1       6.264   4.028  12.126  1.00  0.00     0.119 A 
ATOM     10  C   UNL     1       5.239   3.957  13.079  1.00  0.00     0.047 A 
ATOM     11  C   UNL     1       5.311   3.031  14.125  1.00  0.00     0.020 A 
ENDROOT
BRANCH   1  12
ATOM     12  C   UNL     1       9.879  -0.301  14.297  1.00  0.00     0.025 A 
ATOM     13  C   UNL     1      10.990   0.096  15.057  1.00  0.00     0.016 A 
ATOM     14  C   UNL     1      12.149  -0.684  15.077  1.00  0.00     0.051 A 
ATOM     15  C   UNL     1      12.210  -1.878  14.353  1.00  0.00     0.157 A 
ATOM     16  C   UNL     1       9.934  -1.513  13.587  1.00  0.00     0.062 A 
ATOM     17  C   UNL     1      11.097  -2.299  13.608  1.00  0.00     0.158 A 
BRANCH  15  18
ATOM     18  O   UNL     1      13.381  -2.635  14.391  1.00  0.00    -0.504 OA
ATOM     19  H   UNL     1      13.861  -2.926  13.547  1.00  0.00     0.293 HD
ENDBRANCH  15  18
BRANCH  17  20
ATOM     20  O   UNL     1      11.145  -3.496  12.894  1.00  0.00    -0.504 OA
ATOM     21  H   UNL     1      11.088  -4.395  13.359  1.00  0.00     0.293 HD
ENDBRANCH  17  20
ENDBRANCH   1  12
BRANCH   2  22
ATOM     22  O   UNL     1       7.773  -0.612  16.274  1.00  0.00    -0.502 OA
ATOM     23  H   UNL     1       7.422  -0.487  17.216  1.00  0.00     0.293 HD
ENDBRANCH   2  22
BRANCH   9  24
ATOM     24  O   UNL     1       6.199   4.947  11.082  1.00  0.00    -0.508 OA
ATOM     25  H   UNL     1       5.547   4.832  10.314  1.00  0.00     0.293 HD
ENDBRANCH   9  24
TORSDOF 5
ENDMDL
MODEL 9
REMARK VINA RESULT:    -3.857     12.827     15.691
REMARK INTER + INTRA:          -4.755
REMARK INTER:                  -4.474
REMARK INTRA:                  -0.281
REMARK UNBOUND:                -0.221
REMARK SMILES O=c1c(O)c(-c2ccc(O)c(O)c2)oc2cc(O)ccc12
REMARK SMILES IDX 5 1 3 2 2 3 1 4 21 5 15 6 14 7 16 8 17 9 19 10 20 11 6 12
REMARK SMILES IDX 7 13 8 14 9 15 13 16 11 17 10 18 12 20 4 22 18 24
REMARK H PARENT 10 19 12 21 4 23 18 25
REMARK Flexibility Score: inf
ROOT
ATOM      1  C   UNL     1      13.042   8.922  17.809  1.00  0.00     0.180 A 
ATOM      2  C   UNL     1      11.802   9.240  17.214  1.00  0.00     0.208 A 
ATOM      3  C   UNL     1      11.781   9.642  15.870  1.00  0.00     0.235 A 
ATOM      4  O   UNL     1      10.686   9.941  15.318  1.00  0.00    -0.285 OA
ATOM      5  C   UNL     1      12.983   9.701  15.147  1.00  0.00     0.069 A 
ATOM      6  C   UNL     1      14.179   9.345  15.808  1.00  0.00     0.142 A 
ATOM      7  O   UNL     1      14.157   8.977  17.084  1.00  0.00    -0.452 OA
ATOM      8  C   UNL     1      15.396   9.380  15.119  1.00  0.00     0.094 A 
ATOM      9  C   UNL     1      15.436   9.769  13.776  1.00  0.00     0.119 A 
ATOM     10  C   UNL     1      14.251  10.125  13.117  1.00  0.00     0.047 A 
ATOM     11  C   UNL     1      13.029  10.091  13.796  1.00  0.00     0.020 A 
ENDROOT
BRANCH   1  12
ATOM     12  C   UNL     1      13.149   8.508  19.226  1.00  0.00     0.025 A 
ATOM     13  C   UNL     1      13.514   9.455  20.196  1.00  0.00     0.016 A 
ATOM     14  C   UNL     1      13.601   9.092  21.542  1.00  0.00     0.051 A 
ATOM     15  C   UNL     1      13.311   7.784  21.942  1.00  0.00     0.157 A 
ATOM     16  C   UNL     1      12.837   7.199  19.633  1.00  0.00     0.062 A 
ATOM     17  C   UNL     1      12.923   6.832  20.984  1.00  0.00     0.158 A 
BRANCH  15  18
ATOM     18  O   UNL     1      13.409   7.450  23.292  1.00  0.00    -0.504 OA
ATOM     19  H   UNL     1      14.149   7.811  23.883  1.00  0.00     0.293 HD
ENDBRANCH  15  18
BRANCH  17  20
ATOM     20  O   UNL     1      12.619   5.530  21.377  1.00  0.00    -0.504 OA
ATOM     21  H   UNL     1      11.731   5.298  21.807  1.00  0.00     0.293 HD
ENDBRANCH  17  20
ENDBRANCH   1  12
BRANCH   2  22
ATOM     22  O   UNL     1      10.617   9.124  17.944  1.00  0.00    -0.502 OA
ATOM     23  H   UNL     1       9.816   9.722  17.776  1.00  0.00     0.293 HD
ENDBRANCH   2  22
BRANCH   9  24
ATOM     24  O   UNL     1      16.657   9.800  13.106  1.00  0.00    -0.508 OA
ATOM     25  H   UNL     1      17.536   9.842  13.607  1.00  0.00     0.293 HD
ENDBRANCH   9  24
TORSDOF 5
ENDMDL
