MODEL 1
REMARK VINA RESULT:    -3.207      0.000      0.000
REMARK INTER + INTRA:          -3.877
REMARK INTER:                  -3.770
REMARK INTRA:                  -0.108
REMARK UNBOUND:                -0.108
REMARK SMILES CCCCC(=O)[O-]
REMARK SMILES IDX 4 1 5 2 6 3 7 4 3 5 2 6 1 7
REMARK H PARENT
REMARK Flexibility Score: inf
ROOT
ATOM      1  C   UNL     1     191.918   3.554  95.497  1.00  0.00     0.053 C 
ENDROOT
BRANCH   1   2
ATOM      2  C   UNL     1     192.038   2.183  94.908  1.00  0.00     0.041 C 
ATOM      3  O   UNL     1     192.604   1.262  95.553  1.00  0.00    -0.550 OA
ATOM      4  O   UNL     1     191.550   1.929  93.632  1.00  0.00    -0.550 OA
ENDBRANCH   1   2
BRANCH   1   5
ATOM      5  C   UNL     1     190.944   3.585  96.685  1.00  0.00     0.006 C 
BRANCH   5   6
ATOM      6  C   UNL     1     191.613   3.878  98.041  1.00  0.00    -0.003 C 
ATOM      7  C   UNL     1     191.905   2.613  98.845  1.00  0.00     0.004 C 
ENDBRANCH   5   6
ENDBRANCH   1   5
TORSDOF 3
ENDMDL
MODEL 2
REMARK VINA RESULT:    -3.177      1.461      1.921
REMARK INTER + INTRA:          -3.842
REMARK INTER:                  -3.735
REMARK INTRA:                  -0.106
REMARK UNBOUND:                -0.108
REMARK SMILES CCCCC(=O)[O-]
REMARK SMILES IDX 4 1 5 2 6 3 7 4 3 5 2 6 1 7
REMARK H PARENT
REMARK Flexibility Score: inf
ROOT
ATOM      1  C   UNL     1     190.283   3.527  95.957  1.00  0.00     0.053 C 
ENDROOT
BRANCH   1   2
ATOM      2  C   UNL     1     191.559   3.606  95.177  1.00  0.00     0.041 C 
ATOM      3  O   UNL     1     191.926   4.697  94.668  1.00  0.00    -0.550 OA
ATOM      4  O   UNL     1     192.329   2.465  94.986  1.00  0.00    -0.550 OA
ENDBRANCH   1   2
BRANCH   1   5
ATOM      5  C   UNL     1     190.425   4.149  97.354  1.00  0.00     0.006 C 
BRANCH   5   6
ATOM      6  C   UNL     1     191.454   3.444  98.257  1.00  0.00    -0.003 C 
ATOM      7  C   UNL     1     192.443   4.414  98.900  1.00  0.00     0.004 C 
ENDBRANCH   5   6
ENDBRANCH   1   5
TORSDOF 3
ENDMDL
MODEL 3
REMARK VINA RESULT:    -3.119      2.767      3.230
REMARK INTER + INTRA:          -3.774
REMARK INTER:                  -3.680
REMARK INTRA:                  -0.093
REMARK UNBOUND:                -0.108
REMARK SMILES CCCCC(=O)[O-]
REMARK SMILES IDX 4 1 5 2 6 3 7 4 3 5 2 6 1 7
REMARK H PARENT
REMARK Flexibility Score: inf
ROOT
ATOM      1  C   UNL     1     189.456   3.826  98.240  1.00  0.00     0.053 C 
ENDROOT
BRANCH   1   2
ATOM      2  C   UNL     1     188.913   3.502  96.883  1.00  0.00     0.041 C 
ATOM      3  O   UNL     1     187.700   3.194  96.742  1.00  0.00    -0.550 OA
ATOM      4  O   UNL     1     189.754   3.509  95.777  1.00  0.00    -0.550 OA
ENDBRANCH   1   2
BRANCH   1   5
ATOM      5  C   UNL     1     190.625   4.820  98.167  1.00  0.00     0.006 C 
BRANCH   5   6
ATOM      6  C   UNL     1     191.977   4.238  98.617  1.00  0.00    -0.003 C 
ATOM      7  C   UNL     1     191.904   2.745  98.934  1.00  0.00     0.004 C 
ENDBRANCH   5   6
ENDBRANCH   1   5
TORSDOF 3
ENDMDL
MODEL 4
REMARK VINA RESULT:    -3.098      2.380      2.995
REMARK INTER + INTRA:          -3.750
REMARK INTER:                  -3.704
REMARK INTRA:                  -0.045
REMARK UNBOUND:                -0.108
REMARK SMILES CCCCC(=O)[O-]
REMARK SMILES IDX 4 1 5 2 6 3 7 4 3 5 2 6 1 7
REMARK H PARENT
REMARK Flexibility Score: inf
ROOT
ATOM      1  C   UNL     1     190.147   4.145  98.117  1.00  0.00     0.053 C 
ENDROOT
BRANCH   1   2
ATOM      2  C   UNL     1     189.580   3.528  96.877  1.00  0.00     0.041 C 
ATOM      3  O   UNL     1     190.297   3.390  95.851  1.00  0.00    -0.550 OA
ATOM      4  O   UNL     1     188.249   3.131  96.843  1.00  0.00    -0.550 OA
ENDBRANCH   1   2
BRANCH   1   5
ATOM      5  C   UNL     1     191.650   3.862  98.263  1.00  0.00     0.006 C 
BRANCH   5   6
ATOM      6  C   UNL     1     191.979   2.452  98.784  1.00  0.00    -0.003 C 
ATOM      7  C   UNL     1     192.775   2.470 100.087  1.00  0.00     0.004 C 
ENDBRANCH   5   6
ENDBRANCH   1   5
TORSDOF 3
ENDMDL
MODEL 5
REMARK VINA RESULT:    -3.023      2.553      3.856
REMARK INTER + INTRA:          -3.661
REMARK INTER:                  -3.572
REMARK INTRA:                  -0.090
REMARK UNBOUND:                -0.108
REMARK SMILES CCCCC(=O)[O-]
REMARK SMILES IDX 4 1 5 2 6 3 7 4 3 5 2 6 1 7
REMARK H PARENT
REMARK Flexibility Score: inf
ROOT
ATOM      1  C   UNL     1     190.546   4.257  97.749  1.00  0.00     0.053 C 
ENDROOT
BRANCH   1   2
ATOM      2  C   UNL     1     191.714   3.802  98.568  1.00  0.00     0.041 C 
ATOM      3  O   UNL     1     192.585   4.628  98.946  1.00  0.00    -0.550 OA
ATOM      4  O   UNL     1     191.858   2.457  98.886  1.00  0.00    -0.550 OA
ENDBRANCH   1   2
BRANCH   1   5
ATOM      5  C   UNL     1     190.427   3.473  96.433  1.00  0.00     0.006 C 
BRANCH   5   6
ATOM      6  C   UNL     1     191.689   3.523  95.553  1.00  0.00    -0.003 C 
ATOM      7  C   UNL     1     191.631   4.622  94.494  1.00  0.00     0.004 C 
ENDBRANCH   5   6
ENDBRANCH   1   5
TORSDOF 3
ENDMDL
MODEL 6
REMARK VINA RESULT:    -2.933      1.669      2.300
REMARK INTER + INTRA:          -3.555
REMARK INTER:                  -3.473
REMARK INTRA:                  -0.082
REMARK UNBOUND:                -0.108
REMARK SMILES CCCCC(=O)[O-]
REMARK SMILES IDX 4 1 5 2 6 3 7 4 3 5 2 6 1 7
REMARK H PARENT
REMARK Flexibility Score: inf
ROOT
ATOM      1  C   UNL     1     190.341   3.485  95.917  1.00  0.00     0.053 C 
ENDROOT
BRANCH   1   2
ATOM      2  C   UNL     1     191.317   3.604  94.788  1.00  0.00     0.041 C 
ATOM      3  O   UNL     1     191.772   4.731  94.458  1.00  0.00    -0.550 OA
ATOM      4  O   UNL     1     191.701   2.473  94.078  1.00  0.00    -0.550 OA
ENDBRANCH   1   2
BRANCH   1   5
ATOM      5  C   UNL     1     191.044   3.474  97.283  1.00  0.00     0.006 C 
BRANCH   5   6
ATOM      6  C   UNL     1     190.604   4.607  98.228  1.00  0.00    -0.003 C 
ATOM      7  C   UNL     1     189.459   5.444  97.658  1.00  0.00     0.004 C 
ENDBRANCH   5   6
ENDBRANCH   1   5
TORSDOF 3
ENDMDL
MODEL 7
REMARK VINA RESULT:    -2.933      3.125      4.360
REMARK INTER + INTRA:          -3.555
REMARK INTER:                  -3.475
REMARK INTRA:                  -0.081
REMARK UNBOUND:                -0.108
REMARK SMILES CCCCC(=O)[O-]
REMARK SMILES IDX 4 1 5 2 6 3 7 4 3 5 2 6 1 7
REMARK H PARENT
REMARK Flexibility Score: inf
ROOT
ATOM      1  C   UNL     1     192.337   1.997  99.190  1.00  0.00     0.053 C 
ENDROOT
BRANCH   1   2
ATOM      2  C   UNL     1     191.749   3.278  98.686  1.00  0.00     0.041 C 
ATOM      3  O   UNL     1     190.651   3.275  98.070  1.00  0.00    -0.550 OA
ATOM      4  O   UNL     1     192.431   4.475  98.870  1.00  0.00    -0.550 OA
ENDBRANCH   1   2
BRANCH   1   5
ATOM      5  C   UNL     1     191.684   1.545 100.506  1.00  0.00     0.006 C 
BRANCH   5   6
ATOM      6  C   UNL     1     192.681   1.307 101.655  1.00  0.00    -0.003 C 
ATOM      7  C   UNL     1     193.576   2.515 101.923  1.00  0.00     0.004 C 
ENDBRANCH   5   6
ENDBRANCH   1   5
TORSDOF 3
ENDMDL
MODEL 8
REMARK VINA RESULT:    -2.879      2.990      3.921
REMARK INTER + INTRA:          -3.492
REMARK INTER:                  -3.357
REMARK INTRA:                  -0.135
REMARK UNBOUND:                -0.108
REMARK SMILES CCCCC(=O)[O-]
REMARK SMILES IDX 4 1 5 2 6 3 7 4 3 5 2 6 1 7
REMARK H PARENT
REMARK Flexibility Score: inf
ROOT
ATOM      1  C   UNL     1     189.839   3.836  98.053  1.00  0.00     0.053 C 
ENDROOT
BRANCH   1   2
ATOM      2  C   UNL     1     188.882   4.352  97.024  1.00  0.00     0.041 C 
ATOM      3  O   UNL     1     188.878   5.573  96.717  1.00  0.00    -0.550 OA
ATOM      4  O   UNL     1     187.972   3.489  96.426  1.00  0.00    -0.550 OA
ENDBRANCH   1   2
BRANCH   1   5
ATOM      5  C   UNL     1     191.292   3.869  97.554  1.00  0.00     0.006 C 
BRANCH   5   6
ATOM      6  C   UNL     1     191.514   3.144  96.214  1.00  0.00    -0.003 C 
ATOM      7  C   UNL     1     192.105   4.052  95.138  1.00  0.00     0.004 C 
ENDBRANCH   5   6
ENDBRANCH   1   5
TORSDOF 3
ENDMDL
MODEL 9
REMARK VINA RESULT:    -2.841      2.708      3.705
REMARK INTER + INTRA:          -3.447
REMARK INTER:                  -3.327
REMARK INTRA:                  -0.120
REMARK UNBOUND:                -0.108
REMARK SMILES CCCCC(=O)[O-]
REMARK SMILES IDX 4 1 5 2 6 3 7 4 3 5 2 6 1 7
REMARK H PARENT
REMARK Flexibility Score: inf
ROOT
ATOM      1  C   UNL     1     189.632   3.488  96.537  1.00  0.00     0.053 C 
ENDROOT
BRANCH   1   2
ATOM      2  C   UNL     1     190.240   3.937  97.830  1.00  0.00     0.041 C 
ATOM      3  O   UNL     1     190.832   3.111  98.574  1.00  0.00    -0.550 OA
ATOM      4  O   UNL     1     190.124   5.263  98.229  1.00  0.00    -0.550 OA
ENDBRANCH   1   2
BRANCH   1   5
ATOM      5  C   UNL     1     190.400   4.034  95.323  1.00  0.00     0.006 C 
BRANCH   5   6
ATOM      6  C   UNL     1     191.889   3.644  95.292  1.00  0.00    -0.003 C 
ATOM      7  C   UNL     1     192.108   2.157  95.016  1.00  0.00     0.004 C 
ENDBRANCH   5   6
ENDBRANCH   1   5
TORSDOF 3
ENDMDL
