MODEL 1
REMARK VINA RESULT:    -2.115      0.000      0.000
REMARK INTER + INTRA:          -3.449
REMARK INTER:                  -3.229
REMARK INTRA:                  -0.220
REMARK UNBOUND:                -0.220
REMARK SMILES CC1=CCC[C@@H](C)C(=O)C[C@H](C(C)C)C(=O)C1
REMARK SMILES IDX 8 1 9 2 6 3 7 4 5 5 4 6 3 7 2 8 1 9 10 11 11 12 15 13 16 14
REMARK SMILES IDX 17 15 12 17 13 18 14 19
REMARK H PARENT
REMARK Flexibility Score: 70.00
ROOT
ATOM      1  C   UNL     1      66.602   6.350  53.041  1.00  0.00     0.136 C 
ATOM      2  O   UNL     1      65.495   6.855  52.919  1.00  0.00    -0.299 OA
ENDROOT
BRANCH   1   3
ATOM      3  C   UNL     1      67.774   7.187  53.524  1.00  0.00     0.053 C 
ATOM      4  C   UNL     1      68.062   8.378  52.595  1.00  0.00     0.016 C 
BRANCH   3   5
ATOM      5  C   UNL     1      69.030   6.322  53.751  1.00  0.00     0.015 C 
BRANCH   5   6
ATOM      6  C   UNL     1      70.079   6.435  52.625  1.00  0.00     0.028 C 
BRANCH   6   7
ATOM      7  C   UNL     1      70.765   5.113  52.385  1.00  0.00    -0.028 C 
ATOM      8  C   UNL     1      70.421   4.230  51.417  1.00  0.00    -0.070 CG0
ATOM      9  C   UNL     1      71.184   2.934  51.339  1.00  0.00     0.039 C 
ATOM     10  G   UNL     1      69.313   4.493  50.408  1.00  0.00     0.000 G0
ENDBRANCH   6   7
ENDBRANCH   5   6
ENDBRANCH   3   5
ENDBRANCH   1   3
BRANCH   1  11
ATOM     11  C   UNL     1      66.780   4.890  52.701  1.00  0.00     0.087 C 
BRANCH  11  12
ATOM     12  C   UNL     1      66.766   4.640  51.170  1.00  0.00     0.066 C 
BRANCH  12  13
ATOM     13  C   UNL     1      67.982   3.814  50.781  1.00  0.00     0.140 C 
ATOM     14  O   UNL     1      67.881   2.598  50.693  1.00  0.00    -0.299 OA
BRANCH  13  15
ATOM     15  C   UNL     1      69.279   4.486  50.401  1.00  0.00     0.106 CG0
ATOM     16  G   UNL     1      70.390   4.220  51.405  1.00  0.00     0.000 G0
ENDBRANCH  13  15
ENDBRANCH  12  13
BRANCH  12  17
ATOM     17  C   UNL     1      65.453   3.945  50.684  1.00  0.00    -0.006 C 
ATOM     18  C   UNL     1      64.759   4.773  49.583  1.00  0.00     0.008 C 
ATOM     19  C   UNL     1      64.451   3.714  51.831  1.00  0.00     0.008 C 
ENDBRANCH  12  17
ENDBRANCH  11  12
ENDBRANCH   1  11
TORSDOF 1
ENDMDL
MODEL 2
REMARK VINA RESULT:    -1.924     12.503     14.979
REMARK INTER + INTRA:          -3.157
REMARK INTER:                  -3.127
REMARK INTRA:                  -0.030
REMARK UNBOUND:                -0.220
REMARK SMILES CC1=CCC[C@@H](C)C(=O)C[C@H](C(C)C)C(=O)C1
REMARK SMILES IDX 8 1 9 2 6 3 7 4 5 5 4 6 3 7 2 8 1 9 10 11 11 12 15 13 16 14
REMARK SMILES IDX 17 15 12 17 13 18 14 19
REMARK H PARENT
REMARK Flexibility Score: 70.00
ROOT
ATOM      1  C   UNL     1      81.059   2.344  57.950  1.00  0.00     0.136 C 
ATOM      2  O   UNL     1      79.958   1.815  57.900  1.00  0.00    -0.299 OA
ENDROOT
BRANCH   1   3
ATOM      3  C   UNL     1      81.819   2.402  59.265  1.00  0.00     0.053 C 
ATOM      4  C   UNL     1      81.439   1.250  60.209  1.00  0.00     0.016 C 
BRANCH   3   5
ATOM      5  C   UNL     1      81.663   3.776  59.948  1.00  0.00     0.015 C 
BRANCH   5   6
ATOM      6  C   UNL     1      82.866   4.719  59.739  1.00  0.00     0.028 C 
BRANCH   6   7
ATOM      7  C   UNL     1      82.413   6.095  59.319  1.00  0.00    -0.028 C 
ATOM      8  C   UNL     1      82.311   6.515  58.035  1.00  0.00    -0.070 CG0
ATOM      9  C   UNL     1      81.881   7.938  57.789  1.00  0.00     0.039 C 
ATOM     10  G   UNL     1      82.597   5.617  56.841  1.00  0.00     0.000 G0
ENDBRANCH   6   7
ENDBRANCH   5   6
ENDBRANCH   3   5
ENDBRANCH   1   3
BRANCH   1  11
ATOM     11  C   UNL     1      81.644   2.936  56.691  1.00  0.00     0.087 C 
BRANCH  11  12
ATOM     12  C   UNL     1      80.699   3.981  56.043  1.00  0.00     0.066 C 
BRANCH  12  13
ATOM     13  C   UNL     1      81.402   5.327  55.976  1.00  0.00     0.140 C 
ATOM     14  O   UNL     1      80.924   6.224  55.295  1.00  0.00    -0.299 OA
BRANCH  13  15
ATOM     15  C   UNL     1      82.621   5.601  56.823  1.00  0.00     0.106 CG0
ATOM     16  G   UNL     1      82.317   6.508  58.006  1.00  0.00     0.000 G0
ENDBRANCH  13  15
ENDBRANCH  12  13
BRANCH  12  17
ATOM     17  C   UNL     1      80.205   3.550  54.623  1.00  0.00    -0.006 C 
ATOM     18  C   UNL     1      78.683   3.309  54.612  1.00  0.00     0.008 C 
ATOM     19  C   UNL     1      80.909   2.276  54.119  1.00  0.00     0.008 C 
ENDBRANCH  12  17
ENDBRANCH  11  12
ENDBRANCH   1  11
TORSDOF 1
ENDMDL
MODEL 3
REMARK VINA RESULT:    -1.900      3.095      5.775
REMARK INTER + INTRA:          -3.120
REMARK INTER:                  -2.737
REMARK INTRA:                  -0.383
REMARK UNBOUND:                -0.220
REMARK SMILES CC1=CCC[C@@H](C)C(=O)C[C@H](C(C)C)C(=O)C1
REMARK SMILES IDX 8 1 9 2 6 3 7 4 5 5 4 6 3 7 2 8 1 9 10 11 11 12 15 13 16 14
REMARK SMILES IDX 17 15 12 17 13 18 14 19
REMARK H PARENT
REMARK Flexibility Score: 70.00
ROOT
ATOM      1  C   UNL     1      67.976   4.602  52.287  1.00  0.00     0.136 C 
ATOM      2  O   UNL     1      68.976   4.776  51.604  1.00  0.00    -0.299 OA
ENDROOT
BRANCH   1   3
ATOM      3  C   UNL     1      66.736   3.970  51.679  1.00  0.00     0.053 C 
ATOM      4  C   UNL     1      65.827   5.007  50.999  1.00  0.00     0.016 C 
BRANCH   3   5
ATOM      5  C   UNL     1      65.966   3.126  52.715  1.00  0.00     0.015 C 
BRANCH   5   6
ATOM      6  C   UNL     1      64.645   3.768  53.187  1.00  0.00     0.028 C 
BRANCH   6   7
ATOM      7  C   UNL     1      64.495   3.669  54.684  1.00  0.00    -0.028 C 
ATOM      8  C   UNL     1      64.683   4.696  55.547  1.00  0.00    -0.070 CG0
ATOM      9  C   UNL     1      64.533   4.418  57.021  1.00  0.00     0.039 C 
ATOM     10  G   UNL     1      65.024   6.109  55.098  1.00  0.00     0.000 G0
ENDBRANCH   6   7
ENDBRANCH   5   6
ENDBRANCH   3   5
ENDBRANCH   1   3
BRANCH   1  11
ATOM     11  C   UNL     1      67.999   5.027  53.735  1.00  0.00     0.087 C 
BRANCH  11  12
ATOM     12  C   UNL     1      67.366   6.427  53.943  1.00  0.00     0.066 C 
BRANCH  12  13
ATOM     13  C   UNL     1      66.512   6.415  55.201  1.00  0.00     0.140 C 
ATOM     14  O   UNL     1      67.010   6.737  56.271  1.00  0.00    -0.299 OA
BRANCH  13  15
ATOM     15  C   UNL     1      65.035   6.115  55.125  1.00  0.00     0.106 CG0
ATOM     16  G   UNL     1      64.704   4.696  55.566  1.00  0.00     0.000 G0
ENDBRANCH  13  15
ENDBRANCH  12  13
BRANCH  12  17
ATOM     17  C   UNL     1      68.434   7.567  54.018  1.00  0.00    -0.006 C 
ATOM     18  C   UNL     1      68.476   8.377  52.706  1.00  0.00     0.008 C 
ATOM     19  C   UNL     1      69.847   7.029  54.310  1.00  0.00     0.008 C 
ENDBRANCH  12  17
ENDBRANCH  11  12
ENDBRANCH   1  11
TORSDOF 1
ENDMDL
MODEL 4
REMARK VINA RESULT:    -1.889     11.484     13.883
REMARK INTER + INTRA:          -3.103
REMARK INTER:                  -2.890
REMARK INTRA:                  -0.213
REMARK UNBOUND:                -0.220
REMARK SMILES CC1=CCC[C@@H](C)C(=O)C[C@H](C(C)C)C(=O)C1
REMARK SMILES IDX 8 1 9 2 6 3 7 4 5 5 4 6 3 7 2 8 1 9 10 11 11 12 15 13 16 14
REMARK SMILES IDX 17 15 12 17 13 18 14 19
REMARK H PARENT
REMARK Flexibility Score: 70.00
ROOT
ATOM      1  C   UNL     1      80.602  -0.190  51.322  1.00  0.00     0.136 C 
ATOM      2  O   UNL     1      80.202  -0.260  50.169  1.00  0.00    -0.299 OA
ENDROOT
BRANCH   1   3
ATOM      3  C   UNL     1      80.602  -1.425  52.207  1.00  0.00     0.053 C 
ATOM      4  C   UNL     1      81.412  -2.580  51.596  1.00  0.00     0.016 C 
BRANCH   3   5
ATOM      5  C   UNL     1      79.168  -1.861  52.568  1.00  0.00     0.015 C 
BRANCH   5   6
ATOM      6  C   UNL     1      78.794  -1.621  54.046  1.00  0.00     0.028 C 
BRANCH   6   7
ATOM      7  C   UNL     1      80.023  -1.585  54.920  1.00  0.00    -0.028 C 
ATOM      8  C   UNL     1      80.545  -0.462  55.470  1.00  0.00    -0.070 CG0
ATOM      9  C   UNL     1      81.804  -0.594  56.287  1.00  0.00     0.039 C 
ATOM     10  G   UNL     1      79.914   0.913  55.310  1.00  0.00     0.000 G0
ENDBRANCH   6   7
ENDBRANCH   5   6
ENDBRANCH   3   5
ENDBRANCH   1   3
BRANCH   1  11
ATOM     11  C   UNL     1      81.091   1.139  51.846  1.00  0.00     0.087 C 
BRANCH  11  12
ATOM     12  C   UNL     1      80.074   1.795  52.816  1.00  0.00     0.066 C 
BRANCH  12  13
ATOM     13  C   UNL     1      80.618   1.738  54.234  1.00  0.00     0.140 C 
ATOM     14  O   UNL     1      81.578   2.432  54.540  1.00  0.00    -0.299 OA
BRANCH  13  15
ATOM     15  C   UNL     1      79.922   0.918  55.293  1.00  0.00     0.106 CG0
ATOM     16  G   UNL     1      80.544  -0.458  55.469  1.00  0.00     0.000 G0
ENDBRANCH  13  15
ENDBRANCH  12  13
BRANCH  12  17
ATOM     17  C   UNL     1      79.727   3.268  52.420  1.00  0.00    -0.006 C 
ATOM     18  C   UNL     1      78.401   3.719  53.065  1.00  0.00     0.008 C 
ATOM     19  C   UNL     1      79.623   3.457  50.895  1.00  0.00     0.008 C 
ENDBRANCH  12  17
ENDBRANCH  11  12
ENDBRANCH   1  11
TORSDOF 1
ENDMDL
MODEL 5
REMARK VINA RESULT:    -1.866     15.672     17.790
REMARK INTER + INTRA:          -3.068
REMARK INTER:                  -2.790
REMARK INTRA:                  -0.279
REMARK UNBOUND:                -0.220
REMARK SMILES CC1=CCC[C@@H](C)C(=O)C[C@H](C(C)C)C(=O)C1
REMARK SMILES IDX 8 1 9 2 6 3 7 4 5 5 4 6 3 7 2 8 1 9 10 11 11 12 15 13 16 14
REMARK SMILES IDX 17 15 12 17 13 18 14 19
REMARK H PARENT
REMARK Flexibility Score: 70.00
ROOT
ATOM      1  C   UNL     1      78.848  -0.297  65.247  1.00  0.00     0.136 C 
ATOM      2  O   UNL     1      79.562  -1.069  65.872  1.00  0.00    -0.299 OA
ENDROOT
BRANCH   1   3
ATOM      3  C   UNL     1      78.580  -0.531  63.770  1.00  0.00     0.053 C 
ATOM      4  C   UNL     1      77.750  -1.801  63.523  1.00  0.00     0.016 C 
BRANCH   3   5
ATOM      5  C   UNL     1      79.887  -0.533  62.951  1.00  0.00     0.015 C 
BRANCH   5   6
ATOM      6  C   UNL     1      80.295   0.858  62.421  1.00  0.00     0.028 C 
BRANCH   6   7
ATOM      7  C   UNL     1      79.092   1.638  61.955  1.00  0.00    -0.028 C 
ATOM      8  C   UNL     1      78.640   2.777  62.534  1.00  0.00    -0.070 CG0
ATOM      9  C   UNL     1      77.397   3.412  61.968  1.00  0.00     0.039 C 
ATOM     10  G   UNL     1      79.334   3.443  63.713  1.00  0.00     0.000 G0
ENDBRANCH   6   7
ENDBRANCH   5   6
ENDBRANCH   3   5
ENDBRANCH   1   3
BRANCH   1  11
ATOM     11  C   UNL     1      78.246   0.886  65.966  1.00  0.00     0.087 C 
BRANCH  11  12
ATOM     12  C   UNL     1      79.198   2.110  65.979  1.00  0.00     0.066 C 
BRANCH  12  13
ATOM     13  C   UNL     1      78.659   3.180  65.044  1.00  0.00     0.140 C 
ATOM     14  O   UNL     1      77.721   3.878  65.404  1.00  0.00    -0.299 OA
BRANCH  13  15
ATOM     15  C   UNL     1      79.336   3.462  63.725  1.00  0.00     0.106 CG0
ATOM     16  G   UNL     1      78.642   2.779  62.555  1.00  0.00     0.000 G0
ENDBRANCH  13  15
ENDBRANCH  12  13
BRANCH  12  17
ATOM     17  C   UNL     1      79.413   2.693  67.414  1.00  0.00    -0.006 C 
ATOM     18  C   UNL     1      80.907   2.702  67.793  1.00  0.00     0.008 C 
ATOM     19  C   UNL     1      78.637   1.908  68.488  1.00  0.00     0.008 C 
ENDBRANCH  12  17
ENDBRANCH  11  12
ENDBRANCH   1  11
TORSDOF 1
ENDMDL
MODEL 6
REMARK VINA RESULT:    -1.851     18.531     20.509
REMARK INTER + INTRA:          -3.046
REMARK INTER:                  -2.796
REMARK INTRA:                  -0.249
REMARK UNBOUND:                -0.220
REMARK SMILES CC1=CCC[C@@H](C)C(=O)C[C@H](C(C)C)C(=O)C1
REMARK SMILES IDX 8 1 9 2 6 3 7 4 5 5 4 6 3 7 2 8 1 9 10 11 11 12 15 13 16 14
REMARK SMILES IDX 17 15 12 17 13 18 14 19
REMARK H PARENT
REMARK Flexibility Score: 70.00
ROOT
ATOM      1  C   UNL     1      81.617  -0.473  67.935  1.00  0.00     0.136 C 
ATOM      2  O   UNL     1      81.663  -0.991  69.042  1.00  0.00    -0.299 OA
ENDROOT
BRANCH   1   3
ATOM      3  C   UNL     1      80.750   0.753  67.702  1.00  0.00     0.053 C 
ATOM      4  C   UNL     1      81.187   1.948  68.564  1.00  0.00     0.016 C 
BRANCH   3   5
ATOM      5  C   UNL     1      79.254   0.430  67.887  1.00  0.00     0.015 C 
BRANCH   5   6
ATOM      6  C   UNL     1      78.564  -0.093  66.609  1.00  0.00     0.028 C 
BRANCH   6   7
ATOM      7  C   UNL     1      79.094   0.601  65.380  1.00  0.00    -0.028 C 
ATOM      8  C   UNL     1      79.747  -0.017  64.367  1.00  0.00    -0.070 CG0
ATOM      9  C   UNL     1      80.249   0.832  63.228  1.00  0.00     0.039 C 
ATOM     10  G   UNL     1      79.985  -1.519  64.324  1.00  0.00     0.000 G0
ENDBRANCH   6   7
ENDBRANCH   5   6
ENDBRANCH   3   5
ENDBRANCH   1   3
BRANCH   1  11
ATOM     11  C   UNL     1      82.431  -1.072  66.814  1.00  0.00     0.087 C 
BRANCH  11  12
ATOM     12  C   UNL     1      81.714  -2.277  66.151  1.00  0.00     0.066 C 
BRANCH  12  13
ATOM     13  C   UNL     1      81.380  -1.936  64.708  1.00  0.00     0.140 C 
ATOM     14  O   UNL     1      82.235  -2.069  63.843  1.00  0.00    -0.299 OA
BRANCH  13  15
ATOM     15  C   UNL     1      79.977  -1.541  64.316  1.00  0.00     0.106 CG0
ATOM     16  G   UNL     1      79.756  -0.037  64.377  1.00  0.00     0.000 G0
ENDBRANCH  13  15
ENDBRANCH  12  13
BRANCH  12  17
ATOM     17  C   UNL     1      82.557  -3.593  66.222  1.00  0.00    -0.006 C 
ATOM     18  C   UNL     1      81.777  -4.785  65.632  1.00  0.00     0.008 C 
ATOM     19  C   UNL     1      82.978  -3.944  67.662  1.00  0.00     0.008 C 
ENDBRANCH  12  17
ENDBRANCH  11  12
ENDBRANCH   1  11
TORSDOF 1
ENDMDL
MODEL 7
REMARK VINA RESULT:    -1.820     13.736     14.808
REMARK INTER + INTRA:          -2.997
REMARK INTER:                  -2.923
REMARK INTRA:                  -0.074
REMARK UNBOUND:                -0.220
REMARK SMILES CC1=CCC[C@@H](C)C(=O)C[C@H](C(C)C)C(=O)C1
REMARK SMILES IDX 8 1 9 2 6 3 7 4 5 5 4 6 3 7 2 8 1 9 10 11 11 12 15 13 16 14
REMARK SMILES IDX 17 15 12 17 13 18 14 19
REMARK H PARENT
REMARK Flexibility Score: 70.00
ROOT
ATOM      1  C   UNL     1      80.920   6.776  58.992  1.00  0.00     0.136 C 
ATOM      2  O   UNL     1      79.822   7.266  58.769  1.00  0.00    -0.299 OA
ENDROOT
BRANCH   1   3
ATOM      3  C   UNL     1      82.164   7.362  58.347  1.00  0.00     0.053 C 
ATOM      4  C   UNL     1      81.857   8.633  57.538  1.00  0.00     0.016 C 
BRANCH   3   5
ATOM      5  C   UNL     1      82.911   6.312  57.501  1.00  0.00     0.015 C 
BRANCH   5   6
ATOM      6  C   UNL     1      82.024   5.605  56.454  1.00  0.00     0.028 C 
BRANCH   6   7
ATOM      7  C   UNL     1      82.402   4.152  56.312  1.00  0.00    -0.028 C 
ATOM      8  C   UNL     1      81.653   3.114  56.755  1.00  0.00    -0.070 CG0
ATOM      9  C   UNL     1      82.196   1.720  56.569  1.00  0.00     0.039 C 
ATOM     10  G   UNL     1      80.295   3.290  57.417  1.00  0.00     0.000 G0
ENDBRANCH   6   7
ENDBRANCH   5   6
ENDBRANCH   3   5
ENDBRANCH   1   3
BRANCH   1  11
ATOM     11  C   UNL     1      81.014   5.582  59.912  1.00  0.00     0.087 C 
BRANCH  11  12
ATOM     12  C   UNL     1      79.861   4.571  59.677  1.00  0.00     0.066 C 
BRANCH  12  13
ATOM     13  C   UNL     1      80.396   3.356  58.936  1.00  0.00     0.140 C 
ATOM     14  O   UNL     1      80.838   2.409  59.572  1.00  0.00    -0.299 OA
BRANCH  13  15
ATOM     15  C   UNL     1      80.290   3.263  57.433  1.00  0.00     0.106 CG0
ATOM     16  G   UNL     1      81.647   3.127  56.759  1.00  0.00     0.000 G0
ENDBRANCH  13  15
ENDBRANCH  12  13
BRANCH  12  17
ATOM     17  C   UNL     1      79.158   4.137  61.005  1.00  0.00    -0.006 C 
ATOM     18  C   UNL     1      77.824   4.884  61.199  1.00  0.00     0.008 C 
ATOM     19  C   UNL     1      80.043   4.379  62.243  1.00  0.00     0.008 C 
ENDBRANCH  12  17
ENDBRANCH  11  12
ENDBRANCH   1  11
TORSDOF 1
ENDMDL
MODEL 8
REMARK VINA RESULT:    -1.816     13.191     15.007
REMARK INTER + INTRA:          -2.992
REMARK INTER:                  -2.942
REMARK INTRA:                  -0.051
REMARK UNBOUND:                -0.220
REMARK SMILES CC1=CCC[C@@H](C)C(=O)C[C@H](C(C)C)C(=O)C1
REMARK SMILES IDX 8 1 9 2 6 3 7 4 5 5 4 6 3 7 2 8 1 9 10 11 11 12 15 13 16 14
REMARK SMILES IDX 17 15 12 17 13 18 14 19
REMARK H PARENT
REMARK Flexibility Score: 70.00
ROOT
ATOM      1  C   UNL     1      76.891   5.732  63.667  1.00  0.00     0.136 C 
ATOM      2  O   UNL     1      76.124   4.935  64.190  1.00  0.00    -0.299 OA
ENDROOT
BRANCH   1   3
ATOM      3  C   UNL     1      76.348   6.927  62.904  1.00  0.00     0.053 C 
ATOM      4  C   UNL     1      74.849   6.786  62.591  1.00  0.00     0.016 C 
BRANCH   3   5
ATOM      5  C   UNL     1      77.173   7.209  61.633  1.00  0.00     0.015 C 
BRANCH   5   6
ATOM      6  C   UNL     1      77.026   6.131  60.539  1.00  0.00     0.028 C 
BRANCH   6   7
ATOM      7  C   UNL     1      78.197   6.155  59.589  1.00  0.00    -0.028 C 
ATOM      8  C   UNL     1      79.215   5.261  59.598  1.00  0.00    -0.070 CG0
ATOM      9  C   UNL     1      80.332   5.452  58.604  1.00  0.00     0.039 C 
ATOM     10  G   UNL     1      79.275   4.078  60.552  1.00  0.00     0.000 G0
ENDBRANCH   6   7
ENDBRANCH   5   6
ENDBRANCH   3   5
ENDBRANCH   1   3
BRANCH   1  11
ATOM     11  C   UNL     1      78.378   5.504  63.793  1.00  0.00     0.087 C 
BRANCH  11  12
ATOM     12  C   UNL     1      78.821   4.164  63.148  1.00  0.00     0.066 C 
BRANCH  12  13
ATOM     13  C   UNL     1      79.715   4.449  61.952  1.00  0.00     0.140 C 
ATOM     14  O   UNL     1      80.832   4.916  62.133  1.00  0.00    -0.299 OA
BRANCH  13  15
ATOM     15  C   UNL     1      79.282   4.064  60.559  1.00  0.00     0.106 CG0
ATOM     16  G   UNL     1      79.205   5.258  59.620  1.00  0.00     0.000 G0
ENDBRANCH  13  15
ENDBRANCH  12  13
BRANCH  12  17
ATOM     17  C   UNL     1      79.545   3.217  64.161  1.00  0.00    -0.006 C 
ATOM     18  C   UNL     1      79.574   1.766  63.642  1.00  0.00     0.008 C 
ATOM     19  C   UNL     1      78.884   3.230  65.552  1.00  0.00     0.008 C 
ENDBRANCH  12  17
ENDBRANCH  11  12
ENDBRANCH   1  11
TORSDOF 1
ENDMDL
MODEL 9
REMARK VINA RESULT:    -1.687     11.196     12.551
REMARK INTER + INTRA:          -2.795
REMARK INTER:                  -2.521
REMARK INTRA:                  -0.275
REMARK UNBOUND:                -0.220
REMARK SMILES CC1=CCC[C@@H](C)C(=O)C[C@H](C(C)C)C(=O)C1
REMARK SMILES IDX 8 1 9 2 6 3 7 4 5 5 4 6 3 7 2 8 1 9 10 11 11 12 15 13 16 14
REMARK SMILES IDX 17 15 12 17 13 18 14 19
REMARK H PARENT
REMARK Flexibility Score: 70.00
ROOT
ATOM      1  C   UNL     1      79.154   4.242  53.823  1.00  0.00     0.136 C 
ATOM      2  O   UNL     1      79.433   5.389  53.502  1.00  0.00    -0.299 OA
ENDROOT
BRANCH   1   3
ATOM      3  C   UNL     1      79.360   3.778  55.255  1.00  0.00     0.053 C 
ATOM      4  C   UNL     1      78.383   4.453  56.232  1.00  0.00     0.016 C 
BRANCH   3   5
ATOM      5  C   UNL     1      80.826   3.952  55.700  1.00  0.00     0.015 C 
BRANCH   5   6
ATOM      6  C   UNL     1      81.754   2.801  55.259  1.00  0.00     0.028 C 
BRANCH   6   7
ATOM      7  C   UNL     1      81.054   1.468  55.357  1.00  0.00    -0.028 C 
ATOM      8  C   UNL     1      80.777   0.664  54.302  1.00  0.00    -0.070 CG0
ATOM      9  C   UNL     1      80.033  -0.619  54.568  1.00  0.00     0.039 C 
ATOM     10  G   UNL     1      81.190   0.992  52.875  1.00  0.00     0.000 G0
ENDBRANCH   6   7
ENDBRANCH   5   6
ENDBRANCH   3   5
ENDBRANCH   1   3
BRANCH   1  11
ATOM     11  C   UNL     1      78.607   3.303  52.775  1.00  0.00     0.087 C 
BRANCH  11  12
ATOM     12  C   UNL     1      79.696   2.855  51.766  1.00  0.00     0.066 C 
BRANCH  12  13
ATOM     13  C   UNL     1      80.025   1.388  51.994  1.00  0.00     0.140 C 
ATOM     14  O   UNL     1      79.388   0.528  51.400  1.00  0.00    -0.299 OA
BRANCH  13  15
ATOM     15  C   UNL     1      81.194   0.987  52.860  1.00  0.00     0.106 CG0
ATOM     16  G   UNL     1      80.780   0.669  54.289  1.00  0.00     0.000 G0
ENDBRANCH  13  15
ENDBRANCH  12  13
BRANCH  12  17
ATOM     17  C   UNL     1      79.278   3.098  50.279  1.00  0.00    -0.006 C 
ATOM     18  C   UNL     1      80.506   3.402  49.398  1.00  0.00     0.008 C 
ATOM     19  C   UNL     1      78.269   4.253  50.134  1.00  0.00     0.008 C 
ENDBRANCH  12  17
ENDBRANCH  11  12
ENDBRANCH   1  11
TORSDOF 1
ENDMDL
