MODEL 1
REMARK VINA RESULT:    -5.259      0.000      0.000
REMARK INTER + INTRA:          -6.818
REMARK INTER:                  -6.181
REMARK INTRA:                  -0.636
REMARK UNBOUND:                -0.636
REMARK SMILES CCCC[C@@H]1OC(=O)C2=C1CCC=C2
REMARK SMILES IDX 3 1 2 2 1 3 4 4 5 5 10 6 6 7 9 8 11 9 7 10 14 11 12 12 8 13
REMARK SMILES IDX 13 14
REMARK H PARENT
REMARK Flexibility Score: inf
ROOT
ATOM      1  C   UNL     1       9.145 -26.593  28.626  1.00  0.00     0.004 C 
ENDROOT
BRANCH   1   2
ATOM      2  C   UNL     1       9.466 -25.459  29.615  1.00  0.00    -0.003 C 
ATOM      3  C   UNL     1       9.080 -25.794  31.055  1.00  0.00     0.004 C 
ENDBRANCH   1   2
BRANCH   1   4
ATOM      4  C   UNL     1      10.344 -27.486  28.254  1.00  0.00     0.050 C 
BRANCH   4   5
ATOM      5  C   UNL     1      10.063 -28.986  28.431  1.00  0.00     0.204 C 
ATOM      6  C   UNL     1       9.593 -29.293  29.834  1.00  0.00    -0.015 C 
ATOM      7  O   UNL     1       8.957 -29.397  27.623  1.00  0.00    -0.454 OA
ATOM      8  C   UNL     1       8.391 -29.845  29.812  1.00  0.00     0.062 C 
ATOM      9  C   UNL     1      10.424 -29.282  31.087  1.00  0.00     0.040 C 
ATOM     10  C   UNL     1       7.967 -29.916  28.439  1.00  0.00     0.338 C 
ATOM     11  C   UNL     1       7.738 -30.376  31.016  1.00  0.00     0.011 C 
ATOM     12  C   UNL     1       9.524 -29.269  32.346  1.00  0.00     0.032 C 
ATOM     13  O   UNL     1       6.875 -30.384  28.022  1.00  0.00    -0.246 OA
ATOM     14  C   UNL     1       8.310 -30.166  32.208  1.00  0.00    -0.026 C 
ENDBRANCH   4   5
ENDBRANCH   1   4
TORSDOF 3
ENDMDL
MODEL 2
REMARK VINA RESULT:    -4.969      2.936      5.276
REMARK INTER + INTRA:          -6.477
REMARK INTER:                  -6.020
REMARK INTRA:                  -0.457
REMARK UNBOUND:                -0.636
REMARK SMILES CCCC[C@@H]1OC(=O)C2=C1CCC=C2
REMARK SMILES IDX 3 1 2 2 1 3 4 4 5 5 10 6 6 7 9 8 11 9 7 10 14 11 12 12 8 13
REMARK SMILES IDX 13 14
REMARK H PARENT
REMARK Flexibility Score: inf
ROOT
ATOM      1  C   UNL     1       9.600 -28.446  29.837  1.00  0.00     0.004 C 
ENDROOT
BRANCH   1   2
ATOM      2  C   UNL     1      10.544 -29.267  30.732  1.00  0.00    -0.003 C 
ATOM      3  C   UNL     1       9.904 -29.681  32.056  1.00  0.00     0.004 C 
ENDBRANCH   1   2
BRANCH   1   4
ATOM      4  C   UNL     1      10.069 -27.008  29.549  1.00  0.00     0.050 C 
BRANCH   4   5
ATOM      5  C   UNL     1       9.113 -25.935  30.095  1.00  0.00     0.204 C 
ATOM      6  C   UNL     1       9.649 -25.318  31.365  1.00  0.00    -0.015 C 
ATOM      7  O   UNL     1       9.036 -24.819  29.202  1.00  0.00    -0.454 OA
ATOM      8  C   UNL     1       9.813 -24.014  31.218  1.00  0.00     0.062 C 
ATOM      9  C   UNL     1       9.725 -25.966  32.721  1.00  0.00     0.040 C 
ATOM     10  C   UNL     1       9.442 -23.676  29.869  1.00  0.00     0.338 C 
ATOM     11  C   UNL     1      10.191 -23.130  32.328  1.00  0.00     0.011 C 
ATOM     12  C   UNL     1      10.669 -25.176  33.658  1.00  0.00     0.032 C 
ATOM     13  O   UNL     1       9.464 -22.526  29.359  1.00  0.00    -0.246 OA
ATOM     14  C   UNL     1      10.527 -23.675  33.504  1.00  0.00    -0.026 C 
ENDBRANCH   4   5
ENDBRANCH   1   4
TORSDOF 3
ENDMDL
MODEL 3
REMARK VINA RESULT:    -4.939      1.179      1.855
REMARK INTER + INTRA:          -6.441
REMARK INTER:                  -6.182
REMARK INTRA:                  -0.260
REMARK UNBOUND:                -0.636
REMARK SMILES CCCC[C@@H]1OC(=O)C2=C1CCC=C2
REMARK SMILES IDX 3 1 2 2 1 3 4 4 5 5 10 6 6 7 9 8 11 9 7 10 14 11 12 12 8 13
REMARK SMILES IDX 13 14
REMARK H PARENT
REMARK Flexibility Score: inf
ROOT
ATOM      1  C   UNL     1       9.512 -26.862  27.720  1.00  0.00     0.004 C 
ENDROOT
BRANCH   1   2
ATOM      2  C   UNL     1       9.800 -26.351  26.297  1.00  0.00    -0.003 C 
ATOM      3  C   UNL     1      10.935 -27.108  25.609  1.00  0.00     0.004 C 
ENDBRANCH   1   2
BRANCH   1   4
ATOM      4  C   UNL     1      10.625 -27.730  28.334  1.00  0.00     0.050 C 
BRANCH   4   5
ATOM      5  C   UNL     1      10.215 -29.198  28.527  1.00  0.00     0.204 C 
ATOM      6  C   UNL     1       9.692 -29.443  29.923  1.00  0.00    -0.015 C 
ATOM      7  O   UNL     1       9.095 -29.528  27.700  1.00  0.00    -0.454 OA
ATOM      8  C   UNL     1       8.448 -29.892  29.883  1.00  0.00     0.062 C 
ATOM      9  C   UNL     1      10.495 -29.482  31.194  1.00  0.00     0.040 C 
ATOM     10  C   UNL     1       8.047 -29.948  28.501  1.00  0.00     0.338 C 
ATOM     11  C   UNL     1       7.728 -30.346  31.080  1.00  0.00     0.011 C 
ATOM     12  C   UNL     1       9.574 -29.373  32.432  1.00  0.00     0.032 C 
ATOM     13  O   UNL     1       6.929 -30.328  28.068  1.00  0.00    -0.246 OA
ATOM     14  C   UNL     1       8.291 -30.166  32.281  1.00  0.00    -0.026 C 
ENDBRANCH   4   5
ENDBRANCH   1   4
TORSDOF 3
ENDMDL
MODEL 4
REMARK VINA RESULT:    -4.921      1.767      4.473
REMARK INTER + INTRA:          -6.421
REMARK INTER:                  -6.199
REMARK INTRA:                  -0.222
REMARK UNBOUND:                -0.636
REMARK SMILES CCCC[C@@H]1OC(=O)C2=C1CCC=C2
REMARK SMILES IDX 3 1 2 2 1 3 4 4 5 5 10 6 6 7 9 8 11 9 7 10 14 11 12 12 8 13
REMARK SMILES IDX 13 14
REMARK H PARENT
REMARK Flexibility Score: inf
ROOT
ATOM      1  C   UNL     1      10.190 -29.698  31.495  1.00  0.00     0.004 C 
ENDROOT
BRANCH   1   2
ATOM      2  C   UNL     1       8.899 -29.444  32.293  1.00  0.00    -0.003 C 
ATOM      3  C   UNL     1       7.745 -30.350  31.868  1.00  0.00     0.004 C 
ENDBRANCH   1   2
BRANCH   1   4
ATOM      4  C   UNL     1      10.480 -28.669  30.388  1.00  0.00     0.050 C 
BRANCH   4   5
ATOM      5  C   UNL     1       9.279 -27.766  30.066  1.00  0.00     0.204 C 
ATOM      6  C   UNL     1       9.473 -26.376  30.625  1.00  0.00    -0.015 C 
ATOM      7  O   UNL     1       9.177 -27.536  28.658  1.00  0.00    -0.454 OA
ATOM      8  C   UNL     1       9.442 -25.475  29.656  1.00  0.00     0.062 C 
ATOM      9  C   UNL     1       9.415 -25.968  32.072  1.00  0.00     0.040 C 
ATOM     10  C   UNL     1       9.264 -26.176  28.412  1.00  0.00     0.338 C 
ATOM     11  C   UNL     1       9.466 -24.029  29.914  1.00  0.00     0.011 C 
ATOM     12  C   UNL     1      10.034 -24.565  32.275  1.00  0.00     0.032 C 
ATOM     13  O   UNL     1       9.185 -25.654  27.270  1.00  0.00    -0.246 OA
ATOM     14  C   UNL     1       9.675 -23.598  31.164  1.00  0.00    -0.026 C 
ENDBRANCH   4   5
ENDBRANCH   1   4
TORSDOF 3
ENDMDL
MODEL 5
REMARK VINA RESULT:    -4.818      7.694     10.070
REMARK INTER + INTRA:          -6.300
REMARK INTER:                  -5.874
REMARK INTRA:                  -0.425
REMARK UNBOUND:                -0.636
REMARK SMILES CCCC[C@@H]1OC(=O)C2=C1CCC=C2
REMARK SMILES IDX 3 1 2 2 1 3 4 4 5 5 10 6 6 7 9 8 11 9 7 10 14 11 12 12 8 13
REMARK SMILES IDX 13 14
REMARK H PARENT
REMARK Flexibility Score: inf
ROOT
ATOM      1  C   UNL     1       9.739 -18.132  36.063  1.00  0.00     0.004 C 
ENDROOT
BRANCH   1   2
ATOM      2  C   UNL     1      10.781 -17.270  35.327  1.00  0.00    -0.003 C 
ATOM      3  C   UNL     1      11.780 -18.098  34.521  1.00  0.00     0.004 C 
ENDBRANCH   1   2
BRANCH   1   4
ATOM      4  C   UNL     1       8.591 -18.654  35.179  1.00  0.00     0.050 C 
BRANCH   4   5
ATOM      5  C   UNL     1       8.539 -20.188  35.093  1.00  0.00     0.204 C 
ATOM      6  C   UNL     1       8.290 -20.650  33.676  1.00  0.00    -0.015 C 
ATOM      7  O   UNL     1       9.814 -20.760  35.399  1.00  0.00    -0.454 OA
ATOM      8  C   UNL     1       9.281 -21.417  33.255  1.00  0.00     0.062 C 
ATOM      9  C   UNL     1       7.002 -20.545  32.906  1.00  0.00     0.040 C 
ATOM     10  C   UNL     1      10.253 -21.497  34.314  1.00  0.00     0.338 C 
ATOM     11  C   UNL     1       9.249 -22.123  31.967  1.00  0.00     0.011 C 
ATOM     12  C   UNL     1       7.245 -20.766  31.394  1.00  0.00     0.032 C 
ATOM     13  O   UNL     1      11.334 -22.142  34.282  1.00  0.00    -0.246 OA
ATOM     14  C   UNL     1       8.247 -21.869  31.116  1.00  0.00    -0.026 C 
ENDBRANCH   4   5
ENDBRANCH   1   4
TORSDOF 3
ENDMDL
MODEL 6
REMARK VINA RESULT:    -4.797      2.639      4.328
REMARK INTER + INTRA:          -6.275
REMARK INTER:                  -5.827
REMARK INTRA:                  -0.447
REMARK UNBOUND:                -0.636
REMARK SMILES CCCC[C@@H]1OC(=O)C2=C1CCC=C2
REMARK SMILES IDX 3 1 2 2 1 3 4 4 5 5 10 6 6 7 9 8 11 9 7 10 14 11 12 12 8 13
REMARK SMILES IDX 13 14
REMARK H PARENT
REMARK Flexibility Score: inf
ROOT
ATOM      1  C   UNL     1       9.682 -23.043  31.639  1.00  0.00     0.004 C 
ENDROOT
BRANCH   1   2
ATOM      2  C   UNL     1       8.696 -22.536  30.572  1.00  0.00    -0.003 C 
ATOM      3  C   UNL     1       9.383 -22.121  29.273  1.00  0.00     0.004 C 
ENDBRANCH   1   2
BRANCH   1   4
ATOM      4  C   UNL     1      10.280 -24.434  31.359  1.00  0.00     0.050 C 
BRANCH   4   5
ATOM      5  C   UNL     1       9.222 -25.546  31.276  1.00  0.00     0.204 C 
ATOM      6  C   UNL     1       9.398 -26.378  30.028  1.00  0.00    -0.015 C 
ATOM      7  O   UNL     1       9.402 -26.500  32.328  1.00  0.00    -0.454 OA
ATOM      8  C   UNL     1       9.608 -27.646  30.338  1.00  0.00     0.062 C 
ATOM      9  C   UNL     1       9.095 -25.960  28.615  1.00  0.00     0.040 C 
ATOM     10  C   UNL     1       9.622 -27.749  31.774  1.00  0.00     0.338 C 
ATOM     11  C   UNL     1       9.678 -28.711  29.329  1.00  0.00     0.011 C 
ATOM     12  C   UNL     1       9.755 -26.924  27.601  1.00  0.00     0.032 C 
ATOM     13  O   UNL     1       9.794 -28.802  32.441  1.00  0.00    -0.246 OA
ATOM     14  C   UNL     1       9.675 -28.375  28.033  1.00  0.00    -0.026 C 
ENDBRANCH   4   5
ENDBRANCH   1   4
TORSDOF 3
ENDMDL
MODEL 7
REMARK VINA RESULT:    -4.788      2.065      3.116
REMARK INTER + INTRA:          -6.264
REMARK INTER:                  -5.944
REMARK INTRA:                  -0.320
REMARK UNBOUND:                -0.636
REMARK SMILES CCCC[C@@H]1OC(=O)C2=C1CCC=C2
REMARK SMILES IDX 3 1 2 2 1 3 4 4 5 5 10 6 6 7 9 8 11 9 7 10 14 11 12 12 8 13
REMARK SMILES IDX 13 14
REMARK H PARENT
REMARK Flexibility Score: inf
ROOT
ATOM      1  C   UNL     1       8.583 -23.146  30.741  1.00  0.00     0.004 C 
ENDROOT
BRANCH   1   2
ATOM      2  C   UNL     1      10.014 -22.756  30.332  1.00  0.00    -0.003 C 
ATOM      3  C   UNL     1      10.908 -22.423  31.525  1.00  0.00     0.004 C 
ENDBRANCH   1   2
BRANCH   1   4
ATOM      4  C   UNL     1       8.243 -24.637  30.562  1.00  0.00     0.050 C 
BRANCH   4   5
ATOM      5  C   UNL     1       9.398 -25.458  29.968  1.00  0.00     0.204 C 
ATOM      6  C   UNL     1       9.440 -26.850  30.554  1.00  0.00    -0.015 C 
ATOM      7  O   UNL     1       9.187 -25.701  28.574  1.00  0.00    -0.454 OA
ATOM      8  C   UNL     1       9.310 -27.760  29.603  1.00  0.00     0.062 C 
ATOM      9  C   UNL     1       9.861 -27.231  31.947  1.00  0.00     0.040 C 
ATOM     10  C   UNL     1       9.144 -27.067  28.353  1.00  0.00     0.338 C 
ATOM     11  C   UNL     1       9.450 -29.201  29.857  1.00  0.00     0.011 C 
ATOM     12  C   UNL     1       9.407 -28.671  32.286  1.00  0.00     0.032 C 
ATOM     13  O   UNL     1       8.993 -27.600  27.223  1.00  0.00    -0.246 OA
ATOM     14  C   UNL     1       9.568 -29.626  31.121  1.00  0.00    -0.026 C 
ENDBRANCH   4   5
ENDBRANCH   1   4
TORSDOF 3
ENDMDL
MODEL 8
REMARK VINA RESULT:    -4.763      4.318      6.128
REMARK INTER + INTRA:          -6.234
REMARK INTER:                  -5.697
REMARK INTRA:                  -0.537
REMARK UNBOUND:                -0.636
REMARK SMILES CCCC[C@@H]1OC(=O)C2=C1CCC=C2
REMARK SMILES IDX 3 1 2 2 1 3 4 4 5 5 10 6 6 7 9 8 11 9 7 10 14 11 12 12 8 13
REMARK SMILES IDX 13 14
REMARK H PARENT
REMARK Flexibility Score: inf
ROOT
ATOM      1  C   UNL     1       7.578 -21.985  31.148  1.00  0.00     0.004 C 
ENDROOT
BRANCH   1   2
ATOM      2  C   UNL     1       7.013 -20.690  31.757  1.00  0.00    -0.003 C 
ATOM      3  C   UNL     1       7.423 -20.487  33.215  1.00  0.00     0.004 C 
ENDBRANCH   1   2
BRANCH   1   4
ATOM      4  C   UNL     1       8.690 -21.778  30.103  1.00  0.00     0.050 C 
BRANCH   4   5
ATOM      5  C   UNL     1       9.830 -22.802  30.216  1.00  0.00     0.204 C 
ATOM      6  C   UNL     1      10.101 -23.164  31.658  1.00  0.00    -0.015 C 
ATOM      7  O   UNL     1       9.450 -24.054  29.636  1.00  0.00    -0.454 OA
ATOM      8  C   UNL     1       9.934 -24.462  31.852  1.00  0.00     0.062 C 
ATOM      9  C   UNL     1      10.754 -22.297  32.698  1.00  0.00     0.040 C 
ATOM     10  C   UNL     1       9.519 -25.042  30.602  1.00  0.00     0.338 C 
ATOM     11  C   UNL     1      10.260 -25.124  33.123  1.00  0.00     0.011 C 
ATOM     12  C   UNL     1      10.509 -22.859  34.119  1.00  0.00     0.032 C 
ATOM     13  O   UNL     1       9.266 -26.258  30.396  1.00  0.00    -0.246 OA
ATOM     14  C   UNL     1      10.602 -24.371  34.176  1.00  0.00    -0.026 C 
ENDBRANCH   4   5
ENDBRANCH   1   4
TORSDOF 3
ENDMDL
MODEL 9
REMARK VINA RESULT:    -4.729      2.168      4.660
REMARK INTER + INTRA:          -6.195
REMARK INTER:                  -5.728
REMARK INTRA:                  -0.466
REMARK UNBOUND:                -0.636
REMARK SMILES CCCC[C@@H]1OC(=O)C2=C1CCC=C2
REMARK SMILES IDX 3 1 2 2 1 3 4 4 5 5 10 6 6 7 9 8 11 9 7 10 14 11 12 12 8 13
REMARK SMILES IDX 13 14
REMARK H PARENT
REMARK Flexibility Score: inf
ROOT
ATOM      1  C   UNL     1       8.736 -29.853  32.213  1.00  0.00     0.004 C 
ENDROOT
BRANCH   1   2
ATOM      2  C   UNL     1       7.336 -30.257  31.718  1.00  0.00    -0.003 C 
ATOM      3  C   UNL     1       7.281 -30.497  30.211  1.00  0.00     0.004 C 
ENDBRANCH   1   2
BRANCH   1   4
ATOM      4  C   UNL     1       9.792 -29.688  31.104  1.00  0.00     0.050 C 
BRANCH   4   5
ATOM      5  C   UNL     1      10.297 -28.245  30.955  1.00  0.00     0.204 C 
ATOM      6  C   UNL     1      10.129 -27.748  29.538  1.00  0.00    -0.015 C 
ATOM      7  O   UNL     1       9.488 -27.340  31.712  1.00  0.00    -0.454 OA
ATOM      8  C   UNL     1       9.355 -26.676  29.508  1.00  0.00     0.062 C 
ATOM      9  C   UNL     1      10.924 -28.171  28.333  1.00  0.00     0.040 C 
ATOM     10  C   UNL     1       8.934 -26.402  30.857  1.00  0.00     0.338 C 
ATOM     11  C   UNL     1       9.125 -25.895  28.286  1.00  0.00     0.011 C 
ATOM     12  C   UNL     1      10.215 -27.741  27.026  1.00  0.00     0.032 C 
ATOM     13  O   UNL     1       8.190 -25.457  31.226  1.00  0.00    -0.246 OA
ATOM     14  C   UNL     1       9.593 -26.362  27.122  1.00  0.00    -0.026 C 
ENDBRANCH   4   5
ENDBRANCH   1   4
TORSDOF 3
ENDMDL
