MODEL 1
REMARK VINA RESULT:    -4.426      0.000      0.000
REMARK INTER + INTRA:          -6.477
REMARK INTER:                  -5.978
REMARK INTRA:                  -0.499
REMARK UNBOUND:                -0.499
REMARK SMILES O=C[C@H](O)[C@H](O)[C@@H](O)CO
REMARK SMILES IDX 7 1 9 2 10 3 5 5 3 6 2 7 1 8 4 9 6 11 8 13
REMARK H PARENT 10 4 4 10 6 12 8 14
REMARK Flexibility Score: inf
ROOT
ATOM      1  C   UNL     1     144.718 145.180 114.081  1.00  0.00     0.171 C 
ENDROOT
BRANCH   1   2
ATOM      2  C   UNL     1     145.877 146.068 113.596  1.00  0.00     0.190 C 
BRANCH   2   3
ATOM      3  O   UNL     1     145.427 146.920 112.579  1.00  0.00    -0.394 OA
ATOM      4  H   UNL     1     145.288 146.348 111.780  1.00  0.00     0.210 HD
ENDBRANCH   2   3
ENDBRANCH   1   2
BRANCH   1   5
ATOM      5  C   UNL     1     143.442 145.287 113.194  1.00  0.00     0.181 C 
BRANCH   5   6
ATOM      6  C   UNL     1     142.147 144.833 113.919  1.00  0.00     0.209 C 
BRANCH   6   7
ATOM      7  C   UNL     1     141.316 143.940 113.035  1.00  0.00     0.258 C 
ATOM      8  O   UNL     1     140.651 144.410 112.126  1.00  0.00    -0.300 OA
ENDBRANCH   6   7
BRANCH   6   9
ATOM      9  O   UNL     1     141.379 145.952 114.278  1.00  0.00    -0.383 OA
ATOM     10  H   UNL     1     141.904 146.755 114.023  1.00  0.00     0.211 HD
ENDBRANCH   6   9
ENDBRANCH   5   6
BRANCH   5  11
ATOM     11  O   UNL     1     143.632 144.537 112.017  1.00  0.00    -0.387 OA
ATOM     12  H   UNL     1     144.496 144.055 112.106  1.00  0.00     0.211 HD
ENDBRANCH   5  11
ENDBRANCH   1   5
BRANCH   1  13
ATOM     13  O   UNL     1     145.140 143.840 114.153  1.00  0.00    -0.388 OA
ATOM     14  H   UNL     1     145.551 143.704 115.048  1.00  0.00     0.211 HD
ENDBRANCH   1  13
TORSDOF 8
ENDMDL
MODEL 2
REMARK VINA RESULT:    -4.419      1.302      4.059
REMARK INTER + INTRA:          -6.468
REMARK INTER:                  -6.162
REMARK INTRA:                  -0.306
REMARK UNBOUND:                -0.499
REMARK SMILES O=C[C@H](O)[C@H](O)[C@@H](O)CO
REMARK SMILES IDX 7 1 9 2 10 3 5 5 3 6 2 7 1 8 4 9 6 11 8 13
REMARK H PARENT 10 4 4 10 6 12 8 14
REMARK Flexibility Score: inf
ROOT
ATOM      1  C   UNL     1     141.509 145.049 112.963  1.00  0.00     0.171 C 
ENDROOT
BRANCH   1   2
ATOM      2  C   UNL     1     140.603 146.282 112.794  1.00  0.00     0.190 C 
BRANCH   2   3
ATOM      3  O   UNL     1     140.555 147.002 113.995  1.00  0.00    -0.394 OA
ATOM      4  H   UNL     1     139.601 147.018 114.270  1.00  0.00     0.210 HD
ENDBRANCH   2   3
ENDBRANCH   1   2
BRANCH   1   5
ATOM      5  C   UNL     1     142.741 145.307 113.879  1.00  0.00     0.181 C 
BRANCH   5   6
ATOM      6  C   UNL     1     144.033 144.601 113.389  1.00  0.00     0.209 C 
BRANCH   6   7
ATOM      7  C   UNL     1     145.263 145.303 113.902  1.00  0.00     0.258 C 
ATOM      8  O   UNL     1     145.631 146.355 113.405  1.00  0.00    -0.300 OA
ENDBRANCH   6   7
BRANCH   6   9
ATOM      9  O   UNL     1     144.073 144.589 111.985  1.00  0.00    -0.383 OA
ATOM     10  H   UNL     1     143.339 143.993 111.682  1.00  0.00     0.211 HD
ENDBRANCH   6   9
ENDBRANCH   5   6
BRANCH   5  11
ATOM     11  O   UNL     1     142.434 144.908 115.194  1.00  0.00    -0.387 OA
ATOM     12  H   UNL     1     142.788 145.604 115.807  1.00  0.00     0.211 HD
ENDBRANCH   5  11
ENDBRANCH   1   5
BRANCH   1  13
ATOM     13  O   UNL     1     140.758 143.969 113.464  1.00  0.00    -0.388 OA
ATOM     14  H   UNL     1     139.854 144.314 113.690  1.00  0.00     0.211 HD
ENDBRANCH   1  13
TORSDOF 8
ENDMDL
MODEL 3
REMARK VINA RESULT:    -4.338      2.022      3.094
REMARK INTER + INTRA:          -6.359
REMARK INTER:                  -6.065
REMARK INTRA:                  -0.293
REMARK UNBOUND:                -0.499
REMARK SMILES O=C[C@H](O)[C@H](O)[C@@H](O)CO
REMARK SMILES IDX 7 1 9 2 10 3 5 5 3 6 2 7 1 8 4 9 6 11 8 13
REMARK H PARENT 10 4 4 10 6 12 8 14
REMARK Flexibility Score: inf
ROOT
ATOM      1  C   UNL     1     142.663 145.400 113.823  1.00  0.00     0.171 C 
ENDROOT
BRANCH   1   2
ATOM      2  C   UNL     1     143.747 144.592 113.088  1.00  0.00     0.190 C 
BRANCH   2   3
ATOM      3  O   UNL     1     144.654 144.064 114.015  1.00  0.00    -0.394 OA
ATOM      4  H   UNL     1     144.277 144.258 114.913  1.00  0.00     0.210 HD
ENDBRANCH   2   3
ENDBRANCH   1   2
BRANCH   1   5
ATOM      5  C   UNL     1     141.320 145.492 113.040  1.00  0.00     0.181 C 
BRANCH   5   6
ATOM      6  C   UNL     1     140.519 146.787 113.337  1.00  0.00     0.209 C 
BRANCH   6   7
ATOM      7  C   UNL     1     141.143 147.978 112.660  1.00  0.00     0.258 C 
ATOM      8  O   UNL     1     140.936 149.108 113.073  1.00  0.00    -0.300 OA
ENDBRANCH   6   7
BRANCH   6   9
ATOM      9  O   UNL     1     140.481 147.023 114.721  1.00  0.00    -0.383 OA
ATOM     10  H   UNL     1     140.874 146.223 115.160  1.00  0.00     0.211 HD
ENDBRANCH   6   9
ENDBRANCH   5   6
BRANCH   5  11
ATOM     11  O   UNL     1     140.538 144.356 113.325  1.00  0.00    -0.387 OA
ATOM     12  H   UNL     1     140.553 144.223 114.310  1.00  0.00     0.211 HD
ENDBRANCH   5  11
ENDBRANCH   1   5
BRANCH   1  13
ATOM     13  O   UNL     1     142.436 144.847 115.097  1.00  0.00    -0.388 OA
ATOM     14  H   UNL     1     141.684 144.203 115.013  1.00  0.00     0.211 HD
ENDBRANCH   1  13
TORSDOF 8
ENDMDL
MODEL 4
REMARK VINA RESULT:    -4.223      1.360      2.205
REMARK INTER + INTRA:          -6.203
REMARK INTER:                  -6.059
REMARK INTRA:                  -0.144
REMARK UNBOUND:                -0.499
REMARK SMILES O=C[C@H](O)[C@H](O)[C@@H](O)CO
REMARK SMILES IDX 7 1 9 2 10 3 5 5 3 6 2 7 1 8 4 9 6 11 8 13
REMARK H PARENT 10 4 4 10 6 12 8 14
REMARK Flexibility Score: inf
ROOT
ATOM      1  C   UNL     1     143.909 144.325 113.257  1.00  0.00     0.171 C 
ENDROOT
BRANCH   1   2
ATOM      2  C   UNL     1     144.834 145.374 113.899  1.00  0.00     0.190 C 
BRANCH   2   3
ATOM      3  O   UNL     1     146.096 145.326 113.292  1.00  0.00    -0.394 OA
ATOM      4  H   UNL     1     146.200 146.184 112.802  1.00  0.00     0.210 HD
ENDBRANCH   2   3
ENDBRANCH   1   2
BRANCH   1   5
ATOM      5  C   UNL     1     142.456 144.356 113.817  1.00  0.00     0.181 C 
BRANCH   5   6
ATOM      6  C   UNL     1     141.425 144.961 112.826  1.00  0.00     0.209 C 
BRANCH   6   7
ATOM      7  C   UNL     1     141.165 146.412 113.134  1.00  0.00     0.258 C 
ATOM      8  O   UNL     1     140.142 146.955 112.750  1.00  0.00    -0.300 OA
ENDBRANCH   6   7
BRANCH   6   9
ATOM      9  O   UNL     1     140.212 144.259 112.904  1.00  0.00    -0.383 OA
ATOM     10  H   UNL     1     139.681 144.512 112.104  1.00  0.00     0.211 HD
ENDBRANCH   6   9
ENDBRANCH   5   6
BRANCH   5  11
ATOM     11  O   UNL     1     142.442 145.068 115.032  1.00  0.00    -0.387 OA
ATOM     12  H   UNL     1     141.495 145.284 115.240  1.00  0.00     0.211 HD
ENDBRANCH   5  11
ENDBRANCH   1   5
BRANCH   1  13
ATOM     13  O   UNL     1     143.887 144.497 111.861  1.00  0.00    -0.388 OA
ATOM     14  H   UNL     1     144.761 144.887 111.595  1.00  0.00     0.211 HD
ENDBRANCH   1  13
TORSDOF 8
ENDMDL
MODEL 5
REMARK VINA RESULT:    -3.817      1.520      4.365
REMARK INTER + INTRA:          -5.655
REMARK INTER:                  -5.135
REMARK INTRA:                  -0.520
REMARK UNBOUND:                -0.499
REMARK SMILES O=C[C@H](O)[C@H](O)[C@@H](O)CO
REMARK SMILES IDX 7 1 9 2 10 3 5 5 3 6 2 7 1 8 4 9 6 11 8 13
REMARK H PARENT 10 4 4 10 6 12 8 14
REMARK Flexibility Score: inf
ROOT
ATOM      1  C   UNL     1     141.283 144.105 113.458  1.00  0.00     0.171 C 
ENDROOT
BRANCH   1   2
ATOM      2  C   UNL     1     141.433 142.619 113.829  1.00  0.00     0.190 C 
BRANCH   2   3
ATOM      3  O   UNL     1     141.172 142.443 115.194  1.00  0.00    -0.394 OA
ATOM      4  H   UNL     1     141.832 143.005 115.677  1.00  0.00     0.210 HD
ENDBRANCH   2   3
ENDBRANCH   1   2
BRANCH   1   5
ATOM      5  C   UNL     1     142.473 144.986 113.939  1.00  0.00     0.181 C 
BRANCH   5   6
ATOM      6  C   UNL     1     143.846 144.533 113.373  1.00  0.00     0.209 C 
BRANCH   6   7
ATOM      7  C   UNL     1     144.957 145.419 113.871  1.00  0.00     0.258 C 
ATOM      8  O   UNL     1     146.123 145.076 113.758  1.00  0.00    -0.300 OA
ENDBRANCH   6   7
BRANCH   6   9
ATOM      9  O   UNL     1     143.827 144.578 111.970  1.00  0.00    -0.383 OA
ATOM     10  H   UNL     1     144.748 144.369 111.663  1.00  0.00     0.211 HD
ENDBRANCH   6   9
ENDBRANCH   5   6
BRANCH   5  11
ATOM     11  O   UNL     1     142.504 144.997 115.347  1.00  0.00    -0.387 OA
ATOM     12  H   UNL     1     143.138 145.709 115.626  1.00  0.00     0.211 HD
ENDBRANCH   5  11
ENDBRANCH   1   5
BRANCH   1  13
ATOM     13  O   UNL     1     141.122 144.237 112.067  1.00  0.00    -0.388 OA
ATOM     14  H   UNL     1     140.351 143.669 111.801  1.00  0.00     0.211 HD
ENDBRANCH   1  13
TORSDOF 8
ENDMDL
MODEL 6
REMARK VINA RESULT:    -3.620     13.462     15.226
REMARK INTER + INTRA:          -5.388
REMARK INTER:                  -4.653
REMARK INTRA:                  -0.735
REMARK UNBOUND:                -0.499
REMARK SMILES O=C[C@H](O)[C@H](O)[C@@H](O)CO
REMARK SMILES IDX 7 1 9 2 10 3 5 5 3 6 2 7 1 8 4 9 6 11 8 13
REMARK H PARENT 10 4 4 10 6 12 8 14
REMARK Flexibility Score: inf
ROOT
ATOM      1  C   UNL     1     129.755 144.387 116.163  1.00  0.00     0.171 C 
ENDROOT
BRANCH   1   2
ATOM      2  C   UNL     1     130.516 145.695 116.445  1.00  0.00     0.190 C 
BRANCH   2   3
ATOM      3  O   UNL     1     129.654 146.788 116.289  1.00  0.00    -0.394 OA
ATOM      4  H   UNL     1     128.829 146.563 116.794  1.00  0.00     0.210 HD
ENDBRANCH   2   3
ENDBRANCH   1   2
BRANCH   1   5
ATOM      5  C   UNL     1     128.208 144.564 116.142  1.00  0.00     0.181 C 
BRANCH   5   6
ATOM      6  C   UNL     1     127.435 143.291 116.579  1.00  0.00     0.209 C 
BRANCH   6   7
ATOM      7  C   UNL     1     126.965 142.505 115.384  1.00  0.00     0.258 C 
ATOM      8  O   UNL     1     127.766 142.067 114.574  1.00  0.00    -0.300 OA
ENDBRANCH   6   7
BRANCH   6   9
ATOM      9  O   UNL     1     126.318 143.647 117.353  1.00  0.00    -0.383 OA
ATOM     10  H   UNL     1     126.540 144.507 117.798  1.00  0.00     0.211 HD
ENDBRANCH   6   9
ENDBRANCH   5   6
BRANCH   5  11
ATOM     11  O   UNL     1     127.804 144.962 114.853  1.00  0.00    -0.387 OA
ATOM     12  H   UNL     1     128.358 144.461 114.199  1.00  0.00     0.211 HD
ENDBRANCH   5  11
ENDBRANCH   1   5
BRANCH   1  13
ATOM     13  O   UNL     1     130.190 143.834 114.945  1.00  0.00    -0.388 OA
ATOM     14  H   UNL     1     129.432 143.316 114.565  1.00  0.00     0.211 HD
ENDBRANCH   1  13
TORSDOF 8
ENDMDL
MODEL 7
REMARK VINA RESULT:    -3.576      2.087      3.336
REMARK INTER + INTRA:          -5.329
REMARK INTER:                  -5.230
REMARK INTRA:                  -0.099
REMARK UNBOUND:                -0.499
REMARK SMILES O=C[C@H](O)[C@H](O)[C@@H](O)CO
REMARK SMILES IDX 7 1 9 2 10 3 5 5 3 6 2 7 1 8 4 9 6 11 8 13
REMARK H PARENT 10 4 4 10 6 12 8 14
REMARK Flexibility Score: inf
ROOT
ATOM      1  C   UNL     1     142.616 143.764 113.746  1.00  0.00     0.171 C 
ENDROOT
BRANCH   1   2
ATOM      2  C   UNL     1     141.811 142.858 114.693  1.00  0.00     0.190 C 
BRANCH   2   3
ATOM      3  O   UNL     1     142.169 143.123 116.021  1.00  0.00    -0.394 OA
ATOM      4  H   UNL     1     141.794 142.380 116.562  1.00  0.00     0.210 HD
ENDBRANCH   2   3
ENDBRANCH   1   2
BRANCH   1   5
ATOM      5  C   UNL     1     142.083 145.226 113.685  1.00  0.00     0.181 C 
BRANCH   5   6
ATOM      6  C   UNL     1     141.014 145.448 112.582  1.00  0.00     0.209 C 
BRANCH   6   7
ATOM      7  C   UNL     1     140.357 146.795 112.727  1.00  0.00     0.258 C 
ATOM      8  O   UNL     1     141.031 147.811 112.800  1.00  0.00    -0.300 OA
ENDBRANCH   6   7
BRANCH   6   9
ATOM      9  O   UNL     1     140.026 144.453 112.661  1.00  0.00    -0.383 OA
ATOM     10  H   UNL     1     140.387 143.736 113.245  1.00  0.00     0.211 HD
ENDBRANCH   6   9
ENDBRANCH   5   6
BRANCH   5  11
ATOM     11  O   UNL     1     143.166 146.108 113.501  1.00  0.00    -0.387 OA
ATOM     12  H   UNL     1     143.361 146.527 114.380  1.00  0.00     0.211 HD
ENDBRANCH   5  11
ENDBRANCH   1   5
BRANCH   1  13
ATOM     13  O   UNL     1     143.972 143.765 114.123  1.00  0.00    -0.388 OA
ATOM     14  H   UNL     1     144.434 144.450 113.572  1.00  0.00     0.211 HD
ENDBRANCH   1  13
TORSDOF 8
ENDMDL
MODEL 8
REMARK VINA RESULT:    -3.549     12.999     14.679
REMARK INTER + INTRA:          -5.292
REMARK INTER:                  -4.811
REMARK INTRA:                  -0.481
REMARK UNBOUND:                -0.499
REMARK SMILES O=C[C@H](O)[C@H](O)[C@@H](O)CO
REMARK SMILES IDX 7 1 9 2 10 3 5 5 3 6 2 7 1 8 4 9 6 11 8 13
REMARK H PARENT 10 4 4 10 6 12 8 14
REMARK Flexibility Score: inf
ROOT
ATOM      1  C   UNL     1     130.246 144.132 116.453  1.00  0.00     0.171 C 
ENDROOT
BRANCH   1   2
ATOM      2  C   UNL     1     130.989 144.257 117.795  1.00  0.00     0.190 C 
BRANCH   2   3
ATOM      3  O   UNL     1     131.511 145.549 117.929  1.00  0.00    -0.394 OA
ATOM      4  H   UNL     1     131.905 145.595 118.840  1.00  0.00     0.210 HD
ENDBRANCH   2   3
ENDBRANCH   1   2
BRANCH   1   5
ATOM      5  C   UNL     1     128.938 144.974 116.389  1.00  0.00     0.181 C 
BRANCH   5   6
ATOM      6  C   UNL     1     127.860 144.370 115.450  1.00  0.00     0.209 C 
BRANCH   6   7
ATOM      7  C   UNL     1     126.870 143.540 116.224  1.00  0.00     0.258 C 
ATOM      8  O   UNL     1     126.041 142.858 115.643  1.00  0.00    -0.300 OA
ENDBRANCH   6   7
BRANCH   6   9
ATOM      9  O   UNL     1     128.468 143.558 114.479  1.00  0.00    -0.383 OA
ATOM     10  H   UNL     1     127.789 142.889 114.198  1.00  0.00     0.211 HD
ENDBRANCH   6   9
ENDBRANCH   5   6
BRANCH   5  11
ATOM     11  O   UNL     1     129.250 146.289 115.992  1.00  0.00    -0.387 OA
ATOM     12  H   UNL     1     128.728 146.907 116.568  1.00  0.00     0.211 HD
ENDBRANCH   5  11
ENDBRANCH   1   5
BRANCH   1  13
ATOM     13  O   UNL     1     131.102 144.497 115.398  1.00  0.00    -0.388 OA
ATOM     14  H   UNL     1     130.538 144.887 114.678  1.00  0.00     0.211 HD
ENDBRANCH   1  13
TORSDOF 8
ENDMDL
MODEL 9
REMARK VINA RESULT:    -3.438     12.591     13.456
REMARK INTER + INTRA:          -5.142
REMARK INTER:                  -4.607
REMARK INTRA:                  -0.535
REMARK UNBOUND:                -0.499
REMARK SMILES O=C[C@H](O)[C@H](O)[C@@H](O)CO
REMARK SMILES IDX 7 1 9 2 10 3 5 5 3 6 2 7 1 8 4 9 6 11 8 13
REMARK H PARENT 10 4 4 10 6 12 8 14
REMARK Flexibility Score: inf
ROOT
ATOM      1  C   UNL     1     131.122 143.867 117.636  1.00  0.00     0.171 C 
ENDROOT
BRANCH   1   2
ATOM      2  C   UNL     1     131.829 144.438 118.878  1.00  0.00     0.190 C 
BRANCH   2   3
ATOM      3  O   UNL     1     132.240 145.754 118.626  1.00  0.00    -0.394 OA
ATOM      4  H   UNL     1     131.674 146.334 119.200  1.00  0.00     0.210 HD
ENDBRANCH   2   3
ENDBRANCH   1   2
BRANCH   1   5
ATOM      5  C   UNL     1     130.325 144.936 116.831  1.00  0.00     0.181 C 
BRANCH   5   6
ATOM      6  C   UNL     1     128.932 144.441 116.357  1.00  0.00     0.209 C 
BRANCH   6   7
ATOM      7  C   UNL     1     129.047 143.142 115.604  1.00  0.00     0.258 C 
ATOM      8  O   UNL     1     129.805 143.039 114.653  1.00  0.00    -0.300 OA
ENDBRANCH   6   7
BRANCH   6   9
ATOM      9  O   UNL     1     128.341 145.398 115.517  1.00  0.00    -0.383 OA
ATOM     10  H   UNL     1     127.692 144.914 114.942  1.00  0.00     0.211 HD
ENDBRANCH   6   9
ENDBRANCH   5   6
BRANCH   5  11
ATOM     11  O   UNL     1     131.095 145.358 115.730  1.00  0.00    -0.387 OA
ATOM     12  H   UNL     1     130.819 146.287 115.512  1.00  0.00     0.211 HD
ENDBRANCH   5  11
ENDBRANCH   1   5
BRANCH   1  13
ATOM     13  O   UNL     1     132.060 143.239 116.797  1.00  0.00    -0.388 OA
ATOM     14  H   UNL     1     131.576 142.549 116.272  1.00  0.00     0.211 HD
ENDBRANCH   1  13
TORSDOF 8
ENDMDL
