MODEL 1
REMARK VINA RESULT:    -4.210      0.000      0.000
REMARK INTER + INTRA:          -4.480
REMARK INTER:                  -4.456
REMARK INTRA:                  -0.024
REMARK UNBOUND:                -0.024
REMARK SMILES O=C([O-])c1cccnc1
REMARK SMILES IDX 4 1 5 2 9 3 6 4 8 5 7 6 2 7 1 8 3 9
REMARK H PARENT
REMARK Flexibility Score: inf
ROOT
ATOM      1  C   UNL     1       5.100 -37.065  22.325  1.00  0.00     0.016 A 
ATOM      2  C   UNL     1       5.118 -36.146  23.389  1.00  0.00     0.013 A 
ATOM      3  C   UNL     1       5.087 -38.437  22.628  1.00  0.00     0.120 A 
ATOM      4  C   UNL     1       5.124 -36.602  24.709  1.00  0.00     0.021 A 
ATOM      5  N   UNL     1       5.093 -38.854  23.923  1.00  0.00    -0.264 NA
ATOM      6  C   UNL     1       5.111 -37.975  24.958  1.00  0.00     0.111 A 
ENDROOT
BRANCH   1   7
ATOM      7  C   UNL     1       5.093 -36.603  20.920  1.00  0.00     0.073 C 
ATOM      8  O   UNL     1       5.064 -35.373  20.651  1.00  0.00    -0.545 OA
ATOM      9  O   UNL     1       5.120 -37.522  19.877  1.00  0.00    -0.545 OA
ENDBRANCH   1   7
TORSDOF 1
ENDMDL
MODEL 2
REMARK VINA RESULT:    -4.170      0.897      1.933
REMARK INTER + INTRA:          -4.437
REMARK INTER:                  -4.413
REMARK INTRA:                  -0.024
REMARK UNBOUND:                -0.024
REMARK SMILES O=C([O-])c1cccnc1
REMARK SMILES IDX 4 1 5 2 9 3 6 4 8 5 7 6 2 7 1 8 3 9
REMARK H PARENT
REMARK Flexibility Score: inf
ROOT
ATOM      1  C   UNL     1       5.077 -37.139  22.219  1.00  0.00     0.016 A 
ATOM      2  C   UNL     1       5.068 -38.517  22.497  1.00  0.00     0.013 A 
ATOM      3  C   UNL     1       5.106 -36.239  23.298  1.00  0.00     0.120 A 
ATOM      4  C   UNL     1       5.088 -38.964  23.820  1.00  0.00     0.021 A 
ATOM      5  N   UNL     1       5.125 -36.702  24.577  1.00  0.00    -0.264 NA
ATOM      6  C   UNL     1       5.116 -38.031  24.857  1.00  0.00     0.111 A 
ENDROOT
BRANCH   1   7
ATOM      7  C   UNL     1       5.056 -36.644  20.825  1.00  0.00     0.073 C 
ATOM      8  O   UNL     1       5.032 -37.452  19.859  1.00  0.00    -0.545 OA
ATOM      9  O   UNL     1       5.063 -35.279  20.563  1.00  0.00    -0.545 OA
ENDBRANCH   1   7
TORSDOF 1
ENDMDL
MODEL 3
REMARK VINA RESULT:    -4.077      1.047      1.697
REMARK INTER + INTRA:          -4.340
REMARK INTER:                  -4.316
REMARK INTRA:                  -0.023
REMARK UNBOUND:                -0.024
REMARK SMILES O=C([O-])c1cccnc1
REMARK SMILES IDX 4 1 5 2 9 3 6 4 8 5 7 6 2 7 1 8 3 9
REMARK H PARENT
REMARK Flexibility Score: inf
ROOT
ATOM      1  C   UNL     1       4.970 -36.882  21.836  1.00  0.00     0.016 A 
ATOM      2  C   UNL     1       4.993 -38.244  22.182  1.00  0.00     0.013 A 
ATOM      3  C   UNL     1       5.028 -35.929  22.868  1.00  0.00     0.120 A 
ATOM      4  C   UNL     1       5.071 -38.624  23.523  1.00  0.00     0.021 A 
ATOM      5  N   UNL     1       5.102 -36.328  24.166  1.00  0.00    -0.264 NA
ATOM      6  C   UNL     1       5.125 -37.641  24.512  1.00  0.00     0.111 A 
ENDROOT
BRANCH   1   7
ATOM      7  C   UNL     1       4.889 -36.457  20.421  1.00  0.00     0.073 C 
ATOM      8  O   UNL     1       5.093 -35.256  20.102  1.00  0.00    -0.545 OA
ATOM      9  O   UNL     1       4.586 -37.378  19.426  1.00  0.00    -0.545 OA
ENDBRANCH   1   7
TORSDOF 1
ENDMDL
MODEL 4
REMARK VINA RESULT:    -4.077      2.795      3.655
REMARK INTER + INTRA:          -4.339
REMARK INTER:                  -4.316
REMARK INTRA:                  -0.023
REMARK UNBOUND:                -0.024
REMARK SMILES O=C([O-])c1cccnc1
REMARK SMILES IDX 4 1 5 2 9 3 6 4 8 5 7 6 2 7 1 8 3 9
REMARK H PARENT
REMARK Flexibility Score: inf
ROOT
ATOM      1  C   UNL     1       4.998 -37.629  22.155  1.00  0.00     0.016 A 
ATOM      2  C   UNL     1       4.800 -36.316  22.616  1.00  0.00     0.013 A 
ATOM      3  C   UNL     1       5.113 -37.841  20.770  1.00  0.00     0.120 A 
ATOM      4  C   UNL     1       4.721 -35.259  21.707  1.00  0.00     0.021 A 
ATOM      5  N   UNL     1       5.032 -36.793  19.907  1.00  0.00    -0.264 NA
ATOM      6  C   UNL     1       4.841 -35.520  20.342  1.00  0.00     0.111 A 
ENDROOT
BRANCH   1   7
ATOM      7  C   UNL     1       5.085 -38.763  23.100  1.00  0.00     0.073 C 
ATOM      8  O   UNL     1       5.125 -39.948  22.675  1.00  0.00    -0.545 OA
ATOM      9  O   UNL     1       5.125 -38.536  24.471  1.00  0.00    -0.545 OA
ENDBRANCH   1   7
TORSDOF 1
ENDMDL
MODEL 5
REMARK VINA RESULT:    -4.066      1.862      2.484
REMARK INTER + INTRA:          -4.328
REMARK INTER:                  -4.310
REMARK INTRA:                  -0.017
REMARK UNBOUND:                -0.024
REMARK SMILES O=C([O-])c1cccnc1
REMARK SMILES IDX 4 1 5 2 9 3 6 4 8 5 7 6 2 7 1 8 3 9
REMARK H PARENT
REMARK Flexibility Score: inf
ROOT
ATOM      1  C   UNL     1       3.988 -36.862  20.550  1.00  0.00     0.016 A 
ATOM      2  C   UNL     1       4.184 -35.548  21.009  1.00  0.00     0.013 A 
ATOM      3  C   UNL     1       4.377 -37.926  21.382  1.00  0.00     0.120 A 
ATOM      4  C   UNL     1       4.754 -35.322  22.263  1.00  0.00     0.021 A 
ATOM      5  N   UNL     1       4.931 -37.677  22.600  1.00  0.00    -0.264 NA
ATOM      6  C   UNL     1       5.125 -36.411  23.053  1.00  0.00     0.111 A 
ENDROOT
BRANCH   1   7
ATOM      7  C   UNL     1       3.386 -37.124  19.224  1.00  0.00     0.073 C 
ATOM      8  O   UNL     1       3.997 -36.805  18.170  1.00  0.00    -0.545 OA
ATOM      9  O   UNL     1       2.138 -37.727  19.125  1.00  0.00    -0.545 OA
ENDBRANCH   1   7
TORSDOF 1
ENDMDL
MODEL 6
REMARK VINA RESULT:    -3.939      2.738      3.701
REMARK INTER + INTRA:          -4.194
REMARK INTER:                  -4.170
REMARK INTRA:                  -0.024
REMARK UNBOUND:                -0.024
REMARK SMILES O=C([O-])c1cccnc1
REMARK SMILES IDX 4 1 5 2 9 3 6 4 8 5 7 6 2 7 1 8 3 9
REMARK H PARENT
REMARK Flexibility Score: inf
ROOT
ATOM      1  C   UNL     1       5.089 -37.192  22.959  1.00  0.00     0.016 A 
ATOM      2  C   UNL     1       5.124 -35.792  22.841  1.00  0.00     0.013 A 
ATOM      3  C   UNL     1       5.048 -37.961  21.783  1.00  0.00     0.120 A 
ATOM      4  C   UNL     1       5.118 -35.195  21.579  1.00  0.00     0.021 A 
ATOM      5  N   UNL     1       5.042 -37.353  20.566  1.00  0.00    -0.264 NA
ATOM      6  C   UNL     1       5.076 -36.001  20.441  1.00  0.00     0.111 A 
ENDROOT
BRANCH   1   7
ATOM      7  C   UNL     1       5.095 -37.844  24.286  1.00  0.00     0.073 C 
ATOM      8  O   UNL     1       5.096 -39.100  24.382  1.00  0.00    -0.545 OA
ATOM      9  O   UNL     1       5.101 -37.080  25.447  1.00  0.00    -0.545 OA
ENDBRANCH   1   7
TORSDOF 1
ENDMDL
MODEL 7
REMARK VINA RESULT:    -3.888      2.844      3.999
REMARK INTER + INTRA:          -4.140
REMARK INTER:                  -4.116
REMARK INTRA:                  -0.023
REMARK UNBOUND:                -0.024
REMARK SMILES O=C([O-])c1cccnc1
REMARK SMILES IDX 4 1 5 2 9 3 6 4 8 5 7 6 2 7 1 8 3 9
REMARK H PARENT
REMARK Flexibility Score: inf
ROOT
ATOM      1  C   UNL     1       4.880 -37.285  22.959  1.00  0.00     0.016 A 
ATOM      2  C   UNL     1       4.501 -37.857  21.733  1.00  0.00     0.013 A 
ATOM      3  C   UNL     1       5.125 -35.901  23.004  1.00  0.00     0.120 A 
ATOM      4  C   UNL     1       4.375 -37.056  20.595  1.00  0.00     0.021 A 
ATOM      5  N   UNL     1       4.995 -35.145  21.881  1.00  0.00    -0.264 NA
ATOM      6  C   UNL     1       4.630 -35.688  20.690  1.00  0.00     0.111 A 
ENDROOT
BRANCH   1   7
ATOM      7  C   UNL     1       5.019 -38.114  24.176  1.00  0.00     0.073 C 
ATOM      8  O   UNL     1       5.115 -39.367  24.088  1.00  0.00    -0.545 OA
ATOM      9  O   UNL     1       5.047 -37.521  25.433  1.00  0.00    -0.545 OA
ENDBRANCH   1   7
TORSDOF 1
ENDMDL
MODEL 8
REMARK VINA RESULT:    -3.867      2.537      3.506
REMARK INTER + INTRA:          -4.117
REMARK INTER:                  -4.093
REMARK INTRA:                  -0.024
REMARK UNBOUND:                -0.024
REMARK SMILES O=C([O-])c1cccnc1
REMARK SMILES IDX 4 1 5 2 9 3 6 4 8 5 7 6 2 7 1 8 3 9
REMARK H PARENT
REMARK Flexibility Score: inf
ROOT
ATOM      1  C   UNL     1       5.057 -36.054  22.356  1.00  0.00     0.016 A 
ATOM      2  C   UNL     1       5.012 -35.385  21.121  1.00  0.00     0.013 A 
ATOM      3  C   UNL     1       5.057 -37.459  22.356  1.00  0.00     0.120 A 
ATOM      4  C   UNL     1       4.968 -36.115  19.931  1.00  0.00     0.021 A 
ATOM      5  N   UNL     1       5.014 -38.145  21.182  1.00  0.00    -0.264 NA
ATOM      6  C   UNL     1       4.970 -37.509  19.983  1.00  0.00     0.111 A 
ENDROOT
BRANCH   1   7
ATOM      7  C   UNL     1       5.104 -35.300  23.628  1.00  0.00     0.073 C 
ATOM      8  O   UNL     1       5.125 -34.041  23.625  1.00  0.00    -0.545 OA
ATOM      9  O   UNL     1       5.124 -35.973  24.845  1.00  0.00    -0.545 OA
ENDBRANCH   1   7
TORSDOF 1
ENDMDL
MODEL 9
REMARK VINA RESULT:    -3.568      3.942      5.700
REMARK INTER + INTRA:          -3.800
REMARK INTER:                  -3.783
REMARK INTRA:                  -0.017
REMARK UNBOUND:                -0.024
REMARK SMILES O=C([O-])c1cccnc1
REMARK SMILES IDX 4 1 5 2 9 3 6 4 8 5 7 6 2 7 1 8 3 9
REMARK H PARENT
REMARK Flexibility Score: inf
ROOT
ATOM      1  C   UNL     1       3.655 -36.746  18.746  1.00  0.00     0.016 A 
ATOM      2  C   UNL     1       4.002 -35.999  17.607  1.00  0.00     0.013 A 
ATOM      3  C   UNL     1       2.442 -37.456  18.736  1.00  0.00     0.120 A 
ATOM      4  C   UNL     1       3.151 -35.973  16.501  1.00  0.00     0.021 A 
ATOM      5  N   UNL     1       1.632 -37.413  17.644  1.00  0.00    -0.264 NA
ATOM      6  C   UNL     1       1.957 -36.694  16.539  1.00  0.00     0.111 A 
ENDROOT
BRANCH   1   7
ATOM      7  C   UNL     1       4.542 -36.787  19.929  1.00  0.00     0.073 C 
ATOM      8  O   UNL     1       5.125 -37.856  20.255  1.00  0.00    -0.545 OA
ATOM      9  O   UNL     1       4.745 -35.647  20.697  1.00  0.00    -0.545 OA
ENDBRANCH   1   7
TORSDOF 1
ENDMDL
