MODEL 1
REMARK VINA RESULT:    -2.811      0.000      0.000
REMARK INTER + INTRA:          -6.308
REMARK INTER:                  -4.454
REMARK INTRA:                  -1.854
REMARK UNBOUND:                -1.854
REMARK SMILES C=CCCCCCCCCCCC
REMARK SMILES IDX 7 1 8 2 9 3 10 4 11 5 12 6 13 7 6 8 5 9 4 10 3 11 2 12 1 13
REMARK H PARENT
REMARK Flexibility Score: inf
ROOT
ATOM      1  C   UNL     1      14.103   7.553  18.447  1.00  0.00     0.000 C 
ENDROOT
BRANCH   1   2
ATOM      2  C   UNL     1      15.535   7.706  17.907  1.00  0.00     0.000 C 
BRANCH   2   3
ATOM      3  C   UNL     1      15.629   7.413  16.400  1.00  0.00    -0.000 C 
BRANCH   3   4
ATOM      4  C   UNL     1      14.665   6.300  15.956  1.00  0.00    -0.000 C 
BRANCH   4   5
ATOM      5  C   UNL     1      15.268   4.891  16.109  1.00  0.00    -0.000 C 
BRANCH   5   6
ATOM      6  C   UNL     1      14.296   3.825  16.642  1.00  0.00    -0.003 C 
ATOM      7  C   UNL     1      14.611   3.387  18.072  1.00  0.00     0.004 C 
ENDBRANCH   5   6
ENDBRANCH   4   5
ENDBRANCH   3   4
ENDBRANCH   2   3
ENDBRANCH   1   2
BRANCH   1   8
ATOM      8  C   UNL     1      14.030   6.678  19.713  1.00  0.00     0.000 C 
BRANCH   8   9
ATOM      9  C   UNL     1      12.655   6.042  19.990  1.00  0.00     0.000 C 
BRANCH   9  10
ATOM     10  C   UNL     1      11.563   6.533  19.024  1.00  0.00     0.004 C 
BRANCH  10  11
ATOM     11  C   UNL     1      11.069   5.413  18.095  1.00  0.00     0.027 C 
BRANCH  11  12
ATOM     12  C   UNL     1      11.154   5.793  16.640  1.00  0.00    -0.035 C 
ATOM     13  C   UNL     1      10.875   7.029  16.218  1.00  0.00     0.004 C 
ENDBRANCH  11  12
ENDBRANCH  10  11
ENDBRANCH   9  10
ENDBRANCH   8   9
ENDBRANCH   1   8
TORSDOF 10
ENDMDL
MODEL 2
REMARK VINA RESULT:    -2.800      1.560      4.624
REMARK INTER + INTRA:          -6.292
REMARK INTER:                  -4.905
REMARK INTRA:                  -1.386
REMARK UNBOUND:                -1.854
REMARK SMILES C=CCCCCCCCCCCC
REMARK SMILES IDX 7 1 8 2 9 3 10 4 11 5 12 6 13 7 6 8 5 9 4 10 3 11 2 12 1 13
REMARK H PARENT
REMARK Flexibility Score: inf
ROOT
ATOM      1  C   UNL     1      11.048   6.112  18.304  1.00  0.00     0.000 C 
ENDROOT
BRANCH   1   2
ATOM      2  C   UNL     1      11.364   4.667  17.882  1.00  0.00     0.000 C 
BRANCH   2   3
ATOM      3  C   UNL     1      12.727   4.187  18.408  1.00  0.00    -0.000 C 
BRANCH   3   4
ATOM      4  C   UNL     1      13.181   4.961  19.657  1.00  0.00    -0.000 C 
BRANCH   4   5
ATOM      5  C   UNL     1      13.046   4.140  20.953  1.00  0.00    -0.000 C 
BRANCH   5   6
ATOM      6  C   UNL     1      12.895   4.975  22.236  1.00  0.00    -0.003 C 
ATOM      7  C   UNL     1      11.755   5.991  22.160  1.00  0.00     0.004 C 
ENDBRANCH   5   6
ENDBRANCH   4   5
ENDBRANCH   3   4
ENDBRANCH   2   3
ENDBRANCH   1   2
BRANCH   1   8
ATOM      8  C   UNL     1      10.875   7.062  17.104  1.00  0.00     0.000 C 
BRANCH   8   9
ATOM      9  C   UNL     1      11.799   6.777  15.906  1.00  0.00     0.000 C 
BRANCH   9  10
ATOM     10  C   UNL     1      13.039   7.689  15.876  1.00  0.00     0.004 C 
BRANCH  10  11
ATOM     11  C   UNL     1      14.252   7.038  16.557  1.00  0.00     0.027 C 
BRANCH  11  12
ATOM     12  C   UNL     1      14.673   5.759  15.883  1.00  0.00    -0.035 C 
ATOM     13  C   UNL     1      15.773   5.098  16.252  1.00  0.00     0.004 C 
ENDBRANCH  11  12
ENDBRANCH  10  11
ENDBRANCH   9  10
ENDBRANCH   8   9
ENDBRANCH   1   8
TORSDOF 10
ENDMDL
MODEL 3
REMARK VINA RESULT:    -2.778      1.364      2.826
REMARK INTER + INTRA:          -6.257
REMARK INTER:                  -4.550
REMARK INTRA:                  -1.706
REMARK UNBOUND:                -1.854
REMARK SMILES C=CCCCCCCCCCCC
REMARK SMILES IDX 7 1 8 2 9 3 10 4 11 5 12 6 13 7 6 8 5 9 4 10 3 11 2 12 1 13
REMARK H PARENT
REMARK Flexibility Score: inf
ROOT
ATOM      1  C   UNL     1      16.736   6.352  16.649  1.00  0.00     0.000 C 
ENDROOT
BRANCH   1   2
ATOM      2  C   UNL     1      16.472   4.855  16.886  1.00  0.00     0.000 C 
BRANCH   2   3
ATOM      3  C   UNL     1      15.276   4.333  16.072  1.00  0.00    -0.000 C 
BRANCH   3   4
ATOM      4  C   UNL     1      14.185   3.713  16.960  1.00  0.00    -0.000 C 
BRANCH   4   5
ATOM      5  C   UNL     1      14.477   3.869  18.464  1.00  0.00    -0.000 C 
BRANCH   5   6
ATOM      6  C   UNL     1      13.246   3.753  19.379  1.00  0.00    -0.003 C 
ATOM      7  C   UNL     1      13.569   3.150  20.746  1.00  0.00     0.004 C 
ENDBRANCH   5   6
ENDBRANCH   4   5
ENDBRANCH   3   4
ENDBRANCH   2   3
ENDBRANCH   1   2
BRANCH   1   8
ATOM      8  C   UNL     1      15.441   7.176  16.526  1.00  0.00     0.000 C 
BRANCH   8   9
ATOM      9  C   UNL     1      14.681   7.401  17.847  1.00  0.00     0.000 C 
BRANCH   9  10
ATOM     10  C   UNL     1      13.159   7.518  17.650  1.00  0.00     0.004 C 
BRANCH  10  11
ATOM     11  C   UNL     1      12.723   7.076  16.245  1.00  0.00     0.027 C 
BRANCH  11  12
ATOM     12  C   UNL     1      11.506   6.189  16.272  1.00  0.00    -0.035 C 
ATOM     13  C   UNL     1      10.876   5.894  17.412  1.00  0.00     0.004 C 
ENDBRANCH  11  12
ENDBRANCH  10  11
ENDBRANCH   9  10
ENDBRANCH   8   9
ENDBRANCH   1   8
TORSDOF 10
ENDMDL
MODEL 4
REMARK VINA RESULT:    -2.750      1.649      3.067
REMARK INTER + INTRA:          -6.211
REMARK INTER:                  -4.865
REMARK INTRA:                  -1.346
REMARK UNBOUND:                -1.854
REMARK SMILES C=CCCCCCCCCCCC
REMARK SMILES IDX 7 1 8 2 9 3 10 4 11 5 12 6 13 7 6 8 5 9 4 10 3 11 2 12 1 13
REMARK H PARENT
REMARK Flexibility Score: inf
ROOT
ATOM      1  C   UNL     1      13.172   4.500  18.994  1.00  0.00     0.000 C 
ENDROOT
BRANCH   1   2
ATOM      2  C   UNL     1      14.467   4.285  18.192  1.00  0.00     0.000 C 
BRANCH   2   3
ATOM      3  C   UNL     1      14.236   4.362  16.673  1.00  0.00    -0.000 C 
BRANCH   3   4
ATOM      4  C   UNL     1      15.483   4.843  15.912  1.00  0.00    -0.000 C 
BRANCH   4   5
ATOM      5  C   UNL     1      16.210   5.998  16.625  1.00  0.00    -0.000 C 
BRANCH   5   6
ATOM      6  C   UNL     1      17.742   5.868  16.674  1.00  0.00    -0.003 C 
ATOM      7  C   UNL     1      18.223   4.418  16.598  1.00  0.00     0.004 C 
ENDBRANCH   5   6
ENDBRANCH   4   5
ENDBRANCH   3   4
ENDBRANCH   2   3
ENDBRANCH   1   2
BRANCH   1   8
ATOM      8  C   UNL     1      11.903   4.347  18.135  1.00  0.00     0.000 C 
BRANCH   8   9
ATOM      9  C   UNL     1      11.067   5.629  17.969  1.00  0.00     0.000 C 
BRANCH   9  10
ATOM     10  C   UNL     1      10.875   6.032  16.496  1.00  0.00     0.004 C 
BRANCH  10  11
ATOM     11  C   UNL     1      11.290   7.489  16.238  1.00  0.00     0.027 C 
BRANCH  11  12
ATOM     12  C   UNL     1      12.750   7.619  15.895  1.00  0.00    -0.035 C 
ATOM     13  C   UNL     1      13.510   8.589  16.412  1.00  0.00     0.004 C 
ENDBRANCH  11  12
ENDBRANCH  10  11
ENDBRANCH   9  10
ENDBRANCH   8   9
ENDBRANCH   1   8
TORSDOF 10
ENDMDL
MODEL 5
REMARK VINA RESULT:    -2.744      1.630      4.434
REMARK INTER + INTRA:          -6.203
REMARK INTER:                  -4.748
REMARK INTRA:                  -1.455
REMARK UNBOUND:                -1.854
REMARK SMILES C=CCCCCCCCCCCC
REMARK SMILES IDX 7 1 8 2 9 3 10 4 11 5 12 6 13 7 6 8 5 9 4 10 3 11 2 12 1 13
REMARK H PARENT
REMARK Flexibility Score: inf
ROOT
ATOM      1  C   UNL     1      14.734   6.246  16.723  1.00  0.00     0.000 C 
ENDROOT
BRANCH   1   2
ATOM      2  C   UNL     1      13.658   7.316  16.469  1.00  0.00     0.000 C 
BRANCH   2   3
ATOM      3  C   UNL     1      12.369   6.722  15.875  1.00  0.00    -0.000 C 
BRANCH   3   4
ATOM      4  C   UNL     1      11.139   6.985  16.760  1.00  0.00    -0.000 C 
BRANCH   4   5
ATOM      5  C   UNL     1      11.151   6.163  18.061  1.00  0.00    -0.000 C 
BRANCH   5   6
ATOM      6  C   UNL     1      11.272   6.993  19.351  1.00  0.00    -0.003 C 
ATOM      7  C   UNL     1      12.644   6.874  20.014  1.00  0.00     0.004 C 
ENDBRANCH   5   6
ENDBRANCH   4   5
ENDBRANCH   3   4
ENDBRANCH   2   3
ENDBRANCH   1   2
BRANCH   1   8
ATOM      8  C   UNL     1      14.379   4.881  16.103  1.00  0.00     0.000 C 
BRANCH   8   9
ATOM      9  C   UNL     1      14.585   3.669  17.031  1.00  0.00     0.000 C 
BRANCH   9  10
ATOM     10  C   UNL     1      13.624   3.664  18.232  1.00  0.00     0.004 C 
BRANCH  10  11
ATOM     11  C   UNL     1      14.373   3.584  19.571  1.00  0.00     0.027 C 
BRANCH  11  12
ATOM     12  C   UNL     1      13.453   3.305  20.730  1.00  0.00    -0.035 C 
ATOM     13  C   UNL     1      13.653   2.273  21.554  1.00  0.00     0.004 C 
ENDBRANCH  11  12
ENDBRANCH  10  11
ENDBRANCH   9  10
ENDBRANCH   8   9
ENDBRANCH   1   8
TORSDOF 10
ENDMDL
MODEL 6
REMARK VINA RESULT:    -2.734      2.014      4.368
REMARK INTER + INTRA:          -6.186
REMARK INTER:                  -4.994
REMARK INTRA:                  -1.192
REMARK UNBOUND:                -1.854
REMARK SMILES C=CCCCCCCCCCCC
REMARK SMILES IDX 7 1 8 2 9 3 10 4 11 5 12 6 13 7 6 8 5 9 4 10 3 11 2 12 1 13
REMARK H PARENT
REMARK Flexibility Score: inf
ROOT
ATOM      1  C   UNL     1      15.428   4.695  16.874  1.00  0.00     0.000 C 
ENDROOT
BRANCH   1   2
ATOM      2  C   UNL     1      14.534   5.450  15.875  1.00  0.00     0.000 C 
BRANCH   2   3
ATOM      3  C   UNL     1      14.303   6.915  16.285  1.00  0.00    -0.000 C 
BRANCH   3   4
ATOM      4  C   UNL     1      12.810   7.262  16.410  1.00  0.00    -0.000 C 
BRANCH   4   5
ATOM      5  C   UNL     1      11.891   6.056  16.143  1.00  0.00    -0.000 C 
BRANCH   5   6
ATOM      6  C   UNL     1      10.908   5.726  17.281  1.00  0.00    -0.003 C 
ATOM      7  C   UNL     1      11.257   6.424  18.595  1.00  0.00     0.004 C 
ENDBRANCH   5   6
ENDBRANCH   4   5
ENDBRANCH   3   4
ENDBRANCH   2   3
ENDBRANCH   1   2
BRANCH   1   8
ATOM      8  C   UNL     1      14.765   3.420  17.425  1.00  0.00     0.000 C 
BRANCH   8   9
ATOM      9  C   UNL     1      13.671   3.657  18.483  1.00  0.00     0.000 C 
BRANCH   9  10
ATOM     10  C   UNL     1      14.225   3.700  19.918  1.00  0.00     0.004 C 
BRANCH  10  11
ATOM     11  C   UNL     1      13.106   3.787  20.967  1.00  0.00     0.027 C 
BRANCH  11  12
ATOM     12  C   UNL     1      13.292   2.801  22.090  1.00  0.00    -0.035 C 
ATOM     13  C   UNL     1      13.779   1.575  21.878  1.00  0.00     0.004 C 
ENDBRANCH  11  12
ENDBRANCH  10  11
ENDBRANCH   9  10
ENDBRANCH   8   9
ENDBRANCH   1   8
TORSDOF 10
ENDMDL
MODEL 7
REMARK VINA RESULT:    -2.730      1.240      3.755
REMARK INTER + INTRA:          -6.181
REMARK INTER:                  -4.173
REMARK INTRA:                  -2.008
REMARK UNBOUND:                -1.854
REMARK SMILES C=CCCCCCCCCCCC
REMARK SMILES IDX 7 1 8 2 9 3 10 4 11 5 12 6 13 7 6 8 5 9 4 10 3 11 2 12 1 13
REMARK H PARENT
REMARK Flexibility Score: inf
ROOT
ATOM      1  C   UNL     1      14.000   4.183  16.359  1.00  0.00     0.000 C 
ENDROOT
BRANCH   1   2
ATOM      2  C   UNL     1      14.624   3.766  17.702  1.00  0.00     0.000 C 
BRANCH   2   3
ATOM      3  C   UNL     1      13.569   3.571  18.804  1.00  0.00    -0.000 C 
BRANCH   3   4
ATOM      4  C   UNL     1      13.343   4.845  19.635  1.00  0.00    -0.000 C 
BRANCH   4   5
ATOM      5  C   UNL     1      14.658   5.531  20.048  1.00  0.00    -0.000 C 
BRANCH   5   6
ATOM      6  C   UNL     1      14.809   6.985  19.568  1.00  0.00    -0.003 C 
ATOM      7  C   UNL     1      16.114   7.234  18.812  1.00  0.00     0.004 C 
ENDBRANCH   5   6
ENDBRANCH   4   5
ENDBRANCH   3   4
ENDBRANCH   2   3
ENDBRANCH   1   2
BRANCH   1   8
ATOM      8  C   UNL     1      14.354   5.627  15.958  1.00  0.00     0.000 C 
BRANCH   8   9
ATOM      9  C   UNL     1      13.258   6.671  16.241  1.00  0.00     0.000 C 
BRANCH   9  10
ATOM     10  C   UNL     1      11.836   6.099  16.105  1.00  0.00     0.004 C 
BRANCH  10  11
ATOM     11  C   UNL     1      10.967   6.412  17.333  1.00  0.00     0.027 C 
BRANCH  11  12
ATOM     12  C   UNL     1      11.284   7.756  17.935  1.00  0.00    -0.035 C 
ATOM     13  C   UNL     1      11.259   7.959  19.255  1.00  0.00     0.004 C 
ENDBRANCH  11  12
ENDBRANCH  10  11
ENDBRANCH   9  10
ENDBRANCH   8   9
ENDBRANCH   1   8
TORSDOF 10
ENDMDL
MODEL 8
REMARK VINA RESULT:    -2.514      1.328      2.670
REMARK INTER + INTRA:          -5.837
REMARK INTER:                  -4.263
REMARK INTRA:                  -1.574
REMARK UNBOUND:                -1.854
REMARK SMILES C=CCCCCCCCCCCC
REMARK SMILES IDX 7 1 8 2 9 3 10 4 11 5 12 6 13 7 6 8 5 9 4 10 3 11 2 12 1 13
REMARK H PARENT
REMARK Flexibility Score: inf
ROOT
ATOM      1  C   UNL     1      14.464   7.513  16.995  1.00  0.00     0.000 C 
ENDROOT
BRANCH   1   2
ATOM      2  C   UNL     1      15.173   6.148  16.951  1.00  0.00     0.000 C 
BRANCH   2   3
ATOM      3  C   UNL     1      14.587   5.216  15.878  1.00  0.00    -0.000 C 
BRANCH   3   4
ATOM      4  C   UNL     1      14.278   3.811  16.424  1.00  0.00    -0.000 C 
BRANCH   4   5
ATOM      5  C   UNL     1      14.801   3.598  17.857  1.00  0.00    -0.000 C 
BRANCH   5   6
ATOM      6  C   UNL     1      13.710   3.366  18.917  1.00  0.00    -0.003 C 
ATOM      7  C   UNL     1      14.265   3.275  20.338  1.00  0.00     0.004 C 
ENDBRANCH   5   6
ENDBRANCH   4   5
ENDBRANCH   3   4
ENDBRANCH   2   3
ENDBRANCH   1   2
BRANCH   1   8
ATOM      8  C   UNL     1      13.420   7.681  15.875  1.00  0.00     0.000 C 
BRANCH   8   9
ATOM      9  C   UNL     1      12.280   8.668  16.187  1.00  0.00     0.000 C 
BRANCH   9  10
ATOM     10  C   UNL     1      10.965   7.964  16.564  1.00  0.00     0.004 C 
BRANCH  10  11
ATOM     11  C   UNL     1      10.941   6.500  16.103  1.00  0.00     0.027 C 
BRANCH  11  12
ATOM     12  C   UNL     1      10.910   5.533  17.257  1.00  0.00    -0.035 C 
ATOM     13  C   UNL     1      11.102   5.934  18.516  1.00  0.00     0.004 C 
ENDBRANCH  11  12
ENDBRANCH  10  11
ENDBRANCH   9  10
ENDBRANCH   8   9
ENDBRANCH   1   8
TORSDOF 10
ENDMDL
