MODEL 1
REMARK VINA RESULT:    -7.064      0.000      0.000
REMARK INTER + INTRA:          -7.477
REMARK INTER:                  -7.477
REMARK INTRA:                   0.000
REMARK UNBOUND:                 0.000
REMARK SMILES O=c1ccc2cc(O)c(O)cc2o1
REMARK SMILES IDX 4 1 3 2 2 3 1 4 13 5 12 6 11 7 9 8 7 9 6 10 5 11 8 12 10 14
REMARK H PARENT 8 13 10 15
REMARK Flexibility Score: inf
ROOT
ATOM      1  C   UNL     1       3.279  30.876  70.986  1.00  0.00     0.019 A 
ATOM      2  C   UNL     1       4.433  30.126  71.210  1.00  0.00     0.094 A 
ATOM      3  C   UNL     1       4.720  29.053  70.360  1.00  0.00     0.336 A 
ATOM      4  O   UNL     1       5.757  28.364  70.545  1.00  0.00    -0.246 OA
ATOM      5  O   UNL     1       3.904  28.755  69.352  1.00  0.00    -0.423 OA
ATOM      6  C   UNL     1       2.793  29.445  69.103  1.00  0.00     0.142 A 
ATOM      7  C   UNL     1       1.973  29.085  68.029  1.00  0.00     0.098 A 
ATOM      8  C   UNL     1       0.803  29.805  67.759  1.00  0.00     0.161 A 
ATOM      9  C   UNL     1       0.449  30.898  68.572  1.00  0.00     0.158 A 
ATOM     10  C   UNL     1       1.268  31.263  69.651  1.00  0.00     0.062 A 
ATOM     11  C   UNL     1       2.438  30.540  69.919  1.00  0.00     0.022 A 
ENDROOT
BRANCH   9  12
ATOM     12  O   UNL     1      -0.716  31.616  68.305  1.00  0.00    -0.504 OA
ATOM     13  H   UNL     1      -1.631  31.252  68.545  1.00  0.00     0.293 HD
ENDBRANCH   9  12
BRANCH   8  14
ATOM     14  O   UNL     1       0.006  29.422  66.682  1.00  0.00    -0.504 OA
ATOM     15  H   UNL     1      -0.384  30.096  66.034  1.00  0.00     0.293 HD
ENDBRANCH   8  14
TORSDOF 2
ENDMDL
MODEL 2
REMARK VINA RESULT:    -6.980      2.316      2.938
REMARK INTER + INTRA:          -7.388
REMARK INTER:                  -7.388
REMARK INTRA:                   0.000
REMARK UNBOUND:                 0.000
REMARK SMILES O=c1ccc2cc(O)c(O)cc2o1
REMARK SMILES IDX 4 1 3 2 2 3 1 4 13 5 12 6 11 7 9 8 7 9 6 10 5 11 8 12 10 14
REMARK H PARENT 8 13 10 15
REMARK Flexibility Score: inf
ROOT
ATOM      1  C   UNL     1       1.763  29.643  69.429  1.00  0.00     0.019 A 
ATOM      2  C   UNL     1       2.763  28.752  69.815  1.00  0.00     0.094 A 
ATOM      3  C   UNL     1       4.099  29.163  69.755  1.00  0.00     0.336 A 
ATOM      4  O   UNL     1       5.016  28.373  70.099  1.00  0.00    -0.246 OA
ATOM      5  O   UNL     1       4.408  30.389  69.339  1.00  0.00    -0.423 OA
ATOM      6  C   UNL     1       3.485  31.270  68.962  1.00  0.00     0.142 A 
ATOM      7  C   UNL     1       3.869  32.544  68.532  1.00  0.00     0.098 A 
ATOM      8  C   UNL     1       2.905  33.478  68.134  1.00  0.00     0.161 A 
ATOM      9  C   UNL     1       1.540  33.135  68.167  1.00  0.00     0.158 A 
ATOM     10  C   UNL     1       1.150  31.858  68.597  1.00  0.00     0.062 A 
ATOM     11  C   UNL     1       2.117  30.925  68.994  1.00  0.00     0.022 A 
ENDROOT
BRANCH   9  12
ATOM     12  O   UNL     1       0.579  34.064  67.771  1.00  0.00    -0.504 OA
ATOM     13  H   UNL     1       0.691  35.055  67.953  1.00  0.00     0.293 HD
ENDBRANCH   9  12
BRANCH   8  14
ATOM     14  O   UNL     1       3.319  34.740  67.711  1.00  0.00    -0.504 OA
ATOM     15  H   UNL     1       4.234  34.898  67.305  1.00  0.00     0.293 HD
ENDBRANCH   8  14
TORSDOF 2
ENDMDL
MODEL 3
REMARK VINA RESULT:    -6.898      1.703      2.258
REMARK INTER + INTRA:          -7.301
REMARK INTER:                  -7.301
REMARK INTRA:                   0.000
REMARK UNBOUND:                 0.000
REMARK SMILES O=c1ccc2cc(O)c(O)cc2o1
REMARK SMILES IDX 4 1 3 2 2 3 1 4 13 5 12 6 11 7 9 8 7 9 6 10 5 11 8 12 10 14
REMARK H PARENT 8 13 10 15
REMARK Flexibility Score: inf
ROOT
ATOM      1  C   UNL     1       4.340  30.821  68.203  1.00  0.00     0.019 A 
ATOM      2  C   UNL     1       4.985  30.515  69.400  1.00  0.00     0.094 A 
ATOM      3  C   UNL     1       4.224  30.375  70.566  1.00  0.00     0.336 A 
ATOM      4  O   UNL     1       4.789  30.097  71.656  1.00  0.00    -0.246 OA
ATOM      5  O   UNL     1       2.903  30.530  70.530  1.00  0.00    -0.423 OA
ATOM      6  C   UNL     1       2.248  30.823  69.409  1.00  0.00     0.142 A 
ATOM      7  C   UNL     1       0.857  30.976  69.432  1.00  0.00     0.098 A 
ATOM      8  C   UNL     1       0.160  31.284  68.258  1.00  0.00     0.161 A 
ATOM      9  C   UNL     1       0.859  31.440  67.047  1.00  0.00     0.158 A 
ATOM     10  C   UNL     1       2.253  31.289  67.019  1.00  0.00     0.062 A 
ATOM     11  C   UNL     1       2.950  30.981  68.195  1.00  0.00     0.022 A 
ENDROOT
BRANCH   9  12
ATOM     12  O   UNL     1       0.166  31.747  65.877  1.00  0.00    -0.504 OA
ATOM     13  H   UNL     1      -0.593  31.165  65.541  1.00  0.00     0.293 HD
ENDBRANCH   9  12
BRANCH   8  14
ATOM     14  O   UNL     1      -1.225  31.430  68.313  1.00  0.00    -0.504 OA
ATOM     15  H   UNL     1      -1.846  30.637  68.419  1.00  0.00     0.293 HD
ENDBRANCH   8  14
TORSDOF 2
ENDMDL
MODEL 4
REMARK VINA RESULT:    -6.737      2.288      2.839
REMARK INTER + INTRA:          -7.131
REMARK INTER:                  -7.131
REMARK INTRA:                   0.000
REMARK UNBOUND:                 0.000
REMARK SMILES O=c1ccc2cc(O)c(O)cc2o1
REMARK SMILES IDX 4 1 3 2 2 3 1 4 13 5 12 6 11 7 9 8 7 9 6 10 5 11 8 12 10 14
REMARK H PARENT 8 13 10 15
REMARK Flexibility Score: inf
ROOT
ATOM      1  C   UNL     1       4.868  30.615  69.824  1.00  0.00     0.019 A 
ATOM      2  C   UNL     1       4.615  29.331  70.304  1.00  0.00     0.094 A 
ATOM      3  C   UNL     1       3.315  28.821  70.228  1.00  0.00     0.336 A 
ATOM      4  O   UNL     1       3.067  27.663  70.656  1.00  0.00    -0.246 OA
ATOM      5  O   UNL     1       2.335  29.551  69.701  1.00  0.00    -0.423 OA
ATOM      6  C   UNL     1       2.533  30.781  69.231  1.00  0.00     0.142 A 
ATOM      7  C   UNL     1       1.464  31.502  68.690  1.00  0.00     0.098 A 
ATOM      8  C   UNL     1       1.663  32.796  68.193  1.00  0.00     0.161 A 
ATOM      9  C   UNL     1       2.945  33.376  68.237  1.00  0.00     0.158 A 
ATOM     10  C   UNL     1       4.020  32.656  68.780  1.00  0.00     0.062 A 
ATOM     11  C   UNL     1       3.818  31.361  69.277  1.00  0.00     0.022 A 
ENDROOT
BRANCH   9  12
ATOM     12  O   UNL     1       3.144  34.664  67.743  1.00  0.00    -0.504 OA
ATOM     13  H   UNL     1       4.034  34.950  67.351  1.00  0.00     0.293 HD
ENDBRANCH   9  12
BRANCH   8  14
ATOM     14  O   UNL     1       0.578  33.489  67.659  1.00  0.00    -0.504 OA
ATOM     15  H   UNL     1       0.688  34.183  66.930  1.00  0.00     0.293 HD
ENDBRANCH   8  14
TORSDOF 2
ENDMDL
MODEL 5
REMARK VINA RESULT:    -6.574      2.175      4.325
REMARK INTER + INTRA:          -6.958
REMARK INTER:                  -6.958
REMARK INTRA:                   0.000
REMARK UNBOUND:                 0.000
REMARK SMILES O=c1ccc2cc(O)c(O)cc2o1
REMARK SMILES IDX 4 1 3 2 2 3 1 4 13 5 12 6 11 7 9 8 7 9 6 10 5 11 8 12 10 14
REMARK H PARENT 8 13 10 15
REMARK Flexibility Score: inf
ROOT
ATOM      1  C   UNL     1       2.381  32.907  68.281  1.00  0.00     0.019 A 
ATOM      2  C   UNL     1       2.010  33.233  66.977  1.00  0.00     0.094 A 
ATOM      3  C   UNL     1       1.670  32.206  66.090  1.00  0.00     0.336 A 
ATOM      4  O   UNL     1       1.333  32.481  64.909  1.00  0.00    -0.246 OA
ATOM      5  O   UNL     1       1.698  30.937  66.488  1.00  0.00    -0.423 OA
ATOM      6  C   UNL     1       2.046  30.581  67.723  1.00  0.00     0.142 A 
ATOM      7  C   UNL     1       2.059  29.230  68.084  1.00  0.00     0.098 A 
ATOM      8  C   UNL     1       2.423  28.848  69.381  1.00  0.00     0.161 A 
ATOM      9  C   UNL     1       2.778  29.826  70.328  1.00  0.00     0.158 A 
ATOM     10  C   UNL     1       2.767  31.183  69.970  1.00  0.00     0.062 A 
ATOM     11  C   UNL     1       2.403  31.564  68.671  1.00  0.00     0.022 A 
ENDROOT
BRANCH   9  12
ATOM     12  O   UNL     1       3.141  29.447  71.619  1.00  0.00    -0.504 OA
ATOM     13  H   UNL     1       3.659  30.068  72.229  1.00  0.00     0.293 HD
ENDBRANCH   9  12
BRANCH   8  14
ATOM     14  O   UNL     1       2.425  27.493  69.710  1.00  0.00    -0.504 OA
ATOM     15  H   UNL     1       2.694  27.163  70.629  1.00  0.00     0.293 HD
ENDBRANCH   8  14
TORSDOF 2
ENDMDL
MODEL 6
REMARK VINA RESULT:    -6.507      2.656      4.967
REMARK INTER + INTRA:          -6.888
REMARK INTER:                  -6.888
REMARK INTRA:                   0.000
REMARK UNBOUND:                 0.000
REMARK SMILES O=c1ccc2cc(O)c(O)cc2o1
REMARK SMILES IDX 4 1 3 2 2 3 1 4 13 5 12 6 11 7 9 8 7 9 6 10 5 11 8 12 10 14
REMARK H PARENT 8 13 10 15
REMARK Flexibility Score: inf
ROOT
ATOM      1  C   UNL     1       2.707  33.430  66.919  1.00  0.00     0.019 A 
ATOM      2  C   UNL     1       1.860  33.551  65.817  1.00  0.00     0.094 A 
ATOM      3  C   UNL     1       0.787  32.664  65.686  1.00  0.00     0.336 A 
ATOM      4  O   UNL     1       0.011  32.758  64.698  1.00  0.00    -0.246 OA
ATOM      5  O   UNL     1       0.576  31.721  66.600  1.00  0.00    -0.423 OA
ATOM      6  C   UNL     1       1.359  31.571  67.666  1.00  0.00     0.142 A 
ATOM      7  C   UNL     1       1.090  30.560  68.594  1.00  0.00     0.098 A 
ATOM      8  C   UNL     1       1.908  30.395  69.718  1.00  0.00     0.161 A 
ATOM      9  C   UNL     1       3.008  31.250  69.917  1.00  0.00     0.158 A 
ATOM     10  C   UNL     1       3.283  32.265  68.989  1.00  0.00     0.062 A 
ATOM     11  C   UNL     1       2.463  32.428  67.864  1.00  0.00     0.022 A 
ENDROOT
BRANCH   9  12
ATOM     12  O   UNL     1       3.824  31.087  71.036  1.00  0.00    -0.504 OA
ATOM     13  H   UNL     1       4.805  31.340  71.019  1.00  0.00     0.293 HD
ENDBRANCH   9  12
BRANCH   8  14
ATOM     14  O   UNL     1       1.613  29.379  70.625  1.00  0.00    -0.504 OA
ATOM     15  H   UNL     1       0.855  28.725  70.474  1.00  0.00     0.293 HD
ENDBRANCH   8  14
TORSDOF 2
ENDMDL
MODEL 7
REMARK VINA RESULT:    -6.503      2.532      3.402
REMARK INTER + INTRA:          -6.883
REMARK INTER:                  -6.883
REMARK INTRA:                   0.000
REMARK UNBOUND:                 0.000
REMARK SMILES O=c1ccc2cc(O)c(O)cc2o1
REMARK SMILES IDX 4 1 3 2 2 3 1 4 13 5 12 6 11 7 9 8 7 9 6 10 5 11 8 12 10 14
REMARK H PARENT 8 13 10 15
REMARK Flexibility Score: inf
ROOT
ATOM      1  C   UNL     1       3.836  30.492  67.260  1.00  0.00     0.019 A 
ATOM      2  C   UNL     1       3.862  29.372  68.090  1.00  0.00     0.094 A 
ATOM      3  C   UNL     1       2.880  29.237  69.078  1.00  0.00     0.336 A 
ATOM      4  O   UNL     1       2.886  28.233  69.837  1.00  0.00    -0.246 OA
ATOM      5  O   UNL     1       1.937  30.164  69.221  1.00  0.00    -0.423 OA
ATOM      6  C   UNL     1       1.876  31.248  68.451  1.00  0.00     0.142 A 
ATOM      7  C   UNL     1       0.861  32.190  68.648  1.00  0.00     0.098 A 
ATOM      8  C   UNL     1       0.790  33.332  67.842  1.00  0.00     0.161 A 
ATOM      9  C   UNL     1       1.743  33.536  66.827  1.00  0.00     0.158 A 
ATOM     10  C   UNL     1       2.763  32.595  66.626  1.00  0.00     0.062 A 
ATOM     11  C   UNL     1       2.833  31.452  67.434  1.00  0.00     0.022 A 
ENDROOT
BRANCH   9  12
ATOM     12  O   UNL     1       1.673  34.674  66.024  1.00  0.00    -0.504 OA
ATOM     13  H   UNL     1       0.888  34.839  65.404  1.00  0.00     0.293 HD
ENDBRANCH   9  12
BRANCH   8  14
ATOM     14  O   UNL     1      -0.234  34.252  68.063  1.00  0.00    -0.504 OA
ATOM     15  H   UNL     1      -0.739  34.690  67.302  1.00  0.00     0.293 HD
ENDBRANCH   8  14
TORSDOF 2
ENDMDL
MODEL 8
REMARK VINA RESULT:    -6.480      2.477      4.919
REMARK INTER + INTRA:          -6.858
REMARK INTER:                  -6.858
REMARK INTRA:                   0.000
REMARK UNBOUND:                 0.000
REMARK SMILES O=c1ccc2cc(O)c(O)cc2o1
REMARK SMILES IDX 4 1 3 2 2 3 1 4 13 5 12 6 11 7 9 8 7 9 6 10 5 11 8 12 10 14
REMARK H PARENT 8 13 10 15
REMARK Flexibility Score: inf
ROOT
ATOM      1  C   UNL     1       0.571  32.009  68.129  1.00  0.00     0.019 A 
ATOM      2  C   UNL     1       0.378  32.346  66.790  1.00  0.00     0.094 A 
ATOM      3  C   UNL     1       1.469  32.302  65.915  1.00  0.00     0.336 A 
ATOM      4  O   UNL     1       1.315  32.603  64.702  1.00  0.00    -0.246 OA
ATOM      5  O   UNL     1       2.672  31.943  66.356  1.00  0.00    -0.423 OA
ATOM      6  C   UNL     1       2.899  31.614  67.625  1.00  0.00     0.142 A 
ATOM      7  C   UNL     1       4.186  31.245  68.032  1.00  0.00     0.098 A 
ATOM      8  C   UNL     1       4.434  30.897  69.365  1.00  0.00     0.161 A 
ATOM      9  C   UNL     1       3.385  30.918  70.303  1.00  0.00     0.158 A 
ATOM     10  C   UNL     1       2.093  31.288  69.900  1.00  0.00     0.062 A 
ATOM     11  C   UNL     1       1.847  31.636  68.565  1.00  0.00     0.022 A 
ENDROOT
BRANCH   9  12
ATOM     12  O   UNL     1       3.631  30.572  71.631  1.00  0.00    -0.504 OA
ATOM     13  H   UNL     1       3.367  29.666  72.001  1.00  0.00     0.293 HD
ENDBRANCH   9  12
BRANCH   8  14
ATOM     14  O   UNL     1       5.726  30.534  69.739  1.00  0.00    -0.504 OA
ATOM     15  H   UNL     1       6.372  31.193  70.155  1.00  0.00     0.293 HD
ENDBRANCH   8  14
TORSDOF 2
ENDMDL
MODEL 9
REMARK VINA RESULT:    -6.456      1.721      2.209
REMARK INTER + INTRA:          -6.833
REMARK INTER:                  -6.833
REMARK INTRA:                   0.000
REMARK UNBOUND:                 0.000
REMARK SMILES O=c1ccc2cc(O)c(O)cc2o1
REMARK SMILES IDX 4 1 3 2 2 3 1 4 13 5 12 6 11 7 9 8 7 9 6 10 5 11 8 12 10 14
REMARK H PARENT 8 13 10 15
REMARK Flexibility Score: inf
ROOT
ATOM      1  C   UNL     1       3.624  28.243  70.257  1.00  0.00     0.019 A 
ATOM      2  C   UNL     1       4.776  28.596  70.958  1.00  0.00     0.094 A 
ATOM      3  C   UNL     1       5.420  29.798  70.646  1.00  0.00     0.336 A 
ATOM      4  O   UNL     1       6.461  30.133  71.268  1.00  0.00    -0.246 OA
ATOM      5  O   UNL     1       4.937  30.593  69.695  1.00  0.00    -0.423 OA
ATOM      6  C   UNL     1       3.841  30.294  69.001  1.00  0.00     0.142 A 
ATOM      7  C   UNL     1       3.381  31.169  68.011  1.00  0.00     0.098 A 
ATOM      8  C   UNL     1       2.228  30.863  67.277  1.00  0.00     0.161 A 
ATOM      9  C   UNL     1       1.527  29.670  67.536  1.00  0.00     0.158 A 
ATOM     10  C   UNL     1       1.985  28.790  68.527  1.00  0.00     0.062 A 
ATOM     11  C   UNL     1       3.139  29.097  69.260  1.00  0.00     0.022 A 
ENDROOT
BRANCH   9  12
ATOM     12  O   UNL     1       0.380  29.364  66.806  1.00  0.00    -0.504 OA
ATOM     13  H   UNL     1      -0.002  30.007  66.122  1.00  0.00     0.293 HD
ENDBRANCH   9  12
BRANCH   8  14
ATOM     14  O   UNL     1       1.794  31.754  66.298  1.00  0.00    -0.504 OA
ATOM     15  H   UNL     1       2.301  31.891  65.432  1.00  0.00     0.293 HD
ENDBRANCH   8  14
TORSDOF 2
ENDMDL
