MODEL 1
REMARK VINA RESULT:    -2.307      0.000      0.000
REMARK INTER + INTRA:          -2.747
REMARK INTER:                  -2.712
REMARK INTRA:                  -0.035
REMARK UNBOUND:                -0.035
REMARK SMILES O=C([O-])CCC(=O)[O-]
REMARK SMILES IDX 4 1 2 2 1 3 3 4 5 5 6 6 7 7 8 8
REMARK H PARENT
REMARK Flexibility Score: inf
ROOT
ATOM      1  C   UNL     1     -26.741   7.879  -5.241  1.00  0.00     0.059 C 
ENDROOT
BRANCH   1   2
ATOM      2  C   UNL     1     -26.236   8.645  -6.423  1.00  0.00     0.042 C 
ATOM      3  O   UNL     1     -27.025   9.352  -7.104  1.00  0.00    -0.550 OA
ATOM      4  O   UNL     1     -24.884   8.616  -6.744  1.00  0.00    -0.550 OA
ENDBRANCH   1   2
BRANCH   1   5
ATOM      5  C   UNL     1     -27.954   8.579  -4.629  1.00  0.00     0.059 C 
BRANCH   5   6
ATOM      6  C   UNL     1     -28.250   8.023  -3.272  1.00  0.00     0.042 C 
ATOM      7  O   UNL     1     -27.404   8.126  -2.346  1.00  0.00    -0.550 OA
ATOM      8  O   UNL     1     -29.442   7.346  -3.043  1.00  0.00    -0.550 OA
ENDBRANCH   5   6
ENDBRANCH   1   5
TORSDOF 3
ENDMDL
MODEL 2
REMARK VINA RESULT:    -2.251      0.199      4.388
REMARK INTER + INTRA:          -2.681
REMARK INTER:                  -2.646
REMARK INTRA:                  -0.035
REMARK UNBOUND:                -0.035
REMARK SMILES O=C([O-])CCC(=O)[O-]
REMARK SMILES IDX 4 1 2 2 1 3 3 4 5 5 6 6 7 7 8 8
REMARK H PARENT
REMARK Flexibility Score: inf
ROOT
ATOM      1  C   UNL     1     -27.875   8.625  -4.707  1.00  0.00     0.059 C 
ENDROOT
BRANCH   1   2
ATOM      2  C   UNL     1     -28.250   8.085  -3.363  1.00  0.00     0.042 C 
ATOM      3  O   UNL     1     -27.483   8.248  -2.378  1.00  0.00    -0.550 OA
ATOM      4  O   UNL     1     -29.470   7.443  -3.188  1.00  0.00    -0.550 OA
ENDBRANCH   1   2
BRANCH   1   5
ATOM      5  C   UNL     1     -26.661   7.879  -5.263  1.00  0.00     0.059 C 
BRANCH   5   6
ATOM      6  C   UNL     1     -26.147   8.559  -6.492  1.00  0.00     0.042 C 
ATOM      7  O   UNL     1     -26.874   9.376  -7.116  1.00  0.00    -0.550 OA
ATOM      8  O   UNL     1     -24.882   8.253  -6.978  1.00  0.00    -0.550 OA
ENDBRANCH   5   6
ENDBRANCH   1   5
TORSDOF 3
ENDMDL
MODEL 3
REMARK VINA RESULT:    -2.039      3.790      5.295
REMARK INTER + INTRA:          -2.431
REMARK INTER:                  -2.454
REMARK INTRA:                   0.023
REMARK UNBOUND:                -0.035
REMARK SMILES O=C([O-])CCC(=O)[O-]
REMARK SMILES IDX 4 1 2 2 1 3 3 4 5 5 6 6 7 7 8 8
REMARK H PARENT
REMARK Flexibility Score: inf
ROOT
ATOM      1  C   UNL     1     -29.978   7.167  -1.852  1.00  0.00     0.059 C 
ENDROOT
BRANCH   1   2
ATOM      2  C   UNL     1     -28.591   7.653  -1.569  1.00  0.00     0.042 C 
ATOM      3  O   UNL     1     -27.842   8.018  -2.512  1.00  0.00    -0.550 OA
ATOM      4  O   UNL     1     -28.142   7.747  -0.257  1.00  0.00    -0.550 OA
ENDBRANCH   1   2
BRANCH   1   5
ATOM      5  C   UNL     1     -30.488   6.304  -0.697  1.00  0.00     0.059 C 
BRANCH   5   6
ATOM      6  C   UNL     1     -31.234   7.143   0.292  1.00  0.00     0.042 C 
ATOM      7  O   UNL     1     -30.911   7.127   1.508  1.00  0.00    -0.550 OA
ATOM      8  O   UNL     1     -32.320   7.905  -0.122  1.00  0.00    -0.550 OA
ENDBRANCH   5   6
ENDBRANCH   1   5
TORSDOF 3
ENDMDL
MODEL 4
REMARK VINA RESULT:    -2.032      3.816      6.438
REMARK INTER + INTRA:          -2.424
REMARK INTER:                  -2.443
REMARK INTRA:                   0.019
REMARK UNBOUND:                -0.035
REMARK SMILES O=C([O-])CCC(=O)[O-]
REMARK SMILES IDX 4 1 2 2 1 3 3 4 5 5 6 6 7 7 8 8
REMARK H PARENT
REMARK Flexibility Score: inf
ROOT
ATOM      1  C   UNL     1     -30.484   6.318  -0.668  1.00  0.00     0.059 C 
ENDROOT
BRANCH   1   2
ATOM      2  C   UNL     1     -31.242   7.124   0.338  1.00  0.00     0.042 C 
ATOM      3  O   UNL     1     -30.887   7.126   1.546  1.00  0.00    -0.550 OA
ATOM      4  O   UNL     1     -32.312   7.912  -0.067  1.00  0.00    -0.550 OA
ENDBRANCH   1   2
BRANCH   1   5
ATOM      5  C   UNL     1     -29.947   7.219  -1.781  1.00  0.00     0.059 C 
BRANCH   5   6
ATOM      6  C   UNL     1     -28.548   7.653  -1.473  1.00  0.00     0.042 C 
ATOM      7  O   UNL     1     -28.157   7.732  -0.279  1.00  0.00    -0.550 OA
ATOM      8  O   UNL     1     -27.691   8.016  -2.505  1.00  0.00    -0.550 OA
ENDBRANCH   5   6
ENDBRANCH   1   5
TORSDOF 3
ENDMDL
MODEL 5
REMARK VINA RESULT:    -1.988      3.800      6.340
REMARK INTER + INTRA:          -2.372
REMARK INTER:                  -2.399
REMARK INTRA:                   0.027
REMARK UNBOUND:                -0.035
REMARK SMILES O=C([O-])CCC(=O)[O-]
REMARK SMILES IDX 4 1 2 2 1 3 3 4 5 5 6 6 7 7 8 8
REMARK H PARENT
REMARK Flexibility Score: inf
ROOT
ATOM      1  C   UNL     1     -30.479   6.312  -0.713  1.00  0.00     0.059 C 
ENDROOT
BRANCH   1   2
ATOM      2  C   UNL     1     -31.245   7.154   0.256  1.00  0.00     0.042 C 
ATOM      3  O   UNL     1     -32.247   7.813  -0.129  1.00  0.00    -0.550 OA
ATOM      4  O   UNL     1     -30.883   7.174   1.598  1.00  0.00    -0.550 OA
ENDBRANCH   1   2
BRANCH   1   5
ATOM      5  C   UNL     1     -29.951   7.168  -1.865  1.00  0.00     0.059 C 
BRANCH   5   6
ATOM      6  C   UNL     1     -28.581   7.679  -1.551  1.00  0.00     0.042 C 
ATOM      7  O   UNL     1     -27.802   8.017  -2.481  1.00  0.00    -0.550 OA
ATOM      8  O   UNL     1     -28.146   7.739  -0.232  1.00  0.00    -0.550 OA
ENDBRANCH   5   6
ENDBRANCH   1   5
TORSDOF 3
ENDMDL
MODEL 6
REMARK VINA RESULT:    -1.971      3.759      5.360
REMARK INTER + INTRA:          -2.352
REMARK INTER:                  -2.366
REMARK INTRA:                   0.014
REMARK UNBOUND:                -0.035
REMARK SMILES O=C([O-])CCC(=O)[O-]
REMARK SMILES IDX 4 1 2 2 1 3 3 4 5 5 6 6 7 7 8 8
REMARK H PARENT
REMARK Flexibility Score: inf
ROOT
ATOM      1  C   UNL     1     -29.979   7.177  -1.834  1.00  0.00     0.059 C 
ENDROOT
BRANCH   1   2
ATOM      2  C   UNL     1     -28.598   7.679  -1.555  1.00  0.00     0.042 C 
ATOM      3  O   UNL     1     -28.169   7.732  -0.373  1.00  0.00    -0.550 OA
ATOM      4  O   UNL     1     -27.766   8.045  -2.607  1.00  0.00    -0.550 OA
ENDBRANCH   1   2
BRANCH   1   5
ATOM      5  C   UNL     1     -30.477   6.311  -0.675  1.00  0.00     0.059 C 
BRANCH   5   6
ATOM      6  C   UNL     1     -31.241   7.141   0.307  1.00  0.00     0.042 C 
ATOM      7  O   UNL     1     -32.221   7.834  -0.075  1.00  0.00    -0.550 OA
ATOM      8  O   UNL     1     -30.842   7.188   1.637  1.00  0.00    -0.550 OA
ENDBRANCH   5   6
ENDBRANCH   1   5
TORSDOF 3
ENDMDL
MODEL 7
REMARK VINA RESULT:    -0.769      2.046      2.765
REMARK INTER + INTRA:          -0.939
REMARK INTER:                  -0.901
REMARK INTRA:                  -0.038
REMARK UNBOUND:                -0.035
REMARK SMILES O=C([O-])CCC(=O)[O-]
REMARK SMILES IDX 4 1 2 2 1 3 3 4 5 5 6 6 7 7 8 8
REMARK H PARENT
REMARK Flexibility Score: inf
ROOT
ATOM      1  C   UNL     1     -28.733   7.957  -3.179  1.00  0.00     0.059 C 
ENDROOT
BRANCH   1   2
ATOM      2  C   UNL     1     -27.673   8.145  -4.217  1.00  0.00     0.042 C 
ATOM      3  O   UNL     1     -27.911   8.824  -5.251  1.00  0.00    -0.550 OA
ATOM      4  O   UNL     1     -26.405   7.611  -4.021  1.00  0.00    -0.550 OA
ENDBRANCH   1   2
BRANCH   1   5
ATOM      5  C   UNL     1     -28.113   7.921  -1.782  1.00  0.00     0.059 C 
BRANCH   5   6
ATOM      6  C   UNL     1     -29.098   7.397  -0.786  1.00  0.00     0.042 C 
ATOM      7  O   UNL     1     -28.876   7.515   0.448  1.00  0.00    -0.550 OA
ATOM      8  O   UNL     1     -30.240   6.735  -1.219  1.00  0.00    -0.550 OA
ENDBRANCH   5   6
ENDBRANCH   1   5
TORSDOF 3
ENDMDL
