MODEL 1
REMARK VINA RESULT:    -2.666      0.000      0.000
REMARK INTER + INTRA:          -4.368
REMARK INTER:                  -3.601
REMARK INTRA:                  -0.768
REMARK UNBOUND:                -0.768
REMARK SMILES CCCCCCCC(C)=O
REMARK SMILES IDX 5 1 4 2 3 3 2 4 1 5 6 6 7 7 8 8 10 9 9 10
REMARK H PARENT
REMARK Flexibility Score: inf
ROOT
ATOM      1  C   UNL     1     114.315 116.143 119.858  1.00  0.00     0.000 C 
ENDROOT
BRANCH   1   2
ATOM      2  C   UNL     1     114.725 117.620 119.732  1.00  0.00     0.000 C 
BRANCH   2   3
ATOM      3  C   UNL     1     115.800 118.033 120.755  1.00  0.00    -0.000 C 
BRANCH   3   4
ATOM      4  C   UNL     1     117.109 118.563 120.143  1.00  0.00    -0.003 C 
ATOM      5  C   UNL     1     118.324 118.340 121.044  1.00  0.00     0.004 C 
ENDBRANCH   3   4
ENDBRANCH   2   3
ENDBRANCH   1   2
BRANCH   1   6
ATOM      6  C   UNL     1     115.289 115.334 120.732  1.00  0.00     0.008 C 
BRANCH   6   7
ATOM      7  C   UNL     1     116.192 114.404 119.909  1.00  0.00     0.075 C 
BRANCH   7   8
ATOM      8  C   UNL     1     117.639 114.790 120.074  1.00  0.00     0.129 C 
ATOM      9  O   UNL     1     118.148 114.755 121.184  1.00  0.00    -0.300 OA
ATOM     10  C   UNL     1     118.470 115.228 118.904  1.00  0.00     0.087 C 
ENDBRANCH   7   8
ENDBRANCH   6   7
ENDBRANCH   1   6
TORSDOF 6
ENDMDL
MODEL 2
REMARK VINA RESULT:    -2.643      1.859      4.447
REMARK INTER + INTRA:          -4.338
REMARK INTER:                  -3.649
REMARK INTRA:                  -0.689
REMARK UNBOUND:                -0.768
REMARK SMILES CCCCCCCC(C)=O
REMARK SMILES IDX 5 1 4 2 3 3 2 4 1 5 6 6 7 7 8 8 10 9 9 10
REMARK H PARENT
REMARK Flexibility Score: inf
ROOT
ATOM      1  C   UNL     1     118.825 116.211 119.428  1.00  0.00     0.000 C 
ENDROOT
BRANCH   1   2
ATOM      2  C   UNL     1     118.355 115.181 120.469  1.00  0.00     0.000 C 
BRANCH   2   3
ATOM      3  C   UNL     1     117.322 114.188 119.906  1.00  0.00    -0.000 C 
BRANCH   3   4
ATOM      4  C   UNL     1     115.944 114.795 119.585  1.00  0.00    -0.003 C 
ATOM      5  C   UNL     1     115.032 114.887 120.808  1.00  0.00     0.004 C 
ENDBRANCH   3   4
ENDBRANCH   2   3
ENDBRANCH   1   2
BRANCH   1   6
ATOM      6  C   UNL     1     118.865 117.641 119.990  1.00  0.00     0.008 C 
BRANCH   6   7
ATOM      7  C   UNL     1     117.680 117.948 120.917  1.00  0.00     0.075 C 
BRANCH   7   8
ATOM      8  C   UNL     1     116.559 118.595 120.146  1.00  0.00     0.129 C 
ATOM      9  O   UNL     1     116.800 119.142 119.080  1.00  0.00    -0.300 OA
ATOM     10  C   UNL     1     115.151 118.596 120.664  1.00  0.00     0.087 C 
ENDBRANCH   7   8
ENDBRANCH   6   7
ENDBRANCH   1   6
TORSDOF 6
ENDMDL
MODEL 3
REMARK VINA RESULT:    -2.627      1.811      3.742
REMARK INTER + INTRA:          -4.315
REMARK INTER:                  -3.627
REMARK INTRA:                  -0.689
REMARK UNBOUND:                -0.768
REMARK SMILES CCCCCCCC(C)=O
REMARK SMILES IDX 5 1 4 2 3 3 2 4 1 5 6 6 7 7 8 8 10 9 9 10
REMARK H PARENT
REMARK Flexibility Score: inf
ROOT
ATOM      1  C   UNL     1     116.952 118.901 119.573  1.00  0.00     0.000 C 
ENDROOT
BRANCH   1   2
ATOM      2  C   UNL     1     117.975 118.321 120.564  1.00  0.00     0.000 C 
BRANCH   2   3
ATOM      3  C   UNL     1     118.928 117.300 119.914  1.00  0.00    -0.000 C 
BRANCH   3   4
ATOM      4  C   UNL     1     118.578 115.824 120.179  1.00  0.00    -0.003 C 
ATOM      5  C   UNL     1     118.309 115.034 118.898  1.00  0.00     0.004 C 
ENDBRANCH   3   4
ENDBRANCH   2   3
ENDBRANCH   1   2
BRANCH   1   6
ATOM      6  C   UNL     1     115.513 118.846 120.111  1.00  0.00     0.008 C 
BRANCH   6   7
ATOM      7  C   UNL     1     115.273 117.648 121.040  1.00  0.00     0.075 C 
BRANCH   7   8
ATOM      8  C   UNL     1     114.688 116.491 120.273  1.00  0.00     0.129 C 
ATOM      9  O   UNL     1     113.987 116.710 119.296  1.00  0.00    -0.300 OA
ATOM     10  C   UNL     1     114.938 115.071 120.687  1.00  0.00     0.087 C 
ENDBRANCH   7   8
ENDBRANCH   6   7
ENDBRANCH   1   6
TORSDOF 6
ENDMDL
MODEL 4
REMARK VINA RESULT:    -2.617      1.397      2.971
REMARK INTER + INTRA:          -4.302
REMARK INTER:                  -3.560
REMARK INTRA:                  -0.742
REMARK UNBOUND:                -0.768
REMARK SMILES CCCCCCCC(C)=O
REMARK SMILES IDX 5 1 4 2 3 3 2 4 1 5 6 6 7 7 8 8 10 9 9 10
REMARK H PARENT
REMARK Flexibility Score: inf
ROOT
ATOM      1  C   UNL     1     118.785 117.017 119.762  1.00  0.00     0.000 C 
ENDROOT
BRANCH   1   2
ATOM      2  C   UNL     1     118.036 118.021 120.653  1.00  0.00     0.000 C 
BRANCH   2   3
ATOM      3  C   UNL     1     116.980 118.836 119.882  1.00  0.00    -0.000 C 
BRANCH   3   4
ATOM      4  C   UNL     1     115.524 118.584 120.312  1.00  0.00    -0.003 C 
ATOM      5  C   UNL     1     114.649 118.048 119.178  1.00  0.00     0.004 C 
ENDBRANCH   3   4
ENDBRANCH   2   3
ENDBRANCH   1   2
BRANCH   1   6
ATOM      6  C   UNL     1     118.493 115.557 120.144  1.00  0.00     0.008 C 
BRANCH   6   7
ATOM      7  C   UNL     1     117.389 115.431 121.204  1.00  0.00     0.075 C 
BRANCH   7   8
ATOM      8  C   UNL     1     116.118 114.911 120.585  1.00  0.00     0.129 C 
ATOM      9  O   UNL     1     115.103 114.845 121.262  1.00  0.00    -0.300 OA
ATOM     10  C   UNL     1     116.071 114.460 119.155  1.00  0.00     0.087 C 
ENDBRANCH   7   8
ENDBRANCH   6   7
ENDBRANCH   1   6
TORSDOF 6
ENDMDL
MODEL 5
REMARK VINA RESULT:    -2.611      1.255      3.044
REMARK INTER + INTRA:          -4.295
REMARK INTER:                  -3.494
REMARK INTRA:                  -0.801
REMARK UNBOUND:                -0.768
REMARK SMILES CCCCCCCC(C)=O
REMARK SMILES IDX 5 1 4 2 3 3 2 4 1 5 6 6 7 7 8 8 10 9 9 10
REMARK H PARENT
REMARK Flexibility Score: inf
ROOT
ATOM      1  C   UNL     1     116.918 118.683 119.575  1.00  0.00     0.000 C 
ENDROOT
BRANCH   1   2
ATOM      2  C   UNL     1     115.515 118.968 120.138  1.00  0.00     0.000 C 
BRANCH   2   3
ATOM      3  C   UNL     1     114.769 117.690 120.563  1.00  0.00    -0.000 C 
BRANCH   3   4
ATOM      4  C   UNL     1     114.648 116.614 119.469  1.00  0.00    -0.003 C 
ATOM      5  C   UNL     1     114.516 115.199 120.033  1.00  0.00     0.004 C 
ENDBRANCH   3   4
ENDBRANCH   2   3
ENDBRANCH   1   2
BRANCH   1   6
ATOM      6  C   UNL     1     117.852 118.044 120.616  1.00  0.00     0.008 C 
BRANCH   6   7
ATOM      7  C   UNL     1     118.526 116.764 120.101  1.00  0.00     0.075 C 
BRANCH   7   8
ATOM      8  C   UNL     1     118.110 115.577 120.930  1.00  0.00     0.129 C 
ATOM      9  O   UNL     1     118.273 114.449 120.489  1.00  0.00    -0.300 OA
ATOM     10  C   UNL     1     117.486 115.747 122.284  1.00  0.00     0.087 C 
ENDBRANCH   7   8
ENDBRANCH   6   7
ENDBRANCH   1   6
TORSDOF 6
ENDMDL
MODEL 6
REMARK VINA RESULT:    -2.606      1.569      3.207
REMARK INTER + INTRA:          -4.288
REMARK INTER:                  -3.493
REMARK INTRA:                  -0.795
REMARK UNBOUND:                -0.768
REMARK SMILES CCCCCCCC(C)=O
REMARK SMILES IDX 5 1 4 2 3 3 2 4 1 5 6 6 7 7 8 8 10 9 9 10
REMARK H PARENT
REMARK Flexibility Score: inf
ROOT
ATOM      1  C   UNL     1     116.429 114.585 119.757  1.00  0.00     0.000 C 
ENDROOT
BRANCH   1   2
ATOM      2  C   UNL     1     115.147 114.800 120.580  1.00  0.00     0.000 C 
BRANCH   2   3
ATOM      3  C   UNL     1     114.143 115.742 119.891  1.00  0.00    -0.000 C 
BRANCH   3   4
ATOM      4  C   UNL     1     114.429 117.243 120.074  1.00  0.00    -0.003 C 
ATOM      5  C   UNL     1     114.824 117.941 118.772  1.00  0.00     0.004 C 
ENDBRANCH   3   4
ENDBRANCH   2   3
ENDBRANCH   1   2
BRANCH   1   6
ATOM      6  C   UNL     1     117.703 114.878 120.566  1.00  0.00     0.008 C 
BRANCH   6   7
ATOM      7  C   UNL     1     118.455 116.118 120.060  1.00  0.00     0.075 C 
BRANCH   7   8
ATOM      8  C   UNL     1     118.026 117.344 120.822  1.00  0.00     0.129 C 
ATOM      9  O   UNL     1     118.089 118.440 120.284  1.00  0.00    -0.300 OA
ATOM     10  C   UNL     1     117.532 117.254 122.236  1.00  0.00     0.087 C 
ENDBRANCH   7   8
ENDBRANCH   6   7
ENDBRANCH   1   6
TORSDOF 6
ENDMDL
MODEL 7
REMARK VINA RESULT:    -2.601      1.274      3.272
REMARK INTER + INTRA:          -4.281
REMARK INTER:                  -3.569
REMARK INTRA:                  -0.712
REMARK UNBOUND:                -0.768
REMARK SMILES CCCCCCCC(C)=O
REMARK SMILES IDX 5 1 4 2 3 3 2 4 1 5 6 6 7 7 8 8 10 9 9 10
REMARK H PARENT
REMARK Flexibility Score: inf
ROOT
ATOM      1  C   UNL     1     114.469 117.317 119.183  1.00  0.00     0.000 C 
ENDROOT
BRANCH   1   2
ATOM      2  C   UNL     1     113.988 115.980 119.772  1.00  0.00     0.000 C 
BRANCH   2   3
ATOM      3  C   UNL     1     115.116 115.190 120.463  1.00  0.00    -0.000 C 
BRANCH   3   4
ATOM      4  C   UNL     1     116.214 114.665 119.521  1.00  0.00    -0.003 C 
ATOM      5  C   UNL     1     117.575 114.531 120.203  1.00  0.00     0.004 C 
ENDBRANCH   3   4
ENDBRANCH   2   3
ENDBRANCH   1   2
BRANCH   1   6
ATOM      6  C   UNL     1     115.051 118.256 120.253  1.00  0.00     0.008 C 
BRANCH   6   7
ATOM      7  C   UNL     1     116.384 118.888 119.825  1.00  0.00     0.075 C 
BRANCH   7   8
ATOM      8  C   UNL     1     117.533 118.246 120.560  1.00  0.00     0.129 C 
ATOM      9  O   UNL     1     117.350 117.784 121.676  1.00  0.00    -0.300 OA
ATOM     10  C   UNL     1     118.904 118.172 119.956  1.00  0.00     0.087 C 
ENDBRANCH   7   8
ENDBRANCH   6   7
ENDBRANCH   1   6
TORSDOF 6
ENDMDL
MODEL 8
REMARK VINA RESULT:    -2.590      1.982      3.427
REMARK INTER + INTRA:          -4.266
REMARK INTER:                  -3.583
REMARK INTRA:                  -0.683
REMARK UNBOUND:                -0.768
REMARK SMILES CCCCCCCC(C)=O
REMARK SMILES IDX 5 1 4 2 3 3 2 4 1 5 6 6 7 7 8 8 10 9 9 10
REMARK H PARENT
REMARK Flexibility Score: inf
ROOT
ATOM      1  C   UNL     1     117.600 114.029 119.969  1.00  0.00     0.000 C 
ENDROOT
BRANCH   1   2
ATOM      2  C   UNL     1     118.433 115.206 120.505  1.00  0.00     0.000 C 
BRANCH   2   3
ATOM      3  C   UNL     1     118.494 116.393 119.525  1.00  0.00    -0.000 C 
BRANCH   3   4
ATOM      4  C   UNL     1     118.396 117.782 120.181  1.00  0.00    -0.003 C 
ATOM      5  C   UNL     1     117.609 117.771 121.492  1.00  0.00     0.004 C 
ENDBRANCH   3   4
ENDBRANCH   2   3
ENDBRANCH   1   2
BRANCH   1   6
ATOM      6  C   UNL     1     116.250 114.480 119.387  1.00  0.00     0.008 C 
BRANCH   6   7
ATOM      7  C   UNL     1     115.222 114.826 120.475  1.00  0.00     0.075 C 
BRANCH   7   8
ATOM      8  C   UNL     1     114.145 115.721 119.919  1.00  0.00     0.129 C 
ATOM      9  O   UNL     1     113.027 115.267 119.726  1.00  0.00    -0.300 OA
ATOM     10  C   UNL     1     114.416 117.158 119.584  1.00  0.00     0.087 C 
ENDBRANCH   7   8
ENDBRANCH   6   7
ENDBRANCH   1   6
TORSDOF 6
ENDMDL
MODEL 9
REMARK VINA RESULT:    -2.589      1.534      3.303
REMARK INTER + INTRA:          -4.264
REMARK INTER:                  -3.488
REMARK INTRA:                  -0.776
REMARK UNBOUND:                -0.768
REMARK SMILES CCCCCCCC(C)=O
REMARK SMILES IDX 5 1 4 2 3 3 2 4 1 5 6 6 7 7 8 8 10 9 9 10
REMARK H PARENT
REMARK Flexibility Score: inf
ROOT
ATOM      1  C   UNL     1     115.908 114.611 119.012  1.00  0.00     0.000 C 
ENDROOT
BRANCH   1   2
ATOM      2  C   UNL     1     117.114 113.985 119.731  1.00  0.00     0.000 C 
BRANCH   2   3
ATOM      3  C   UNL     1     118.099 115.036 120.276  1.00  0.00    -0.000 C 
BRANCH   3   4
ATOM      4  C   UNL     1     118.352 116.234 119.343  1.00  0.00    -0.003 C 
ATOM      5  C   UNL     1     118.700 117.518 120.097  1.00  0.00     0.004 C 
ENDBRANCH   3   4
ENDBRANCH   2   3
ENDBRANCH   1   2
BRANCH   1   6
ATOM      6  C   UNL     1     114.746 114.921 119.970  1.00  0.00     0.008 C 
BRANCH   6   7
ATOM      7  C   UNL     1     114.174 116.332 119.772  1.00  0.00     0.075 C 
BRANCH   7   8
ATOM      8  C   UNL     1     114.942 117.334 120.594  1.00  0.00     0.129 C 
ATOM      9  O   UNL     1     115.445 116.986 121.652  1.00  0.00    -0.300 OA
ATOM     10  C   UNL     1     115.096 118.759 120.149  1.00  0.00     0.087 C 
ENDBRANCH   7   8
ENDBRANCH   6   7
ENDBRANCH   1   6
TORSDOF 6
ENDMDL
