MODEL 1
REMARK VINA RESULT:    -3.756      0.000      0.000
REMARK INTER + INTRA:          -6.011
REMARK INTER:                  -5.292
REMARK INTRA:                  -0.718
REMARK UNBOUND:                -0.718
REMARK SMILES CC(=O)OCC[C@H](C)CCC=C(C)C
REMARK SMILES IDX 8 1 7 2 9 3 10 4 11 5 12 6 13 7 14 8 6 9 5 10 4 11 2 12 3 13
REMARK SMILES IDX 1 14
REMARK H PARENT
REMARK Flexibility Score: inf
ROOT
ATOM      1  C   UNL     1      23.783  51.024  52.954  1.00  0.00     0.008 C 
ATOM      2  C   UNL     1      22.407  51.551  53.397  1.00  0.00    -0.011 C 
ENDROOT
BRANCH   2   3
ATOM      3  C   UNL     1      21.814  50.687  54.540  1.00  0.00     0.007 C 
BRANCH   3   4
ATOM      4  C   UNL     1      21.525  51.475  55.836  1.00  0.00     0.027 C 
BRANCH   4   5
ATOM      5  C   UNL     1      20.071  51.868  55.958  1.00  0.00    -0.028 C 
ATOM      6  C   UNL     1      19.584  53.091  55.650  1.00  0.00    -0.080 C 
ATOM      7  C   UNL     1      18.105  53.334  55.807  1.00  0.00     0.039 C 
ATOM      8  C   UNL     1      20.478  54.218  55.188  1.00  0.00     0.039 C 
ENDBRANCH   4   5
ENDBRANCH   3   4
ENDBRANCH   2   3
BRANCH   2   9
ATOM      9  C   UNL     1      21.459  51.595  52.173  1.00  0.00     0.045 C 
BRANCH   9  10
ATOM     10  C   UNL     1      22.140  51.168  50.865  1.00  0.00     0.233 C 
BRANCH  10  11
ATOM     11  O   UNL     1      21.387  51.619  49.740  1.00  0.00    -0.466 OA
BRANCH  11  12
ATOM     12  C   UNL     1      21.815  52.643  48.886  1.00  0.00     0.302 C 
ATOM     13  O   UNL     1      21.555  52.607  47.653  1.00  0.00    -0.253 OA
ATOM     14  C   UNL     1      22.638  53.758  49.435  1.00  0.00     0.139 C 
ENDBRANCH  11  12
ENDBRANCH  10  11
ENDBRANCH   9  10
ENDBRANCH   2   9
TORSDOF 7
ENDMDL
MODEL 2
REMARK VINA RESULT:    -3.592      0.999      1.749
REMARK INTER + INTRA:          -5.781
REMARK INTER:                  -4.900
REMARK INTRA:                  -0.881
REMARK UNBOUND:                -0.718
REMARK SMILES CC(=O)OCC[C@H](C)CCC=C(C)C
REMARK SMILES IDX 8 1 7 2 9 3 10 4 11 5 12 6 13 7 14 8 6 9 5 10 4 11 2 12 3 13
REMARK SMILES IDX 1 14
REMARK H PARENT
REMARK Flexibility Score: inf
ROOT
ATOM      1  C   UNL     1      22.107  50.844  54.296  1.00  0.00     0.008 C 
ATOM      2  C   UNL     1      22.503  51.736  53.107  1.00  0.00    -0.011 C 
ENDROOT
BRANCH   2   3
ATOM      3  C   UNL     1      22.816  53.184  53.569  1.00  0.00     0.007 C 
BRANCH   3   4
ATOM      4  C   UNL     1      22.256  53.531  54.965  1.00  0.00     0.027 C 
BRANCH   4   5
ATOM      5  C   UNL     1      21.287  54.690  54.923  1.00  0.00    -0.028 C 
ATOM      6  C   UNL     1      19.942  54.559  54.904  1.00  0.00    -0.080 C 
ATOM      7  C   UNL     1      19.099  55.808  54.877  1.00  0.00     0.039 C 
ATOM      8  C   UNL     1      19.268  53.206  54.876  1.00  0.00     0.039 C 
ENDBRANCH   4   5
ENDBRANCH   3   4
ENDBRANCH   2   3
BRANCH   2   9
ATOM      9  C   UNL     1      21.371  51.714  52.051  1.00  0.00     0.045 C 
BRANCH   9  10
ATOM     10  C   UNL     1      21.835  51.203  50.679  1.00  0.00     0.233 C 
BRANCH  10  11
ATOM     11  O   UNL     1      21.140  51.881  49.633  1.00  0.00    -0.466 OA
BRANCH  11  12
ATOM     12  C   UNL     1      21.769  52.726  48.712  1.00  0.00     0.302 C 
ATOM     13  O   UNL     1      21.535  52.625  47.477  1.00  0.00    -0.253 OA
ATOM     14  C   UNL     1      22.769  53.720  49.195  1.00  0.00     0.139 C 
ENDBRANCH  11  12
ENDBRANCH  10  11
ENDBRANCH   9  10
ENDBRANCH   2   9
TORSDOF 7
ENDMDL
MODEL 3
REMARK VINA RESULT:    -3.554      2.276      3.668
REMARK INTER + INTRA:          -5.726
REMARK INTER:                  -4.945
REMARK INTRA:                  -0.782
REMARK UNBOUND:                -0.718
REMARK SMILES CC(=O)OCC[C@H](C)CCC=C(C)C
REMARK SMILES IDX 8 1 7 2 9 3 10 4 11 5 12 6 13 7 14 8 6 9 5 10 4 11 2 12 3 13
REMARK SMILES IDX 1 14
REMARK H PARENT
REMARK Flexibility Score: inf
ROOT
ATOM      1  C   UNL     1      23.949  50.092  48.932  1.00  0.00     0.008 C 
ATOM      2  C   UNL     1      23.461  50.981  50.089  1.00  0.00    -0.011 C 
ENDROOT
BRANCH   2   3
ATOM      3  C   UNL     1      24.072  50.530  51.442  1.00  0.00     0.007 C 
BRANCH   3   4
ATOM      4  C   UNL     1      24.123  51.646  52.509  1.00  0.00     0.027 C 
BRANCH   4   5
ATOM      5  C   UNL     1      23.994  51.103  53.913  1.00  0.00    -0.028 C 
ATOM      6  C   UNL     1      22.818  50.893  54.545  1.00  0.00    -0.080 C 
ATOM      7  C   UNL     1      22.845  50.331  55.943  1.00  0.00     0.039 C 
ATOM      8  C   UNL     1      21.491  51.231  53.904  1.00  0.00     0.039 C 
ENDBRANCH   4   5
ENDBRANCH   3   4
ENDBRANCH   2   3
BRANCH   2   9
ATOM      9  C   UNL     1      21.914  50.958  50.133  1.00  0.00     0.045 C 
BRANCH   9  10
ATOM     10  C   UNL     1      21.278  52.302  49.747  1.00  0.00     0.233 C 
BRANCH  10  11
ATOM     11  O   UNL     1      22.160  53.380  50.060  1.00  0.00    -0.466 OA
BRANCH  11  12
ATOM     12  C   UNL     1      21.838  54.401  50.962  1.00  0.00     0.302 C 
ATOM     13  O   UNL     1      21.170  54.158  52.003  1.00  0.00    -0.253 OA
ATOM     14  C   UNL     1      22.243  55.803  50.655  1.00  0.00     0.139 C 
ENDBRANCH  11  12
ENDBRANCH  10  11
ENDBRANCH   9  10
ENDBRANCH   2   9
TORSDOF 7
ENDMDL
MODEL 4
REMARK VINA RESULT:    -3.500      2.607      5.462
REMARK INTER + INTRA:          -5.651
REMARK INTER:                  -4.790
REMARK INTRA:                  -0.861
REMARK UNBOUND:                -0.718
REMARK SMILES CC(=O)OCC[C@H](C)CCC=C(C)C
REMARK SMILES IDX 8 1 7 2 9 3 10 4 11 5 12 6 13 7 14 8 6 9 5 10 4 11 2 12 3 13
REMARK SMILES IDX 1 14
REMARK H PARENT
REMARK Flexibility Score: inf
ROOT
ATOM      1  C   UNL     1      21.495  50.927  54.320  1.00  0.00     0.008 C 
ATOM      2  C   UNL     1      22.173  51.569  53.098  1.00  0.00    -0.011 C 
ENDROOT
BRANCH   2   3
ATOM      3  C   UNL     1      23.565  50.939  52.829  1.00  0.00     0.007 C 
BRANCH   3   4
ATOM      4  C   UNL     1      23.895  50.765  51.331  1.00  0.00     0.027 C 
BRANCH   4   5
ATOM      5  C   UNL     1      22.731  51.129  50.440  1.00  0.00    -0.028 C 
ATOM      6  C   UNL     1      22.652  52.268  49.716  1.00  0.00    -0.080 C 
ATOM      7  C   UNL     1      21.433  52.490  48.858  1.00  0.00     0.039 C 
ATOM      8  C   UNL     1      23.728  53.328  49.768  1.00  0.00     0.039 C 
ENDBRANCH   4   5
ENDBRANCH   3   4
ENDBRANCH   2   3
BRANCH   2   9
ATOM      9  C   UNL     1      22.280  53.098  53.318  1.00  0.00     0.045 C 
BRANCH   9  10
ATOM     10  C   UNL     1      21.100  53.879  52.719  1.00  0.00     0.233 C 
BRANCH  10  11
ATOM     11  O   UNL     1      20.694  54.924  53.602  1.00  0.00    -0.466 OA
BRANCH  11  12
ATOM     12  C   UNL     1      19.537  54.864  54.387  1.00  0.00     0.302 C 
ATOM     13  O   UNL     1      19.040  55.909  54.886  1.00  0.00    -0.253 OA
ATOM     14  C   UNL     1      18.919  53.539  54.680  1.00  0.00     0.139 C 
ENDBRANCH  11  12
ENDBRANCH  10  11
ENDBRANCH   9  10
ENDBRANCH   2   9
TORSDOF 7
ENDMDL
MODEL 5
REMARK VINA RESULT:    -3.465      2.892      5.960
REMARK INTER + INTRA:          -5.601
REMARK INTER:                  -4.881
REMARK INTRA:                  -0.720
REMARK UNBOUND:                -0.718
REMARK SMILES CC(=O)OCC[C@H](C)CCC=C(C)C
REMARK SMILES IDX 8 1 7 2 9 3 10 4 11 5 12 6 13 7 14 8 6 9 5 10 4 11 2 12 3 13
REMARK SMILES IDX 1 14
REMARK H PARENT
REMARK Flexibility Score: inf
ROOT
ATOM      1  C   UNL     1      21.139  51.589  52.419  1.00  0.00     0.008 C 
ATOM      2  C   UNL     1      22.495  51.529  53.143  1.00  0.00    -0.011 C 
ENDROOT
BRANCH   2   3
ATOM      3  C   UNL     1      23.591  50.911  52.235  1.00  0.00     0.007 C 
BRANCH   3   4
ATOM      4  C   UNL     1      23.287  51.016  50.725  1.00  0.00     0.027 C 
BRANCH   4   5
ATOM      5  C   UNL     1      23.632  52.375  50.163  1.00  0.00    -0.028 C 
ATOM      6  C   UNL     1      22.800  53.118  49.398  1.00  0.00    -0.080 C 
ATOM      7  C   UNL     1      23.276  54.466  48.920  1.00  0.00     0.039 C 
ATOM      8  C   UNL     1      21.432  52.624  48.989  1.00  0.00     0.039 C 
ENDBRANCH   4   5
ENDBRANCH   3   4
ENDBRANCH   2   3
BRANCH   2   9
ATOM      9  C   UNL     1      22.337  50.729  54.459  1.00  0.00     0.045 C 
BRANCH   9  10
ATOM     10  C   UNL     1      21.984  51.613  55.665  1.00  0.00     0.233 C 
BRANCH  10  11
ATOM     11  O   UNL     1      20.583  51.556  55.931  1.00  0.00    -0.466 OA
BRANCH  11  12
ATOM     12  C   UNL     1      19.720  52.644  55.750  1.00  0.00     0.302 C 
ATOM     13  O   UNL     1      18.480  52.525  55.946  1.00  0.00    -0.253 OA
ATOM     14  C   UNL     1      20.270  53.942  55.266  1.00  0.00     0.139 C 
ENDBRANCH  11  12
ENDBRANCH  10  11
ENDBRANCH   9  10
ENDBRANCH   2   9
TORSDOF 7
ENDMDL
MODEL 6
REMARK VINA RESULT:    -3.417     12.475     13.975
REMARK INTER + INTRA:          -5.534
REMARK INTER:                  -4.485
REMARK INTRA:                  -1.049
REMARK UNBOUND:                -0.718
REMARK SMILES CC(=O)OCC[C@H](C)CCC=C(C)C
REMARK SMILES IDX 8 1 7 2 9 3 10 4 11 5 12 6 13 7 14 8 6 9 5 10 4 11 2 12 3 13
REMARK SMILES IDX 1 14
REMARK H PARENT
REMARK Flexibility Score: inf
ROOT
ATOM      1  C   UNL     1      23.021  51.990  38.892  1.00  0.00     0.008 C 
ATOM      2  C   UNL     1      22.478  53.221  39.636  1.00  0.00    -0.011 C 
ENDROOT
BRANCH   2   3
ATOM      3  C   UNL     1      21.467  52.813  40.739  1.00  0.00     0.007 C 
BRANCH   3   4
ATOM      4  C   UNL     1      19.988  53.014  40.341  1.00  0.00     0.027 C 
BRANCH   4   5
ATOM      5  C   UNL     1      19.234  53.858  41.341  1.00  0.00    -0.028 C 
ATOM      6  C   UNL     1      18.572  54.996  41.033  1.00  0.00    -0.080 C 
ATOM      7  C   UNL     1      17.849  55.726  42.135  1.00  0.00     0.039 C 
ATOM      8  C   UNL     1      18.563  55.565  39.633  1.00  0.00     0.039 C 
ENDBRANCH   4   5
ENDBRANCH   3   4
ENDBRANCH   2   3
BRANCH   2   9
ATOM      9  C   UNL     1      21.836  54.193  38.616  1.00  0.00     0.045 C 
BRANCH   9  10
ATOM     10  C   UNL     1      22.244  53.902  37.164  1.00  0.00     0.233 C 
BRANCH  10  11
ATOM     11  O   UNL     1      21.087  53.743  36.344  1.00  0.00    -0.466 OA
BRANCH  11  12
ATOM     12  C   UNL     1      20.108  52.769  36.574  1.00  0.00     0.302 C 
ATOM     13  O   UNL     1      20.404  51.544  36.583  1.00  0.00    -0.253 OA
ATOM     14  C   UNL     1      18.688  53.187  36.755  1.00  0.00     0.139 C 
ENDBRANCH  11  12
ENDBRANCH  10  11
ENDBRANCH   9  10
ENDBRANCH   2   9
TORSDOF 7
ENDMDL
MODEL 7
REMARK VINA RESULT:    -3.400     11.588     14.375
REMARK INTER + INTRA:          -5.509
REMARK INTER:                  -4.237
REMARK INTRA:                  -1.272
REMARK UNBOUND:                -0.718
REMARK SMILES CC(=O)OCC[C@H](C)CCC=C(C)C
REMARK SMILES IDX 8 1 7 2 9 3 10 4 11 5 12 6 13 7 14 8 6 9 5 10 4 11 2 12 3 13
REMARK SMILES IDX 1 14
REMARK H PARENT
REMARK Flexibility Score: inf
ROOT
ATOM      1  C   UNL     1      18.874  53.501  38.488  1.00  0.00     0.008 C 
ATOM      2  C   UNL     1      19.068  55.027  38.496  1.00  0.00    -0.011 C 
ENDROOT
BRANCH   2   3
ATOM      3  C   UNL     1      20.551  55.409  38.251  1.00  0.00     0.007 C 
BRANCH   3   4
ATOM      4  C   UNL     1      21.350  54.347  37.463  1.00  0.00     0.027 C 
BRANCH   4   5
ATOM      5  C   UNL     1      22.575  53.878  38.212  1.00  0.00    -0.028 C 
ATOM      6  C   UNL     1      22.853  52.584  38.485  1.00  0.00    -0.080 C 
ATOM      7  C   UNL     1      24.125  52.264  39.229  1.00  0.00     0.039 C 
ATOM      8  C   UNL     1      21.918  51.463  38.096  1.00  0.00     0.039 C 
ENDBRANCH   4   5
ENDBRANCH   3   4
ENDBRANCH   2   3
BRANCH   2   9
ATOM      9  C   UNL     1      18.553  55.600  39.840  1.00  0.00     0.045 C 
BRANCH   9  10
ATOM     10  C   UNL     1      18.661  54.603  41.003  1.00  0.00     0.233 C 
BRANCH  10  11
ATOM     11  O   UNL     1      19.911  54.754  41.675  1.00  0.00    -0.466 OA
BRANCH  11  12
ATOM     12  C   UNL     1      20.946  53.815  41.597  1.00  0.00     0.302 C 
ATOM     13  O   UNL     1      20.702  52.603  41.353  1.00  0.00    -0.253 OA
ATOM     14  C   UNL     1      22.348  54.247  41.861  1.00  0.00     0.139 C 
ENDBRANCH  11  12
ENDBRANCH  10  11
ENDBRANCH   9  10
ENDBRANCH   2   9
TORSDOF 7
ENDMDL
MODEL 8
REMARK VINA RESULT:    -3.378     11.902     14.962
REMARK INTER + INTRA:          -5.478
REMARK INTER:                  -4.378
REMARK INTRA:                  -1.101
REMARK UNBOUND:                -0.718
REMARK SMILES CC(=O)OCC[C@H](C)CCC=C(C)C
REMARK SMILES IDX 8 1 7 2 9 3 10 4 11 5 12 6 13 7 14 8 6 9 5 10 4 11 2 12 3 13
REMARK SMILES IDX 1 14
REMARK H PARENT
REMARK Flexibility Score: inf
ROOT
ATOM      1  C   UNL     1      20.755  52.737  41.735  1.00  0.00     0.008 C 
ATOM      2  C   UNL     1      21.170  53.127  40.306  1.00  0.00    -0.011 C 
ENDROOT
BRANCH   2   3
ATOM      3  C   UNL     1      22.707  53.306  40.195  1.00  0.00     0.007 C 
BRANCH   3   4
ATOM      4  C   UNL     1      23.376  52.362  39.172  1.00  0.00     0.027 C 
BRANCH   4   5
ATOM      5  C   UNL     1      22.375  51.477  38.467  1.00  0.00    -0.028 C 
ATOM      6  C   UNL     1      21.947  51.669  37.199  1.00  0.00    -0.080 C 
ATOM      7  C   UNL     1      20.954  50.694  36.621  1.00  0.00     0.039 C 
ATOM      8  C   UNL     1      22.409  52.843  36.366  1.00  0.00     0.039 C 
ENDBRANCH   4   5
ENDBRANCH   3   4
ENDBRANCH   2   3
BRANCH   2   9
ATOM      9  C   UNL     1      20.421  54.415  39.889  1.00  0.00     0.045 C 
BRANCH   9  10
ATOM     10  C   UNL     1      18.983  54.153  39.418  1.00  0.00     0.233 C 
BRANCH  10  11
ATOM     11  O   UNL     1      18.976  53.235  38.325  1.00  0.00    -0.466 OA
BRANCH  11  12
ATOM     12  C   UNL     1      18.750  53.618  36.998  1.00  0.00     0.302 C 
ATOM     13  O   UNL     1      18.171  52.842  36.190  1.00  0.00    -0.253 OA
ATOM     14  C   UNL     1      19.252  54.939  36.522  1.00  0.00     0.139 C 
ENDBRANCH  11  12
ENDBRANCH  10  11
ENDBRANCH   9  10
ENDBRANCH   2   9
TORSDOF 7
ENDMDL
MODEL 9
REMARK VINA RESULT:    -3.346      2.459      4.537
REMARK INTER + INTRA:          -5.433
REMARK INTER:                  -4.434
REMARK INTRA:                  -0.999
REMARK UNBOUND:                -0.718
REMARK SMILES CC(=O)OCC[C@H](C)CCC=C(C)C
REMARK SMILES IDX 8 1 7 2 9 3 10 4 11 5 12 6 13 7 14 8 6 9 5 10 4 11 2 12 3 13
REMARK SMILES IDX 1 14
REMARK H PARENT
REMARK Flexibility Score: inf
ROOT
ATOM      1  C   UNL     1      21.152  52.054  49.731  1.00  0.00     0.008 C 
ATOM      2  C   UNL     1      21.842  52.342  51.075  1.00  0.00    -0.011 C 
ENDROOT
BRANCH   2   3
ATOM      3  C   UNL     1      22.587  53.703  51.047  1.00  0.00     0.007 C 
BRANCH   3   4
ATOM      4  C   UNL     1      21.988  54.765  51.996  1.00  0.00     0.027 C 
BRANCH   4   5
ATOM      5  C   UNL     1      20.717  54.290  52.660  1.00  0.00    -0.028 C 
ATOM      6  C   UNL     1      20.539  54.214  53.998  1.00  0.00    -0.080 C 
ATOM      7  C   UNL     1      19.208  53.735  54.519  1.00  0.00     0.039 C 
ATOM      8  C   UNL     1      21.638  54.564  54.975  1.00  0.00     0.039 C 
ENDBRANCH   4   5
ENDBRANCH   3   4
ENDBRANCH   2   3
BRANCH   2   9
ATOM      9  C   UNL     1      22.806  51.179  51.415  1.00  0.00     0.045 C 
BRANCH   9  10
ATOM     10  C   UNL     1      23.212  51.143  52.895  1.00  0.00     0.233 C 
BRANCH  10  11
ATOM     11  O   UNL     1      22.056  51.075  53.729  1.00  0.00    -0.466 OA
BRANCH  11  12
ATOM     12  C   UNL     1      22.109  50.790  55.098  1.00  0.00     0.302 C 
ATOM     13  O   UNL     1      21.206  51.199  55.878  1.00  0.00    -0.253 OA
ATOM     14  C   UNL     1      23.276  50.043  55.646  1.00  0.00     0.139 C 
ENDBRANCH  11  12
ENDBRANCH  10  11
ENDBRANCH   9  10
ENDBRANCH   2   9
TORSDOF 7
ENDMDL
