MODEL 1
REMARK VINA RESULT:    -6.633      0.000      0.000
REMARK INTER + INTRA:          -6.485
REMARK INTER:                  -9.929
REMARK INTRA:                   3.443
REMARK UNBOUND:                 3.443
REMARK SMILES COC(=O)C1=CO[C@H](O[C@H]2O[C@H](CO)[C@@H](O)[C@@H](O)[C@H]2O)[C@H]2C(CO)=CC[C@H]12
REMARK SMILES IDX 9 1 8 2 5 3 6 4 27 5 7 6 21 7 26 8 22 9 25 10 3 11 4 12 2 13
REMARK SMILES IDX 1 14 23 15 24 16 10 18 19 19 11 20 17 21 12 22 15 23 20 24
REMARK SMILES IDX 18 26 13 28 14 29 16 31
REMARK H PARENT 24 17 20 25 18 27 14 30 16 32
REMARK Flexibility Score: inf
ROOT
ATOM      1  O   UNL     1      -3.396 -13.662  48.335  1.00  0.00    -0.310 OA
ENDROOT
BRANCH   1   2
ATOM      2  C   UNL     1      -4.138 -14.425  49.270  1.00  0.00     0.316 C 
ATOM      3  C   UNL     1      -4.823 -14.776  52.089  1.00  0.00     0.076 C 
ATOM      4  C   UNL     1      -3.600 -15.120  51.642  1.00  0.00     0.202 C 
ATOM      5  C   UNL     1      -5.836 -14.417  51.043  1.00  0.00     0.047 C 
ATOM      6  O   UNL     1      -3.249 -14.956  50.280  1.00  0.00    -0.471 OA
ATOM      7  C   UNL     1      -5.169 -13.542  49.987  1.00  0.00     0.094 C 
ATOM      8  C   UNL     1      -7.084 -13.628  51.420  1.00  0.00     0.037 C 
ATOM      9  C   UNL     1      -6.358 -12.971  49.281  1.00  0.00    -0.039 C 
ATOM     10  C   UNL     1      -7.406 -12.965  50.113  1.00  0.00    -0.024 C 
BRANCH   3  11
ATOM     11  C   UNL     1      -5.215 -15.001  53.493  1.00  0.00     0.337 C 
ATOM     12  O   UNL     1      -4.313 -15.123  54.364  1.00  0.00    -0.246 OA
BRANCH  11  13
ATOM     13  O   UNL     1      -6.557 -15.113  53.885  1.00  0.00    -0.466 OA
ATOM     14  C   UNL     1      -7.017 -14.865  55.208  1.00  0.00     0.282 C 
ENDBRANCH  11  13
ENDBRANCH   3  11
BRANCH   9  15
ATOM     15  C   UNL     1      -6.324 -12.172  48.014  1.00  0.00     0.187 C 
BRANCH  15  16
ATOM     16  O   UNL     1      -7.562 -11.544  47.824  1.00  0.00    -0.392 OA
ATOM     17  H   UNL     1      -7.867 -11.261  48.726  1.00  0.00     0.211 HD
ENDBRANCH  15  16
ENDBRANCH   9  15
ENDBRANCH   1   2
BRANCH   1  18
ATOM     18  C   UNL     1      -4.248 -13.156  47.313  1.00  0.00     0.286 C 
ATOM     19  C   UNL     1      -3.865 -13.729  45.928  1.00  0.00     0.202 C 
ATOM     20  O   UNL     1      -4.269 -11.734  47.308  1.00  0.00    -0.341 OA
ATOM     21  C   UNL     1      -2.582 -13.093  45.349  1.00  0.00     0.179 C 
ATOM     22  C   UNL     1      -3.002 -11.187  46.988  1.00  0.00     0.178 C 
ATOM     23  C   UNL     1      -2.599 -11.562  45.540  1.00  0.00     0.177 C 
BRANCH  19  24
ATOM     24  O   UNL     1      -3.730 -15.124  46.017  1.00  0.00    -0.385 OA
ATOM     25  H   UNL     1      -4.378 -15.516  45.376  1.00  0.00     0.211 HD
ENDBRANCH  19  24
BRANCH  21  26
ATOM     26  O   UNL     1      -1.415 -13.684  45.869  1.00  0.00    -0.387 OA
ATOM     27  H   UNL     1      -0.665 -13.486  45.258  1.00  0.00     0.211 HD
ENDBRANCH  21  26
BRANCH  22  28
ATOM     28  C   UNL     1      -3.065  -9.665  47.182  1.00  0.00     0.191 C 
BRANCH  28  29
ATOM     29  O   UNL     1      -1.798  -9.143  47.488  1.00  0.00    -0.394 OA
ATOM     30  H   UNL     1      -1.519  -9.551  48.348  1.00  0.00     0.210 HD
ENDBRANCH  28  29
ENDBRANCH  22  28
BRANCH  23  31
ATOM     31  O   UNL     1      -1.364 -10.996  45.169  1.00  0.00    -0.387 OA
ATOM     32  H   UNL     1      -1.364 -10.048  45.465  1.00  0.00     0.211 HD
ENDBRANCH  23  31
ENDBRANCH   1  18
TORSDOF 11
ENDMDL
MODEL 2
REMARK VINA RESULT:    -4.660      1.342      2.335
REMARK INTER + INTRA:          -3.533
REMARK INTER:                  -3.249
REMARK INTRA:                  -0.284
REMARK UNBOUND:                 3.443
REMARK SMILES COC(=O)C1=CO[C@H](O[C@H]2O[C@H](CO)[C@@H](O)[C@@H](O)[C@H]2O)[C@H]2C(CO)=CC[C@H]12
REMARK SMILES IDX 9 1 8 2 5 3 6 4 27 5 7 6 21 7 26 8 22 9 25 10 3 11 4 12 2 13
REMARK SMILES IDX 1 14 23 15 24 16 10 18 19 19 11 20 17 21 12 22 15 23 20 24
REMARK SMILES IDX 18 26 13 28 14 29 16 31
REMARK H PARENT 24 17 20 25 18 27 14 30 16 32
REMARK Flexibility Score: inf
ROOT
ATOM      1  O   UNL     1      -4.244 -13.672  47.667  1.00  0.00    -0.310 OA
ENDROOT
BRANCH   1   2
ATOM      2  C   UNL     1      -4.758 -14.426  48.750  1.00  0.00     0.316 C 
ATOM      3  C   UNL     1      -4.795 -14.756  51.654  1.00  0.00     0.076 C 
ATOM      4  C   UNL     1      -3.704 -15.108  50.947  1.00  0.00     0.202 C 
ATOM      5  C   UNL     1      -6.016 -14.399  50.859  1.00  0.00     0.047 C 
ATOM      6  O   UNL     1      -3.667 -14.954  49.540  1.00  0.00    -0.471 OA
ATOM      7  C   UNL     1      -5.601 -13.534  49.674  1.00  0.00     0.094 C 
ATOM      8  C   UNL     1      -7.146 -13.602  51.500  1.00  0.00     0.037 C 
ATOM      9  C   UNL     1      -6.916 -12.962  49.249  1.00  0.00    -0.039 C 
ATOM     10  C   UNL     1      -7.751 -12.946  50.295  1.00  0.00    -0.024 C 
BRANCH   3  11
ATOM     11  C   UNL     1      -4.863 -14.970  53.111  1.00  0.00     0.337 C 
ATOM     12  O   UNL     1      -3.790 -15.044  53.766  1.00  0.00    -0.246 OA
BRANCH  11  13
ATOM     13  O   UNL     1      -6.083 -15.124  53.788  1.00  0.00    -0.466 OA
ATOM     14  C   UNL     1      -6.233 -14.957  55.193  1.00  0.00     0.282 C 
ENDBRANCH  11  13
ENDBRANCH   3  11
BRANCH   9  15
ATOM     15  C   UNL     1      -7.164 -12.171  48.000  1.00  0.00     0.187 C 
BRANCH  15  16
ATOM     16  O   UNL     1      -6.966 -10.810  48.263  1.00  0.00    -0.392 OA
ATOM     17  H   UNL     1      -6.057 -10.595  47.925  1.00  0.00     0.211 HD
ENDBRANCH  15  16
ENDBRANCH   9  15
ENDBRANCH   1   2
BRANCH   1  18
ATOM     18  C   UNL     1      -3.159 -12.855  48.095  1.00  0.00     0.286 C 
ATOM     19  C   UNL     1      -2.934 -11.670  47.128  1.00  0.00     0.202 C 
ATOM     20  O   UNL     1      -1.974 -13.617  48.282  1.00  0.00    -0.341 OA
ATOM     21  C   UNL     1      -2.257 -12.094  45.805  1.00  0.00     0.179 C 
ATOM     22  C   UNL     1      -1.509 -14.178  47.067  1.00  0.00     0.178 C 
ATOM     23  C   UNL     1      -1.087 -13.062  46.079  1.00  0.00     0.177 C 
BRANCH  19  24
ATOM     24  O   UNL     1      -4.159 -11.030  46.874  1.00  0.00    -0.385 OA
ATOM     25  H   UNL     1      -4.283 -11.030  45.889  1.00  0.00     0.211 HD
ENDBRANCH  19  24
BRANCH  21  26
ATOM     26  O   UNL     1      -3.180 -12.619  44.881  1.00  0.00    -0.387 OA
ATOM     27  H   UNL     1      -3.692 -11.869  44.491  1.00  0.00     0.211 HD
ENDBRANCH  21  26
BRANCH  22  28
ATOM     28  C   UNL     1      -0.342 -15.125  47.383  1.00  0.00     0.191 C 
BRANCH  28  29
ATOM     29  O   UNL     1       0.888 -14.540  47.042  1.00  0.00    -0.394 OA
ATOM     30  H   UNL     1       0.980 -14.617  46.057  1.00  0.00     0.210 HD
ENDBRANCH  28  29
ENDBRANCH  22  28
BRANCH  23  31
ATOM     31  O   UNL     1      -0.575 -13.584  44.876  1.00  0.00    -0.387 OA
ATOM     32  H   UNL     1      -1.345 -13.832  44.300  1.00  0.00     0.211 HD
ENDBRANCH  23  31
ENDBRANCH   1  18
TORSDOF 11
ENDMDL
MODEL 3
REMARK VINA RESULT:    -3.818      1.506      2.291
REMARK INTER + INTRA:          -2.272
REMARK INTER:                  -2.014
REMARK INTRA:                  -0.258
REMARK UNBOUND:                 3.443
REMARK SMILES COC(=O)C1=CO[C@H](O[C@H]2O[C@H](CO)[C@@H](O)[C@@H](O)[C@H]2O)[C@H]2C(CO)=CC[C@H]12
REMARK SMILES IDX 9 1 8 2 5 3 6 4 27 5 7 6 21 7 26 8 22 9 25 10 3 11 4 12 2 13
REMARK SMILES IDX 1 14 23 15 24 16 10 18 19 19 11 20 17 21 12 22 15 23 20 24
REMARK SMILES IDX 18 26 13 28 14 29 16 31
REMARK H PARENT 24 17 20 25 18 27 14 30 16 32
REMARK Flexibility Score: inf
ROOT
ATOM      1  O   UNL     1      -3.365 -14.081  48.911  1.00  0.00    -0.310 OA
ENDROOT
BRANCH   1   2
ATOM      2  C   UNL     1      -4.154 -14.748  49.880  1.00  0.00     0.316 C 
ATOM      3  C   UNL     1      -5.037 -14.770  52.666  1.00  0.00     0.076 C 
ATOM      4  C   UNL     1      -3.776 -15.125  52.353  1.00  0.00     0.202 C 
ATOM      5  C   UNL     1      -5.979 -14.578  51.514  1.00  0.00     0.047 C 
ATOM      6  O   UNL     1      -3.330 -15.119  51.009  1.00  0.00    -0.471 OA
ATOM      7  C   UNL     1      -5.258 -13.818  50.406  1.00  0.00     0.094 C 
ATOM      8  C   UNL     1      -7.271 -13.791  51.700  1.00  0.00     0.037 C 
ATOM      9  C   UNL     1      -6.405 -13.380  49.552  1.00  0.00    -0.039 C 
ATOM     10  C   UNL     1      -7.512 -13.306  50.301  1.00  0.00    -0.024 C 
BRANCH   3  11
ATOM     11  C   UNL     1      -5.526 -14.832  54.056  1.00  0.00     0.337 C 
ATOM     12  O   UNL     1      -4.710 -15.103  54.976  1.00  0.00    -0.246 OA
BRANCH  11  13
ATOM     13  O   UNL     1      -6.875 -14.630  54.383  1.00  0.00    -0.466 OA
ATOM     14  C   UNL     1      -7.457 -15.032  55.618  1.00  0.00     0.282 C 
ENDBRANCH  11  13
ENDBRANCH   3  11
BRANCH   9  15
ATOM     15  C   UNL     1      -6.297 -12.743  48.200  1.00  0.00     0.187 C 
BRANCH  15  16
ATOM     16  O   UNL     1      -6.919 -11.488  48.224  1.00  0.00    -0.392 OA
ATOM     17  H   UNL     1      -7.807 -11.614  47.797  1.00  0.00     0.211 HD
ENDBRANCH  15  16
ENDBRANCH   9  15
ENDBRANCH   1   2
BRANCH   1  18
ATOM     18  C   UNL     1      -2.993 -14.974  47.866  1.00  0.00     0.286 C 
ATOM     19  C   UNL     1      -1.517 -14.771  47.454  1.00  0.00     0.202 C 
ATOM     20  O   UNL     1      -3.871 -14.870  46.753  1.00  0.00    -0.341 OA
ATOM     21  C   UNL     1      -1.298 -13.494  46.611  1.00  0.00     0.179 C 
ATOM     22  C   UNL     1      -3.801 -13.594  46.142  1.00  0.00     0.178 C 
ATOM     23  C   UNL     1      -2.395 -13.358  45.535  1.00  0.00     0.177 C 
BRANCH  19  24
ATOM     24  O   UNL     1      -0.706 -14.751  48.601  1.00  0.00    -0.385 OA
ATOM     25  H   UNL     1      -0.939 -13.927  49.102  1.00  0.00     0.211 HD
ENDBRANCH  19  24
BRANCH  21  26
ATOM     26  O   UNL     1      -1.190 -12.342  47.412  1.00  0.00    -0.387 OA
ATOM     27  H   UNL     1      -2.089 -11.944  47.512  1.00  0.00     0.211 HD
ENDBRANCH  21  26
BRANCH  22  28
ATOM     28  C   UNL     1      -4.901 -13.504  45.074  1.00  0.00     0.191 C 
BRANCH  28  29
ATOM     29  O   UNL     1      -5.525 -14.748  44.887  1.00  0.00    -0.394 OA
ATOM     30  H   UNL     1      -5.047 -15.200  44.144  1.00  0.00     0.210 HD
ENDBRANCH  28  29
ENDBRANCH  22  28
BRANCH  23  31
ATOM     31  O   UNL     1      -2.303 -12.117  44.877  1.00  0.00    -0.387 OA
ATOM     32  H   UNL     1      -1.350 -11.838  44.887  1.00  0.00     0.211 HD
ENDBRANCH  23  31
ENDBRANCH   1  18
TORSDOF 11
ENDMDL
