MODEL 1
REMARK VINA RESULT:    -4.401      0.000      0.000
REMARK INTER + INTRA:          -9.731
REMARK INTER:                  -8.002
REMARK INTRA:                  -1.728
REMARK UNBOUND:                -1.728
REMARK SMILES CCCCCCCCCCCCCCCC(=O)[O-]
REMARK SMILES IDX 9 1 10 2 11 3 12 4 13 5 14 6 15 7 16 8 17 9 18 10 8 11 7 12
REMARK SMILES IDX 6 13 5 14 4 15 3 16 2 17 1 18
REMARK H PARENT
REMARK Flexibility Score: inf
ROOT
ATOM      1  C   UNL     1      46.759   6.903  17.910  1.00  0.00     0.000 C 
ENDROOT
BRANCH   1   2
ATOM      2  C   UNL     1      45.762   7.867  18.574  1.00  0.00     0.000 C 
BRANCH   2   3
ATOM      3  C   UNL     1      46.084   8.135  20.055  1.00  0.00     0.000 C 
BRANCH   3   4
ATOM      4  C   UNL     1      47.017   7.105  20.724  1.00  0.00     0.000 C 
BRANCH   4   5
ATOM      5  C   UNL     1      47.441   7.445  22.164  1.00  0.00     0.000 C 
BRANCH   5   6
ATOM      6  C   UNL     1      46.831   8.763  22.670  1.00  0.00     0.006 C 
BRANCH   6   7
ATOM      7  C   UNL     1      45.830   8.537  23.811  1.00  0.00     0.053 C 
BRANCH   7   8
ATOM      8  C   UNL     1      44.457   9.012  23.448  1.00  0.00     0.041 C 
ATOM      9  O   UNL     1      43.803   8.430  22.543  1.00  0.00    -0.550 OA
ATOM     10  O   UNL     1      43.910  10.115  24.092  1.00  0.00    -0.550 OA
ENDBRANCH   7   8
ENDBRANCH   6   7
ENDBRANCH   5   6
ENDBRANCH   4   5
ENDBRANCH   3   4
ENDBRANCH   2   3
ENDBRANCH   1   2
BRANCH   1  11
ATOM     11  C   UNL     1      46.358   6.525  16.473  1.00  0.00     0.000 C 
BRANCH  11  12
ATOM     12  C   UNL     1      44.901   6.851  16.085  1.00  0.00    -0.000 C 
BRANCH  12  13
ATOM     13  C   UNL     1      44.723   7.572  14.738  1.00  0.00    -0.000 C 
BRANCH  13  14
ATOM     14  C   UNL     1      46.038   8.149  14.190  1.00  0.00    -0.000 C 
BRANCH  14  15
ATOM     15  C   UNL     1      46.082   9.686  14.245  1.00  0.00    -0.000 C 
BRANCH  15  16
ATOM     16  C   UNL     1      47.115  10.243  15.246  1.00  0.00    -0.000 C 
BRANCH  16  17
ATOM     17  C   UNL     1      46.461  10.698  16.559  1.00  0.00    -0.003 C 
ATOM     18  C   UNL     1      44.972  10.969  16.369  1.00  0.00     0.004 C 
ENDBRANCH  16  17
ENDBRANCH  15  16
ENDBRANCH  14  15
ENDBRANCH  13  14
ENDBRANCH  12  13
ENDBRANCH  11  12
ENDBRANCH   1  11
TORSDOF 14
ENDMDL
MODEL 2
REMARK VINA RESULT:    -4.350      3.901      7.672
REMARK INTER + INTRA:          -9.639
REMARK INTER:                  -8.258
REMARK INTRA:                  -1.381
REMARK UNBOUND:                -1.728
REMARK SMILES CCCCCCCCCCCCCCCC(=O)[O-]
REMARK SMILES IDX 9 1 10 2 11 3 12 4 13 5 14 6 15 7 16 8 17 9 18 10 8 11 7 12
REMARK SMILES IDX 6 13 5 14 4 15 3 16 2 17 1 18
REMARK H PARENT
REMARK Flexibility Score: inf
ROOT
ATOM      1  C   UNL     1      46.356   7.862  19.156  1.00  0.00     0.000 C 
ENDROOT
BRANCH   1   2
ATOM      2  C   UNL     1      46.032   7.163  17.827  1.00  0.00     0.000 C 
BRANCH   2   3
ATOM      3  C   UNL     1      44.648   7.544  17.272  1.00  0.00     0.000 C 
BRANCH   3   4
ATOM      4  C   UNL     1      44.531   7.547  15.733  1.00  0.00     0.000 C 
BRANCH   4   5
ATOM      5  C   UNL     1      43.812   6.328  15.129  1.00  0.00     0.000 C 
BRANCH   5   6
ATOM      6  C   UNL     1      44.641   5.625  14.041  1.00  0.00     0.006 C 
BRANCH   6   7
ATOM      7  C   UNL     1      46.109   6.072  14.052  1.00  0.00     0.053 C 
BRANCH   7   8
ATOM      8  C   UNL     1      47.038   4.922  14.289  1.00  0.00     0.041 C 
ATOM      9  O   UNL     1      46.741   3.770  13.875  1.00  0.00    -0.550 OA
ATOM     10  O   UNL     1      48.221   5.118  14.991  1.00  0.00    -0.550 OA
ENDBRANCH   7   8
ENDBRANCH   6   7
ENDBRANCH   5   6
ENDBRANCH   4   5
ENDBRANCH   3   4
ENDBRANCH   2   3
ENDBRANCH   1   2
BRANCH   1  11
ATOM     11  C   UNL     1      45.827   9.307  19.216  1.00  0.00     0.000 C 
BRANCH  11  12
ATOM     12  C   UNL     1      44.838   9.603  20.362  1.00  0.00    -0.000 C 
BRANCH  12  13
ATOM     13  C   UNL     1      44.561   8.427  21.315  1.00  0.00    -0.000 C 
BRANCH  13  14
ATOM     14  C   UNL     1      44.537   8.848  22.793  1.00  0.00    -0.000 C 
BRANCH  14  15
ATOM     15  C   UNL     1      45.843   8.504  23.531  1.00  0.00    -0.000 C 
BRANCH  15  16
ATOM     16  C   UNL     1      47.097   9.155  22.911  1.00  0.00    -0.000 C 
BRANCH  16  17
ATOM     17  C   UNL     1      48.290   8.189  22.870  1.00  0.00    -0.003 C 
ATOM     18  C   UNL     1      47.871   6.816  22.352  1.00  0.00     0.004 C 
ENDBRANCH  16  17
ENDBRANCH  15  16
ENDBRANCH  14  15
ENDBRANCH  13  14
ENDBRANCH  12  13
ENDBRANCH  11  12
ENDBRANCH   1  11
TORSDOF 14
ENDMDL
MODEL 3
REMARK VINA RESULT:    -4.305      1.579      2.785
REMARK INTER + INTRA:          -9.557
REMARK INTER:                  -8.244
REMARK INTRA:                  -1.313
REMARK UNBOUND:                -1.728
REMARK SMILES CCCCCCCCCCCCCCCC(=O)[O-]
REMARK SMILES IDX 9 1 10 2 11 3 12 4 13 5 14 6 15 7 16 8 17 9 18 10 8 11 7 12
REMARK SMILES IDX 6 13 5 14 4 15 3 16 2 17 1 18
REMARK H PARENT
REMARK Flexibility Score: inf
ROOT
ATOM      1  C   UNL     1      46.734   6.823  18.929  1.00  0.00     0.000 C 
ENDROOT
BRANCH   1   2
ATOM      2  C   UNL     1      46.714   7.445  20.335  1.00  0.00     0.000 C 
BRANCH   2   3
ATOM      3  C   UNL     1      47.529   6.634  21.358  1.00  0.00     0.000 C 
BRANCH   3   4
ATOM      4  C   UNL     1      47.605   7.245  22.773  1.00  0.00     0.000 C 
BRANCH   4   5
ATOM      5  C   UNL     1      47.912   8.753  22.819  1.00  0.00     0.000 C 
BRANCH   5   6
ATOM      6  C   UNL     1      46.724   9.588  23.326  1.00  0.00     0.006 C 
BRANCH   6   7
ATOM      7  C   UNL     1      45.658   8.722  24.012  1.00  0.00     0.053 C 
BRANCH   7   8
ATOM      8  C   UNL     1      44.310   8.899  23.383  1.00  0.00     0.041 C 
ATOM      9  O   UNL     1      44.122   8.570  22.182  1.00  0.00    -0.550 OA
ATOM     10  O   UNL     1      43.268   9.452  24.117  1.00  0.00    -0.550 OA
ENDBRANCH   7   8
ENDBRANCH   6   7
ENDBRANCH   5   6
ENDBRANCH   4   5
ENDBRANCH   3   4
ENDBRANCH   2   3
ENDBRANCH   1   2
BRANCH   1  11
ATOM     11  C   UNL     1      46.256   7.799  17.838  1.00  0.00     0.000 C 
BRANCH  11  12
ATOM     12  C   UNL     1      44.848   8.393  18.052  1.00  0.00    -0.000 C 
BRANCH  12  13
ATOM     13  C   UNL     1      44.097   8.789  16.769  1.00  0.00    -0.000 C 
BRANCH  13  14
ATOM     14  C   UNL     1      44.797   8.301  15.491  1.00  0.00    -0.000 C 
BRANCH  14  15
ATOM     15  C   UNL     1      44.092   7.093  14.850  1.00  0.00    -0.000 C 
BRANCH  15  16
ATOM     16  C   UNL     1      44.994   5.849  14.710  1.00  0.00    -0.000 C 
BRANCH  16  17
ATOM     17  C   UNL     1      46.472   6.224  14.529  1.00  0.00    -0.003 C 
ATOM     18  C   UNL     1      47.388   5.181  15.164  1.00  0.00     0.004 C 
ENDBRANCH  16  17
ENDBRANCH  15  16
ENDBRANCH  14  15
ENDBRANCH  13  14
ENDBRANCH  12  13
ENDBRANCH  11  12
ENDBRANCH   1  11
TORSDOF 14
ENDMDL
MODEL 4
REMARK VINA RESULT:    -4.223      3.503      7.734
REMARK INTER + INTRA:          -9.408
REMARK INTER:                  -8.483
REMARK INTRA:                  -0.925
REMARK UNBOUND:                -1.728
REMARK SMILES CCCCCCCCCCCCCCCC(=O)[O-]
REMARK SMILES IDX 9 1 10 2 11 3 12 4 13 5 14 6 15 7 16 8 17 9 18 10 8 11 7 12
REMARK SMILES IDX 6 13 5 14 4 15 3 16 2 17 1 18
REMARK H PARENT
REMARK Flexibility Score: inf
ROOT
ATOM      1  C   UNL     1      46.067   8.608  18.304  1.00  0.00     0.000 C 
ENDROOT
BRANCH   1   2
ATOM      2  C   UNL     1      44.611   8.686  17.819  1.00  0.00     0.000 C 
BRANCH   2   3
ATOM      3  C   UNL     1      44.192   7.464  16.982  1.00  0.00     0.000 C 
BRANCH   3   4
ATOM      4  C   UNL     1      44.576   7.524  15.489  1.00  0.00     0.000 C 
BRANCH   4   5
ATOM      5  C   UNL     1      44.121   6.317  14.648  1.00  0.00     0.000 C 
BRANCH   5   6
ATOM      6  C   UNL     1      45.290   5.414  14.221  1.00  0.00     0.006 C 
BRANCH   6   7
ATOM      7  C   UNL     1      46.653   6.077  14.462  1.00  0.00     0.053 C 
BRANCH   7   8
ATOM      8  C   UNL     1      47.636   5.122  15.065  1.00  0.00     0.041 C 
ATOM      9  O   UNL     1      47.882   5.159  16.300  1.00  0.00    -0.550 OA
ATOM     10  O   UNL     1      48.303   4.209  14.258  1.00  0.00    -0.550 OA
ENDBRANCH   7   8
ENDBRANCH   6   7
ENDBRANCH   5   6
ENDBRANCH   4   5
ENDBRANCH   3   4
ENDBRANCH   2   3
ENDBRANCH   1   2
BRANCH   1  11
ATOM     11  C   UNL     1      46.486   7.184  18.712  1.00  0.00     0.000 C 
BRANCH  11  12
ATOM     12  C   UNL     1      46.810   6.992  20.208  1.00  0.00    -0.000 C 
BRANCH  12  13
ATOM     13  C   UNL     1      46.401   8.157  21.126  1.00  0.00    -0.000 C 
BRANCH  13  14
ATOM     14  C   UNL     1      47.090   8.106  22.500  1.00  0.00    -0.000 C 
BRANCH  14  15
ATOM     15  C   UNL     1      47.260   9.498  23.132  1.00  0.00    -0.000 C 
BRANCH  15  16
ATOM     16  C   UNL     1      46.051   9.947  23.980  1.00  0.00    -0.000 C 
BRANCH  16  17
ATOM     17  C   UNL     1      45.226   8.755  24.487  1.00  0.00    -0.003 C 
ATOM     18  C   UNL     1      44.926   8.887  25.977  1.00  0.00     0.004 C 
ENDBRANCH  16  17
ENDBRANCH  15  16
ENDBRANCH  14  15
ENDBRANCH  13  14
ENDBRANCH  12  13
ENDBRANCH  11  12
ENDBRANCH   1  11
TORSDOF 14
ENDMDL
MODEL 5
REMARK VINA RESULT:    -4.200      1.914      3.608
REMARK INTER + INTRA:          -9.366
REMARK INTER:                  -7.350
REMARK INTRA:                  -2.016
REMARK UNBOUND:                -1.728
REMARK SMILES CCCCCCCCCCCCCCCC(=O)[O-]
REMARK SMILES IDX 9 1 10 2 11 3 12 4 13 5 14 6 15 7 16 8 17 9 18 10 8 11 7 12
REMARK SMILES IDX 6 13 5 14 4 15 3 16 2 17 1 18
REMARK H PARENT
REMARK Flexibility Score: inf
ROOT
ATOM      1  C   UNL     1      45.931   9.190  18.512  1.00  0.00     0.000 C 
ENDROOT
BRANCH   1   2
ATOM      2  C   UNL     1      44.590   8.828  19.171  1.00  0.00     0.000 C 
BRANCH   2   3
ATOM      3  C   UNL     1      43.964  10.006  19.939  1.00  0.00     0.000 C 
BRANCH   3   4
ATOM      4  C   UNL     1      44.162   9.977  21.469  1.00  0.00     0.000 C 
BRANCH   4   5
ATOM      5  C   UNL     1      44.338   8.574  22.078  1.00  0.00     0.000 C 
BRANCH   5   6
ATOM      6  C   UNL     1      45.550   8.482  23.022  1.00  0.00     0.006 C 
BRANCH   6   7
ATOM      7  C   UNL     1      46.881   8.617  22.270  1.00  0.00     0.053 C 
BRANCH   7   8
ATOM      8  C   UNL     1      47.417   7.284  21.847  1.00  0.00     0.041 C 
ATOM      9  O   UNL     1      48.280   6.694  22.551  1.00  0.00    -0.550 OA
ATOM     10  O   UNL     1      46.984   6.704  20.661  1.00  0.00    -0.550 OA
ENDBRANCH   7   8
ENDBRANCH   6   7
ENDBRANCH   5   6
ENDBRANCH   4   5
ENDBRANCH   3   4
ENDBRANCH   2   3
ENDBRANCH   1   2
BRANCH   1  11
ATOM     11  C   UNL     1      45.886  10.534  17.763  1.00  0.00     0.000 C 
BRANCH  11  12
ATOM     12  C   UNL     1      45.348  10.468  16.318  1.00  0.00    -0.000 C 
BRANCH  12  13
ATOM     13  C   UNL     1      46.344   9.948  15.266  1.00  0.00    -0.000 C 
BRANCH  13  14
ATOM     14  C   UNL     1      45.865   8.663  14.572  1.00  0.00    -0.000 C 
BRANCH  14  15
ATOM     15  C   UNL     1      44.623   8.052  15.243  1.00  0.00    -0.000 C 
BRANCH  15  16
ATOM     16  C   UNL     1      44.881   6.678  15.896  1.00  0.00    -0.000 C 
BRANCH  16  17
ATOM     17  C   UNL     1      46.315   6.184  15.654  1.00  0.00    -0.003 C 
ATOM     18  C   UNL     1      47.100   6.107  16.960  1.00  0.00     0.004 C 
ENDBRANCH  16  17
ENDBRANCH  15  16
ENDBRANCH  14  15
ENDBRANCH  13  14
ENDBRANCH  12  13
ENDBRANCH  11  12
ENDBRANCH   1  11
TORSDOF 14
ENDMDL
MODEL 6
REMARK VINA RESULT:    -4.197      3.472      7.465
REMARK INTER + INTRA:          -9.361
REMARK INTER:                  -8.175
REMARK INTRA:                  -1.186
REMARK UNBOUND:                -1.728
REMARK SMILES CCCCCCCCCCCCCCCC(=O)[O-]
REMARK SMILES IDX 9 1 10 2 11 3 12 4 13 5 14 6 15 7 16 8 17 9 18 10 8 11 7 12
REMARK SMILES IDX 6 13 5 14 4 15 3 16 2 17 1 18
REMARK H PARENT
REMARK Flexibility Score: inf
ROOT
ATOM      1  C   UNL     1      46.721   7.108  19.065  1.00  0.00     0.000 C 
ENDROOT
BRANCH   1   2
ATOM      2  C   UNL     1      46.072   8.236  18.247  1.00  0.00     0.000 C 
BRANCH   2   3
ATOM      3  C   UNL     1      44.676   7.863  17.716  1.00  0.00     0.000 C 
BRANCH   3   4
ATOM      4  C   UNL     1      44.490   8.005  16.191  1.00  0.00     0.000 C 
BRANCH   4   5
ATOM      5  C   UNL     1      44.333   6.679  15.426  1.00  0.00     0.000 C 
BRANCH   5   6
ATOM      6  C   UNL     1      45.375   6.510  14.307  1.00  0.00     0.006 C 
BRANCH   6   7
ATOM      7  C   UNL     1      45.939   5.084  14.251  1.00  0.00     0.053 C 
BRANCH   7   8
ATOM      8  C   UNL     1      47.312   5.006  14.844  1.00  0.00     0.041 C 
ATOM      9  O   UNL     1      48.227   4.379  14.247  1.00  0.00    -0.550 OA
ATOM     10  O   UNL     1      47.574   5.602  16.071  1.00  0.00    -0.550 OA
ENDBRANCH   7   8
ENDBRANCH   6   7
ENDBRANCH   5   6
ENDBRANCH   4   5
ENDBRANCH   3   4
ENDBRANCH   2   3
ENDBRANCH   1   2
BRANCH   1  11
ATOM     11  C   UNL     1      46.481   7.253  20.578  1.00  0.00     0.000 C 
BRANCH  11  12
ATOM     12  C   UNL     1      47.643   6.788  21.480  1.00  0.00    -0.000 C 
BRANCH  12  13
ATOM     13  C   UNL     1      47.849   7.607  22.766  1.00  0.00    -0.000 C 
BRANCH  13  14
ATOM     14  C   UNL     1      47.017   8.900  22.791  1.00  0.00    -0.000 C 
BRANCH  14  15
ATOM     15  C   UNL     1      45.840   8.830  23.780  1.00  0.00    -0.000 C 
BRANCH  15  16
ATOM     16  C   UNL     1      44.457   8.779  23.097  1.00  0.00    -0.000 C 
BRANCH  16  17
ATOM     17  C   UNL     1      44.102  10.106  22.409  1.00  0.00    -0.003 C 
ATOM     18  C   UNL     1      44.054   9.945  20.892  1.00  0.00     0.004 C 
ENDBRANCH  16  17
ENDBRANCH  15  16
ENDBRANCH  14  15
ENDBRANCH  13  14
ENDBRANCH  12  13
ENDBRANCH  11  12
ENDBRANCH   1  11
TORSDOF 14
ENDMDL
MODEL 7
REMARK VINA RESULT:    -4.164      1.636      3.339
REMARK INTER + INTRA:          -9.300
REMARK INTER:                  -7.548
REMARK INTRA:                  -1.752
REMARK UNBOUND:                -1.728
REMARK SMILES CCCCCCCCCCCCCCCC(=O)[O-]
REMARK SMILES IDX 9 1 10 2 11 3 12 4 13 5 14 6 15 7 16 8 17 9 18 10 8 11 7 12
REMARK SMILES IDX 6 13 5 14 4 15 3 16 2 17 1 18
REMARK H PARENT
REMARK Flexibility Score: inf
ROOT
ATOM      1  C   UNL     1      46.299   8.251  20.093  1.00  0.00     0.000 C 
ENDROOT
BRANCH   1   2
ATOM      2  C   UNL     1      46.788   7.005  20.848  1.00  0.00     0.000 C 
BRANCH   2   3
ATOM      3  C   UNL     1      47.698   7.347  22.041  1.00  0.00     0.000 C 
BRANCH   3   4
ATOM      4  C   UNL     1      47.289   8.598  22.845  1.00  0.00     0.000 C 
BRANCH   4   5
ATOM      5  C   UNL     1      46.023   8.438  23.705  1.00  0.00     0.000 C 
BRANCH   5   6
ATOM      6  C   UNL     1      45.261   9.761  23.897  1.00  0.00     0.006 C 
BRANCH   6   7
ATOM      7  C   UNL     1      43.745   9.585  23.740  1.00  0.00     0.053 C 
BRANCH   7   8
ATOM      8  C   UNL     1      43.061   9.457  25.066  1.00  0.00     0.041 C 
ATOM      9  O   UNL     1      41.818   9.640  25.160  1.00  0.00    -0.550 OA
ATOM     10  O   UNL     1      43.800   9.162  26.205  1.00  0.00    -0.550 OA
ENDBRANCH   7   8
ENDBRANCH   6   7
ENDBRANCH   5   6
ENDBRANCH   4   5
ENDBRANCH   3   4
ENDBRANCH   2   3
ENDBRANCH   1   2
BRANCH   1  11
ATOM     11  C   UNL     1      44.785   8.485  20.243  1.00  0.00     0.000 C 
BRANCH  11  12
ATOM     12  C   UNL     1      44.279   9.866  19.777  1.00  0.00    -0.000 C 
BRANCH  12  13
ATOM     13  C   UNL     1      43.855   9.950  18.300  1.00  0.00    -0.000 C 
BRANCH  13  14
ATOM     14  C   UNL     1      45.018  10.313  17.363  1.00  0.00    -0.000 C 
BRANCH  14  15
ATOM     15  C   UNL     1      45.276   9.241  16.291  1.00  0.00    -0.000 C 
BRANCH  15  16
ATOM     16  C   UNL     1      44.489   7.933  16.518  1.00  0.00    -0.000 C 
BRANCH  16  17
ATOM     17  C   UNL     1      45.355   6.688  16.277  1.00  0.00    -0.003 C 
ATOM     18  C   UNL     1      46.782   6.904  16.772  1.00  0.00     0.004 C 
ENDBRANCH  16  17
ENDBRANCH  15  16
ENDBRANCH  14  15
ENDBRANCH  13  14
ENDBRANCH  12  13
ENDBRANCH  11  12
ENDBRANCH   1  11
TORSDOF 14
ENDMDL
MODEL 8
REMARK VINA RESULT:    -4.099      1.524      2.239
REMARK INTER + INTRA:          -9.182
REMARK INTER:                  -7.244
REMARK INTRA:                  -1.939
REMARK UNBOUND:                -1.728
REMARK SMILES CCCCCCCCCCCCCCCC(=O)[O-]
REMARK SMILES IDX 9 1 10 2 11 3 12 4 13 5 14 6 15 7 16 8 17 9 18 10 8 11 7 12
REMARK SMILES IDX 6 13 5 14 4 15 3 16 2 17 1 18
REMARK H PARENT
REMARK Flexibility Score: inf
ROOT
ATOM      1  C   UNL     1      46.730   6.638  18.485  1.00  0.00     0.000 C 
ENDROOT
BRANCH   1   2
ATOM      2  C   UNL     1      46.548   7.546  19.712  1.00  0.00     0.000 C 
BRANCH   2   3
ATOM      3  C   UNL     1      47.112   6.928  21.003  1.00  0.00     0.000 C 
BRANCH   3   4
ATOM      4  C   UNL     1      47.193   7.883  22.212  1.00  0.00     0.000 C 
BRANCH   4   5
ATOM      5  C   UNL     1      46.129   8.995  22.239  1.00  0.00     0.000 C 
BRANCH   5   6
ATOM      6  C   UNL     1      44.804   8.538  22.872  1.00  0.00     0.006 C 
BRANCH   6   7
ATOM      7  C   UNL     1      43.871   9.716  23.178  1.00  0.00     0.053 C 
BRANCH   7   8
ATOM      8  C   UNL     1      43.336   9.654  24.576  1.00  0.00     0.041 C 
ATOM      9  O   UNL     1      44.042   9.179  25.505  1.00  0.00    -0.550 OA
ATOM     10  O   UNL     1      42.048  10.096  24.848  1.00  0.00    -0.550 OA
ENDBRANCH   7   8
ENDBRANCH   6   7
ENDBRANCH   5   6
ENDBRANCH   4   5
ENDBRANCH   3   4
ENDBRANCH   2   3
ENDBRANCH   1   2
BRANCH   1  11
ATOM     11  C   UNL     1      46.395   7.348  17.161  1.00  0.00     0.000 C 
BRANCH  11  12
ATOM     12  C   UNL     1      44.900   7.365  16.778  1.00  0.00    -0.000 C 
BRANCH  12  13
ATOM     13  C   UNL     1      44.416   8.641  16.068  1.00  0.00    -0.000 C 
BRANCH  13  14
ATOM     14  C   UNL     1      45.513   9.711  15.947  1.00  0.00    -0.000 C 
BRANCH  14  15
ATOM     15  C   UNL     1      45.262  10.926  16.857  1.00  0.00    -0.000 C 
BRANCH  15  16
ATOM     16  C   UNL     1      46.020  10.863  18.200  1.00  0.00    -0.000 C 
BRANCH  16  17
ATOM     17  C   UNL     1      45.095  11.125  19.398  1.00  0.00    -0.003 C 
ATOM     18  C   UNL     1      43.932  10.137  19.424  1.00  0.00     0.004 C 
ENDBRANCH  16  17
ENDBRANCH  15  16
ENDBRANCH  14  15
ENDBRANCH  13  14
ENDBRANCH  12  13
ENDBRANCH  11  12
ENDBRANCH   1  11
TORSDOF 14
ENDMDL
MODEL 9
REMARK VINA RESULT:    -4.088      3.474      7.398
REMARK INTER + INTRA:          -9.163
REMARK INTER:                  -7.676
REMARK INTRA:                  -1.486
REMARK UNBOUND:                -1.728
REMARK SMILES CCCCCCCCCCCCCCCC(=O)[O-]
REMARK SMILES IDX 9 1 10 2 11 3 12 4 13 5 14 6 15 7 16 8 17 9 18 10 8 11 7 12
REMARK SMILES IDX 6 13 5 14 4 15 3 16 2 17 1 18
REMARK H PARENT
REMARK Flexibility Score: inf
ROOT
ATOM      1  C   UNL     1      44.843   8.129  20.454  1.00  0.00     0.000 C 
ENDROOT
BRANCH   1   2
ATOM      2  C   UNL     1      44.188   9.478  20.116  1.00  0.00     0.000 C 
BRANCH   2   3
ATOM      3  C   UNL     1      44.605  10.017  18.737  1.00  0.00     0.000 C 
BRANCH   3   4
ATOM      4  C   UNL     1      43.872   9.389  17.533  1.00  0.00     0.000 C 
BRANCH   4   5
ATOM      5  C   UNL     1      44.782   8.708  16.495  1.00  0.00     0.000 C 
BRANCH   5   6
ATOM      6  C   UNL     1      44.934   7.197  16.736  1.00  0.00     0.006 C 
BRANCH   6   7
ATOM      7  C   UNL     1      46.379   6.806  17.073  1.00  0.00     0.053 C 
BRANCH   7   8
ATOM      8  C   UNL     1      47.014   6.019  15.968  1.00  0.00     0.041 C 
ATOM      9  O   UNL     1      47.885   5.148  16.229  1.00  0.00    -0.550 OA
ATOM     10  O   UNL     1      46.663   6.267  14.647  1.00  0.00    -0.550 OA
ENDBRANCH   7   8
ENDBRANCH   6   7
ENDBRANCH   5   6
ENDBRANCH   4   5
ENDBRANCH   3   4
ENDBRANCH   2   3
ENDBRANCH   1   2
BRANCH   1  11
ATOM     11  C   UNL     1      46.378   8.165  20.337  1.00  0.00     0.000 C 
BRANCH  11  12
ATOM     12  C   UNL     1      47.125   7.036  21.077  1.00  0.00    -0.000 C 
BRANCH  12  13
ATOM     13  C   UNL     1      47.663   7.404  22.471  1.00  0.00    -0.000 C 
BRANCH  13  14
ATOM     14  C   UNL     1      47.171   8.777  22.958  1.00  0.00    -0.000 C 
BRANCH  14  15
ATOM     15  C   UNL     1      46.022   8.669  23.976  1.00  0.00    -0.000 C 
BRANCH  15  16
ATOM     16  C   UNL     1      45.022   9.843  23.910  1.00  0.00    -0.000 C 
BRANCH  16  17
ATOM     17  C   UNL     1      44.304  10.067  25.249  1.00  0.00    -0.003 C 
ATOM     18  C   UNL     1      44.624   8.951  26.240  1.00  0.00     0.004 C 
ENDBRANCH  16  17
ENDBRANCH  15  16
ENDBRANCH  14  15
ENDBRANCH  13  14
ENDBRANCH  12  13
ENDBRANCH  11  12
ENDBRANCH   1  11
TORSDOF 14
ENDMDL
