MODEL 1
REMARK VINA RESULT:    -1.714      0.000      0.000
REMARK INTER + INTRA:          -1.714
REMARK INTER:                  -1.714
REMARK INTRA:                   0.000
REMARK UNBOUND:                 0.000
REMARK SMILES Cc1cccc2ccccc12
REMARK SMILES IDX 1 1 2 2 3 3 4 4 5 5 6 6 7 7 8 8 9 9 10 10 11 11
REMARK H PARENT
REMARK Flexibility Score: inf
ROOT
ATOM      1  C   UNL     1     -16.738 -24.318  82.940  1.00  0.00     0.045 C 
ATOM      2  C   UNL     1     -15.647 -23.796  83.839  1.00  0.00    -0.043 A 
ATOM      3  C   UNL     1     -15.475 -24.380  85.107  1.00  0.00     0.004 A 
ATOM      4  C   UNL     1     -14.478 -23.929  85.971  1.00  0.00     0.001 A 
ATOM      5  C   UNL     1     -13.633 -22.888  85.589  1.00  0.00     0.009 A 
ATOM      6  C   UNL     1     -13.778 -22.285  84.333  1.00  0.00    -0.018 A 
ATOM      7  C   UNL     1     -12.925 -21.237  83.954  1.00  0.00     0.009 A 
ATOM      8  C   UNL     1     -13.064 -20.632  82.704  1.00  0.00     0.001 A 
ATOM      9  C   UNL     1     -14.053 -21.066  81.823  1.00  0.00     0.001 A 
ATOM     10  C   UNL     1     -14.912 -22.108  82.183  1.00  0.00     0.009 A 
ATOM     11  C   UNL     1     -14.791 -22.735  83.441  1.00  0.00    -0.015 A 
ENDROOT
TORSDOF 0
ENDMDL
MODEL 2
REMARK VINA RESULT:    -1.704      0.533      3.384
REMARK INTER + INTRA:          -1.704
REMARK INTER:                  -1.704
REMARK INTRA:                   0.000
REMARK UNBOUND:                 0.000
REMARK SMILES Cc1cccc2ccccc12
REMARK SMILES IDX 1 1 2 2 3 3 4 4 5 5 6 6 7 7 8 8 9 9 10 10 11 11
REMARK H PARENT
REMARK Flexibility Score: inf
ROOT
ATOM      1  C   UNL     1     -16.112 -22.334  81.326  1.00  0.00     0.045 C 
ATOM      2  C   UNL     1     -15.018 -22.044  82.321  1.00  0.00    -0.043 A 
ATOM      3  C   UNL     1     -14.017 -21.118  81.979  1.00  0.00     0.004 A 
ATOM      4  C   UNL     1     -12.987 -20.818  82.869  1.00  0.00     0.001 A 
ATOM      5  C   UNL     1     -12.934 -21.436  84.118  1.00  0.00     0.009 A 
ATOM      6  C   UNL     1     -13.916 -22.363  84.489  1.00  0.00    -0.018 A 
ATOM      7  C   UNL     1     -13.856 -22.982  85.748  1.00  0.00     0.009 A 
ATOM      8  C   UNL     1     -14.832 -23.906  86.125  1.00  0.00     0.001 A 
ATOM      9  C   UNL     1     -15.872 -24.221  85.252  1.00  0.00     0.001 A 
ATOM     10  C   UNL     1     -15.947 -23.616  83.995  1.00  0.00     0.009 A 
ATOM     11  C   UNL     1     -14.973 -22.678  83.591  1.00  0.00    -0.015 A 
ENDROOT
TORSDOF 0
ENDMDL
MODEL 3
REMARK VINA RESULT:    -1.664      0.901      3.583
REMARK INTER + INTRA:          -1.664
REMARK INTER:                  -1.664
REMARK INTRA:                   0.000
REMARK UNBOUND:                 0.000
REMARK SMILES Cc1cccc2ccccc12
REMARK SMILES IDX 1 1 2 2 3 3 4 4 5 5 6 6 7 7 8 8 9 9 10 10 11 11
REMARK H PARENT
REMARK Flexibility Score: inf
ROOT
ATOM      1  C   UNL     1     -14.299 -22.937  85.742  1.00  0.00     0.045 C 
ATOM      2  C   UNL     1     -14.142 -22.283  84.393  1.00  0.00    -0.043 A 
ATOM      3  C   UNL     1     -13.101 -21.356  84.206  1.00  0.00     0.004 A 
ATOM      4  C   UNL     1     -12.918 -20.727  82.975  1.00  0.00     0.001 A 
ATOM      5  C   UNL     1     -13.767 -21.010  81.907  1.00  0.00     0.009 A 
ATOM      6  C   UNL     1     -14.813 -21.929  82.061  1.00  0.00    -0.018 A 
ATOM      7  C   UNL     1     -15.666 -22.208  80.981  1.00  0.00     0.009 A 
ATOM      8  C   UNL     1     -16.711 -23.123  81.127  1.00  0.00     0.001 A 
ATOM      9  C   UNL     1     -16.913 -23.765  82.348  1.00  0.00     0.001 A 
ATOM     10  C   UNL     1     -16.075 -23.498  83.434  1.00  0.00     0.009 A 
ATOM     11  C   UNL     1     -15.012 -22.578  83.310  1.00  0.00    -0.015 A 
ENDROOT
TORSDOF 0
ENDMDL
MODEL 4
REMARK VINA RESULT:    -1.663      0.801      2.561
REMARK INTER + INTRA:          -1.663
REMARK INTER:                  -1.663
REMARK INTRA:                   0.000
REMARK UNBOUND:                 0.000
REMARK SMILES Cc1cccc2ccccc12
REMARK SMILES IDX 1 1 2 2 3 3 4 4 5 5 6 6 7 7 8 8 9 9 10 10 11 11
REMARK H PARENT
REMARK Flexibility Score: inf
ROOT
ATOM      1  C   UNL     1     -13.785 -23.741  86.113  1.00  0.00     0.045 C 
ATOM      2  C   UNL     1     -14.496 -23.611  84.790  1.00  0.00    -0.043 A 
ATOM      3  C   UNL     1     -15.507 -24.535  84.471  1.00  0.00     0.004 A 
ATOM      4  C   UNL     1     -16.191 -24.453  83.258  1.00  0.00     0.001 A 
ATOM      5  C   UNL     1     -15.882 -23.449  82.341  1.00  0.00     0.009 A 
ATOM      6  C   UNL     1     -14.879 -22.514  82.630  1.00  0.00    -0.018 A 
ATOM      7  C   UNL     1     -14.571 -21.507  81.701  1.00  0.00     0.009 A 
ATOM      8  C   UNL     1     -13.574 -20.572  81.982  1.00  0.00     0.001 A 
ATOM      9  C   UNL     1     -12.876 -20.633  83.188  1.00  0.00     0.001 A 
ATOM     10  C   UNL     1     -13.169 -21.629  84.123  1.00  0.00     0.009 A 
ATOM     11  C   UNL     1     -14.173 -22.586  83.862  1.00  0.00    -0.015 A 
ENDROOT
TORSDOF 0
ENDMDL
MODEL 5
REMARK VINA RESULT:    -1.632      1.054      3.574
REMARK INTER + INTRA:          -1.632
REMARK INTER:                  -1.632
REMARK INTRA:                   0.000
REMARK UNBOUND:                 0.000
REMARK SMILES Cc1cccc2ccccc12
REMARK SMILES IDX 1 1 2 2 3 3 4 4 5 5 6 6 7 7 8 8 9 9 10 10 11 11
REMARK H PARENT
REMARK Flexibility Score: inf
ROOT
ATOM      1  C   UNL     1     -16.400 -22.207  80.774  1.00  0.00     0.045 C 
ATOM      2  C   UNL     1     -15.176 -21.625  81.433  1.00  0.00    -0.043 A 
ATOM      3  C   UNL     1     -14.469 -20.606  80.771  1.00  0.00     0.004 A 
ATOM      4  C   UNL     1     -13.331 -20.038  81.344  1.00  0.00     0.001 A 
ATOM      5  C   UNL     1     -12.877 -20.474  82.588  1.00  0.00     0.009 A 
ATOM      6  C   UNL     1     -13.559 -21.488  83.273  1.00  0.00    -0.018 A 
ATOM      7  C   UNL     1     -13.096 -21.923  84.524  1.00  0.00     0.009 A 
ATOM      8  C   UNL     1     -13.771 -22.932  85.213  1.00  0.00     0.001 A 
ATOM      9  C   UNL     1     -14.911 -23.515  84.661  1.00  0.00     0.001 A 
ATOM     10  C   UNL     1     -15.386 -23.094  83.416  1.00  0.00     0.009 A 
ATOM     11  C   UNL     1     -14.721 -22.076  82.701  1.00  0.00    -0.015 A 
ENDROOT
TORSDOF 0
ENDMDL
MODEL 6
REMARK VINA RESULT:    -1.569      0.834      3.500
REMARK INTER + INTRA:          -1.569
REMARK INTER:                  -1.569
REMARK INTRA:                   0.000
REMARK UNBOUND:                 0.000
REMARK SMILES Cc1cccc2ccccc12
REMARK SMILES IDX 1 1 2 2 3 3 4 4 5 5 6 6 7 7 8 8 9 9 10 10 11 11
REMARK H PARENT
REMARK Flexibility Score: inf
ROOT
ATOM      1  C   UNL     1     -14.722 -21.066  80.545  1.00  0.00     0.045 C 
ATOM      2  C   UNL     1     -14.350 -21.425  81.961  1.00  0.00    -0.043 A 
ATOM      3  C   UNL     1     -13.255 -20.776  82.560  1.00  0.00     0.004 A 
ATOM      4  C   UNL     1     -12.876 -21.076  83.868  1.00  0.00     0.001 A 
ATOM      5  C   UNL     1     -13.580 -22.027  84.605  1.00  0.00     0.009 A 
ATOM      6  C   UNL     1     -14.675 -22.691  84.037  1.00  0.00    -0.018 A 
ATOM      7  C   UNL     1     -15.379 -23.650  84.784  1.00  0.00     0.009 A 
ATOM      8  C   UNL     1     -16.471 -24.314  84.225  1.00  0.00     0.001 A 
ATOM      9  C   UNL     1     -16.870 -24.031  82.919  1.00  0.00     0.001 A 
ATOM     10  C   UNL     1     -16.181 -23.081  82.161  1.00  0.00     0.009 A 
ATOM     11  C   UNL     1     -15.073 -22.396  82.704  1.00  0.00    -0.015 A 
ENDROOT
TORSDOF 0
ENDMDL
MODEL 7
REMARK VINA RESULT:    -1.525      8.399      8.915
REMARK INTER + INTRA:          -1.525
REMARK INTER:                  -1.525
REMARK INTRA:                   0.000
REMARK UNBOUND:                 0.000
REMARK SMILES Cc1cccc2ccccc12
REMARK SMILES IDX 1 1 2 2 3 3 4 4 5 5 6 6 7 7 8 8 9 9 10 10 11 11
REMARK H PARENT
REMARK Flexibility Score: inf
ROOT
ATOM      1  C   UNL     1     -17.595 -14.197  82.706  1.00  0.00     0.045 C 
ATOM      2  C   UNL     1     -16.099 -14.348  82.601  1.00  0.00    -0.043 A 
ATOM      3  C   UNL     1     -15.530 -14.605  81.342  1.00  0.00     0.004 A 
ATOM      4  C   UNL     1     -14.150 -14.751  81.199  1.00  0.00     0.001 A 
ATOM      5  C   UNL     1     -13.312 -14.645  82.308  1.00  0.00     0.009 A 
ATOM      6  C   UNL     1     -13.849 -14.390  83.576  1.00  0.00    -0.018 A 
ATOM      7  C   UNL     1     -12.999 -14.285  84.689  1.00  0.00     0.009 A 
ATOM      8  C   UNL     1     -13.527 -14.030  85.956  1.00  0.00     0.001 A 
ATOM      9  C   UNL     1     -14.903 -13.879  86.124  1.00  0.00     0.001 A 
ATOM     10  C   UNL     1     -15.763 -13.981  85.028  1.00  0.00     0.009 A 
ATOM     11  C   UNL     1     -15.253 -14.238  83.737  1.00  0.00    -0.015 A 
ENDROOT
TORSDOF 0
ENDMDL
MODEL 8
REMARK VINA RESULT:    -1.524      1.105      2.658
REMARK INTER + INTRA:          -1.524
REMARK INTER:                  -1.524
REMARK INTRA:                   0.000
REMARK UNBOUND:                 0.000
REMARK SMILES Cc1cccc2ccccc12
REMARK SMILES IDX 1 1 2 2 3 3 4 4 5 5 6 6 7 7 8 8 9 9 10 10 11 11
REMARK H PARENT
REMARK Flexibility Score: inf
ROOT
ATOM      1  C   UNL     1     -15.725 -23.794  84.017  1.00  0.00     0.045 C 
ATOM      2  C   UNL     1     -14.767 -22.703  83.611  1.00  0.00    -0.043 A 
ATOM      3  C   UNL     1     -13.783 -22.290  84.526  1.00  0.00     0.004 A 
ATOM      4  C   UNL     1     -12.875 -21.285  84.193  1.00  0.00     0.001 A 
ATOM      5  C   UNL     1     -12.931 -20.672  82.942  1.00  0.00     0.009 A 
ATOM      6  C   UNL     1     -13.901 -21.061  82.008  1.00  0.00    -0.018 A 
ATOM      7  C   UNL     1     -13.952 -20.439  80.750  1.00  0.00     0.009 A 
ATOM      8  C   UNL     1     -14.915 -20.822  79.815  1.00  0.00     0.001 A 
ATOM      9  C   UNL     1     -15.832 -21.825  80.125  1.00  0.00     0.001 A 
ATOM     10  C   UNL     1     -15.796 -22.454  81.372  1.00  0.00     0.009 A 
ATOM     11  C   UNL     1     -14.832 -22.085  82.334  1.00  0.00    -0.015 A 
ENDROOT
TORSDOF 0
ENDMDL
MODEL 9
REMARK VINA RESULT:    -1.438      1.241      1.999
REMARK INTER + INTRA:          -1.438
REMARK INTER:                  -1.438
REMARK INTRA:                   0.000
REMARK UNBOUND:                 0.000
REMARK SMILES Cc1cccc2ccccc12
REMARK SMILES IDX 1 1 2 2 3 3 4 4 5 5 6 6 7 7 8 8 9 9 10 10 11 11
REMARK H PARENT
REMARK Flexibility Score: inf
ROOT
ATOM      1  C   UNL     1     -16.898 -22.847  81.051  1.00  0.00     0.045 C 
ATOM      2  C   UNL     1     -16.581 -23.021  82.515  1.00  0.00    -0.043 A 
ATOM      3  C   UNL     1     -17.512 -23.679  83.337  1.00  0.00     0.004 A 
ATOM      4  C   UNL     1     -17.260 -23.862  84.696  1.00  0.00     0.001 A 
ATOM      5  C   UNL     1     -16.075 -23.394  85.262  1.00  0.00     0.009 A 
ATOM      6  C   UNL     1     -15.127 -22.733  84.469  1.00  0.00    -0.018 A 
ATOM      7  C   UNL     1     -13.936 -22.263  85.045  1.00  0.00     0.009 A 
ATOM      8  C   UNL     1     -12.987 -21.605  84.261  1.00  0.00     0.001 A 
ATOM      9  C   UNL     1     -13.217 -21.410  82.900  1.00  0.00     0.001 A 
ATOM     10  C   UNL     1     -14.396 -21.871  82.310  1.00  0.00     0.009 A 
ATOM     11  C   UNL     1     -15.371 -22.540  83.082  1.00  0.00    -0.015 A 
ENDROOT
TORSDOF 0
ENDMDL
