MODEL 1
REMARK VINA RESULT:    -2.376      0.000      0.000
REMARK INTER + INTRA:          -2.376
REMARK INTER:                  -2.376
REMARK INTRA:                   0.000
REMARK UNBOUND:                 0.000
REMARK SMILES CC(=O)[O-]
REMARK SMILES IDX 1 1 2 2 3 3 4 4
REMARK H PARENT
REMARK Flexibility Score: inf
ROOT
ATOM      1  C   UNL     1      14.786  19.367  10.599  1.00  0.00     0.063 C 
ATOM      2  C   UNL     1      13.483  19.159  11.292  1.00  0.00     0.038 C 
ATOM      3  O   UNL     1      12.837  20.144  11.733  1.00  0.00    -0.550 OA
ATOM      4  O   UNL     1      12.951  17.880  11.404  1.00  0.00    -0.550 OA
ENDROOT
TORSDOF 0
ENDMDL
MODEL 2
REMARK VINA RESULT:    -2.330      4.806      5.296
REMARK INTER + INTRA:          -2.330
REMARK INTER:                  -2.330
REMARK INTRA:                   0.000
REMARK UNBOUND:                 0.000
REMARK SMILES CC(=O)[O-]
REMARK SMILES IDX 1 1 2 2 3 3 4 4
REMARK H PARENT
REMARK Flexibility Score: inf
ROOT
ATOM      1  C   UNL     1      16.885  20.094  10.708  1.00  0.00     0.063 C 
ATOM      2  C   UNL     1      17.864  20.614   9.712  1.00  0.00     0.038 C 
ATOM      3  O   UNL     1      17.624  20.518   8.480  1.00  0.00    -0.550 OA
ATOM      4  O   UNL     1      19.019  21.256  10.140  1.00  0.00    -0.550 OA
ENDROOT
TORSDOF 0
ENDMDL
MODEL 3
REMARK VINA RESULT:    -2.306     19.161     19.554
REMARK INTER + INTRA:          -2.306
REMARK INTER:                  -2.306
REMARK INTRA:                   0.000
REMARK UNBOUND:                 0.000
REMARK SMILES CC(=O)[O-]
REMARK SMILES IDX 1 1 2 2 3 3 4 4
REMARK H PARENT
REMARK Flexibility Score: inf
ROOT
ATOM      1  C   UNL     1      18.244  36.780   5.161  1.00  0.00     0.063 C 
ATOM      2  C   UNL     1      19.512  36.888   5.939  1.00  0.00     0.038 C 
ATOM      3  O   UNL     1      20.588  37.180   5.356  1.00  0.00    -0.550 OA
ATOM      4  O   UNL     1      19.499  36.718   7.318  1.00  0.00    -0.550 OA
ENDROOT
TORSDOF 0
ENDMDL
MODEL 4
REMARK VINA RESULT:    -2.295     17.821     18.404
REMARK INTER + INTRA:          -2.295
REMARK INTER:                  -2.295
REMARK INTRA:                   0.000
REMARK UNBOUND:                 0.000
REMARK SMILES CC(=O)[O-]
REMARK SMILES IDX 1 1 2 2 3 3 4 4
REMARK H PARENT
REMARK Flexibility Score: inf
ROOT
ATOM      1  C   UNL     1      18.021  36.652   5.560  1.00  0.00     0.063 C 
ATOM      2  C   UNL     1      18.449  36.276   6.938  1.00  0.00     0.038 C 
ATOM      3  O   UNL     1      19.546  36.690   7.394  1.00  0.00    -0.550 OA
ATOM      4  O   UNL     1      17.612  35.513   7.743  1.00  0.00    -0.550 OA
ENDROOT
TORSDOF 0
ENDMDL
MODEL 5
REMARK VINA RESULT:    -2.283     17.292     17.617
REMARK INTER + INTRA:          -2.283
REMARK INTER:                  -2.283
REMARK INTRA:                   0.000
REMARK UNBOUND:                 0.000
REMARK SMILES CC(=O)[O-]
REMARK SMILES IDX 1 1 2 2 3 3 4 4
REMARK H PARENT
REMARK Flexibility Score: inf
ROOT
ATOM      1  C   UNL     1      19.887  35.546   8.627  1.00  0.00     0.063 C 
ATOM      2  C   UNL     1      18.424  35.820   8.539  1.00  0.00     0.038 C 
ATOM      3  O   UNL     1      17.932  36.292   7.481  1.00  0.00    -0.550 OA
ATOM      4  O   UNL     1      17.591  35.503   9.605  1.00  0.00    -0.550 OA
ENDROOT
TORSDOF 0
ENDMDL
MODEL 6
REMARK VINA RESULT:    -2.272     18.646     19.064
REMARK INTER + INTRA:          -2.272
REMARK INTER:                  -2.272
REMARK INTRA:                   0.000
REMARK UNBOUND:                 0.000
REMARK SMILES CC(=O)[O-]
REMARK SMILES IDX 1 1 2 2 3 3 4 4
REMARK H PARENT
REMARK Flexibility Score: inf
ROOT
ATOM      1  C   UNL     1      19.912  37.011   5.623  1.00  0.00     0.063 C 
ATOM      2  C   UNL     1      18.466  36.664   5.740  1.00  0.00     0.038 C 
ATOM      3  O   UNL     1      17.730  36.670   4.720  1.00  0.00    -0.550 OA
ATOM      4  O   UNL     1      17.939  36.280   6.967  1.00  0.00    -0.550 OA
ENDROOT
TORSDOF 0
ENDMDL
MODEL 7
REMARK VINA RESULT:    -2.262     18.068     18.475
REMARK INTER + INTRA:          -2.262
REMARK INTER:                  -2.262
REMARK INTRA:                   0.000
REMARK UNBOUND:                 0.000
REMARK SMILES CC(=O)[O-]
REMARK SMILES IDX 1 1 2 2 3 3 4 4
REMARK H PARENT
REMARK Flexibility Score: inf
ROOT
ATOM      1  C   UNL     1      17.955  35.554   8.172  1.00  0.00     0.063 C 
ATOM      2  C   UNL     1      18.417  36.331   6.986  1.00  0.00     0.038 C 
ATOM      3  O   UNL     1      17.601  36.651   6.083  1.00  0.00    -0.550 OA
ATOM      4  O   UNL     1      19.739  36.750   6.900  1.00  0.00    -0.550 OA
ENDROOT
TORSDOF 0
ENDMDL
MODEL 8
REMARK VINA RESULT:    -2.262      4.577      4.957
REMARK INTER + INTRA:          -2.262
REMARK INTER:                  -2.262
REMARK INTRA:                   0.000
REMARK UNBOUND:                 0.000
REMARK SMILES CC(=O)[O-]
REMARK SMILES IDX 1 1 2 2 3 3 4 4
REMARK H PARENT
REMARK Flexibility Score: inf
ROOT
ATOM      1  C   UNL     1      19.147  20.859   9.667  1.00  0.00     0.063 C 
ATOM      2  C   UNL     1      17.743  20.418   9.428  1.00  0.00     0.038 C 
ATOM      3  O   UNL     1      17.264  20.437   8.265  1.00  0.00    -0.550 OA
ATOM      4  O   UNL     1      16.977  19.931  10.480  1.00  0.00    -0.550 OA
ENDROOT
TORSDOF 0
ENDMDL
MODEL 9
REMARK VINA RESULT:    -2.200      4.512      5.012
REMARK INTER + INTRA:          -2.200
REMARK INTER:                  -2.200
REMARK INTRA:                   0.000
REMARK UNBOUND:                 0.000
REMARK SMILES CC(=O)[O-]
REMARK SMILES IDX 1 1 2 2 3 3 4 4
REMARK H PARENT
REMARK Flexibility Score: inf
ROOT
ATOM      1  C   UNL     1      17.343  20.456   8.383  1.00  0.00     0.063 C 
ATOM      2  C   UNL     1      17.717  20.492   9.825  1.00  0.00     0.038 C 
ATOM      3  O   UNL     1      17.044  19.846  10.669  1.00  0.00    -0.550 OA
ATOM      4  O   UNL     1      18.843  21.196  10.236  1.00  0.00    -0.550 OA
ENDROOT
TORSDOF 0
ENDMDL
