MODEL 1
REMARK VINA RESULT:    -4.785      0.000      0.000
REMARK INTER + INTRA:         -10.720
REMARK INTER:                  -8.702
REMARK INTRA:                  -2.018
REMARK UNBOUND:                -2.018
REMARK SMILES CCCCCCCCCCCCCCCC(=O)[O-]
REMARK SMILES IDX 9 1 10 2 11 3 12 4 13 5 14 6 15 7 16 8 17 9 18 10 8 11 7 12
REMARK SMILES IDX 6 13 5 14 4 15 3 16 2 17 1 18
REMARK H PARENT
REMARK Flexibility Score: inf
ROOT
ATOM      1  C   UNL     1      62.703  31.118  11.769  1.00  0.00     0.000 C 
ENDROOT
BRANCH   1   2
ATOM      2  C   UNL     1      62.000  31.477  13.090  1.00  0.00     0.000 C 
BRANCH   2   3
ATOM      3  C   UNL     1      60.692  32.275  12.931  1.00  0.00     0.000 C 
BRANCH   3   4
ATOM      4  C   UNL     1      59.574  31.835  13.902  1.00  0.00     0.000 C 
BRANCH   4   5
ATOM      5  C   UNL     1      59.943  32.081  15.375  1.00  0.00     0.000 C 
BRANCH   5   6
ATOM      6  C   UNL     1      60.460  33.507  15.625  1.00  0.00     0.006 C 
BRANCH   6   7
ATOM      7  C   UNL     1      61.858  33.524  16.258  1.00  0.00     0.053 C 
BRANCH   7   8
ATOM      8  C   UNL     1      61.804  34.136  17.622  1.00  0.00     0.041 C 
ATOM      9  O   UNL     1      60.821  33.914  18.378  1.00  0.00    -0.550 OA
ATOM     10  O   UNL     1      62.815  34.991  18.041  1.00  0.00    -0.550 OA
ENDBRANCH   7   8
ENDBRANCH   6   7
ENDBRANCH   5   6
ENDBRANCH   4   5
ENDBRANCH   3   4
ENDBRANCH   2   3
ENDBRANCH   1   2
BRANCH   1  11
ATOM     11  C   UNL     1      63.345  29.714  11.727  1.00  0.00     0.000 C 
BRANCH  11  12
ATOM     12  C   UNL     1      63.086  28.911  10.440  1.00  0.00    -0.000 C 
BRANCH  12  13
ATOM     13  C   UNL     1      61.813  29.356   9.702  1.00  0.00    -0.000 C 
BRANCH  13  14
ATOM     14  C   UNL     1      60.818  28.204   9.494  1.00  0.00    -0.000 C 
BRANCH  14  15
ATOM     15  C   UNL     1      59.385  28.570   9.924  1.00  0.00    -0.000 C 
BRANCH  15  16
ATOM     16  C   UNL     1      59.348  29.234  11.317  1.00  0.00    -0.000 C 
BRANCH  16  17
ATOM     17  C   UNL     1      59.183  28.233  12.472  1.00  0.00    -0.003 C 
ATOM     18  C   UNL     1      60.416  28.146  13.369  1.00  0.00     0.004 C 
ENDBRANCH  16  17
ENDBRANCH  15  16
ENDBRANCH  14  15
ENDBRANCH  13  14
ENDBRANCH  12  13
ENDBRANCH  11  12
ENDBRANCH   1  11
TORSDOF 14
ENDMDL
MODEL 2
REMARK VINA RESULT:    -4.675      1.428      3.382
REMARK INTER + INTRA:         -10.520
REMARK INTER:                  -8.598
REMARK INTRA:                  -1.922
REMARK UNBOUND:                -2.018
REMARK SMILES CCCCCCCCCCCCCCCC(=O)[O-]
REMARK SMILES IDX 9 1 10 2 11 3 12 4 13 5 14 6 15 7 16 8 17 9 18 10 8 11 7 12
REMARK SMILES IDX 6 13 5 14 4 15 3 16 2 17 1 18
REMARK H PARENT
REMARK Flexibility Score: inf
ROOT
ATOM      1  C   UNL     1      62.095  28.500  13.317  1.00  0.00     0.000 C 
ENDROOT
BRANCH   1   2
ATOM      2  C   UNL     1      63.050  29.346  12.456  1.00  0.00     0.000 C 
BRANCH   2   3
ATOM      3  C   UNL     1      62.502  30.727  12.048  1.00  0.00     0.000 C 
BRANCH   3   4
ATOM      4  C   UNL     1      63.252  31.910  12.700  1.00  0.00     0.000 C 
BRANCH   4   5
ATOM      5  C   UNL     1      62.394  32.649  13.740  1.00  0.00     0.000 C 
BRANCH   5   6
ATOM      6  C   UNL     1      60.907  32.701  13.352  1.00  0.00     0.006 C 
BRANCH   6   7
ATOM      7  C   UNL     1      59.990  32.930  14.561  1.00  0.00     0.053 C 
BRANCH   7   8
ATOM      8  C   UNL     1      60.557  32.269  15.777  1.00  0.00     0.041 C 
ATOM      9  O   UNL     1      60.365  31.041  15.979  1.00  0.00    -0.550 OA
ATOM     10  O   UNL     1      61.257  33.019  16.713  1.00  0.00    -0.550 OA
ENDBRANCH   7   8
ENDBRANCH   6   7
ENDBRANCH   5   6
ENDBRANCH   4   5
ENDBRANCH   3   4
ENDBRANCH   2   3
ENDBRANCH   1   2
BRANCH   1  11
ATOM     11  C   UNL     1      60.623  28.965  13.314  1.00  0.00     0.000 C 
BRANCH  11  12
ATOM     12  C   UNL     1      59.713  28.257  12.295  1.00  0.00    -0.000 C 
BRANCH  12  13
ATOM     13  C   UNL     1      59.298  29.168  11.128  1.00  0.00    -0.000 C 
BRANCH  13  14
ATOM     14  C   UNL     1      59.404  28.467   9.764  1.00  0.00    -0.000 C 
BRANCH  14  15
ATOM     15  C   UNL     1      60.810  27.900   9.493  1.00  0.00    -0.000 C 
BRANCH  15  16
ATOM     16  C   UNL     1      61.752  28.954   8.875  1.00  0.00    -0.000 C 
BRANCH  16  17
ATOM     17  C   UNL     1      63.242  28.594   8.996  1.00  0.00    -0.003 C 
ATOM     18  C   UNL     1      64.161  29.809   8.885  1.00  0.00     0.004 C 
ENDBRANCH  16  17
ENDBRANCH  15  16
ENDBRANCH  14  15
ENDBRANCH  13  14
ENDBRANCH  12  13
ENDBRANCH  11  12
ENDBRANCH   1  11
TORSDOF 14
ENDMDL
MODEL 3
REMARK VINA RESULT:    -4.654      3.922      6.996
REMARK INTER + INTRA:         -10.481
REMARK INTER:                  -8.305
REMARK INTRA:                  -2.176
REMARK UNBOUND:                -2.018
REMARK SMILES CCCCCCCCCCCCCCCC(=O)[O-]
REMARK SMILES IDX 9 1 10 2 11 3 12 4 13 5 14 6 15 7 16 8 17 9 18 10 8 11 7 12
REMARK SMILES IDX 6 13 5 14 4 15 3 16 2 17 1 18
REMARK H PARENT
REMARK Flexibility Score: inf
ROOT
ATOM      1  C   UNL     1      59.603  29.233  12.814  1.00  0.00     0.000 C 
ENDROOT
BRANCH   1   2
ATOM      2  C   UNL     1      60.825  28.364  13.160  1.00  0.00     0.000 C 
BRANCH   2   3
ATOM      3  C   UNL     1      62.094  29.152  13.535  1.00  0.00     0.000 C 
BRANCH   3   4
ATOM      4  C   UNL     1      63.195  29.106  12.453  1.00  0.00     0.000 C 
BRANCH   4   5
ATOM      5  C   UNL     1      63.171  30.340  11.535  1.00  0.00     0.000 C 
BRANCH   5   6
ATOM      6  C   UNL     1      63.100  29.968  10.045  1.00  0.00     0.006 C 
BRANCH   6   7
ATOM      7  C   UNL     1      62.544  28.557   9.816  1.00  0.00     0.053 C 
BRANCH   7   8
ATOM      8  C   UNL     1      61.123  28.626   9.354  1.00  0.00     0.041 C 
ATOM      9  O   UNL     1      60.489  29.713   9.410  1.00  0.00    -0.550 OA
ATOM     10  O   UNL     1      60.481  27.478   8.906  1.00  0.00    -0.550 OA
ENDBRANCH   7   8
ENDBRANCH   6   7
ENDBRANCH   5   6
ENDBRANCH   4   5
ENDBRANCH   3   4
ENDBRANCH   2   3
ENDBRANCH   1   2
BRANCH   1  11
ATOM     11  C   UNL     1      59.859  30.755  12.814  1.00  0.00     0.000 C 
BRANCH  11  12
ATOM     12  C   UNL     1      59.171  31.538  13.947  1.00  0.00    -0.000 C 
BRANCH  12  13
ATOM     13  C   UNL     1      60.076  32.617  14.564  1.00  0.00    -0.000 C 
BRANCH  13  14
ATOM     14  C   UNL     1      61.434  32.727  13.853  1.00  0.00    -0.000 C 
BRANCH  14  15
ATOM     15  C   UNL     1      62.608  32.901  14.835  1.00  0.00    -0.000 C 
BRANCH  15  16
ATOM     16  C   UNL     1      63.959  32.509  14.201  1.00  0.00    -0.000 C 
BRANCH  16  17
ATOM     17  C   UNL     1      64.693  33.687  13.539  1.00  0.00    -0.003 C 
ATOM     18  C   UNL     1      65.229  33.353  12.149  1.00  0.00     0.004 C 
ENDBRANCH  16  17
ENDBRANCH  15  16
ENDBRANCH  14  15
ENDBRANCH  13  14
ENDBRANCH  12  13
ENDBRANCH  11  12
ENDBRANCH   1  11
TORSDOF 14
ENDMDL
MODEL 4
REMARK VINA RESULT:    -4.628     11.161     13.245
REMARK INTER + INTRA:         -10.435
REMARK INTER:                  -8.517
REMARK INTRA:                  -1.918
REMARK UNBOUND:                -2.018
REMARK SMILES CCCCCCCCCCCCCCCC(=O)[O-]
REMARK SMILES IDX 9 1 10 2 11 3 12 4 13 5 14 6 15 7 16 8 17 9 18 10 8 11 7 12
REMARK SMILES IDX 6 13 5 14 4 15 3 16 2 17 1 18
REMARK H PARENT
REMARK Flexibility Score: inf
ROOT
ATOM      1  C   UNL     1      63.349  30.026  24.803  1.00  0.00     0.000 C 
ENDROOT
BRANCH   1   2
ATOM      2  C   UNL     1      61.909  29.510  24.969  1.00  0.00     0.000 C 
BRANCH   2   3
ATOM      3  C   UNL     1      61.638  28.132  24.336  1.00  0.00     0.000 C 
BRANCH   3   4
ATOM      4  C   UNL     1      61.480  26.995  25.369  1.00  0.00     0.000 C 
BRANCH   4   5
ATOM      5  C   UNL     1      60.373  27.282  26.396  1.00  0.00     0.000 C 
BRANCH   5   6
ATOM      6  C   UNL     1      60.905  27.342  27.838  1.00  0.00     0.006 C 
BRANCH   6   7
ATOM      7  C   UNL     1      60.677  28.711  28.493  1.00  0.00     0.053 C 
BRANCH   7   8
ATOM      8  C   UNL     1      61.984  29.342  28.850  1.00  0.00     0.041 C 
ATOM      9  O   UNL     1      62.993  28.625  29.083  1.00  0.00    -0.550 OA
ATOM     10  O   UNL     1      62.079  30.723  28.973  1.00  0.00    -0.550 OA
ENDBRANCH   7   8
ENDBRANCH   6   7
ENDBRANCH   5   6
ENDBRANCH   4   5
ENDBRANCH   3   4
ENDBRANCH   2   3
ENDBRANCH   1   2
BRANCH   1  11
ATOM     11  C   UNL     1      64.237  29.908  26.060  1.00  0.00     0.000 C 
BRANCH  11  12
ATOM     12  C   UNL     1      65.486  29.022  25.902  1.00  0.00    -0.000 C 
BRANCH  12  13
ATOM     13  C   UNL     1      65.377  28.039  24.725  1.00  0.00    -0.000 C 
BRANCH  13  14
ATOM     14  C   UNL     1      64.959  26.628  25.170  1.00  0.00    -0.000 C 
BRANCH  14  15
ATOM     15  C   UNL     1      64.844  25.642  23.993  1.00  0.00    -0.000 C 
BRANCH  15  16
ATOM     16  C   UNL     1      64.751  26.368  22.634  1.00  0.00    -0.000 C 
BRANCH  16  17
ATOM     17  C   UNL     1      65.889  26.008  21.664  1.00  0.00    -0.003 C 
ATOM     18  C   UNL     1      66.671  27.228  21.181  1.00  0.00     0.004 C 
ENDBRANCH  16  17
ENDBRANCH  15  16
ENDBRANCH  14  15
ENDBRANCH  13  14
ENDBRANCH  12  13
ENDBRANCH  11  12
ENDBRANCH   1  11
TORSDOF 14
ENDMDL
MODEL 5
REMARK VINA RESULT:    -4.592     11.656     14.556
REMARK INTER + INTRA:         -10.369
REMARK INTER:                  -8.228
REMARK INTRA:                  -2.141
REMARK UNBOUND:                -2.018
REMARK SMILES CCCCCCCCCCCCCCCC(=O)[O-]
REMARK SMILES IDX 9 1 10 2 11 3 12 4 13 5 14 6 15 7 16 8 17 9 18 10 8 11 7 12
REMARK SMILES IDX 6 13 5 14 4 15 3 16 2 17 1 18
REMARK H PARENT
REMARK Flexibility Score: inf
ROOT
ATOM      1  C   UNL     1      61.508  27.772  24.508  1.00  0.00     0.000 C 
ENDROOT
BRANCH   1   2
ATOM      2  C   UNL     1      61.821  29.239  24.855  1.00  0.00     0.000 C 
BRANCH   2   3
ATOM      3  C   UNL     1      63.167  29.759  24.315  1.00  0.00     0.000 C 
BRANCH   3   4
ATOM      4  C   UNL     1      64.234  29.974  25.410  1.00  0.00     0.000 C 
BRANCH   4   5
ATOM      5  C   UNL     1      64.891  28.659  25.860  1.00  0.00     0.000 C 
BRANCH   5   6
ATOM      6  C   UNL     1      65.537  27.891  24.694  1.00  0.00     0.006 C 
BRANCH   6   7
ATOM      7  C   UNL     1      64.967  26.476  24.533  1.00  0.00     0.053 C 
BRANCH   7   8
ATOM      8  C   UNL     1      64.898  26.103  23.087  1.00  0.00     0.041 C 
ATOM      9  O   UNL     1      63.956  26.527  22.366  1.00  0.00    -0.550 OA
ATOM     10  O   UNL     1      65.848  25.247  22.544  1.00  0.00    -0.550 OA
ENDBRANCH   7   8
ENDBRANCH   6   7
ENDBRANCH   5   6
ENDBRANCH   4   5
ENDBRANCH   3   4
ENDBRANCH   2   3
ENDBRANCH   1   2
BRANCH   1  11
ATOM     11  C   UNL     1      61.028  26.906  25.692  1.00  0.00     0.000 C 
BRANCH  11  12
ATOM     12  C   UNL     1      61.734  27.177  27.033  1.00  0.00    -0.000 C 
BRANCH  12  13
ATOM     13  C   UNL     1      60.757  27.264  28.217  1.00  0.00    -0.000 C 
BRANCH  13  14
ATOM     14  C   UNL     1      60.851  28.604  28.963  1.00  0.00    -0.000 C 
BRANCH  14  15
ATOM     15  C   UNL     1      61.818  29.595  28.289  1.00  0.00    -0.000 C 
BRANCH  15  16
ATOM     16  C   UNL     1      63.158  29.706  29.046  1.00  0.00    -0.000 C 
BRANCH  16  17
ATOM     17  C   UNL     1      63.703  31.142  29.124  1.00  0.00    -0.003 C 
ATOM     18  C   UNL     1      65.226  31.209  29.038  1.00  0.00     0.004 C 
ENDBRANCH  16  17
ENDBRANCH  15  16
ENDBRANCH  14  15
ENDBRANCH  13  14
ENDBRANCH  12  13
ENDBRANCH  11  12
ENDBRANCH   1  11
TORSDOF 14
ENDMDL
MODEL 6
REMARK VINA RESULT:    -4.590     10.720     14.163
REMARK INTER + INTRA:         -10.365
REMARK INTER:                  -8.456
REMARK INTRA:                  -1.909
REMARK UNBOUND:                -2.018
REMARK SMILES CCCCCCCCCCCCCCCC(=O)[O-]
REMARK SMILES IDX 9 1 10 2 11 3 12 4 13 5 14 6 15 7 16 8 17 9 18 10 8 11 7 12
REMARK SMILES IDX 6 13 5 14 4 15 3 16 2 17 1 18
REMARK H PARENT
REMARK Flexibility Score: inf
ROOT
ATOM      1  C   UNL     1      60.556  27.922  25.351  1.00  0.00     0.000 C 
ENDROOT
BRANCH   1   2
ATOM      2  C   UNL     1      61.850  27.831  24.523  1.00  0.00     0.000 C 
BRANCH   2   3
ATOM      3  C   UNL     1      62.573  26.472  24.598  1.00  0.00     0.000 C 
BRANCH   3   4
ATOM      4  C   UNL     1      63.864  26.501  25.445  1.00  0.00     0.000 C 
BRANCH   4   5
ATOM      5  C   UNL     1      65.098  26.040  24.652  1.00  0.00     0.000 C 
BRANCH   5   6
ATOM      6  C   UNL     1      65.314  26.856  23.367  1.00  0.00     0.006 C 
BRANCH   6   7
ATOM      7  C   UNL     1      65.740  25.983  22.179  1.00  0.00     0.053 C 
BRANCH   7   8
ATOM      8  C   UNL     1      66.215  26.838  21.048  1.00  0.00     0.041 C 
ATOM      9  O   UNL     1      66.101  28.091  21.108  1.00  0.00    -0.550 OA
ATOM     10  O   UNL     1      66.739  26.249  19.904  1.00  0.00    -0.550 OA
ENDBRANCH   7   8
ENDBRANCH   6   7
ENDBRANCH   5   6
ENDBRANCH   4   5
ENDBRANCH   3   4
ENDBRANCH   2   3
ENDBRANCH   1   2
BRANCH   1  11
ATOM     11  C   UNL     1      60.368  26.805  26.399  1.00  0.00     0.000 C 
BRANCH  11  12
ATOM     12  C   UNL     1      60.868  27.141  27.815  1.00  0.00    -0.000 C 
BRANCH  12  13
ATOM     13  C   UNL     1      60.942  28.653  28.081  1.00  0.00    -0.000 C 
BRANCH  13  14
ATOM     14  C   UNL     1      62.303  29.087  28.650  1.00  0.00    -0.000 C 
BRANCH  14  15
ATOM     15  C   UNL     1      62.836  30.377  28.000  1.00  0.00    -0.000 C 
BRANCH  15  16
ATOM     16  C   UNL     1      63.632  30.091  26.709  1.00  0.00    -0.000 C 
BRANCH  16  17
ATOM     17  C   UNL     1      65.070  29.610  26.967  1.00  0.00    -0.003 C 
ATOM     18  C   UNL     1      65.941  29.629  25.713  1.00  0.00     0.004 C 
ENDBRANCH  16  17
ENDBRANCH  15  16
ENDBRANCH  14  15
ENDBRANCH  13  14
ENDBRANCH  12  13
ENDBRANCH  11  12
ENDBRANCH   1  11
TORSDOF 14
ENDMDL
MODEL 7
REMARK VINA RESULT:    -4.578      1.275      2.703
REMARK INTER + INTRA:         -10.343
REMARK INTER:                  -8.108
REMARK INTRA:                  -2.235
REMARK UNBOUND:                -2.018
REMARK SMILES CCCCCCCCCCCCCCCC(=O)[O-]
REMARK SMILES IDX 9 1 10 2 11 3 12 4 13 5 14 6 15 7 16 8 17 9 18 10 8 11 7 12
REMARK SMILES IDX 6 13 5 14 4 15 3 16 2 17 1 18
REMARK H PARENT
REMARK Flexibility Score: inf
ROOT
ATOM      1  C   UNL     1      60.776  28.537  13.146  1.00  0.00     0.000 C 
ENDROOT
BRANCH   1   2
ATOM      2  C   UNL     1      59.646  29.575  13.270  1.00  0.00     0.000 C 
BRANCH   2   3
ATOM      3  C   UNL     1      59.896  30.897  12.522  1.00  0.00     0.000 C 
BRANCH   3   4
ATOM      4  C   UNL     1      59.996  32.127  13.450  1.00  0.00     0.000 C 
BRANCH   4   5
ATOM      5  C   UNL     1      61.416  32.715  13.499  1.00  0.00     0.000 C 
BRANCH   5   6
ATOM      6  C   UNL     1      62.092  32.515  14.865  1.00  0.00     0.006 C 
BRANCH   6   7
ATOM      7  C   UNL     1      61.081  32.428  16.016  1.00  0.00     0.053 C 
BRANCH   7   8
ATOM      8  C   UNL     1      60.934  33.760  16.681  1.00  0.00     0.041 C 
ATOM      9  O   UNL     1      61.726  34.102  17.598  1.00  0.00    -0.550 OA
ATOM     10  O   UNL     1      59.890  34.604  16.323  1.00  0.00    -0.550 OA
ENDBRANCH   7   8
ENDBRANCH   6   7
ENDBRANCH   5   6
ENDBRANCH   4   5
ENDBRANCH   3   4
ENDBRANCH   2   3
ENDBRANCH   1   2
BRANCH   1  11
ATOM     11  C   UNL     1      62.193  29.071  13.445  1.00  0.00     0.000 C 
BRANCH  11  12
ATOM     12  C   UNL     1      63.199  28.951  12.286  1.00  0.00    -0.000 C 
BRANCH  12  13
ATOM     13  C   UNL     1      63.283  30.227  11.432  1.00  0.00    -0.000 C 
BRANCH  13  14
ATOM     14  C   UNL     1      63.877  29.966  10.038  1.00  0.00    -0.000 C 
BRANCH  14  15
ATOM     15  C   UNL     1      63.235  28.756   9.335  1.00  0.00    -0.000 C 
BRANCH  15  16
ATOM     16  C   UNL     1      61.765  29.021   8.947  1.00  0.00    -0.000 C 
BRANCH  16  17
ATOM     17  C   UNL     1      60.783  27.976   9.503  1.00  0.00    -0.003 C 
ATOM     18  C   UNL     1      59.365  28.516   9.669  1.00  0.00     0.004 C 
ENDBRANCH  16  17
ENDBRANCH  15  16
ENDBRANCH  14  15
ENDBRANCH  13  14
ENDBRANCH  12  13
ENDBRANCH  11  12
ENDBRANCH   1  11
TORSDOF 14
ENDMDL
MODEL 8
REMARK VINA RESULT:    -4.570     11.315     14.468
REMARK INTER + INTRA:         -10.329
REMARK INTER:                  -8.088
REMARK INTRA:                  -2.241
REMARK UNBOUND:                -2.018
REMARK SMILES CCCCCCCCCCCCCCCC(=O)[O-]
REMARK SMILES IDX 9 1 10 2 11 3 12 4 13 5 14 6 15 7 16 8 17 9 18 10 8 11 7 12
REMARK SMILES IDX 6 13 5 14 4 15 3 16 2 17 1 18
REMARK H PARENT
REMARK Flexibility Score: inf
ROOT
ATOM      1  C   UNL     1      61.811  27.923  27.415  1.00  0.00     0.000 C 
ENDROOT
BRANCH   1   2
ATOM      2  C   UNL     1      60.718  27.427  26.450  1.00  0.00     0.000 C 
BRANCH   2   3
ATOM      3  C   UNL     1      60.740  28.081  25.056  1.00  0.00     0.000 C 
BRANCH   3   4
ATOM      4  C   UNL     1      61.572  29.381  24.993  1.00  0.00     0.000 C 
BRANCH   4   5
ATOM      5  C   UNL     1      62.719  29.296  23.972  1.00  0.00     0.000 C 
BRANCH   5   6
ATOM      6  C   UNL     1      62.698  27.987  23.166  1.00  0.00     0.006 C 
BRANCH   6   7
ATOM      7  C   UNL     1      63.963  27.145  23.378  1.00  0.00     0.053 C 
BRANCH   7   8
ATOM      8  C   UNL     1      63.697  26.043  24.353  1.00  0.00     0.041 C 
ATOM      9  O   UNL     1      64.133  26.121  25.533  1.00  0.00    -0.550 OA
ATOM     10  O   UNL     1      63.010  24.906  23.948  1.00  0.00    -0.550 OA
ENDBRANCH   7   8
ENDBRANCH   6   7
ENDBRANCH   5   6
ENDBRANCH   4   5
ENDBRANCH   3   4
ENDBRANCH   2   3
ENDBRANCH   1   2
BRANCH   1  11
ATOM     11  C   UNL     1      61.293  28.642  28.678  1.00  0.00     0.000 C 
BRANCH  11  12
ATOM     12  C   UNL     1      61.938  30.009  28.968  1.00  0.00    -0.000 C 
BRANCH  12  13
ATOM     13  C   UNL     1      62.950  30.434  27.891  1.00  0.00    -0.000 C 
BRANCH  13  14
ATOM     14  C   UNL     1      64.294  30.883  28.487  1.00  0.00    -0.000 C 
BRANCH  14  15
ATOM     15  C   UNL     1      65.495  30.142  27.870  1.00  0.00    -0.000 C 
BRANCH  15  16
ATOM     16  C   UNL     1      65.107  29.364  26.596  1.00  0.00    -0.000 C 
BRANCH  16  17
ATOM     17  C   UNL     1      66.286  29.123  25.638  1.00  0.00    -0.003 C 
ATOM     18  C   UNL     1      66.310  30.098  24.463  1.00  0.00     0.004 C 
ENDBRANCH  16  17
ENDBRANCH  15  16
ENDBRANCH  14  15
ENDBRANCH  13  14
ENDBRANCH  12  13
ENDBRANCH  11  12
ENDBRANCH   1  11
TORSDOF 14
ENDMDL
MODEL 9
REMARK VINA RESULT:    -4.550     12.000     14.487
REMARK INTER + INTRA:         -10.292
REMARK INTER:                  -8.198
REMARK INTRA:                  -2.095
REMARK UNBOUND:                -2.018
REMARK SMILES CCCCCCCCCCCCCCCC(=O)[O-]
REMARK SMILES IDX 9 1 10 2 11 3 12 4 13 5 14 6 15 7 16 8 17 9 18 10 8 11 7 12
REMARK SMILES IDX 6 13 5 14 4 15 3 16 2 17 1 18
REMARK H PARENT
REMARK Flexibility Score: inf
ROOT
ATOM      1  C   UNL     1      63.820  29.891  27.571  1.00  0.00     0.000 C 
ENDROOT
BRANCH   1   2
ATOM      2  C   UNL     1      65.261  30.166  28.038  1.00  0.00     0.000 C 
BRANCH   2   3
ATOM      3  C   UNL     1      66.341  29.959  26.961  1.00  0.00     0.000 C 
BRANCH   3   4
ATOM      4  C   UNL     1      65.781  29.894  25.523  1.00  0.00     0.000 C 
BRANCH   4   5
ATOM      5  C   UNL     1      66.217  28.621  24.778  1.00  0.00     0.000 C 
BRANCH   5   6
ATOM      6  C   UNL     1      65.230  27.458  24.967  1.00  0.00     0.006 C 
BRANCH   6   7
ATOM      7  C   UNL     1      64.330  27.244  23.743  1.00  0.00     0.053 C 
BRANCH   7   8
ATOM      8  C   UNL     1      64.359  25.811  23.319  1.00  0.00     0.041 C 
ATOM      9  O   UNL     1      63.346  25.080  23.484  1.00  0.00    -0.550 OA
ATOM     10  O   UNL     1      65.521  25.267  22.786  1.00  0.00    -0.550 OA
ENDBRANCH   7   8
ENDBRANCH   6   7
ENDBRANCH   5   6
ENDBRANCH   4   5
ENDBRANCH   3   4
ENDBRANCH   2   3
ENDBRANCH   1   2
BRANCH   1  11
ATOM     11  C   UNL     1      62.716  30.529  28.440  1.00  0.00     0.000 C 
BRANCH  11  12
ATOM     12  C   UNL     1      61.662  29.550  28.989  1.00  0.00    -0.000 C 
BRANCH  12  13
ATOM     13  C   UNL     1      62.122  28.084  28.934  1.00  0.00    -0.000 C 
BRANCH  13  14
ATOM     14  C   UNL     1      61.240  27.222  28.017  1.00  0.00    -0.000 C 
BRANCH  14  15
ATOM     15  C   UNL     1      61.978  26.752  26.751  1.00  0.00    -0.000 C 
BRANCH  15  16
ATOM     16  C   UNL     1      61.109  26.896  25.484  1.00  0.00    -0.000 C 
BRANCH  16  17
ATOM     17  C   UNL     1      60.513  28.302  25.303  1.00  0.00    -0.003 C 
ATOM     18  C   UNL     1      61.548  29.340  24.875  1.00  0.00     0.004 C 
ENDBRANCH  16  17
ENDBRANCH  15  16
ENDBRANCH  14  15
ENDBRANCH  13  14
ENDBRANCH  12  13
ENDBRANCH  11  12
ENDBRANCH   1  11
TORSDOF 14
ENDMDL
