MODEL 1
REMARK VINA RESULT:    -4.245      0.000      0.000
REMARK INTER + INTRA:          -6.211
REMARK INTER:                  -5.982
REMARK INTRA:                  -0.229
REMARK UNBOUND:                -0.229
REMARK SMILES C=CCCCCCCC(=O)[O-]
REMARK SMILES IDX 6 1 7 2 8 3 9 4 10 5 11 6 5 7 4 8 3 9 2 10 1 11
REMARK H PARENT
REMARK Flexibility Score: inf
ROOT
ATOM      1  C   UNL     1      32.441   5.115  47.723  1.00  0.00     0.000 C 
ENDROOT
BRANCH   1   2
ATOM      2  C   UNL     1      33.844   5.688  48.015  1.00  0.00     0.006 C 
BRANCH   2   3
ATOM      3  C   UNL     1      34.957   4.859  47.363  1.00  0.00     0.053 C 
BRANCH   3   4
ATOM      4  C   UNL     1      34.829   4.888  45.874  1.00  0.00     0.041 C 
ATOM      5  O   UNL     1      35.214   3.907  45.185  1.00  0.00    -0.550 OA
ATOM      6  O   UNL     1      34.331   6.020  45.240  1.00  0.00    -0.550 OA
ENDBRANCH   3   4
ENDBRANCH   2   3
ENDBRANCH   1   2
BRANCH   1   7
ATOM      7  C   UNL     1      31.419   6.178  47.283  1.00  0.00     0.000 C 
BRANCH   7   8
ATOM      8  C   UNL     1      31.000   7.113  48.426  1.00  0.00     0.004 C 
BRANCH   8   9
ATOM      9  C   UNL     1      29.494   7.005  48.701  1.00  0.00     0.027 C 
BRANCH   9  10
ATOM     10  C   UNL     1      28.972   5.641  48.343  1.00  0.00    -0.035 C 
ATOM     11  C   UNL     1      27.911   5.479  47.548  1.00  0.00     0.004 C 
ENDBRANCH   9  10
ENDBRANCH   8   9
ENDBRANCH   7   8
ENDBRANCH   1   7
TORSDOF 7
ENDMDL
MODEL 2
REMARK VINA RESULT:    -4.062      1.809      2.462
REMARK INTER + INTRA:          -5.954
REMARK INTER:                  -5.463
REMARK INTRA:                  -0.490
REMARK UNBOUND:                -0.229
REMARK SMILES C=CCCCCCCC(=O)[O-]
REMARK SMILES IDX 6 1 7 2 8 3 9 4 10 5 11 6 5 7 4 8 3 9 2 10 1 11
REMARK H PARENT
REMARK Flexibility Score: inf
ROOT
ATOM      1  C   UNL     1      32.291   9.213  47.995  1.00  0.00     0.000 C 
ENDROOT
BRANCH   1   2
ATOM      2  C   UNL     1      33.579   8.408  47.726  1.00  0.00     0.006 C 
BRANCH   2   3
ATOM      3  C   UNL     1      33.913   8.327  46.231  1.00  0.00     0.053 C 
BRANCH   3   4
ATOM      4  C   UNL     1      33.870   6.909  45.760  1.00  0.00     0.041 C 
ATOM      5  O   UNL     1      33.534   6.645  44.576  1.00  0.00    -0.550 OA
ATOM      6  O   UNL     1      34.152   5.874  46.642  1.00  0.00    -0.550 OA
ENDBRANCH   3   4
ENDBRANCH   2   3
ENDBRANCH   1   2
BRANCH   1   7
ATOM      7  C   UNL     1      31.193   8.404  48.707  1.00  0.00     0.000 C 
BRANCH   7   8
ATOM      8  C   UNL     1      31.414   6.887  48.613  1.00  0.00     0.004 C 
BRANCH   8   9
ATOM      9  C   UNL     1      30.429   6.248  47.626  1.00  0.00     0.027 C 
BRANCH   9  10
ATOM     10  C   UNL     1      29.081   6.042  48.258  1.00  0.00    -0.035 C 
ATOM     11  C   UNL     1      28.073   5.468  47.595  1.00  0.00     0.004 C 
ENDBRANCH   9  10
ENDBRANCH   8   9
ENDBRANCH   7   8
ENDBRANCH   1   7
TORSDOF 7
ENDMDL
MODEL 3
REMARK VINA RESULT:    -4.049      2.310      2.838
REMARK INTER + INTRA:          -5.936
REMARK INTER:                  -5.617
REMARK INTRA:                  -0.319
REMARK UNBOUND:                -0.229
REMARK SMILES C=CCCCCCCC(=O)[O-]
REMARK SMILES IDX 6 1 7 2 8 3 9 4 10 5 11 6 5 7 4 8 3 9 2 10 1 11
REMARK H PARENT
REMARK Flexibility Score: inf
ROOT
ATOM      1  C   UNL     1      33.619   5.875  47.145  1.00  0.00     0.000 C 
ENDROOT
BRANCH   1   2
ATOM      2  C   UNL     1      33.619   7.331  46.634  1.00  0.00     0.006 C 
BRANCH   2   3
ATOM      3  C   UNL     1      34.052   7.430  45.165  1.00  0.00     0.053 C 
BRANCH   3   4
ATOM      4  C   UNL     1      34.342   8.851  44.800  1.00  0.00     0.041 C 
ATOM      5  O   UNL     1      34.608   9.694  45.696  1.00  0.00    -0.550 OA
ATOM      6  O   UNL     1      34.270   9.257  43.473  1.00  0.00    -0.550 OA
ENDBRANCH   3   4
ENDBRANCH   2   3
ENDBRANCH   1   2
BRANCH   1   7
ATOM      7  C   UNL     1      32.286   5.442  47.779  1.00  0.00     0.000 C 
BRANCH   7   8
ATOM      8  C   UNL     1      31.088   6.248  47.258  1.00  0.00     0.004 C 
BRANCH   8   9
ATOM      9  C   UNL     1      30.211   6.741  48.416  1.00  0.00     0.027 C 
BRANCH   9  10
ATOM     10  C   UNL     1      29.054   5.812  48.656  1.00  0.00    -0.035 C 
ATOM     11  C   UNL     1      28.190   5.497  47.687  1.00  0.00     0.004 C 
ENDBRANCH   9  10
ENDBRANCH   8   9
ENDBRANCH   7   8
ENDBRANCH   1   7
TORSDOF 7
ENDMDL
MODEL 4
REMARK VINA RESULT:    -4.045      2.373      3.048
REMARK INTER + INTRA:          -5.930
REMARK INTER:                  -5.543
REMARK INTRA:                  -0.387
REMARK UNBOUND:                -0.229
REMARK SMILES C=CCCCCCCC(=O)[O-]
REMARK SMILES IDX 6 1 7 2 8 3 9 4 10 5 11 6 5 7 4 8 3 9 2 10 1 11
REMARK H PARENT
REMARK Flexibility Score: inf
ROOT
ATOM      1  C   UNL     1      32.146   9.071  48.045  1.00  0.00     0.000 C 
ENDROOT
BRANCH   1   2
ATOM      2  C   UNL     1      33.478   8.549  47.466  1.00  0.00     0.006 C 
BRANCH   2   3
ATOM      3  C   UNL     1      34.009   9.442  46.338  1.00  0.00     0.053 C 
BRANCH   3   4
ATOM      4  C   UNL     1      34.319   8.624  45.125  1.00  0.00     0.041 C 
ATOM      5  O   UNL     1      34.809   9.169  44.101  1.00  0.00    -0.550 OA
ATOM      6  O   UNL     1      34.022   7.267  45.106  1.00  0.00    -0.550 OA
ENDBRANCH   3   4
ENDBRANCH   2   3
ENDBRANCH   1   2
BRANCH   1   7
ATOM      7  C   UNL     1      31.136   7.957  48.373  1.00  0.00     0.000 C 
BRANCH   7   8
ATOM      8  C   UNL     1      31.438   6.643  47.638  1.00  0.00     0.004 C 
BRANCH   8   9
ATOM      9  C   UNL     1      30.529   5.513  48.138  1.00  0.00     0.027 C 
BRANCH   9  10
ATOM     10  C   UNL     1      29.120   5.997  48.343  1.00  0.00    -0.035 C 
ATOM     11  C   UNL     1      28.099   5.512  47.632  1.00  0.00     0.004 C 
ENDBRANCH   9  10
ENDBRANCH   8   9
ENDBRANCH   7   8
ENDBRANCH   1   7
TORSDOF 7
ENDMDL
MODEL 5
REMARK VINA RESULT:    -4.031      3.214      4.585
REMARK INTER + INTRA:          -5.911
REMARK INTER:                  -5.299
REMARK INTRA:                  -0.611
REMARK UNBOUND:                -0.229
REMARK SMILES C=CCCCCCCC(=O)[O-]
REMARK SMILES IDX 6 1 7 2 8 3 9 4 10 5 11 6 5 7 4 8 3 9 2 10 1 11
REMARK H PARENT
REMARK Flexibility Score: inf
ROOT
ATOM      1  C   UNL     1      32.655   7.521  47.774  1.00  0.00     0.000 C 
ENDROOT
BRANCH   1   2
ATOM      2  C   UNL     1      32.712   6.287  46.848  1.00  0.00     0.006 C 
BRANCH   2   3
ATOM      3  C   UNL     1      34.024   6.214  46.058  1.00  0.00     0.053 C 
BRANCH   3   4
ATOM      4  C   UNL     1      34.779   4.972  46.407  1.00  0.00     0.041 C 
ATOM      5  O   UNL     1      35.214   4.218  45.498  1.00  0.00    -0.550 OA
ATOM      6  O   UNL     1      34.959   4.618  47.739  1.00  0.00    -0.550 OA
ENDBRANCH   3   4
ENDBRANCH   2   3
ENDBRANCH   1   2
BRANCH   1   7
ATOM      7  C   UNL     1      33.905   8.414  47.690  1.00  0.00     0.000 C 
BRANCH   7   8
ATOM      8  C   UNL     1      33.625   9.771  47.029  1.00  0.00     0.004 C 
BRANCH   8   9
ATOM      9  C   UNL     1      34.783  10.186  46.113  1.00  0.00     0.027 C 
BRANCH   9  10
ATOM     10  C   UNL     1      34.395  10.085  44.664  1.00  0.00    -0.035 C 
ATOM     11  C   UNL     1      34.823   9.085  43.888  1.00  0.00     0.004 C 
ENDBRANCH   9  10
ENDBRANCH   8   9
ENDBRANCH   7   8
ENDBRANCH   1   7
TORSDOF 7
ENDMDL
MODEL 6
REMARK VINA RESULT:    -4.019     16.796     18.024
REMARK INTER + INTRA:          -5.893
REMARK INTER:                  -5.401
REMARK INTRA:                  -0.492
REMARK UNBOUND:                -0.229
REMARK SMILES C=CCCCCCCC(=O)[O-]
REMARK SMILES IDX 6 1 7 2 8 3 9 4 10 5 11 6 5 7 4 8 3 9 2 10 1 11
REMARK H PARENT
REMARK Flexibility Score: inf
ROOT
ATOM      1  C   UNL     1      22.356  11.695  35.515  1.00  0.00     0.000 C 
ENDROOT
BRANCH   1   2
ATOM      2  C   UNL     1      21.408  12.349  34.489  1.00  0.00     0.006 C 
BRANCH   2   3
ATOM      3  C   UNL     1      20.627  13.526  35.087  1.00  0.00     0.053 C 
BRANCH   3   4
ATOM      4  C   UNL     1      19.256  13.092  35.496  1.00  0.00     0.041 C 
ATOM      5  O   UNL     1      19.072  12.545  36.615  1.00  0.00    -0.550 OA
ATOM      6  O   UNL     1      18.187  13.244  34.621  1.00  0.00    -0.550 OA
ENDBRANCH   3   4
ENDBRANCH   2   3
ENDBRANCH   1   2
BRANCH   1   7
ATOM      7  C   UNL     1      22.110  10.190  35.712  1.00  0.00     0.000 C 
BRANCH   7   8
ATOM      8  C   UNL     1      20.799   9.710  35.072  1.00  0.00     0.004 C 
BRANCH   8   9
ATOM      9  C   UNL     1      19.864   9.102  36.125  1.00  0.00     0.027 C 
BRANCH   9  10
ATOM     10  C   UNL     1      19.716   7.619  35.929  1.00  0.00    -0.035 C 
ATOM     11  C   UNL     1      19.269   6.820  36.903  1.00  0.00     0.004 C 
ENDBRANCH   9  10
ENDBRANCH   8   9
ENDBRANCH   7   8
ENDBRANCH   1   7
TORSDOF 7
ENDMDL
MODEL 7
REMARK VINA RESULT:    -3.991     16.600     17.587
REMARK INTER + INTRA:          -5.854
REMARK INTER:                  -5.149
REMARK INTRA:                  -0.706
REMARK UNBOUND:                -0.229
REMARK SMILES C=CCCCCCCC(=O)[O-]
REMARK SMILES IDX 6 1 7 2 8 3 9 4 10 5 11 6 5 7 4 8 3 9 2 10 1 11
REMARK H PARENT
REMARK Flexibility Score: inf
ROOT
ATOM      1  C   UNL     1      21.013   9.935  34.322  1.00  0.00     0.000 C 
ENDROOT
BRANCH   1   2
ATOM      2  C   UNL     1      19.696   9.222  34.693  1.00  0.00     0.006 C 
BRANCH   2   3
ATOM      3  C   UNL     1      19.729   8.640  36.112  1.00  0.00     0.053 C 
BRANCH   3   4
ATOM      4  C   UNL     1      19.905   7.156  36.066  1.00  0.00     0.041 C 
ATOM      5  O   UNL     1      19.233   6.415  36.830  1.00  0.00    -0.550 OA
ATOM      6  O   UNL     1      20.849   6.593  35.216  1.00  0.00    -0.550 OA
ENDBRANCH   3   4
ENDBRANCH   2   3
ENDBRANCH   1   2
BRANCH   1   7
ATOM      7  C   UNL     1      21.869  10.324  35.540  1.00  0.00     0.000 C 
BRANCH   7   8
ATOM      8  C   UNL     1      22.201  11.822  35.582  1.00  0.00     0.004 C 
BRANCH   8   9
ATOM      9  C   UNL     1      21.210  12.629  34.734  1.00  0.00     0.027 C 
BRANCH   9  10
ATOM     10  C   UNL     1      20.202  13.334  35.599  1.00  0.00    -0.035 C 
ATOM     11  C   UNL     1      19.088  12.729  36.020  1.00  0.00     0.004 C 
ENDBRANCH   9  10
ENDBRANCH   8   9
ENDBRANCH   7   8
ENDBRANCH   1   7
TORSDOF 7
ENDMDL
MODEL 8
REMARK VINA RESULT:    -3.948     16.917     17.728
REMARK INTER + INTRA:          -5.793
REMARK INTER:                  -5.347
REMARK INTRA:                  -0.447
REMARK UNBOUND:                -0.229
REMARK SMILES C=CCCCCCCC(=O)[O-]
REMARK SMILES IDX 6 1 7 2 8 3 9 4 10 5 11 6 5 7 4 8 3 9 2 10 1 11
REMARK H PARENT
REMARK Flexibility Score: inf
ROOT
ATOM      1  C   UNL     1      21.222  10.142  34.110  1.00  0.00     0.000 C 
ENDROOT
BRANCH   1   2
ATOM      2  C   UNL     1      21.771  10.460  35.517  1.00  0.00     0.006 C 
BRANCH   2   3
ATOM      3  C   UNL     1      22.174  11.933  35.663  1.00  0.00     0.053 C 
BRANCH   3   4
ATOM      4  C   UNL     1      20.994  12.824  35.445  1.00  0.00     0.041 C 
ATOM      5  O   UNL     1      19.948  12.670  36.128  1.00  0.00    -0.550 OA
ATOM      6  O   UNL     1      21.030  13.796  34.452  1.00  0.00    -0.550 OA
ENDBRANCH   3   4
ENDBRANCH   2   3
ENDBRANCH   1   2
BRANCH   1   7
ATOM      7  C   UNL     1      19.972   9.246  34.122  1.00  0.00     0.000 C 
BRANCH   7   8
ATOM      8  C   UNL     1      20.280   7.786  33.763  1.00  0.00     0.004 C 
BRANCH   8   9
ATOM      9  C   UNL     1      20.612   6.970  35.018  1.00  0.00     0.027 C 
BRANCH   9  10
ATOM     10  C   UNL     1      19.524   7.090  36.049  1.00  0.00    -0.035 C 
ATOM     11  C   UNL     1      19.378   6.191  37.027  1.00  0.00     0.004 C 
ENDBRANCH   9  10
ENDBRANCH   8   9
ENDBRANCH   7   8
ENDBRANCH   1   7
TORSDOF 7
ENDMDL
MODEL 9
REMARK VINA RESULT:    -3.916     15.770     17.460
REMARK INTER + INTRA:          -5.747
REMARK INTER:                  -5.239
REMARK INTRA:                  -0.509
REMARK UNBOUND:                -0.229
REMARK SMILES C=CCCCCCCC(=O)[O-]
REMARK SMILES IDX 6 1 7 2 8 3 9 4 10 5 11 6 5 7 4 8 3 9 2 10 1 11
REMARK H PARENT
REMARK Flexibility Score: inf
ROOT
ATOM      1  C   UNL     1      19.486   9.419  34.774  1.00  0.00     0.000 C 
ENDROOT
BRANCH   1   2
ATOM      2  C   UNL     1      20.093   8.139  34.162  1.00  0.00     0.006 C 
BRANCH   2   3
ATOM      3  C   UNL     1      20.550   7.143  35.235  1.00  0.00     0.053 C 
BRANCH   3   4
ATOM      4  C   UNL     1      19.370   6.500  35.890  1.00  0.00     0.041 C 
ATOM      5  O   UNL     1      19.391   6.244  37.123  1.00  0.00    -0.550 OA
ATOM      6  O   UNL     1      18.264   6.137  35.131  1.00  0.00    -0.550 OA
ENDBRANCH   3   4
ENDBRANCH   2   3
ENDBRANCH   1   2
BRANCH   1   7
ATOM      7  C   UNL     1      20.338  10.028  35.901  1.00  0.00     0.000 C 
BRANCH   7   8
ATOM      8  C   UNL     1      20.509  11.548  35.765  1.00  0.00     0.004 C 
BRANCH   8   9
ATOM      9  C   UNL     1      21.948  11.906  35.371  1.00  0.00     0.027 C 
BRANCH   9  10
ATOM     10  C   UNL     1      22.865  10.724  35.526  1.00  0.00    -0.035 C 
ATOM     11  C   UNL     1      24.194  10.862  35.550  1.00  0.00     0.004 C 
ENDBRANCH   9  10
ENDBRANCH   8   9
ENDBRANCH   7   8
ENDBRANCH   1   7
TORSDOF 7
ENDMDL
