MODEL 1
REMARK VINA RESULT:    -6.442      0.000      0.000
REMARK INTER + INTRA:          -7.639
REMARK INTER:                  -7.571
REMARK INTRA:                  -0.068
REMARK UNBOUND:                -0.068
REMARK SMILES Oc1ccc(-c2[o+]c3cc(O)cc(O)c3cc2O)cc1.[Cl-]
REMARK SMILES IDX 6 1 7 2 8 3 9 4 10 5 12 6 13 7 15 8 16 9 17 10 5 11 4 12
REMARK SMILES IDX 3 13 2 14 19 15 20 16 1 17 18 19 11 21 14 23
REMARK H PARENT 1 18 18 20 11 22 14 24
REMARK Flexibility Score: inf
ROOT
ATOM      1  C   UNL     1     -21.908  33.966 -13.489  1.00  0.00     0.401 A 
ATOM      2  O   UNL     1     -21.286  32.928 -12.936  1.00  0.00    -0.202 OA
ATOM      3  C   UNL     1     -19.976  32.727 -13.029  1.00  0.00     0.368 A 
ATOM      4  C   UNL     1     -19.414  31.609 -12.410  1.00  0.00     0.162 A 
ATOM      5  C   UNL     1     -18.038  31.375 -12.490  1.00  0.00     0.128 A 
ATOM      6  C   UNL     1     -17.221  32.264 -13.192  1.00  0.00     0.093 A 
ATOM      7  C   UNL     1     -17.761  33.394 -13.822  1.00  0.00     0.136 A 
ATOM      8  C   UNL     1     -19.157  33.634 -13.745  1.00  0.00     0.125 A 
ATOM      9  C   UNL     1     -19.786  34.731 -14.355  1.00  0.00     0.078 A 
ATOM     10  C   UNL     1     -21.170  34.899 -14.241  1.00  0.00     0.223 A 
ENDROOT
BRANCH   1  11
ATOM     11  C   UNL     1     -23.372  34.085 -13.305  1.00  0.00     0.084 A 
ATOM     12  C   UNL     1     -24.211  34.103 -14.433  1.00  0.00     0.022 A 
ATOM     13  C   UNL     1     -25.599  34.193 -14.281  1.00  0.00     0.047 A 
ATOM     14  C   UNL     1     -26.165  34.250 -13.002  1.00  0.00     0.115 A 
ATOM     15  C   UNL     1     -23.951  34.122 -12.023  1.00  0.00     0.022 A 
ATOM     16  C   UNL     1     -25.339  34.211 -11.875  1.00  0.00     0.047 A 
BRANCH  14  17
ATOM     17  O   UNL     1     -27.546  34.339 -12.839  1.00  0.00    -0.508 OA
ATOM     18  H   UNL     1     -28.114  33.517 -12.669  1.00  0.00     0.293 HD
ENDBRANCH  14  17
ENDBRANCH   1  11
BRANCH  10  19
ATOM     19  O   UNL     1     -21.801  35.961 -14.888  1.00  0.00    -0.500 OA
ATOM     20  H   UNL     1     -21.301  36.807 -15.137  1.00  0.00     0.294 HD
ENDBRANCH  10  19
BRANCH   5  21
ATOM     21  O   UNL     1     -17.470  30.261 -11.875  1.00  0.00    -0.507 OA
ATOM     22  H   UNL     1     -17.858  29.333 -11.996  1.00  0.00     0.293 HD
ENDBRANCH   5  21
BRANCH   7  23
ATOM     23  O   UNL     1     -16.876  34.236 -14.500  1.00  0.00    -0.507 OA
ATOM     24  H   UNL     1     -15.879  34.085 -14.563  1.00  0.00     0.293 HD
ENDBRANCH   7  23
TORSDOF 5
ENDMDL
MODEL 2
REMARK VINA RESULT:    -6.259      1.103      2.669
REMARK INTER + INTRA:          -7.425
REMARK INTER:                  -7.286
REMARK INTRA:                  -0.138
REMARK UNBOUND:                -0.068
REMARK SMILES Oc1ccc(-c2[o+]c3cc(O)cc(O)c3cc2O)cc1.[Cl-]
REMARK SMILES IDX 6 1 7 2 8 3 9 4 10 5 12 6 13 7 15 8 16 9 17 10 5 11 4 12
REMARK SMILES IDX 3 13 2 14 19 15 20 16 1 17 18 19 11 21 14 23
REMARK H PARENT 1 18 18 20 11 22 14 24
REMARK Flexibility Score: inf
ROOT
ATOM      1  C   UNL     1     -22.221  33.052 -13.299  1.00  0.00     0.401 A 
ATOM      2  O   UNL     1     -21.199  33.715 -13.831  1.00  0.00    -0.202 OA
ATOM      3  C   UNL     1     -19.930  33.350 -13.675  1.00  0.00     0.368 A 
ATOM      4  C   UNL     1     -18.925  34.110 -14.277  1.00  0.00     0.162 A 
ATOM      5  C   UNL     1     -17.583  33.747 -14.131  1.00  0.00     0.128 A 
ATOM      6  C   UNL     1     -17.246  32.618 -13.382  1.00  0.00     0.093 A 
ATOM      7  C   UNL     1     -18.236  31.839 -12.768  1.00  0.00     0.136 A 
ATOM      8  C   UNL     1     -19.599  32.205 -12.911  1.00  0.00     0.125 A 
ATOM      9  C   UNL     1     -20.655  31.493 -12.321  1.00  0.00     0.078 A 
ATOM     10  C   UNL     1     -21.975  31.918 -12.503  1.00  0.00     0.223 A 
ENDROOT
BRANCH   1  11
ATOM     11  C   UNL     1     -23.591  33.554 -13.554  1.00  0.00     0.084 A 
ATOM     12  C   UNL     1     -24.101  33.533 -14.863  1.00  0.00     0.022 A 
ATOM     13  C   UNL     1     -25.400  33.982 -15.123  1.00  0.00     0.047 A 
ATOM     14  C   UNL     1     -26.210  34.441 -14.077  1.00  0.00     0.115 A 
ATOM     15  C   UNL     1     -24.418  33.998 -12.505  1.00  0.00     0.022 A 
ATOM     16  C   UNL     1     -25.716  34.445 -12.769  1.00  0.00     0.047 A 
BRANCH  14  17
ATOM     17  O   UNL     1     -27.505  34.890 -14.324  1.00  0.00    -0.508 OA
ATOM     18  H   UNL     1     -27.949  35.582 -13.730  1.00  0.00     0.293 HD
ENDBRANCH  14  17
ENDBRANCH   1  11
BRANCH  10  19
ATOM     19  O   UNL     1     -23.021  31.240 -11.877  1.00  0.00    -0.500 OA
ATOM     20  H   UNL     1     -22.852  30.455 -11.257  1.00  0.00     0.294 HD
ENDBRANCH  10  19
BRANCH   5  21
ATOM     21  O   UNL     1     -16.575  34.501 -14.729  1.00  0.00    -0.507 OA
ATOM     22  H   UNL     1     -15.755  34.064 -15.133  1.00  0.00     0.293 HD
ENDBRANCH   5  21
BRANCH   7  23
ATOM     23  O   UNL     1     -17.816  30.724 -12.038  1.00  0.00    -0.507 OA
ATOM     24  H   UNL     1     -18.020  30.571 -11.061  1.00  0.00     0.293 HD
ENDBRANCH   7  23
TORSDOF 5
ENDMDL
MODEL 3
REMARK VINA RESULT:    -6.249      7.654     10.240
REMARK INTER + INTRA:          -7.412
REMARK INTER:                  -7.127
REMARK INTRA:                  -0.285
REMARK UNBOUND:                -0.068
REMARK SMILES Oc1ccc(-c2[o+]c3cc(O)cc(O)c3cc2O)cc1.[Cl-]
REMARK SMILES IDX 6 1 7 2 8 3 9 4 10 5 12 6 13 7 15 8 16 9 17 10 5 11 4 12
REMARK SMILES IDX 3 13 2 14 19 15 20 16 1 17 18 19 11 21 14 23
REMARK H PARENT 1 18 18 20 11 22 14 24
REMARK Flexibility Score: inf
ROOT
ATOM      1  C   UNL     1     -25.768  29.016 -17.619  1.00  0.00     0.401 A 
ATOM      2  O   UNL     1     -25.485  28.397 -18.762  1.00  0.00    -0.202 OA
ATOM      3  C   UNL     1     -26.415  27.954 -19.602  1.00  0.00     0.368 A 
ATOM      4  C   UNL     1     -26.018  27.318 -20.781  1.00  0.00     0.162 A 
ATOM      5  C   UNL     1     -26.976  26.845 -21.683  1.00  0.00     0.128 A 
ATOM      6  C   UNL     1     -28.334  27.010 -21.406  1.00  0.00     0.093 A 
ATOM      7  C   UNL     1     -28.757  27.644 -20.231  1.00  0.00     0.136 A 
ATOM      8  C   UNL     1     -27.790  28.123 -19.310  1.00  0.00     0.125 A 
ATOM      9  C   UNL     1     -28.122  28.758 -18.103  1.00  0.00     0.078 A 
ATOM     10  C   UNL     1     -27.112  29.200 -17.242  1.00  0.00     0.223 A 
ENDROOT
BRANCH   1  11
ATOM     11  C   UNL     1     -24.642  29.472 -16.772  1.00  0.00     0.084 A 
ATOM     12  C   UNL     1     -24.229  28.680 -15.687  1.00  0.00     0.022 A 
ATOM     13  C   UNL     1     -23.154  29.081 -14.887  1.00  0.00     0.047 A 
ATOM     14  C   UNL     1     -22.471  30.270 -15.171  1.00  0.00     0.115 A 
ATOM     15  C   UNL     1     -23.937  30.655 -17.063  1.00  0.00     0.022 A 
ATOM     16  C   UNL     1     -22.862  31.052 -16.261  1.00  0.00     0.047 A 
BRANCH  14  17
ATOM     17  O   UNL     1     -21.399  30.679 -14.381  1.00  0.00    -0.508 OA
ATOM     18  H   UNL     1     -20.836  30.012 -13.864  1.00  0.00     0.293 HD
ENDBRANCH  14  17
ENDBRANCH   1  11
BRANCH  10  19
ATOM     19  O   UNL     1     -27.440  29.786 -16.020  1.00  0.00    -0.500 OA
ATOM     20  H   UNL     1     -27.119  30.715 -15.771  1.00  0.00     0.294 HD
ENDBRANCH  10  19
BRANCH   5  21
ATOM     21  O   UNL     1     -26.587  26.210 -22.862  1.00  0.00    -0.507 OA
ATOM     22  H   UNL     1     -26.943  26.503 -23.764  1.00  0.00     0.293 HD
ENDBRANCH   5  21
BRANCH   7  23
ATOM     23  O   UNL     1     -30.135  27.772 -20.029  1.00  0.00    -0.507 OA
ATOM     24  H   UNL     1     -30.568  27.915 -19.129  1.00  0.00     0.293 HD
ENDBRANCH   7  23
TORSDOF 5
ENDMDL
MODEL 4
REMARK VINA RESULT:    -6.219      5.931      8.198
REMARK INTER + INTRA:          -7.377
REMARK INTER:                  -7.116
REMARK INTRA:                  -0.262
REMARK UNBOUND:                -0.068
REMARK SMILES Oc1ccc(-c2[o+]c3cc(O)cc(O)c3cc2O)cc1.[Cl-]
REMARK SMILES IDX 6 1 7 2 8 3 9 4 10 5 12 6 13 7 15 8 16 9 17 10 5 11 4 12
REMARK SMILES IDX 3 13 2 14 19 15 20 16 1 17 18 19 11 21 14 23
REMARK H PARENT 1 18 18 20 11 22 14 24
REMARK Flexibility Score: inf
ROOT
ATOM      1  C   UNL     1     -25.207  29.573 -16.832  1.00  0.00     0.401 A 
ATOM      2  O   UNL     1     -25.671  30.815 -16.735  1.00  0.00    -0.202 OA
ATOM      3  C   UNL     1     -25.494  31.579 -15.662  1.00  0.00     0.368 A 
ATOM      4  C   UNL     1     -26.017  32.875 -15.657  1.00  0.00     0.162 A 
ATOM      5  C   UNL     1     -25.842  33.700 -14.542  1.00  0.00     0.128 A 
ATOM      6  C   UNL     1     -25.141  33.229 -13.431  1.00  0.00     0.093 A 
ATOM      7  C   UNL     1     -24.607  31.934 -13.412  1.00  0.00     0.136 A 
ATOM      8  C   UNL     1     -24.783  31.091 -14.539  1.00  0.00     0.125 A 
ATOM      9  C   UNL     1     -24.295  29.776 -14.604  1.00  0.00     0.078 A 
ATOM     10  C   UNL     1     -24.513  29.003 -15.748  1.00  0.00     0.223 A 
ENDROOT
BRANCH   1  11
ATOM     11  C   UNL     1     -25.461  28.825 -18.085  1.00  0.00     0.084 A 
ATOM     12  C   UNL     1     -26.770  28.416 -18.392  1.00  0.00     0.022 A 
ATOM     13  C   UNL     1     -27.037  27.728 -19.580  1.00  0.00     0.047 A 
ATOM     14  C   UNL     1     -26.001  27.455 -20.483  1.00  0.00     0.115 A 
ATOM     15  C   UNL     1     -24.430  28.564 -19.007  1.00  0.00     0.022 A 
ATOM     16  C   UNL     1     -24.701  27.877 -20.194  1.00  0.00     0.047 A 
BRANCH  14  17
ATOM     17  O   UNL     1     -26.255  26.770 -21.669  1.00  0.00    -0.508 OA
ATOM     18  H   UNL     1     -25.543  26.204 -22.117  1.00  0.00     0.293 HD
ENDBRANCH  14  17
ENDBRANCH   1  11
BRANCH  10  19
ATOM     19  O   UNL     1     -24.071  27.681 -15.794  1.00  0.00    -0.500 OA
ATOM     20  H   UNL     1     -23.147  27.439 -16.133  1.00  0.00     0.294 HD
ENDBRANCH  10  19
BRANCH   5  21
ATOM     21  O   UNL     1     -26.361  34.994 -14.529  1.00  0.00    -0.507 OA
ATOM     22  H   UNL     1     -25.874  35.756 -14.073  1.00  0.00     0.293 HD
ENDBRANCH   5  21
BRANCH   7  23
ATOM     23  O   UNL     1     -23.916  31.540 -12.263  1.00  0.00    -0.507 OA
ATOM     24  H   UNL     1     -22.936  31.295 -12.242  1.00  0.00     0.293 HD
ENDBRANCH   7  23
TORSDOF 5
ENDMDL
MODEL 5
REMARK VINA RESULT:    -6.212      8.567      9.655
REMARK INTER + INTRA:          -7.369
REMARK INTER:                  -7.049
REMARK INTRA:                  -0.320
REMARK UNBOUND:                -0.068
REMARK SMILES Oc1ccc(-c2[o+]c3cc(O)cc(O)c3cc2O)cc1.[Cl-]
REMARK SMILES IDX 6 1 7 2 8 3 9 4 10 5 12 6 13 7 15 8 16 9 17 10 5 11 4 12
REMARK SMILES IDX 3 13 2 14 19 15 20 16 1 17 18 19 11 21 14 23
REMARK H PARENT 1 18 18 20 11 22 14 24
REMARK Flexibility Score: inf
ROOT
ATOM      1  C   UNL     1     -22.022  29.953 -21.478  1.00  0.00     0.401 A 
ATOM      2  O   UNL     1     -22.271  31.259 -21.508  1.00  0.00    -0.202 OA
ATOM      3  C   UNL     1     -21.319  32.185 -21.463  1.00  0.00     0.368 A 
ATOM      4  C   UNL     1     -21.680  33.534 -21.504  1.00  0.00     0.162 A 
ATOM      5  C   UNL     1     -20.698  34.528 -21.460  1.00  0.00     0.128 A 
ATOM      6  C   UNL     1     -19.351  34.171 -21.376  1.00  0.00     0.093 A 
ATOM      7  C   UNL     1     -18.963  32.826 -21.334  1.00  0.00     0.136 A 
ATOM      8  C   UNL     1     -19.955  31.813 -21.375  1.00  0.00     0.125 A 
ATOM      9  C   UNL     1     -19.661  30.441 -21.325  1.00  0.00     0.078 A 
ATOM     10  C   UNL     1     -20.694  29.500 -21.365  1.00  0.00     0.223 A 
ENDROOT
BRANCH   1  11
ATOM     11  C   UNL     1     -23.170  29.019 -21.546  1.00  0.00     0.084 A 
ATOM     12  C   UNL     1     -23.871  28.700 -20.370  1.00  0.00     0.022 A 
ATOM     13  C   UNL     1     -24.971  27.838 -20.414  1.00  0.00     0.047 A 
ATOM     14  C   UNL     1     -25.393  27.296 -21.635  1.00  0.00     0.115 A 
ATOM     15  C   UNL     1     -23.613  28.487 -22.771  1.00  0.00     0.022 A 
ATOM     16  C   UNL     1     -24.714  27.625 -22.811  1.00  0.00     0.047 A 
BRANCH  14  17
ATOM     17  O   UNL     1     -26.488  26.437 -21.691  1.00  0.00    -0.508 OA
ATOM     18  H   UNL     1     -26.922  26.188 -22.572  1.00  0.00     0.293 HD
ENDBRANCH  14  17
ENDBRANCH   1  11
BRANCH  10  19
ATOM     19  O   UNL     1     -20.406  28.139 -21.265  1.00  0.00    -0.500 OA
ATOM     20  H   UNL     1     -20.815  27.460 -21.897  1.00  0.00     0.294 HD
ENDBRANCH  10  19
BRANCH   5  21
ATOM     21  O   UNL     1     -21.050  35.876 -21.500  1.00  0.00    -0.507 OA
ATOM     22  H   UNL     1     -21.997  36.182 -21.311  1.00  0.00     0.293 HD
ENDBRANCH   5  21
BRANCH   7  23
ATOM     23  O   UNL     1     -17.594  32.553 -21.254  1.00  0.00    -0.507 OA
ATOM     24  H   UNL     1     -16.891  32.984 -21.837  1.00  0.00     0.293 HD
ENDBRANCH   7  23
TORSDOF 5
ENDMDL
MODEL 6
REMARK VINA RESULT:    -6.209      6.676      7.603
REMARK INTER + INTRA:          -7.366
REMARK INTER:                  -7.064
REMARK INTRA:                  -0.302
REMARK UNBOUND:                -0.068
REMARK SMILES Oc1ccc(-c2[o+]c3cc(O)cc(O)c3cc2O)cc1.[Cl-]
REMARK SMILES IDX 6 1 7 2 8 3 9 4 10 5 12 6 13 7 15 8 16 9 17 10 5 11 4 12
REMARK SMILES IDX 3 13 2 14 19 15 20 16 1 17 18 19 11 21 14 23
REMARK H PARENT 1 18 18 20 11 22 14 24
REMARK Flexibility Score: inf
ROOT
ATOM      1  C   UNL     1     -24.371  29.576 -18.346  1.00  0.00     0.401 A 
ATOM      2  O   UNL     1     -24.228  29.154 -17.092  1.00  0.00    -0.202 OA
ATOM      3  C   UNL     1     -23.605  29.857 -16.152  1.00  0.00     0.368 A 
ATOM      4  C   UNL     1     -23.509  29.330 -14.862  1.00  0.00     0.162 A 
ATOM      5  C   UNL     1     -22.861  30.050 -13.853  1.00  0.00     0.128 A 
ATOM      6  C   UNL     1     -22.310  31.301 -14.136  1.00  0.00     0.093 A 
ATOM      7  C   UNL     1     -22.394  31.851 -15.422  1.00  0.00     0.136 A 
ATOM      8  C   UNL     1     -23.047  31.124 -16.450  1.00  0.00     0.125 A 
ATOM      9  C   UNL     1     -23.167  31.590 -17.769  1.00  0.00     0.078 A 
ATOM     10  C   UNL     1     -23.821  30.813 -18.730  1.00  0.00     0.223 A 
ENDROOT
BRANCH   1  11
ATOM     11  C   UNL     1     -25.094  28.704 -19.300  1.00  0.00     0.084 A 
ATOM     12  C   UNL     1     -26.495  28.783 -19.381  1.00  0.00     0.022 A 
ATOM     13  C   UNL     1     -27.197  27.985 -20.291  1.00  0.00     0.047 A 
ATOM     14  C   UNL     1     -26.506  27.111 -21.140  1.00  0.00     0.115 A 
ATOM     15  C   UNL     1     -24.407  27.839 -20.171  1.00  0.00     0.022 A 
ATOM     16  C   UNL     1     -25.112  27.043 -21.079  1.00  0.00     0.047 A 
BRANCH  14  17
ATOM     17  O   UNL     1     -27.195  26.312 -22.050  1.00  0.00    -0.508 OA
ATOM     18  H   UNL     1     -27.772  25.537 -21.743  1.00  0.00     0.293 HD
ENDBRANCH  14  17
ENDBRANCH   1  11
BRANCH  10  19
ATOM     19  O   UNL     1     -23.897  31.253 -20.051  1.00  0.00    -0.500 OA
ATOM     20  H   UNL     1     -24.273  32.164 -20.289  1.00  0.00     0.294 HD
ENDBRANCH  10  19
BRANCH   5  21
ATOM     21  O   UNL     1     -22.761  29.531 -12.563  1.00  0.00    -0.507 OA
ATOM     22  H   UNL     1     -22.797  30.130 -11.747  1.00  0.00     0.293 HD
ENDBRANCH   5  21
BRANCH   7  23
ATOM     23  O   UNL     1     -21.820  33.110 -15.622  1.00  0.00    -0.507 OA
ATOM     24  H   UNL     1     -21.332  33.388 -16.461  1.00  0.00     0.293 HD
ENDBRANCH   7  23
TORSDOF 5
ENDMDL
MODEL 7
REMARK VINA RESULT:    -6.092      6.593      8.177
REMARK INTER + INTRA:          -7.228
REMARK INTER:                  -7.033
REMARK INTRA:                  -0.196
REMARK UNBOUND:                -0.068
REMARK SMILES Oc1ccc(-c2[o+]c3cc(O)cc(O)c3cc2O)cc1.[Cl-]
REMARK SMILES IDX 6 1 7 2 8 3 9 4 10 5 12 6 13 7 15 8 16 9 17 10 5 11 4 12
REMARK SMILES IDX 3 13 2 14 19 15 20 16 1 17 18 19 11 21 14 23
REMARK H PARENT 1 18 18 20 11 22 14 24
REMARK Flexibility Score: inf
ROOT
ATOM      1  C   UNL     1     -25.684  29.600 -17.870  1.00  0.00     0.401 A 
ATOM      2  O   UNL     1     -24.838  29.196 -16.926  1.00  0.00    -0.202 OA
ATOM      3  C   UNL     1     -24.567  29.906 -15.836  1.00  0.00     0.368 A 
ATOM      4  C   UNL     1     -23.666  29.395 -14.899  1.00  0.00     0.162 A 
ATOM      5  C   UNL     1     -23.366  30.120 -13.742  1.00  0.00     0.128 A 
ATOM      6  C   UNL     1     -23.969  31.359 -13.521  1.00  0.00     0.093 A 
ATOM      7  C   UNL     1     -24.876  31.894 -14.446  1.00  0.00     0.136 A 
ATOM      8  C   UNL     1     -25.183  31.163 -15.623  1.00  0.00     0.125 A 
ATOM      9  C   UNL     1     -26.068  31.626 -16.609  1.00  0.00     0.078 A 
ATOM     10  C   UNL     1     -26.317  30.851 -17.747  1.00  0.00     0.223 A 
ENDROOT
BRANCH   1  11
ATOM     11  C   UNL     1     -25.910  28.714 -19.035  1.00  0.00     0.084 A 
ATOM     12  C   UNL     1     -27.175  28.132 -19.224  1.00  0.00     0.022 A 
ATOM     13  C   UNL     1     -27.417  27.310 -20.329  1.00  0.00     0.047 A 
ATOM     14  C   UNL     1     -26.403  27.071 -21.265  1.00  0.00     0.115 A 
ATOM     15  C   UNL     1     -24.903  28.485 -19.991  1.00  0.00     0.022 A 
ATOM     16  C   UNL     1     -25.149  27.663 -21.094  1.00  0.00     0.047 A 
BRANCH  14  17
ATOM     17  O   UNL     1     -26.633  26.253 -22.369  1.00  0.00    -0.508 OA
ATOM     18  H   UNL     1     -26.944  26.635 -23.256  1.00  0.00     0.293 HD
ENDBRANCH  14  17
ENDBRANCH   1  11
BRANCH  10  19
ATOM     19  O   UNL     1     -27.158  31.332 -18.751  1.00  0.00    -0.500 OA
ATOM     20  H   UNL     1     -27.423  32.309 -18.801  1.00  0.00     0.294 HD
ENDBRANCH  10  19
BRANCH   5  21
ATOM     21  O   UNL     1     -22.468  29.616 -12.802  1.00  0.00    -0.507 OA
ATOM     22  H   UNL     1     -21.469  29.616 -12.970  1.00  0.00     0.293 HD
ENDBRANCH   5  21
BRANCH   7  23
ATOM     23  O   UNL     1     -25.439  33.138 -14.149  1.00  0.00    -0.507 OA
ATOM     24  H   UNL     1     -25.333  33.617 -13.267  1.00  0.00     0.293 HD
ENDBRANCH   7  23
TORSDOF 5
ENDMDL
MODEL 8
REMARK VINA RESULT:    -6.062      8.545      9.116
REMARK INTER + INTRA:          -7.193
REMARK INTER:                  -7.308
REMARK INTRA:                   0.114
REMARK UNBOUND:                -0.068
REMARK SMILES Oc1ccc(-c2[o+]c3cc(O)cc(O)c3cc2O)cc1.[Cl-]
REMARK SMILES IDX 6 1 7 2 8 3 9 4 10 5 12 6 13 7 15 8 16 9 17 10 5 11 4 12
REMARK SMILES IDX 3 13 2 14 19 15 20 16 1 17 18 19 11 21 14 23
REMARK H PARENT 1 18 18 20 11 22 14 24
REMARK Flexibility Score: inf
ROOT
ATOM      1  C   UNL     1     -23.317  29.407 -20.790  1.00  0.00     0.401 A 
ATOM      2  O   UNL     1     -22.150  28.846 -21.098  1.00  0.00    -0.202 OA
ATOM      3  C   UNL     1     -20.995  29.503 -21.074  1.00  0.00     0.368 A 
ATOM      4  C   UNL     1     -19.821  28.826 -21.410  1.00  0.00     0.162 A 
ATOM      5  C   UNL     1     -18.592  29.492 -21.391  1.00  0.00     0.128 A 
ATOM      6  C   UNL     1     -18.538  30.840 -21.031  1.00  0.00     0.093 A 
ATOM      7  C   UNL     1     -19.701  31.542 -20.688  1.00  0.00     0.136 A 
ATOM      8  C   UNL     1     -20.951  30.871 -20.710  1.00  0.00     0.125 A 
ATOM      9  C   UNL     1     -22.168  31.496 -20.395  1.00  0.00     0.078 A 
ATOM     10  C   UNL     1     -23.363  30.770 -20.443  1.00  0.00     0.223 A 
ENDROOT
BRANCH   1  11
ATOM     11  C   UNL     1     -24.535  28.566 -20.845  1.00  0.00     0.084 A 
ATOM     12  C   UNL     1     -25.504  28.688 -19.834  1.00  0.00     0.022 A 
ATOM     13  C   UNL     1     -26.672  27.920 -19.878  1.00  0.00     0.047 A 
ATOM     14  C   UNL     1     -26.892  27.033 -20.939  1.00  0.00     0.115 A 
ATOM     15  C   UNL     1     -24.773  27.687 -21.918  1.00  0.00     0.022 A 
ATOM     16  C   UNL     1     -25.942  26.921 -21.958  1.00  0.00     0.047 A 
BRANCH  14  17
ATOM     17  O   UNL     1     -28.052  26.263 -20.993  1.00  0.00    -0.508 OA
ATOM     18  H   UNL     1     -28.039  25.270 -20.786  1.00  0.00     0.293 HD
ENDBRANCH  14  17
ENDBRANCH   1  11
BRANCH  10  19
ATOM     19  O   UNL     1     -24.577  31.403 -20.179  1.00  0.00    -0.500 OA
ATOM     20  H   UNL     1     -25.405  30.879 -19.918  1.00  0.00     0.294 HD
ENDBRANCH  10  19
BRANCH   5  21
ATOM     21  O   UNL     1     -17.417  28.823 -21.726  1.00  0.00    -0.507 OA
ATOM     22  H   UNL     1     -16.548  28.998 -21.234  1.00  0.00     0.293 HD
ENDBRANCH   5  21
BRANCH   7  23
ATOM     23  O   UNL     1     -19.561  32.887 -20.337  1.00  0.00    -0.507 OA
ATOM     24  H   UNL     1     -18.961  33.224 -19.598  1.00  0.00     0.293 HD
ENDBRANCH   7  23
TORSDOF 5
ENDMDL
MODEL 9
REMARK VINA RESULT:    -5.931      7.098      9.404
REMARK INTER + INTRA:          -7.039
REMARK INTER:                  -6.725
REMARK INTRA:                  -0.314
REMARK UNBOUND:                -0.068
REMARK SMILES Oc1ccc(-c2[o+]c3cc(O)cc(O)c3cc2O)cc1.[Cl-]
REMARK SMILES IDX 6 1 7 2 8 3 9 4 10 5 12 6 13 7 15 8 16 9 17 10 5 11 4 12
REMARK SMILES IDX 3 13 2 14 19 15 20 16 1 17 18 19 11 21 14 23
REMARK H PARENT 1 18 18 20 11 22 14 24
REMARK Flexibility Score: inf
ROOT
ATOM      1  C   UNL     1     -26.337  29.575 -17.049  1.00  0.00     0.401 A 
ATOM      2  O   UNL     1     -25.544  29.151 -18.030  1.00  0.00    -0.202 OA
ATOM      3  C   UNL     1     -25.983  28.462 -19.078  1.00  0.00     0.368 A 
ATOM      4  C   UNL     1     -25.073  28.063 -20.059  1.00  0.00     0.162 A 
ATOM      5  C   UNL     1     -25.508  27.340 -21.173  1.00  0.00     0.128 A 
ATOM      6  C   UNL     1     -26.860  27.015 -21.306  1.00  0.00     0.093 A 
ATOM      7  C   UNL     1     -27.793  27.404 -20.336  1.00  0.00     0.136 A 
ATOM      8  C   UNL     1     -27.355  28.136 -19.202  1.00  0.00     0.125 A 
ATOM      9  C   UNL     1     -28.216  28.555 -18.175  1.00  0.00     0.078 A 
ATOM     10  C   UNL     1     -27.710  29.270 -17.084  1.00  0.00     0.223 A 
ENDROOT
BRANCH   1  11
ATOM     11  C   UNL     1     -25.729  30.344 -15.939  1.00  0.00     0.084 A 
ATOM     12  C   UNL     1     -25.043  29.661 -14.920  1.00  0.00     0.022 A 
ATOM     13  C   UNL     1     -24.443  30.368 -13.874  1.00  0.00     0.047 A 
ATOM     14  C   UNL     1     -24.507  31.767 -13.841  1.00  0.00     0.115 A 
ATOM     15  C   UNL     1     -25.771  31.751 -15.910  1.00  0.00     0.022 A 
ATOM     16  C   UNL     1     -25.169  32.454 -14.863  1.00  0.00     0.047 A 
BRANCH  14  17
ATOM     17  O   UNL     1     -23.912  32.482 -12.804  1.00  0.00    -0.508 OA
ATOM     18  H   UNL     1     -23.239  33.218 -12.986  1.00  0.00     0.293 HD
ENDBRANCH  14  17
ENDBRANCH   1  11
BRANCH  10  19
ATOM     19  O   UNL     1     -28.555  29.643 -16.040  1.00  0.00    -0.500 OA
ATOM     20  H   UNL     1     -28.853  28.981 -15.332  1.00  0.00     0.294 HD
ENDBRANCH  10  19
BRANCH   5  21
ATOM     21  O   UNL     1     -24.606  26.938 -22.156  1.00  0.00    -0.507 OA
ATOM     22  H   UNL     1     -24.547  25.973 -22.459  1.00  0.00     0.293 HD
ENDBRANCH   5  21
BRANCH   7  23
ATOM     23  O   UNL     1     -29.127  27.043 -20.545  1.00  0.00    -0.507 OA
ATOM     24  H   UNL     1     -29.433  26.116 -20.805  1.00  0.00     0.293 HD
ENDBRANCH   7  23
TORSDOF 5
ENDMDL
