MODEL 1
REMARK VINA RESULT:    -3.926      0.000      0.000
REMARK INTER + INTRA:          -5.266
REMARK INTER:                  -5.073
REMARK INTRA:                  -0.193
REMARK UNBOUND:                -0.193
REMARK SMILES CCCCCCC(=O)[O-]
REMARK SMILES IDX 5 1 6 2 7 3 8 4 9 5 4 6 3 7 2 8 1 9
REMARK H PARENT
REMARK Flexibility Score: inf
ROOT
ATOM      1  C   UNL     1      17.530  11.884  -5.818  1.00  0.00     0.006 C 
ENDROOT
BRANCH   1   2
ATOM      2  C   UNL     1      18.805  12.698  -5.573  1.00  0.00     0.053 C 
BRANCH   2   3
ATOM      3  C   UNL     1      18.640  13.578  -4.374  1.00  0.00     0.041 C 
ATOM      4  O   UNL     1      19.444  13.490  -3.408  1.00  0.00    -0.550 OA
ATOM      5  O   UNL     1      17.629  14.529  -4.344  1.00  0.00    -0.550 OA
ENDBRANCH   2   3
ENDBRANCH   1   2
BRANCH   1   6
ATOM      6  C   UNL     1      16.762  12.348  -7.066  1.00  0.00     0.000 C 
BRANCH   6   7
ATOM      7  C   UNL     1      15.524  13.190  -6.721  1.00  0.00    -0.000 C 
BRANCH   7   8
ATOM      8  C   UNL     1      14.546  13.236  -7.900  1.00  0.00    -0.003 C 
ATOM      9  C   UNL     1      15.250  12.906  -9.213  1.00  0.00     0.004 C 
ENDBRANCH   7   8
ENDBRANCH   6   7
ENDBRANCH   1   6
TORSDOF 5
ENDMDL
MODEL 2
REMARK VINA RESULT:    -3.866      1.740      2.355
REMARK INTER + INTRA:          -5.188
REMARK INTER:                  -4.776
REMARK INTRA:                  -0.412
REMARK UNBOUND:                -0.193
REMARK SMILES CCCCCCC(=O)[O-]
REMARK SMILES IDX 5 1 6 2 7 3 8 4 9 5 4 6 3 7 2 8 1 9
REMARK H PARENT
REMARK Flexibility Score: inf
ROOT
ATOM      1  C   UNL     1      18.121  12.944  -5.227  1.00  0.00     0.006 C 
ENDROOT
BRANCH   1   2
ATOM      2  C   UNL     1      17.806  14.266  -4.518  1.00  0.00     0.053 C 
BRANCH   2   3
ATOM      3  C   UNL     1      17.307  15.280  -5.500  1.00  0.00     0.041 C 
ATOM      4  O   UNL     1      16.281  15.962  -5.240  1.00  0.00    -0.550 OA
ATOM      5  O   UNL     1      18.003  15.504  -6.680  1.00  0.00    -0.550 OA
ENDBRANCH   2   3
ENDBRANCH   1   2
BRANCH   1   6
ATOM      6  C   UNL     1      16.904  12.364  -5.965  1.00  0.00     0.000 C 
BRANCH   6   7
ATOM      7  C   UNL     1      17.172  12.133  -7.460  1.00  0.00    -0.000 C 
BRANCH   7   8
ATOM      8  C   UNL     1      16.122  12.844  -8.321  1.00  0.00    -0.003 C 
ATOM      9  C   UNL     1      14.872  13.170  -7.509  1.00  0.00     0.004 C 
ENDBRANCH   7   8
ENDBRANCH   6   7
ENDBRANCH   1   6
TORSDOF 5
ENDMDL
MODEL 3
REMARK VINA RESULT:    -3.856      1.399      2.380
REMARK INTER + INTRA:          -5.176
REMARK INTER:                  -4.941
REMARK INTRA:                  -0.236
REMARK UNBOUND:                -0.193
REMARK SMILES CCCCCCC(=O)[O-]
REMARK SMILES IDX 5 1 6 2 7 3 8 4 9 5 4 6 3 7 2 8 1 9
REMARK H PARENT
REMARK Flexibility Score: inf
ROOT
ATOM      1  C   UNL     1      15.598  12.995  -6.679  1.00  0.00     0.006 C 
ENDROOT
BRANCH   1   2
ATOM      2  C   UNL     1      16.291  14.257  -6.152  1.00  0.00     0.053 C 
BRANCH   2   3
ATOM      3  C   UNL     1      17.386  13.892  -5.199  1.00  0.00     0.041 C 
ATOM      4  O   UNL     1      17.764  14.715  -4.324  1.00  0.00    -0.550 OA
ATOM      5  O   UNL     1      17.953  12.625  -5.245  1.00  0.00    -0.550 OA
ENDBRANCH   2   3
ENDBRANCH   1   2
BRANCH   1   6
ATOM      6  C   UNL     1      14.601  13.295  -7.810  1.00  0.00     0.000 C 
BRANCH   6   7
ATOM      7  C   UNL     1      15.064  12.749  -9.169  1.00  0.00    -0.000 C 
BRANCH   7   8
ATOM      8  C   UNL     1      16.005  13.738  -9.866  1.00  0.00    -0.003 C 
ATOM      9  C   UNL     1      17.403  13.148 -10.029  1.00  0.00     0.004 C 
ENDBRANCH   7   8
ENDBRANCH   6   7
ENDBRANCH   1   6
TORSDOF 5
ENDMDL
MODEL 4
REMARK VINA RESULT:    -3.846      0.881      1.337
REMARK INTER + INTRA:          -5.163
REMARK INTER:                  -4.992
REMARK INTRA:                  -0.172
REMARK UNBOUND:                -0.193
REMARK SMILES CCCCCCC(=O)[O-]
REMARK SMILES IDX 5 1 6 2 7 3 8 4 9 5 4 6 3 7 2 8 1 9
REMARK H PARENT
REMARK Flexibility Score: inf
ROOT
ATOM      1  C   UNL     1      17.804  12.711  -5.652  1.00  0.00     0.006 C 
ENDROOT
BRANCH   1   2
ATOM      2  C   UNL     1      17.559  14.011  -4.878  1.00  0.00     0.053 C 
BRANCH   2   3
ATOM      3  C   UNL     1      18.787  14.404  -4.118  1.00  0.00     0.041 C 
ATOM      4  O   UNL     1      19.173  15.603  -4.115  1.00  0.00    -0.550 OA
ATOM      5  O   UNL     1      19.477  13.457  -3.373  1.00  0.00    -0.550 OA
ENDBRANCH   2   3
ENDBRANCH   1   2
BRANCH   1   6
ATOM      6  C   UNL     1      16.781  12.492  -6.779  1.00  0.00     0.000 C 
BRANCH   6   7
ATOM      7  C   UNL     1      15.629  13.506  -6.738  1.00  0.00    -0.000 C 
BRANCH   7   8
ATOM      8  C   UNL     1      14.608  13.221  -7.846  1.00  0.00    -0.003 C 
ATOM      9  C   UNL     1      15.301  12.966  -9.181  1.00  0.00     0.004 C 
ENDBRANCH   7   8
ENDBRANCH   6   7
ENDBRANCH   1   6
TORSDOF 5
ENDMDL
MODEL 5
REMARK VINA RESULT:    -3.738      2.960      4.842
REMARK INTER + INTRA:          -5.023
REMARK INTER:                  -4.832
REMARK INTRA:                  -0.192
REMARK UNBOUND:                -0.193
REMARK SMILES CCCCCCC(=O)[O-]
REMARK SMILES IDX 5 1 6 2 7 3 8 4 9 5 4 6 3 7 2 8 1 9
REMARK H PARENT
REMARK Flexibility Score: inf
ROOT
ATOM      1  C   UNL     1      16.437  12.892  -6.399  1.00  0.00     0.006 C 
ENDROOT
BRANCH   1   2
ATOM      2  C   UNL     1      16.611  12.898  -7.922  1.00  0.00     0.053 C 
BRANCH   2   3
ATOM      3  C   UNL     1      15.282  13.022  -8.599  1.00  0.00     0.041 C 
ATOM      4  O   UNL     1      15.194  12.900  -9.849  1.00  0.00    -0.550 OA
ATOM      5  O   UNL     1      14.134  13.221  -7.844  1.00  0.00    -0.550 OA
ENDBRANCH   2   3
ENDBRANCH   1   2
BRANCH   1   6
ATOM      6  C   UNL     1      17.509  12.053  -5.684  1.00  0.00     0.000 C 
BRANCH   6   7
ATOM      7  C   UNL     1      18.490  12.914  -4.873  1.00  0.00    -0.000 C 
BRANCH   7   8
ATOM      8  C   UNL     1      17.896  14.296  -4.582  1.00  0.00    -0.003 C 
ATOM      9  C   UNL     1      18.989  15.306  -4.247  1.00  0.00     0.004 C 
ENDBRANCH   7   8
ENDBRANCH   6   7
ENDBRANCH   1   6
TORSDOF 5
ENDMDL
MODEL 6
REMARK VINA RESULT:    -3.718      3.171      4.843
REMARK INTER + INTRA:          -4.998
REMARK INTER:                  -4.760
REMARK INTRA:                  -0.237
REMARK UNBOUND:                -0.193
REMARK SMILES CCCCCCC(=O)[O-]
REMARK SMILES IDX 5 1 6 2 7 3 8 4 9 5 4 6 3 7 2 8 1 9
REMARK H PARENT
REMARK Flexibility Score: inf
ROOT
ATOM      1  C   UNL     1      16.335  13.141  -6.157  1.00  0.00     0.006 C 
ENDROOT
BRANCH   1   2
ATOM      2  C   UNL     1      16.661  12.570  -7.541  1.00  0.00     0.053 C 
BRANCH   2   3
ATOM      3  C   UNL     1      15.704  13.100  -8.563  1.00  0.00     0.041 C 
ATOM      4  O   UNL     1      14.473  12.848  -8.468  1.00  0.00    -0.550 OA
ATOM      5  O   UNL     1      16.164  13.912  -9.591  1.00  0.00    -0.550 OA
ENDBRANCH   2   3
ENDBRANCH   1   2
BRANCH   1   6
ATOM      6  C   UNL     1      16.380  14.677  -6.124  1.00  0.00     0.000 C 
BRANCH   6   7
ATOM      7  C   UNL     1      17.123  15.222  -4.895  1.00  0.00    -0.000 C 
BRANCH   7   8
ATOM      8  C   UNL     1      18.176  14.222  -4.403  1.00  0.00    -0.003 C 
ATOM      9  C   UNL     1      19.444  14.936  -3.946  1.00  0.00     0.004 C 
ENDBRANCH   7   8
ENDBRANCH   6   7
ENDBRANCH   1   6
TORSDOF 5
ENDMDL
MODEL 7
REMARK VINA RESULT:    -3.482      2.887      4.500
REMARK INTER + INTRA:          -4.692
REMARK INTER:                  -4.422
REMARK INTRA:                  -0.270
REMARK UNBOUND:                -0.193
REMARK SMILES CCCCCCC(=O)[O-]
REMARK SMILES IDX 5 1 6 2 7 3 8 4 9 5 4 6 3 7 2 8 1 9
REMARK H PARENT
REMARK Flexibility Score: inf
ROOT
ATOM      1  C   UNL     1      15.216  12.862  -8.120  1.00  0.00     0.006 C 
ENDROOT
BRANCH   1   2
ATOM      2  C   UNL     1      15.597  13.593  -9.412  1.00  0.00     0.053 C 
BRANCH   2   3
ATOM      3  C   UNL     1      17.069  13.860  -9.446  1.00  0.00     0.041 C 
ATOM      4  O   UNL     1      17.498  15.044  -9.434  1.00  0.00    -0.550 OA
ATOM      5  O   UNL     1      17.968  12.802  -9.442  1.00  0.00    -0.550 OA
ENDBRANCH   2   3
ENDBRANCH   1   2
BRANCH   1   6
ATOM      6  C   UNL     1      15.631  13.635  -6.858  1.00  0.00     0.000 C 
BRANCH   6   7
ATOM      7  C   UNL     1      16.700  12.898  -6.037  1.00  0.00    -0.000 C 
BRANCH   7   8
ATOM      8  C   UNL     1      17.554  13.887  -5.235  1.00  0.00    -0.003 C 
ATOM      9  C   UNL     1      17.066  15.320  -5.429  1.00  0.00     0.004 C 
ENDBRANCH   7   8
ENDBRANCH   6   7
ENDBRANCH   1   6
TORSDOF 5
ENDMDL
MODEL 8
REMARK VINA RESULT:    -3.478      1.513      2.525
REMARK INTER + INTRA:          -4.687
REMARK INTER:                  -4.346
REMARK INTRA:                  -0.341
REMARK UNBOUND:                -0.193
REMARK SMILES CCCCCCC(=O)[O-]
REMARK SMILES IDX 5 1 6 2 7 3 8 4 9 5 4 6 3 7 2 8 1 9
REMARK H PARENT
REMARK Flexibility Score: inf
ROOT
ATOM      1  C   UNL     1      16.993  14.729  -6.373  1.00  0.00     0.006 C 
ENDROOT
BRANCH   1   2
ATOM      2  C   UNL     1      17.107  15.103  -4.891  1.00  0.00     0.053 C 
BRANCH   2   3
ATOM      3  C   UNL     1      18.400  14.605  -4.325  1.00  0.00     0.041 C 
ATOM      4  O   UNL     1      19.265  15.421  -3.910  1.00  0.00    -0.550 OA
ATOM      5  O   UNL     1      18.628  13.240  -4.209  1.00  0.00    -0.550 OA
ENDBRANCH   2   3
ENDBRANCH   1   2
BRANCH   1   6
ATOM      6  C   UNL     1      15.816  13.783  -6.657  1.00  0.00     0.000 C 
BRANCH   6   7
ATOM      7  C   UNL     1      16.195  12.631  -7.600  1.00  0.00    -0.000 C 
BRANCH   7   8
ATOM      8  C   UNL     1      17.713  12.413  -7.616  1.00  0.00    -0.003 C 
ATOM      9  C   UNL     1      18.083  11.069  -6.995  1.00  0.00     0.004 C 
ENDBRANCH   7   8
ENDBRANCH   6   7
ENDBRANCH   1   6
TORSDOF 5
ENDMDL
MODEL 9
REMARK VINA RESULT:    -3.351      2.921      4.255
REMARK INTER + INTRA:          -4.524
REMARK INTER:                  -4.138
REMARK INTRA:                  -0.385
REMARK UNBOUND:                -0.193
REMARK SMILES CCCCCCC(=O)[O-]
REMARK SMILES IDX 5 1 6 2 7 3 8 4 9 5 4 6 3 7 2 8 1 9
REMARK H PARENT
REMARK Flexibility Score: inf
ROOT
ATOM      1  C   UNL     1      17.202  12.557  -5.860  1.00  0.00     0.006 C 
ENDROOT
BRANCH   1   2
ATOM      2  C   UNL     1      15.920  13.128  -6.475  1.00  0.00     0.053 C 
BRANCH   2   3
ATOM      3  C   UNL     1      15.899  12.889  -7.953  1.00  0.00     0.041 C 
ATOM      4  O   UNL     1      16.979  12.778  -8.592  1.00  0.00    -0.550 OA
ATOM      5  O   UNL     1      14.688  12.740  -8.616  1.00  0.00    -0.550 OA
ENDBRANCH   2   3
ENDBRANCH   1   2
BRANCH   1   6
ATOM      6  C   UNL     1      17.867  13.528  -4.871  1.00  0.00     0.000 C 
BRANCH   6   7
ATOM      7  C   UNL     1      18.105  14.919  -5.476  1.00  0.00    -0.000 C 
BRANCH   7   8
ATOM      8  C   UNL     1      19.315  14.908  -6.418  1.00  0.00    -0.003 C 
ATOM      9  C   UNL     1      18.952  15.469  -7.789  1.00  0.00     0.004 C 
ENDBRANCH   7   8
ENDBRANCH   6   7
ENDBRANCH   1   6
TORSDOF 5
ENDMDL
