MODEL 1
REMARK VINA RESULT:    -5.110      0.000      0.000
REMARK INTER + INTRA:         -10.140
REMARK INTER:                  -8.695
REMARK INTRA:                  -1.444
REMARK UNBOUND:                -1.444
REMARK SMILES CCCCCCCCCCCCCC(=O)[O-]
REMARK SMILES IDX 8 1 9 2 10 3 11 4 12 5 13 6 14 7 15 8 16 9 7 10 6 11 5 12
REMARK SMILES IDX 4 13 3 14 2 15 1 16
REMARK H PARENT
REMARK Flexibility Score: inf
ROOT
ATOM      1  C   UNL     1       4.485 -33.835  22.426  1.00  0.00     0.000 C 
ENDROOT
BRANCH   1   2
ATOM      2  C   UNL     1       4.545 -33.831  20.890  1.00  0.00     0.000 C 
BRANCH   2   3
ATOM      3  C   UNL     1       5.721 -34.658  20.341  1.00  0.00     0.000 C 
BRANCH   3   4
ATOM      4  C   UNL     1       5.292 -36.058  19.874  1.00  0.00     0.000 C 
BRANCH   4   5
ATOM      5  C   UNL     1       3.771 -36.186  19.703  1.00  0.00     0.006 C 
BRANCH   5   6
ATOM      6  C   UNL     1       3.405 -37.515  19.034  1.00  0.00     0.053 C 
BRANCH   6   7
ATOM      7  C   UNL     1       2.093 -37.401  18.323  1.00  0.00     0.041 C 
ATOM      8  O   UNL     1       1.041 -37.830  18.865  1.00  0.00    -0.550 OA
ATOM      9  O   UNL     1       2.026 -36.776  17.085  1.00  0.00    -0.550 OA
ENDBRANCH   6   7
ENDBRANCH   5   6
ENDBRANCH   4   5
ENDBRANCH   3   4
ENDBRANCH   2   3
ENDBRANCH   1   2
BRANCH   1  10
ATOM     10  C   UNL     1       5.835 -33.488  23.073  1.00  0.00     0.000 C 
BRANCH  10  11
ATOM     11  C   UNL     1       6.125 -34.409  24.265  1.00  0.00    -0.000 C 
BRANCH  11  12
ATOM     12  C   UNL     1       5.894 -35.881  23.891  1.00  0.00    -0.000 C 
BRANCH  12  13
ATOM     13  C   UNL     1       5.007 -36.621  24.906  1.00  0.00    -0.000 C 
BRANCH  13  14
ATOM     14  C   UNL     1       4.486 -37.964  24.366  1.00  0.00    -0.000 C 
BRANCH  14  15
ATOM     15  C   UNL     1       4.673 -38.099  22.847  1.00  0.00    -0.003 C 
ATOM     16  C   UNL     1       5.076 -39.512  22.423  1.00  0.00     0.004 C 
ENDBRANCH  14  15
ENDBRANCH  13  14
ENDBRANCH  12  13
ENDBRANCH  11  12
ENDBRANCH  10  11
ENDBRANCH   1  10
TORSDOF 12
ENDMDL
MODEL 2
REMARK VINA RESULT:    -5.071      2.317      5.342
REMARK INTER + INTRA:         -10.073
REMARK INTER:                  -8.892
REMARK INTRA:                  -1.181
REMARK UNBOUND:                -1.444
REMARK SMILES CCCCCCCCCCCCCC(=O)[O-]
REMARK SMILES IDX 8 1 9 2 10 3 11 4 12 5 13 6 14 7 15 8 16 9 7 10 6 11 5 12
REMARK SMILES IDX 4 13 3 14 2 15 1 16
REMARK H PARENT
REMARK Flexibility Score: inf
ROOT
ATOM      1  C   UNL     1       4.272 -33.874  20.641  1.00  0.00     0.000 C 
ENDROOT
BRANCH   1   2
ATOM      2  C   UNL     1       4.322 -33.630  22.158  1.00  0.00     0.000 C 
BRANCH   2   3
ATOM      3  C   UNL     1       5.723 -33.867  22.749  1.00  0.00     0.000 C 
BRANCH   3   4
ATOM      4  C   UNL     1       5.708 -34.850  23.931  1.00  0.00     0.000 C 
BRANCH   4   5
ATOM      5  C   UNL     1       5.859 -36.313  23.487  1.00  0.00     0.006 C 
BRANCH   5   6
ATOM      6  C   UNL     1       4.666 -37.153  23.955  1.00  0.00     0.053 C 
BRANCH   6   7
ATOM      7  C   UNL     1       4.621 -38.454  23.219  1.00  0.00     0.041 C 
ATOM      8  O   UNL     1       4.977 -39.518  23.792  1.00  0.00    -0.550 OA
ATOM      9  O   UNL     1       4.137 -38.501  21.918  1.00  0.00    -0.550 OA
ENDBRANCH   6   7
ENDBRANCH   5   6
ENDBRANCH   4   5
ENDBRANCH   3   4
ENDBRANCH   2   3
ENDBRANCH   1   2
BRANCH   1  10
ATOM     10  C   UNL     1       5.519 -34.599  20.115  1.00  0.00     0.000 C 
BRANCH  10  11
ATOM     11  C   UNL     1       5.176 -36.026  19.667  1.00  0.00    -0.000 C 
BRANCH  11  12
ATOM     12  C   UNL     1       3.673 -36.168  19.384  1.00  0.00    -0.000 C 
BRANCH  12  13
ATOM     13  C   UNL     1       3.347 -37.371  18.485  1.00  0.00    -0.000 C 
BRANCH  13  14
ATOM     14  C   UNL     1       2.368 -37.014  17.353  1.00  0.00    -0.000 C 
BRANCH  14  15
ATOM     15  C   UNL     1       2.982 -36.050  16.326  1.00  0.00    -0.003 C 
ATOM     16  C   UNL     1       3.022 -36.634  14.914  1.00  0.00     0.004 C 
ENDBRANCH  14  15
ENDBRANCH  13  14
ENDBRANCH  12  13
ENDBRANCH  11  12
ENDBRANCH  10  11
ENDBRANCH   1  10
TORSDOF 12
ENDMDL
MODEL 3
REMARK VINA RESULT:    -5.055      1.087      1.791
REMARK INTER + INTRA:         -10.046
REMARK INTER:                  -8.919
REMARK INTRA:                  -1.126
REMARK UNBOUND:                -1.444
REMARK SMILES CCCCCCCCCCCCCC(=O)[O-]
REMARK SMILES IDX 8 1 9 2 10 3 11 4 12 5 13 6 14 7 15 8 16 9 7 10 6 11 5 12
REMARK SMILES IDX 4 13 3 14 2 15 1 16
REMARK H PARENT
REMARK Flexibility Score: inf
ROOT
ATOM      1  C   UNL     1       4.608 -33.844  20.894  1.00  0.00     0.000 C 
ENDROOT
BRANCH   1   2
ATOM      2  C   UNL     1       5.761 -34.718  20.376  1.00  0.00     0.000 C 
BRANCH   2   3
ATOM      3  C   UNL     1       5.289 -36.108  19.915  1.00  0.00     0.000 C 
BRANCH   3   4
ATOM      4  C   UNL     1       3.902 -36.072  19.253  1.00  0.00     0.000 C 
BRANCH   4   5
ATOM      5  C   UNL     1       3.537 -37.397  18.566  1.00  0.00     0.006 C 
BRANCH   5   6
ATOM      6  C   UNL     1       2.192 -37.287  17.843  1.00  0.00     0.053 C 
BRANCH   6   7
ATOM      7  C   UNL     1       2.399 -36.976  16.395  1.00  0.00     0.041 C 
ATOM      8  O   UNL     1       3.184 -37.676  15.703  1.00  0.00    -0.550 OA
ATOM      9  O   UNL     1       1.687 -35.944  15.797  1.00  0.00    -0.550 OA
ENDBRANCH   6   7
ENDBRANCH   5   6
ENDBRANCH   4   5
ENDBRANCH   3   4
ENDBRANCH   2   3
ENDBRANCH   1   2
BRANCH   1  10
ATOM     10  C   UNL     1       4.479 -33.878  22.425  1.00  0.00     0.000 C 
BRANCH  10  11
ATOM     11  C   UNL     1       5.813 -33.525  23.096  1.00  0.00    -0.000 C 
BRANCH  11  12
ATOM     12  C   UNL     1       6.125 -34.496  24.245  1.00  0.00    -0.000 C 
BRANCH  12  13
ATOM     13  C   UNL     1       6.014 -35.971  23.825  1.00  0.00    -0.000 C 
BRANCH  13  14
ATOM     14  C   UNL     1       5.019 -36.759  24.696  1.00  0.00    -0.000 C 
BRANCH  14  15
ATOM     15  C   UNL     1       4.714 -38.152  24.124  1.00  0.00    -0.003 C 
ATOM     16  C   UNL     1       4.669 -38.169  22.596  1.00  0.00     0.004 C 
ENDBRANCH  14  15
ENDBRANCH  13  14
ENDBRANCH  12  13
ENDBRANCH  11  12
ENDBRANCH  10  11
ENDBRANCH   1  10
TORSDOF 12
ENDMDL
MODEL 4
REMARK VINA RESULT:    -5.054      2.856      6.074
REMARK INTER + INTRA:         -10.044
REMARK INTER:                  -9.042
REMARK INTRA:                  -1.003
REMARK UNBOUND:                -1.444
REMARK SMILES CCCCCCCCCCCCCC(=O)[O-]
REMARK SMILES IDX 8 1 9 2 10 3 11 4 12 5 13 6 14 7 15 8 16 9 7 10 6 11 5 12
REMARK SMILES IDX 4 13 3 14 2 15 1 16
REMARK H PARENT
REMARK Flexibility Score: inf
ROOT
ATOM      1  C   UNL     1       5.291 -35.007  20.036  1.00  0.00     0.000 C 
ENDROOT
BRANCH   1   2
ATOM      2  C   UNL     1       4.395 -33.895  20.604  1.00  0.00     0.000 C 
BRANCH   2   3
ATOM      3  C   UNL     1       4.239 -33.983  22.133  1.00  0.00     0.000 C 
BRANCH   3   4
ATOM      4  C   UNL     1       5.509 -33.550  22.883  1.00  0.00     0.000 C 
BRANCH   4   5
ATOM      5  C   UNL     1       5.829 -34.457  24.081  1.00  0.00     0.006 C 
BRANCH   5   6
ATOM      6  C   UNL     1       6.106 -35.892  23.622  1.00  0.00     0.053 C 
BRANCH   6   7
ATOM      7  C   UNL     1       5.145 -36.842  24.263  1.00  0.00     0.041 C 
ATOM      8  O   UNL     1       4.770 -36.658  25.451  1.00  0.00    -0.550 OA
ATOM      9  O   UNL     1       4.626 -37.903  23.532  1.00  0.00    -0.550 OA
ENDBRANCH   6   7
ENDBRANCH   5   6
ENDBRANCH   4   5
ENDBRANCH   3   4
ENDBRANCH   2   3
ENDBRANCH   1   2
BRANCH   1  10
ATOM     10  C   UNL     1       4.775 -36.415  20.371  1.00  0.00     0.000 C 
BRANCH  10  11
ATOM     11  C   UNL     1       4.276 -37.131  19.110  1.00  0.00    -0.000 C 
BRANCH  11  12
ATOM     12  C   UNL     1       2.748 -37.290  19.135  1.00  0.00    -0.000 C 
BRANCH  12  13
ATOM     13  C   UNL     1       2.109 -37.117  17.748  1.00  0.00    -0.000 C 
BRANCH  13  14
ATOM     14  C   UNL     1       3.086 -36.525  16.717  1.00  0.00    -0.000 C 
BRANCH  14  15
ATOM     15  C   UNL     1       2.524 -36.560  15.287  1.00  0.00    -0.003 C 
ATOM     16  C   UNL     1       3.550 -37.036  14.258  1.00  0.00     0.004 C 
ENDBRANCH  14  15
ENDBRANCH  13  14
ENDBRANCH  12  13
ENDBRANCH  11  12
ENDBRANCH  10  11
ENDBRANCH   1  10
TORSDOF 12
ENDMDL
MODEL 5
REMARK VINA RESULT:    -5.026      1.572      2.649
REMARK INTER + INTRA:          -9.996
REMARK INTER:                  -8.693
REMARK INTRA:                  -1.302
REMARK UNBOUND:                -1.444
REMARK SMILES CCCCCCCCCCCCCC(=O)[O-]
REMARK SMILES IDX 8 1 9 2 10 3 11 4 12 5 13 6 14 7 15 8 16 9 7 10 6 11 5 12
REMARK SMILES IDX 4 13 3 14 2 15 1 16
REMARK H PARENT
REMARK Flexibility Score: inf
ROOT
ATOM      1  C   UNL     1       5.716 -34.708  20.515  1.00  0.00     0.000 C 
ENDROOT
BRANCH   1   2
ATOM      2  C   UNL     1       5.272 -36.028  19.863  1.00  0.00     0.000 C 
BRANCH   2   3
ATOM      3  C   UNL     1       3.912 -35.909  19.153  1.00  0.00     0.000 C 
BRANCH   3   4
ATOM      4  C   UNL     1       3.308 -37.277  18.798  1.00  0.00     0.000 C 
BRANCH   4   5
ATOM      5  C   UNL     1       2.485 -37.244  17.501  1.00  0.00     0.006 C 
BRANCH   5   6
ATOM      6  C   UNL     1       3.056 -36.221  16.516  1.00  0.00     0.053 C 
BRANCH   6   7
ATOM      7  C   UNL     1       2.954 -36.730  15.113  1.00  0.00     0.041 C 
ATOM      8  O   UNL     1       2.046 -36.306  14.350  1.00  0.00    -0.550 OA
ATOM      9  O   UNL     1       3.891 -37.636  14.632  1.00  0.00    -0.550 OA
ENDBRANCH   6   7
ENDBRANCH   5   6
ENDBRANCH   4   5
ENDBRANCH   3   4
ENDBRANCH   2   3
ENDBRANCH   1   2
BRANCH   1  10
ATOM     10  C   UNL     1       4.538 -33.902  21.084  1.00  0.00     0.000 C 
BRANCH  10  11
ATOM     11  C   UNL     1       4.800 -33.505  22.543  1.00  0.00    -0.000 C 
BRANCH  11  12
ATOM     12  C   UNL     1       6.100 -34.138  23.062  1.00  0.00    -0.000 C 
BRANCH  12  13
ATOM     13  C   UNL     1       5.878 -35.022  24.300  1.00  0.00    -0.000 C 
BRANCH  13  14
ATOM     14  C   UNL     1       6.006 -36.523  23.985  1.00  0.00    -0.000 C 
BRANCH  14  15
ATOM     15  C   UNL     1       4.704 -37.120  23.430  1.00  0.00    -0.003 C 
ATOM     16  C   UNL     1       4.930 -38.418  22.654  1.00  0.00     0.004 C 
ENDBRANCH  14  15
ENDBRANCH  13  14
ENDBRANCH  12  13
ENDBRANCH  11  12
ENDBRANCH  10  11
ENDBRANCH   1  10
TORSDOF 12
ENDMDL
MODEL 6
REMARK VINA RESULT:    -4.963      1.295      3.461
REMARK INTER + INTRA:          -9.889
REMARK INTER:                  -8.343
REMARK INTRA:                  -1.546
REMARK UNBOUND:                -1.444
REMARK SMILES CCCCCCCCCCCCCC(=O)[O-]
REMARK SMILES IDX 8 1 9 2 10 3 11 4 12 5 13 6 14 7 15 8 16 9 7 10 6 11 5 12
REMARK SMILES IDX 4 13 3 14 2 15 1 16
REMARK H PARENT
REMARK Flexibility Score: inf
ROOT
ATOM      1  C   UNL     1       4.715 -38.136  23.355  1.00  0.00     0.000 C 
ENDROOT
BRANCH   1   2
ATOM      2  C   UNL     1       5.121 -37.922  21.888  1.00  0.00     0.000 C 
BRANCH   2   3
ATOM      3  C   UNL     1       3.908 -37.737  20.959  1.00  0.00     0.000 C 
BRANCH   3   4
ATOM      4  C   UNL     1       4.316 -37.457  19.504  1.00  0.00     0.000 C 
BRANCH   4   5
ATOM      5  C   UNL     1       3.112 -37.154  18.598  1.00  0.00     0.006 C 
BRANCH   5   6
ATOM      6  C   UNL     1       3.532 -36.307  17.394  1.00  0.00     0.053 C 
BRANCH   6   7
ATOM      7  C   UNL     1       2.880 -36.810  16.145  1.00  0.00     0.041 C 
ATOM      8  O   UNL     1       3.420 -37.730  15.476  1.00  0.00    -0.550 OA
ATOM      9  O   UNL     1       1.653 -36.297  15.746  1.00  0.00    -0.550 OA
ENDBRANCH   6   7
ENDBRANCH   5   6
ENDBRANCH   4   5
ENDBRANCH   3   4
ENDBRANCH   2   3
ENDBRANCH   1   2
BRANCH   1  10
ATOM     10  C   UNL     1       5.146 -36.977  24.266  1.00  0.00     0.000 C 
BRANCH  10  11
ATOM     11  C   UNL     1       6.104 -36.030  23.532  1.00  0.00    -0.000 C 
BRANCH  11  12
ATOM     12  C   UNL     1       5.910 -34.579  24.000  1.00  0.00    -0.000 C 
BRANCH  12  13
ATOM     13  C   UNL     1       5.520 -33.631  22.854  1.00  0.00    -0.000 C 
BRANCH  13  14
ATOM     14  C   UNL     1       4.329 -34.156  22.033  1.00  0.00    -0.000 C 
BRANCH  14  15
ATOM     15  C   UNL     1       4.535 -33.982  20.520  1.00  0.00    -0.003 C 
ATOM     16  C   UNL     1       5.897 -34.490  20.046  1.00  0.00     0.004 C 
ENDBRANCH  14  15
ENDBRANCH  13  14
ENDBRANCH  12  13
ENDBRANCH  11  12
ENDBRANCH  10  11
ENDBRANCH   1  10
TORSDOF 12
ENDMDL
MODEL 7
REMARK VINA RESULT:    -4.641      2.385      5.802
REMARK INTER + INTRA:          -9.341
REMARK INTER:                  -8.435
REMARK INTRA:                  -0.905
REMARK UNBOUND:                -1.444
REMARK SMILES CCCCCCCCCCCCCC(=O)[O-]
REMARK SMILES IDX 8 1 9 2 10 3 11 4 12 5 13 6 14 7 15 8 16 9 7 10 6 11 5 12
REMARK SMILES IDX 4 13 3 14 2 15 1 16
REMARK H PARENT
REMARK Flexibility Score: inf
ROOT
ATOM      1  C   UNL     1       5.243 -38.194  22.713  1.00  0.00     0.000 C 
ENDROOT
BRANCH   1   2
ATOM      2  C   UNL     1       4.640 -38.001  24.114  1.00  0.00     0.000 C 
BRANCH   2   3
ATOM      3  C   UNL     1       5.107 -36.698  24.785  1.00  0.00     0.000 C 
BRANCH   3   4
ATOM      4  C   UNL     1       5.994 -35.844  23.864  1.00  0.00     0.000 C 
BRANCH   4   5
ATOM      5  C   UNL     1       5.272 -34.595  23.335  1.00  0.00     0.006 C 
BRANCH   5   6
ATOM      6  C   UNL     1       5.741 -34.250  21.919  1.00  0.00     0.053 C 
BRANCH   6   7
ATOM      7  C   UNL     1       4.577 -33.873  21.058  1.00  0.00     0.041 C 
ATOM      8  O   UNL     1       4.668 -33.943  19.804  1.00  0.00    -0.550 OA
ATOM      9  O   UNL     1       3.376 -33.492  21.642  1.00  0.00    -0.550 OA
ENDBRANCH   6   7
ENDBRANCH   5   6
ENDBRANCH   4   5
ENDBRANCH   3   4
ENDBRANCH   2   3
ENDBRANCH   1   2
BRANCH   1  10
ATOM     10  C   UNL     1       4.173 -38.392  21.629  1.00  0.00     0.000 C 
BRANCH  10  11
ATOM     11  C   UNL     1       4.433 -37.474  20.428  1.00  0.00    -0.000 C 
BRANCH  11  12
ATOM     12  C   UNL     1       3.294 -37.573  19.402  1.00  0.00    -0.000 C 
BRANCH  12  13
ATOM     13  C   UNL     1       3.508 -36.660  18.184  1.00  0.00    -0.000 C 
BRANCH  13  14
ATOM     14  C   UNL     1       2.572 -37.008  17.013  1.00  0.00    -0.000 C 
BRANCH  14  15
ATOM     15  C   UNL     1       2.837 -36.141  15.772  1.00  0.00    -0.003 C 
ATOM     16  C   UNL     1       3.427 -36.936  14.607  1.00  0.00     0.004 C 
ENDBRANCH  14  15
ENDBRANCH  13  14
ENDBRANCH  12  13
ENDBRANCH  11  12
ENDBRANCH  10  11
ENDBRANCH   1  10
TORSDOF 12
ENDMDL
MODEL 8
REMARK VINA RESULT:    -4.307      1.603      3.498
REMARK INTER + INTRA:          -8.773
REMARK INTER:                  -7.792
REMARK INTRA:                  -0.981
REMARK UNBOUND:                -1.444
REMARK SMILES CCCCCCCCCCCCCC(=O)[O-]
REMARK SMILES IDX 8 1 9 2 10 3 11 4 12 5 13 6 14 7 15 8 16 9 7 10 6 11 5 12
REMARK SMILES IDX 4 13 3 14 2 15 1 16
REMARK H PARENT
REMARK Flexibility Score: inf
ROOT
ATOM      1  C   UNL     1       5.014 -37.895  20.331  1.00  0.00     0.000 C 
ENDROOT
BRANCH   1   2
ATOM      2  C   UNL     1       5.318 -36.410  20.074  1.00  0.00     0.000 C 
BRANCH   2   3
ATOM      3  C   UNL     1       4.103 -35.644  19.523  1.00  0.00     0.000 C 
BRANCH   3   4
ATOM      4  C   UNL     1       3.866 -35.908  18.028  1.00  0.00     0.000 C 
BRANCH   4   5
ATOM      5  C   UNL     1       2.749 -36.932  17.775  1.00  0.00     0.006 C 
BRANCH   5   6
ATOM      6  C   UNL     1       1.984 -36.603  16.490  1.00  0.00     0.053 C 
BRANCH   6   7
ATOM      7  C   UNL     1       2.772 -37.021  15.289  1.00  0.00     0.041 C 
ATOM      8  O   UNL     1       3.481 -38.061  15.327  1.00  0.00    -0.550 OA
ATOM      9  O   UNL     1       2.685 -36.289  14.112  1.00  0.00    -0.550 OA
ENDBRANCH   6   7
ENDBRANCH   5   6
ENDBRANCH   4   5
ENDBRANCH   3   4
ENDBRANCH   2   3
ENDBRANCH   1   2
BRANCH   1  10
ATOM     10  C   UNL     1       4.287 -38.129  21.664  1.00  0.00     0.000 C 
BRANCH  10  11
ATOM     11  C   UNL     1       5.288 -38.357  22.803  1.00  0.00    -0.000 C 
BRANCH  11  12
ATOM     12  C   UNL     1       4.623 -38.146  24.172  1.00  0.00    -0.000 C 
BRANCH  12  13
ATOM     13  C   UNL     1       4.969 -36.786  24.799  1.00  0.00    -0.000 C 
BRANCH  13  14
ATOM     14  C   UNL     1       6.125 -36.077  24.071  1.00  0.00    -0.000 C 
BRANCH  14  15
ATOM     15  C   UNL     1       5.982 -34.547  24.092  1.00  0.00    -0.003 C 
ATOM     16  C   UNL     1       5.596 -33.968  22.731  1.00  0.00     0.004 C 
ENDBRANCH  14  15
ENDBRANCH  13  14
ENDBRANCH  12  13
ENDBRANCH  11  12
ENDBRANCH  10  11
ENDBRANCH   1  10
TORSDOF 12
ENDMDL
MODEL 9
REMARK VINA RESULT:    -3.938      1.292      2.116
REMARK INTER + INTRA:          -8.145
REMARK INTER:                  -7.125
REMARK INTRA:                  -1.021
REMARK UNBOUND:                -1.444
REMARK SMILES CCCCCCCCCCCCCC(=O)[O-]
REMARK SMILES IDX 8 1 9 2 10 3 11 4 12 5 13 6 14 7 15 8 16 9 7 10 6 11 5 12
REMARK SMILES IDX 4 13 3 14 2 15 1 16
REMARK H PARENT
REMARK Flexibility Score: inf
ROOT
ATOM      1  C   UNL     1       5.663 -35.046  22.539  1.00  0.00     0.000 C 
ENDROOT
BRANCH   1   2
ATOM      2  C   UNL     1       4.791 -33.785  22.424  1.00  0.00     0.000 C 
BRANCH   2   3
ATOM      3  C   UNL     1       4.006 -33.727  21.102  1.00  0.00     0.000 C 
BRANCH   3   4
ATOM      4  C   UNL     1       4.868 -34.104  19.886  1.00  0.00     0.000 C 
BRANCH   4   5
ATOM      5  C   UNL     1       4.376 -35.378  19.182  1.00  0.00     0.006 C 
BRANCH   5   6
ATOM      6  C   UNL     1       4.162 -35.128  17.686  1.00  0.00     0.053 C 
BRANCH   6   7
ATOM      7  C   UNL     1       3.247 -36.160  17.108  1.00  0.00     0.041 C 
ATOM      8  O   UNL     1       2.845 -36.055  15.919  1.00  0.00    -0.550 OA
ATOM      9  O   UNL     1       2.876 -37.264  17.866  1.00  0.00    -0.550 OA
ENDBRANCH   6   7
ENDBRANCH   5   6
ENDBRANCH   4   5
ENDBRANCH   3   4
ENDBRANCH   2   3
ENDBRANCH   1   2
BRANCH   1  10
ATOM     10  C   UNL     1       6.125 -35.319  23.979  1.00  0.00     0.000 C 
BRANCH  10  11
ATOM     11  C   UNL     1       5.048 -36.076  24.767  1.00  0.00    -0.000 C 
BRANCH  11  12
ATOM     12  C   UNL     1       5.358 -37.580  24.816  1.00  0.00    -0.000 C 
BRANCH  12  13
ATOM     13  C   UNL     1       4.315 -38.428  24.070  1.00  0.00    -0.000 C 
BRANCH  13  14
ATOM     14  C   UNL     1       4.957 -39.486  23.156  1.00  0.00    -0.000 C 
BRANCH  14  15
ATOM     15  C   UNL     1       5.326 -38.923  21.775  1.00  0.00    -0.003 C 
ATOM     16  C   UNL     1       4.226 -38.042  21.181  1.00  0.00     0.004 C 
ENDBRANCH  14  15
ENDBRANCH  13  14
ENDBRANCH  12  13
ENDBRANCH  11  12
ENDBRANCH  10  11
ENDBRANCH   1  10
TORSDOF 12
ENDMDL
