MODEL 1
REMARK VINA RESULT:    -5.946      0.000      0.000
REMARK INTER + INTRA:          -9.566
REMARK INTER:                  -8.380
REMARK INTRA:                  -1.186
REMARK UNBOUND:                -1.186
REMARK SMILES COc1c(O[C@H]2O[C@H](C(=O)[O-])[C@@H](O)[C@H](O)[C@@H]2O)cc(O)c2c(=O)cc(-c3ccccc3)oc12
REMARK SMILES IDX 5 1 6 2 8 3 12 4 7 5 14 6 16 7 9 8 10 9 11 10 13 11 15 13
REMARK SMILES IDX 17 15 4 17 3 18 18 19 33 20 19 21 21 22 32 23 22 24 25 25
REMARK SMILES IDX 24 26 23 27 2 28 1 29 20 30 26 32 27 33 31 34 28 35 30 36
REMARK SMILES IDX 29 37
REMARK H PARENT 13 12 15 14 17 16 20 31
REMARK Flexibility Score: inf
ROOT
ATOM      1  O   UNL     1      57.174   9.927  -0.873  1.00  0.00    -0.458 OA
ENDROOT
BRANCH   1   2
ATOM      2  C   UNL     1      58.367   9.291  -0.403  1.00  0.00     0.339 C 
ATOM      3  C   UNL     1      59.237   9.037  -2.572  1.00  0.00     0.199 C 
ATOM      4  C   UNL     1      60.370  10.060  -2.333  1.00  0.00     0.180 C 
ATOM      5  O   UNL     1      58.884   8.380  -1.364  1.00  0.00    -0.328 OA
ATOM      6  C   UNL     1      59.926  11.077  -1.272  1.00  0.00     0.181 C 
ATOM      7  C   UNL     1      59.417  10.349  -0.015  1.00  0.00     0.214 C 
BRANCH   3   8
ATOM      8  C   UNL     1      59.668   8.002  -3.567  1.00  0.00     0.073 C 
ATOM      9  O   UNL     1      60.891   7.816  -3.803  1.00  0.00    -0.547 OA
ATOM     10  O   UNL     1      58.716   7.266  -4.260  1.00  0.00    -0.547 OA
ENDBRANCH   3   8
BRANCH   4  11
ATOM     11  O   UNL     1      60.664  10.746  -3.526  1.00  0.00    -0.387 OA
ATOM     12  H   UNL     1      61.048  10.080  -4.157  1.00  0.00     0.211 HD
ENDBRANCH   4  11
BRANCH   6  13
ATOM     13  O   UNL     1      61.003  11.917  -0.946  1.00  0.00    -0.387 OA
ATOM     14  H   UNL     1      61.397  12.224  -1.804  1.00  0.00     0.211 HD
ENDBRANCH   6  13
BRANCH   7  15
ATOM     15  O   UNL     1      60.495   9.736   0.646  1.00  0.00    -0.384 OA
ATOM     16  H   UNL     1      60.832  10.391   1.314  1.00  0.00     0.211 HD
ENDBRANCH   7  15
ENDBRANCH   1   2
BRANCH   1  17
ATOM     17  C   UNL     1      56.580  11.063  -0.299  1.00  0.00     0.172 A 
ATOM     18  C   UNL     1      56.480  12.217  -1.079  1.00  0.00     0.205 A 
ATOM     19  C   UNL     1      56.115  11.077   1.023  1.00  0.00     0.097 A 
ATOM     20  C   UNL     1      55.857  13.368  -0.559  1.00  0.00     0.188 A 
ATOM     21  C   UNL     1      55.554  12.228   1.585  1.00  0.00     0.134 A 
ATOM     22  C   UNL     1      55.372  13.388   0.777  1.00  0.00     0.111 A 
ATOM     23  O   UNL     1      55.705  14.428  -1.347  1.00  0.00    -0.452 OA
ATOM     24  C   UNL     1      54.696  14.560   1.196  1.00  0.00     0.197 A 
ATOM     25  C   UNL     1      55.111  15.554  -0.965  1.00  0.00     0.138 A 
ATOM     26  C   UNL     1      54.583  15.645   0.328  1.00  0.00     0.100 A 
ATOM     27  O   UNL     1      54.150  14.650   2.327  1.00  0.00    -0.289 OA
BRANCH  18  28
ATOM     28  O   UNL     1      56.984  12.178  -2.386  1.00  0.00    -0.490 OA
ATOM     29  C   UNL     1      56.223  11.736  -3.507  1.00  0.00     0.278 C 
ENDBRANCH  18  28
BRANCH  21  30
ATOM     30  O   UNL     1      55.222  12.158   2.941  1.00  0.00    -0.507 OA
ATOM     31  H   UNL     1      54.635  12.813   3.432  1.00  0.00     0.293 HD
ENDBRANCH  21  30
BRANCH  25  32
ATOM     32  C   UNL     1      55.008  16.669  -1.939  1.00  0.00     0.017 A 
ATOM     33  C   UNL     1      54.852  18.008  -1.524  1.00  0.00     0.012 A 
ATOM     34  C   UNL     1      55.098  16.393  -3.317  1.00  0.00     0.012 A 
ATOM     35  C   UNL     1      54.769  19.037  -2.469  1.00  0.00     0.001 A 
ATOM     36  C   UNL     1      55.010  17.426  -4.256  1.00  0.00     0.001 A 
ATOM     37  C   UNL     1      54.844  18.745  -3.832  1.00  0.00     0.000 A 
ENDBRANCH  25  32
ENDBRANCH   1  17
TORSDOF 9
ENDMDL
MODEL 2
REMARK VINA RESULT:    -5.923      2.243      4.172
REMARK INTER + INTRA:          -9.533
REMARK INTER:                  -8.283
REMARK INTRA:                  -1.250
REMARK UNBOUND:                -1.186
REMARK SMILES COc1c(O[C@H]2O[C@H](C(=O)[O-])[C@@H](O)[C@H](O)[C@@H]2O)cc(O)c2c(=O)cc(-c3ccccc3)oc12
REMARK SMILES IDX 5 1 6 2 8 3 12 4 7 5 14 6 16 7 9 8 10 9 11 10 13 11 15 13
REMARK SMILES IDX 17 15 4 17 3 18 18 19 33 20 19 21 21 22 32 23 22 24 25 25
REMARK SMILES IDX 24 26 23 27 2 28 1 29 20 30 26 32 27 33 31 34 28 35 30 36
REMARK SMILES IDX 29 37
REMARK H PARENT 13 12 15 14 17 16 20 31
REMARK Flexibility Score: inf
ROOT
ATOM      1  O   UNL     1      56.321   9.937  -2.748  1.00  0.00    -0.458 OA
ENDROOT
BRANCH   1   2
ATOM      2  C   UNL     1      57.494   9.602  -3.496  1.00  0.00     0.339 C 
ATOM      3  C   UNL     1      58.761   9.183  -1.561  1.00  0.00     0.199 C 
ATOM      4  C   UNL     1      58.845   7.665  -1.837  1.00  0.00     0.180 C 
ATOM      5  O   UNL     1      58.678   9.915  -2.774  1.00  0.00    -0.328 OA
ATOM      6  C   UNL     1      57.622   7.225  -2.654  1.00  0.00     0.181 C 
ATOM      7  C   UNL     1      57.464   8.115  -3.899  1.00  0.00     0.214 C 
BRANCH   3   8
ATOM      8  C   UNL     1      59.973   9.645  -0.809  1.00  0.00     0.073 C 
ATOM      9  O   UNL     1      61.009   8.930  -0.769  1.00  0.00    -0.547 OA
ATOM     10  O   UNL     1      59.946  10.853  -0.123  1.00  0.00    -0.547 OA
ENDBRANCH   3   8
BRANCH   4  11
ATOM     11  O   UNL     1      58.864   6.951  -0.625  1.00  0.00    -0.387 OA
ATOM     12  H   UNL     1      59.812   6.708  -0.445  1.00  0.00     0.211 HD
ENDBRANCH   4  11
BRANCH   6  13
ATOM     13  O   UNL     1      57.768   5.880  -3.032  1.00  0.00    -0.387 OA
ATOM     14  H   UNL     1      58.467   5.492  -2.444  1.00  0.00     0.211 HD
ENDBRANCH   6  13
BRANCH   7  15
ATOM     15  O   UNL     1      58.497   7.843  -4.811  1.00  0.00    -0.384 OA
ATOM     16  H   UNL     1      58.255   6.999  -5.276  1.00  0.00     0.211 HD
ENDBRANCH   7  15
ENDBRANCH   1   2
BRANCH   1  17
ATOM     17  C   UNL     1      55.349  10.873  -3.139  1.00  0.00     0.172 A 
ATOM     18  C   UNL     1      55.607  12.225  -2.903  1.00  0.00     0.205 A 
ATOM     19  C   UNL     1      54.135  10.491  -3.726  1.00  0.00     0.097 A 
ATOM     20  C   UNL     1      54.680  13.202  -3.313  1.00  0.00     0.188 A 
ATOM     21  C   UNL     1      53.168  11.437  -4.080  1.00  0.00     0.134 A 
ATOM     22  C   UNL     1      53.451  12.825  -3.920  1.00  0.00     0.111 A 
ATOM     23  O   UNL     1      54.984  14.485  -3.149  1.00  0.00    -0.452 OA
ATOM     24  C   UNL     1      52.608  13.872  -4.367  1.00  0.00     0.197 A 
ATOM     25  C   UNL     1      54.192  15.486  -3.521  1.00  0.00     0.138 A 
ATOM     26  C   UNL     1      52.975  15.200  -4.150  1.00  0.00     0.100 A 
ATOM     27  O   UNL     1      51.541  13.650  -4.996  1.00  0.00    -0.289 OA
BRANCH  18  28
ATOM     28  O   UNL     1      56.817  12.570  -2.285  1.00  0.00    -0.490 OA
ATOM     29  C   UNL     1      56.960  12.733  -0.877  1.00  0.00     0.278 C 
ENDBRANCH  18  28
BRANCH  21  30
ATOM     30  O   UNL     1      51.955  10.934  -4.560  1.00  0.00    -0.507 OA
ATOM     31  H   UNL     1      51.556  11.139  -5.462  1.00  0.00     0.293 HD
ENDBRANCH  21  30
BRANCH  25  32
ATOM     32  C   UNL     1      54.644  16.879  -3.277  1.00  0.00     0.017 A 
ATOM     33  C   UNL     1      54.671  17.438  -1.983  1.00  0.00     0.012 A 
ATOM     34  C   UNL     1      55.090  17.660  -4.361  1.00  0.00     0.012 A 
ATOM     35  C   UNL     1      55.114  18.750  -1.787  1.00  0.00     0.001 A 
ATOM     36  C   UNL     1      55.528  18.972  -4.159  1.00  0.00     0.001 A 
ATOM     37  C   UNL     1      55.538  19.517  -2.874  1.00  0.00     0.000 A 
ENDBRANCH  25  32
ENDBRANCH   1  17
TORSDOF 9
ENDMDL
MODEL 3
REMARK VINA RESULT:    -5.846      2.056      3.776
REMARK INTER + INTRA:          -9.424
REMARK INTER:                  -8.407
REMARK INTRA:                  -1.018
REMARK UNBOUND:                -1.186
REMARK SMILES COc1c(O[C@H]2O[C@H](C(=O)[O-])[C@@H](O)[C@H](O)[C@@H]2O)cc(O)c2c(=O)cc(-c3ccccc3)oc12
REMARK SMILES IDX 5 1 6 2 8 3 12 4 7 5 14 6 16 7 9 8 10 9 11 10 13 11 15 13
REMARK SMILES IDX 17 15 4 17 3 18 18 19 33 20 19 21 21 22 32 23 22 24 25 25
REMARK SMILES IDX 24 26 23 27 2 28 1 29 20 30 26 32 27 33 31 34 28 35 30 36
REMARK SMILES IDX 29 37
REMARK H PARENT 13 12 15 14 17 16 20 31
REMARK Flexibility Score: inf
ROOT
ATOM      1  O   UNL     1      56.843  10.125  -1.094  1.00  0.00    -0.458 OA
ENDROOT
BRANCH   1   2
ATOM      2  C   UNL     1      58.248  10.045  -1.355  1.00  0.00     0.339 C 
ATOM      3  C   UNL     1      58.337   7.748  -0.869  1.00  0.00     0.199 C 
ATOM      4  C   UNL     1      58.620   7.357  -2.337  1.00  0.00     0.180 C 
ATOM      5  O   UNL     1      58.867   9.031  -0.574  1.00  0.00    -0.328 OA
ATOM      6  C   UNL     1      58.024   8.417  -3.273  1.00  0.00     0.181 C 
ATOM      7  C   UNL     1      58.499   9.822  -2.859  1.00  0.00     0.214 C 
BRANCH   3   8
ATOM      8  C   UNL     1      58.956   6.753   0.066  1.00  0.00     0.073 C 
ATOM      9  O   UNL     1      58.621   6.725   1.280  1.00  0.00    -0.547 OA
ATOM     10  O   UNL     1      59.930   5.877  -0.397  1.00  0.00    -0.547 OA
ENDBRANCH   3   8
BRANCH   4  11
ATOM     11  O   UNL     1      58.036   6.111  -2.629  1.00  0.00    -0.387 OA
ATOM     12  H   UNL     1      58.772   5.503  -2.909  1.00  0.00     0.211 HD
ENDBRANCH   4  11
BRANCH   6  13
ATOM     13  O   UNL     1      58.405   8.144  -4.597  1.00  0.00    -0.387 OA
ATOM     14  H   UNL     1      58.111   7.217  -4.794  1.00  0.00     0.211 HD
ENDBRANCH   6  13
BRANCH   7  15
ATOM     15  O   UNL     1      59.867   9.963  -3.145  1.00  0.00    -0.384 OA
ATOM     16  H   UNL     1      60.235  10.602  -2.480  1.00  0.00     0.211 HD
ENDBRANCH   7  15
ENDBRANCH   1   2
BRANCH   1  17
ATOM     17  C   UNL     1      55.926  10.901  -1.821  1.00  0.00     0.172 A 
ATOM     18  C   UNL     1      56.038  12.291  -1.748  1.00  0.00     0.205 A 
ATOM     19  C   UNL     1      54.899  10.328  -2.584  1.00  0.00     0.097 A 
ATOM     20  C   UNL     1      55.165  13.110  -2.490  1.00  0.00     0.188 A 
ATOM     21  C   UNL     1      53.978  11.120  -3.276  1.00  0.00     0.134 A 
ATOM     22  C   UNL     1      54.129  12.537  -3.276  1.00  0.00     0.111 A 
ATOM     23  O   UNL     1      55.342  14.427  -2.466  1.00  0.00    -0.452 OA
ATOM     24  C   UNL     1      53.342  13.428  -4.047  1.00  0.00     0.197 A 
ATOM     25  C   UNL     1      54.592  15.286  -3.146  1.00  0.00     0.138 A 
ATOM     26  C   UNL     1      53.566  14.801  -3.966  1.00  0.00     0.100 A 
ATOM     27  O   UNL     1      52.458  13.020  -4.845  1.00  0.00    -0.289 OA
BRANCH  18  28
ATOM     28  O   UNL     1      57.056  12.832  -0.950  1.00  0.00    -0.490 OA
ATOM     29  C   UNL     1      56.864  13.221   0.408  1.00  0.00     0.278 C 
ENDBRANCH  18  28
BRANCH  21  30
ATOM     30  O   UNL     1      52.936  10.442  -3.917  1.00  0.00    -0.507 OA
ATOM     31  H   UNL     1      52.457  10.760  -4.744  1.00  0.00     0.293 HD
ENDBRANCH  21  30
BRANCH  25  32
ATOM     32  C   UNL     1      54.889  16.737  -3.031  1.00  0.00     0.017 A 
ATOM     33  C   UNL     1      55.251  17.513  -4.151  1.00  0.00     0.012 A 
ATOM     34  C   UNL     1      54.777  17.367  -1.778  1.00  0.00     0.012 A 
ATOM     35  C   UNL     1      55.514  18.880  -4.010  1.00  0.00     0.001 A 
ATOM     36  C   UNL     1      55.045  18.733  -1.642  1.00  0.00     0.001 A 
ATOM     37  C   UNL     1      55.414  19.487  -2.757  1.00  0.00     0.000 A 
ENDBRANCH  25  32
ENDBRANCH   1  17
TORSDOF 9
ENDMDL
MODEL 4
REMARK VINA RESULT:    -5.831      6.541     12.578
REMARK INTER + INTRA:          -9.403
REMARK INTER:                  -8.262
REMARK INTRA:                  -1.141
REMARK UNBOUND:                -1.186
REMARK SMILES COc1c(O[C@H]2O[C@H](C(=O)[O-])[C@@H](O)[C@H](O)[C@@H]2O)cc(O)c2c(=O)cc(-c3ccccc3)oc12
REMARK SMILES IDX 5 1 6 2 8 3 12 4 7 5 14 6 16 7 9 8 10 9 11 10 13 11 15 13
REMARK SMILES IDX 17 15 4 17 3 18 18 19 33 20 19 21 21 22 32 23 22 24 25 25
REMARK SMILES IDX 24 26 23 27 2 28 1 29 20 30 26 32 27 33 31 34 28 35 30 36
REMARK SMILES IDX 29 37
REMARK H PARENT 13 12 15 14 17 16 20 31
REMARK Flexibility Score: inf
ROOT
ATOM      1  O   UNL     1      50.018  21.082  -3.353  1.00  0.00    -0.458 OA
ENDROOT
BRANCH   1   2
ATOM      2  C   UNL     1      49.611  22.442  -3.530  1.00  0.00     0.339 C 
ATOM      3  C   UNL     1      48.014  22.320  -1.811  1.00  0.00     0.199 C 
ATOM      4  C   UNL     1      48.803  23.274  -0.888  1.00  0.00     0.180 C 
ATOM      5  O   UNL     1      48.246  22.627  -3.177  1.00  0.00    -0.328 OA
ATOM      6  C   UNL     1      50.300  23.182  -1.216  1.00  0.00     0.181 C 
ATOM      7  C   UNL     1      50.528  23.383  -2.725  1.00  0.00     0.214 C 
BRANCH   3   8
ATOM      8  C   UNL     1      46.543  22.432  -1.543  1.00  0.00     0.073 C 
ATOM      9  O   UNL     1      46.087  23.409  -0.892  1.00  0.00    -0.547 OA
ATOM     10  O   UNL     1      45.678  21.439  -1.985  1.00  0.00    -0.547 OA
ENDBRANCH   3   8
BRANCH   4  11
ATOM     11  O   UNL     1      48.610  22.917   0.460  1.00  0.00    -0.387 OA
ATOM     12  H   UNL     1      47.973  23.576   0.846  1.00  0.00     0.211 HD
ENDBRANCH   4  11
BRANCH   6  13
ATOM     13  O   UNL     1      51.003  24.153  -0.484  1.00  0.00    -0.387 OA
ATOM     14  H   UNL     1      51.884  24.264  -0.928  1.00  0.00     0.211 HD
ENDBRANCH   6  13
BRANCH   7  15
ATOM     15  O   UNL     1      50.268  24.720  -3.070  1.00  0.00    -0.384 OA
ATOM     16  H   UNL     1      49.398  24.960  -2.654  1.00  0.00     0.211 HD
ENDBRANCH   7  15
ENDBRANCH   1   2
BRANCH   1  17
ATOM     17  C   UNL     1      51.261  20.551  -3.735  1.00  0.00     0.172 A 
ATOM     18  C   UNL     1      51.811  19.534  -2.951  1.00  0.00     0.205 A 
ATOM     19  C   UNL     1      51.968  21.025  -4.850  1.00  0.00     0.097 A 
ATOM     20  C   UNL     1      53.036  18.944  -3.317  1.00  0.00     0.188 A 
ATOM     21  C   UNL     1      53.218  20.503  -5.194  1.00  0.00     0.134 A 
ATOM     22  C   UNL     1      53.753  19.411  -4.452  1.00  0.00     0.111 A 
ATOM     23  O   UNL     1      53.499  17.926  -2.600  1.00  0.00    -0.452 OA
ATOM     24  C   UNL     1      54.940  18.715  -4.791  1.00  0.00     0.197 A 
ATOM     25  C   UNL     1      54.630  17.284  -2.871  1.00  0.00     0.138 A 
ATOM     26  C   UNL     1      55.383  17.664  -3.989  1.00  0.00     0.100 A 
ATOM     27  O   UNL     1      55.603  18.987  -5.825  1.00  0.00    -0.289 OA
BRANCH  18  28
ATOM     28  O   UNL     1      51.093  19.106  -1.826  1.00  0.00    -0.490 OA
ATOM     29  C   UNL     1      50.174  18.018  -1.849  1.00  0.00     0.278 C 
ENDBRANCH  18  28
BRANCH  21  30
ATOM     30  O   UNL     1      53.876  21.123  -6.261  1.00  0.00    -0.507 OA
ATOM     31  H   UNL     1      54.046  22.113  -6.344  1.00  0.00     0.293 HD
ENDBRANCH  21  30
BRANCH  25  32
ATOM     32  C   UNL     1      55.041  16.163  -1.989  1.00  0.00     0.017 A 
ATOM     33  C   UNL     1      55.446  14.916  -2.509  1.00  0.00     0.012 A 
ATOM     34  C   UNL     1      55.060  16.353  -0.594  1.00  0.00     0.012 A 
ATOM     35  C   UNL     1      55.838  13.884  -1.650  1.00  0.00     0.001 A 
ATOM     36  C   UNL     1      55.449  15.316   0.259  1.00  0.00     0.001 A 
ATOM     37  C   UNL     1      55.836  14.083  -0.268  1.00  0.00     0.000 A 
ENDBRANCH  25  32
ENDBRANCH   1  17
TORSDOF 9
ENDMDL
MODEL 5
REMARK VINA RESULT:    -5.730      3.005      4.053
REMARK INTER + INTRA:          -9.260
REMARK INTER:                  -7.932
REMARK INTRA:                  -1.328
REMARK UNBOUND:                -1.186
REMARK SMILES COc1c(O[C@H]2O[C@H](C(=O)[O-])[C@@H](O)[C@H](O)[C@@H]2O)cc(O)c2c(=O)cc(-c3ccccc3)oc12
REMARK SMILES IDX 5 1 6 2 8 3 12 4 7 5 14 6 16 7 9 8 10 9 11 10 13 11 15 13
REMARK SMILES IDX 17 15 4 17 3 18 18 19 33 20 19 21 21 22 32 23 22 24 25 25
REMARK SMILES IDX 24 26 23 27 2 28 1 29 20 30 26 32 27 33 31 34 28 35 30 36
REMARK SMILES IDX 29 37
REMARK H PARENT 13 12 15 14 17 16 20 31
REMARK Flexibility Score: inf
ROOT
ATOM      1  O   UNL     1      53.790  10.254  -1.386  1.00  0.00    -0.458 OA
ENDROOT
BRANCH   1   2
ATOM      2  C   UNL     1      54.547   9.043  -1.290  1.00  0.00     0.339 C 
ATOM      3  C   UNL     1      53.489   8.086  -3.158  1.00  0.00     0.199 C 
ATOM      4  C   UNL     1      54.767   8.144  -4.024  1.00  0.00     0.180 C 
ATOM      5  O   UNL     1      53.813   7.930  -1.784  1.00  0.00    -0.328 OA
ATOM      6  C   UNL     1      55.658   9.298  -3.543  1.00  0.00     0.181 C 
ATOM      7  C   UNL     1      55.892   9.195  -2.025  1.00  0.00     0.214 C 
BRANCH   3   8
ATOM      8  C   UNL     1      52.627   6.932  -3.575  1.00  0.00     0.073 C 
ATOM      9  O   UNL     1      53.117   5.976  -4.232  1.00  0.00    -0.547 OA
ATOM     10  O   UNL     1      51.273   6.930  -3.266  1.00  0.00    -0.547 OA
ENDBRANCH   3   8
BRANCH   4  11
ATOM     11  O   UNL     1      54.430   8.360  -5.373  1.00  0.00    -0.387 OA
ATOM     12  H   UNL     1      53.657   7.769  -5.577  1.00  0.00     0.211 HD
ENDBRANCH   4  11
BRANCH   6  13
ATOM     13  O   UNL     1      56.884   9.263  -4.228  1.00  0.00    -0.387 OA
ATOM     14  H   UNL     1      57.190   8.318  -4.219  1.00  0.00     0.211 HD
ENDBRANCH   6  13
BRANCH   7  15
ATOM     15  O   UNL     1      56.719   8.094  -1.747  1.00  0.00    -0.384 OA
ATOM     16  H   UNL     1      57.539   8.453  -1.314  1.00  0.00     0.211 HD
ENDBRANCH   7  15
ENDBRANCH   1   2
BRANCH   1  17
ATOM     17  C   UNL     1      54.230  11.521  -0.966  1.00  0.00     0.172 A 
ATOM     18  C   UNL     1      54.268  12.549  -1.910  1.00  0.00     0.205 A 
ATOM     19  C   UNL     1      54.650  11.770   0.348  1.00  0.00     0.097 A 
ATOM     20  C   UNL     1      54.664  13.845  -1.527  1.00  0.00     0.188 A 
ATOM     21  C   UNL     1      55.112  13.031   0.736  1.00  0.00     0.134 A 
ATOM     22  C   UNL     1      55.081  14.110  -0.194  1.00  0.00     0.111 A 
ATOM     23  O   UNL     1      54.617  14.823  -2.425  1.00  0.00    -0.452 OA
ATOM     24  C   UNL     1      55.394  15.454   0.124  1.00  0.00     0.197 A 
ATOM     25  C   UNL     1      54.945  16.084  -2.163  1.00  0.00     0.138 A 
ATOM     26  C   UNL     1      55.341  16.434  -0.866  1.00  0.00     0.100 A 
ATOM     27  O   UNL     1      55.687  15.814   1.295  1.00  0.00    -0.289 OA
BRANCH  18  28
ATOM     28  O   UNL     1      53.871  12.257  -3.223  1.00  0.00    -0.490 OA
ATOM     29  C   UNL     1      52.554  12.488  -3.714  1.00  0.00     0.278 C 
ENDBRANCH  18  28
BRANCH  21  30
ATOM     30  O   UNL     1      55.603  13.136   2.042  1.00  0.00    -0.507 OA
ATOM     31  H   UNL     1      55.418  12.484   2.787  1.00  0.00     0.293 HD
ENDBRANCH  21  30
BRANCH  25  32
ATOM     32  C   UNL     1      54.854  17.085  -3.255  1.00  0.00     0.017 A 
ATOM     33  C   UNL     1      54.317  16.762  -4.518  1.00  0.00     0.012 A 
ATOM     34  C   UNL     1      55.285  18.404  -3.021  1.00  0.00     0.012 A 
ATOM     35  C   UNL     1      54.235  17.733  -5.523  1.00  0.00     0.001 A 
ATOM     36  C   UNL     1      55.205  19.369  -4.030  1.00  0.00     0.001 A 
ATOM     37  C   UNL     1      54.682  19.032  -5.280  1.00  0.00     0.000 A 
ENDBRANCH  25  32
ENDBRANCH   1  17
TORSDOF 9
ENDMDL
MODEL 6
REMARK VINA RESULT:    -5.695      4.183      8.788
REMARK INTER + INTRA:          -9.211
REMARK INTER:                  -7.931
REMARK INTRA:                  -1.280
REMARK UNBOUND:                -1.186
REMARK SMILES COc1c(O[C@H]2O[C@H](C(=O)[O-])[C@@H](O)[C@H](O)[C@@H]2O)cc(O)c2c(=O)cc(-c3ccccc3)oc12
REMARK SMILES IDX 5 1 6 2 8 3 12 4 7 5 14 6 16 7 9 8 10 9 11 10 13 11 15 13
REMARK SMILES IDX 17 15 4 17 3 18 18 19 33 20 19 21 21 22 32 23 22 24 25 25
REMARK SMILES IDX 24 26 23 27 2 28 1 29 20 30 26 32 27 33 31 34 28 35 30 36
REMARK SMILES IDX 29 37
REMARK H PARENT 13 12 15 14 17 16 20 31
REMARK Flexibility Score: inf
ROOT
ATOM      1  O   UNL     1      54.743  14.921  -3.708  1.00  0.00    -0.458 OA
ENDROOT
BRANCH   1   2
ATOM      2  C   UNL     1      55.324  15.981  -2.942  1.00  0.00     0.339 C 
ATOM      3  C   UNL     1      54.259  17.650  -4.208  1.00  0.00     0.199 C 
ATOM      4  C   UNL     1      53.341  18.076  -3.040  1.00  0.00     0.180 C 
ATOM      5  O   UNL     1      55.498  17.155  -3.724  1.00  0.00    -0.328 OA
ATOM      6  C   UNL     1      53.118  16.880  -2.103  1.00  0.00     0.181 C 
ATOM      7  C   UNL     1      54.468  16.266  -1.692  1.00  0.00     0.214 C 
BRANCH   3   8
ATOM      8  C   UNL     1      54.533  18.817  -5.109  1.00  0.00     0.073 C 
ATOM      9  O   UNL     1      55.717  19.192  -5.322  1.00  0.00    -0.547 OA
ATOM     10  O   UNL     1      53.479  19.512  -5.686  1.00  0.00    -0.547 OA
ENDBRANCH   3   8
BRANCH   4  11
ATOM     11  O   UNL     1      52.095  18.506  -3.534  1.00  0.00    -0.387 OA
ATOM     12  H   UNL     1      51.409  17.883  -3.173  1.00  0.00     0.211 HD
ENDBRANCH   4  11
BRANCH   6  13
ATOM     13  O   UNL     1      52.408  17.300  -0.966  1.00  0.00    -0.387 OA
ATOM     14  H   UNL     1      51.804  18.032  -1.260  1.00  0.00     0.211 HD
ENDBRANCH   6  13
BRANCH   7  15
ATOM     15  O   UNL     1      55.148  17.146  -0.834  1.00  0.00    -0.384 OA
ATOM     16  H   UNL     1      54.463  17.561  -0.246  1.00  0.00     0.211 HD
ENDBRANCH   7  15
ENDBRANCH   1   2
BRANCH   1  17
ATOM     17  C   UNL     1      54.999  13.552  -3.525  1.00  0.00     0.172 A 
ATOM     18  C   UNL     1      53.953  12.742  -3.079  1.00  0.00     0.205 A 
ATOM     19  C   UNL     1      56.264  12.991  -3.748  1.00  0.00     0.097 A 
ATOM     20  C   UNL     1      54.152  11.358  -2.918  1.00  0.00     0.188 A 
ATOM     21  C   UNL     1      56.505  11.631  -3.530  1.00  0.00     0.134 A 
ATOM     22  C   UNL     1      55.428  10.777  -3.153  1.00  0.00     0.111 A 
ATOM     23  O   UNL     1      53.120  10.596  -2.569  1.00  0.00    -0.452 OA
ATOM     24  C   UNL     1      55.523   9.369  -3.038  1.00  0.00     0.197 A 
ATOM     25  C   UNL     1      53.193   9.278  -2.413  1.00  0.00     0.138 A 
ATOM     26  C   UNL     1      54.408   8.626  -2.651  1.00  0.00     0.100 A 
ATOM     27  O   UNL     1      56.582   8.745  -3.311  1.00  0.00    -0.289 OA
BRANCH  18  28
ATOM     28  O   UNL     1      52.709  13.341  -2.835  1.00  0.00    -0.490 OA
ATOM     29  C   UNL     1      51.691  13.465  -3.823  1.00  0.00     0.278 C 
ENDBRANCH  18  28
BRANCH  21  30
ATOM     30  O   UNL     1      57.828  11.203  -3.684  1.00  0.00    -0.507 OA
ATOM     31  H   UNL     1      58.621  11.574  -3.186  1.00  0.00     0.293 HD
ENDBRANCH  21  30
BRANCH  25  32
ATOM     32  C   UNL     1      51.967   8.540  -2.015  1.00  0.00     0.017 A 
ATOM     33  C   UNL     1      51.914   7.131  -2.016  1.00  0.00     0.012 A 
ATOM     34  C   UNL     1      50.834   9.261  -1.593  1.00  0.00     0.012 A 
ATOM     35  C   UNL     1      50.747   6.467  -1.624  1.00  0.00     0.001 A 
ATOM     36  C   UNL     1      49.669   8.591  -1.207  1.00  0.00     0.001 A 
ATOM     37  C   UNL     1      49.625   7.196  -1.224  1.00  0.00     0.000 A 
ENDBRANCH  25  32
ENDBRANCH   1  17
TORSDOF 9
ENDMDL
MODEL 7
REMARK VINA RESULT:    -5.667      1.927      3.147
REMARK INTER + INTRA:          -9.173
REMARK INTER:                  -7.944
REMARK INTRA:                  -1.228
REMARK UNBOUND:                -1.186
REMARK SMILES COc1c(O[C@H]2O[C@H](C(=O)[O-])[C@@H](O)[C@H](O)[C@@H]2O)cc(O)c2c(=O)cc(-c3ccccc3)oc12
REMARK SMILES IDX 5 1 6 2 8 3 12 4 7 5 14 6 16 7 9 8 10 9 11 10 13 11 15 13
REMARK SMILES IDX 17 15 4 17 3 18 18 19 33 20 19 21 21 22 32 23 22 24 25 25
REMARK SMILES IDX 24 26 23 27 2 28 1 29 20 30 26 32 27 33 31 34 28 35 30 36
REMARK SMILES IDX 29 37
REMARK H PARENT 13 12 15 14 17 16 20 31
REMARK Flexibility Score: inf
ROOT
ATOM      1  O   UNL     1      56.540  11.575  -0.606  1.00  0.00    -0.458 OA
ENDROOT
BRANCH   1   2
ATOM      2  C   UNL     1      56.161  10.212  -0.388  1.00  0.00     0.339 C 
ATOM      3  C   UNL     1      55.596   9.875  -2.644  1.00  0.00     0.199 C 
ATOM      4  C   UNL     1      56.778   8.911  -2.889  1.00  0.00     0.180 C 
ATOM      5  O   UNL     1      55.150   9.800  -1.299  1.00  0.00    -0.328 OA
ATOM      6  C   UNL     1      57.921   9.246  -1.920  1.00  0.00     0.181 C 
ATOM      7  C   UNL     1      57.397   9.295  -0.474  1.00  0.00     0.214 C 
BRANCH   3   8
ATOM      8  C   UNL     1      54.447   9.533  -3.544  1.00  0.00     0.073 C 
ATOM      9  O   UNL     1      53.478   8.854  -3.111  1.00  0.00    -0.547 OA
ATOM     10  O   UNL     1      54.462   9.935  -4.874  1.00  0.00    -0.547 OA
ENDBRANCH   3   8
BRANCH   4  11
ATOM     11  O   UNL     1      57.247   9.042  -4.209  1.00  0.00    -0.387 OA
ATOM     12  H   UNL     1      56.951   9.934  -4.535  1.00  0.00     0.211 HD
ENDBRANCH   4  11
BRANCH   6  13
ATOM     13  O   UNL     1      58.935   8.281  -2.038  1.00  0.00    -0.387 OA
ATOM     14  H   UNL     1      58.494   7.393  -1.987  1.00  0.00     0.211 HD
ENDBRANCH   6  13
BRANCH   7  15
ATOM     15  O   UNL     1      57.064   7.999  -0.046  1.00  0.00    -0.384 OA
ATOM     16  H   UNL     1      57.598   7.820   0.773  1.00  0.00     0.211 HD
ENDBRANCH   7  15
ENDBRANCH   1   2
BRANCH   1  17
ATOM     17  C   UNL     1      55.713  12.690  -0.398  1.00  0.00     0.172 A 
ATOM     18  C   UNL     1      55.748  13.720  -1.340  1.00  0.00     0.205 A 
ATOM     19  C   UNL     1      54.884  12.808   0.727  1.00  0.00     0.097 A 
ATOM     20  C   UNL     1      54.908  14.840  -1.194  1.00  0.00     0.188 A 
ATOM     21  C   UNL     1      54.091  13.942   0.930  1.00  0.00     0.134 A 
ATOM     22  C   UNL     1      54.056  14.963  -0.063  1.00  0.00     0.111 A 
ATOM     23  O   UNL     1      54.903  15.769  -2.145  1.00  0.00    -0.452 OA
ATOM     24  C   UNL     1      53.192  16.085  -0.030  1.00  0.00     0.197 A 
ATOM     25  C   UNL     1      54.133  16.852  -2.117  1.00  0.00     0.138 A 
ATOM     26  C   UNL     1      53.246  17.035  -1.049  1.00  0.00     0.100 A 
ATOM     27  O   UNL     1      52.336  16.244   0.879  1.00  0.00    -0.289 OA
BRANCH  18  28
ATOM     28  O   UNL     1      56.611  13.584  -2.437  1.00  0.00    -0.490 OA
ATOM     29  C   UNL     1      56.219  13.004  -3.677  1.00  0.00     0.278 C 
ENDBRANCH  18  28
BRANCH  21  30
ATOM     30  O   UNL     1      53.386  13.997   2.137  1.00  0.00    -0.507 OA
ATOM     31  H   UNL     1      52.392  14.132   2.225  1.00  0.00     0.293 HD
ENDBRANCH  21  30
BRANCH  25  32
ATOM     32  C   UNL     1      54.224  17.819  -3.240  1.00  0.00     0.017 A 
ATOM     33  C   UNL     1      55.425  18.022  -3.951  1.00  0.00     0.012 A 
ATOM     34  C   UNL     1      53.076  18.533  -3.631  1.00  0.00     0.012 A 
ATOM     35  C   UNL     1      55.474  18.933  -5.012  1.00  0.00     0.001 A 
ATOM     36  C   UNL     1      53.133  19.446  -4.689  1.00  0.00     0.001 A 
ATOM     37  C   UNL     1      54.330  19.646  -5.377  1.00  0.00     0.000 A 
ENDBRANCH  25  32
ENDBRANCH   1  17
TORSDOF 9
ENDMDL
MODEL 8
REMARK VINA RESULT:    -5.662      4.048      8.726
REMARK INTER + INTRA:          -9.166
REMARK INTER:                  -7.966
REMARK INTRA:                  -1.199
REMARK UNBOUND:                -1.186
REMARK SMILES COc1c(O[C@H]2O[C@H](C(=O)[O-])[C@@H](O)[C@H](O)[C@@H]2O)cc(O)c2c(=O)cc(-c3ccccc3)oc12
REMARK SMILES IDX 5 1 6 2 8 3 12 4 7 5 14 6 16 7 9 8 10 9 11 10 13 11 15 13
REMARK SMILES IDX 17 15 4 17 3 18 18 19 33 20 19 21 21 22 32 23 22 24 25 25
REMARK SMILES IDX 24 26 23 27 2 28 1 29 20 30 26 32 27 33 31 34 28 35 30 36
REMARK SMILES IDX 29 37
REMARK H PARENT 13 12 15 14 17 16 20 31
REMARK Flexibility Score: inf
ROOT
ATOM      1  O   UNL     1      53.658  16.476  -3.834  1.00  0.00    -0.458 OA
ENDROOT
BRANCH   1   2
ATOM      2  C   UNL     1      54.138  17.338  -4.872  1.00  0.00     0.339 C 
ATOM      3  C   UNL     1      52.069  17.358  -5.986  1.00  0.00     0.199 C 
ATOM      4  C   UNL     1      51.805  18.844  -5.658  1.00  0.00     0.180 C 
ATOM      5  O   UNL     1      53.460  17.102  -6.099  1.00  0.00    -0.328 OA
ATOM      6  C   UNL     1      52.533  19.218  -4.358  1.00  0.00     0.181 C 
ATOM      7  C   UNL     1      54.015  18.812  -4.440  1.00  0.00     0.214 C 
BRANCH   3   8
ATOM      8  C   UNL     1      51.411  16.984  -7.280  1.00  0.00     0.073 C 
ATOM      9  O   UNL     1      51.640  15.864  -7.811  1.00  0.00    -0.547 OA
ATOM     10  O   UNL     1      50.571  17.886  -7.918  1.00  0.00    -0.547 OA
ENDBRANCH   3   8
BRANCH   4  11
ATOM     11  O   UNL     1      50.426  19.067  -5.488  1.00  0.00    -0.387 OA
ATOM     12  H   UNL     1      50.110  19.554  -6.296  1.00  0.00     0.211 HD
ENDBRANCH   4  11
BRANCH   6  13
ATOM     13  O   UNL     1      52.418  20.600  -4.135  1.00  0.00    -0.387 OA
ATOM     14  H   UNL     1      51.530  20.750  -3.717  1.00  0.00     0.211 HD
ENDBRANCH   6  13
BRANCH   7  15
ATOM     15  O   UNL     1      54.682  19.639  -5.359  1.00  0.00    -0.384 OA
ATOM     16  H   UNL     1      55.584  19.244  -5.498  1.00  0.00     0.211 HD
ENDBRANCH   7  15
ENDBRANCH   1   2
BRANCH   1  17
ATOM     17  C   UNL     1      54.462  15.668  -3.014  1.00  0.00     0.172 A 
ATOM     18  C   UNL     1      54.628  16.046  -1.679  1.00  0.00     0.205 A 
ATOM     19  C   UNL     1      55.113  14.525  -3.496  1.00  0.00     0.097 A 
ATOM     20  C   UNL     1      55.393  15.246  -0.809  1.00  0.00     0.188 A 
ATOM     21  C   UNL     1      55.934  13.751  -2.669  1.00  0.00     0.134 A 
ATOM     22  C   UNL     1      56.048  14.078  -1.287  1.00  0.00     0.111 A 
ATOM     23  O   UNL     1      55.471  15.584   0.474  1.00  0.00    -0.452 OA
ATOM     24  C   UNL     1      56.737  13.292  -0.331  1.00  0.00     0.197 A 
ATOM     25  C   UNL     1      56.146  14.887   1.382  1.00  0.00     0.138 A 
ATOM     26  C   UNL     1      56.797  13.709   0.998  1.00  0.00     0.100 A 
ATOM     27  O   UNL     1      57.275  12.194  -0.630  1.00  0.00    -0.289 OA
BRANCH  18  28
ATOM     28  O   UNL     1      53.988  17.212  -1.237  1.00  0.00    -0.490 OA
ATOM     29  C   UNL     1      52.678  17.224  -0.678  1.00  0.00     0.278 C 
ENDBRANCH  18  28
BRANCH  21  30
ATOM     30  O   UNL     1      56.615  12.696  -3.285  1.00  0.00    -0.507 OA
ATOM     31  H   UNL     1      56.240  12.104  -4.009  1.00  0.00     0.293 HD
ENDBRANCH  21  30
BRANCH  25  32
ATOM     32  C   UNL     1      56.160  15.374   2.785  1.00  0.00     0.017 A 
ATOM     33  C   UNL     1      57.212  16.168   3.287  1.00  0.00     0.012 A 
ATOM     34  C   UNL     1      55.082  15.063   3.635  1.00  0.00     0.012 A 
ATOM     35  C   UNL     1      57.189  16.620   4.611  1.00  0.00     0.001 A 
ATOM     36  C   UNL     1      55.067  15.514   4.958  1.00  0.00     0.001 A 
ATOM     37  C   UNL     1      56.120  16.290   5.446  1.00  0.00     0.000 A 
ENDBRANCH  25  32
ENDBRANCH   1  17
TORSDOF 9
ENDMDL
MODEL 9
REMARK VINA RESULT:    -5.593      3.556      8.880
REMARK INTER + INTRA:          -9.067
REMARK INTER:                  -7.691
REMARK INTRA:                  -1.376
REMARK UNBOUND:                -1.186
REMARK SMILES COc1c(O[C@H]2O[C@H](C(=O)[O-])[C@@H](O)[C@H](O)[C@@H]2O)cc(O)c2c(=O)cc(-c3ccccc3)oc12
REMARK SMILES IDX 5 1 6 2 8 3 12 4 7 5 14 6 16 7 9 8 10 9 11 10 13 11 15 13
REMARK SMILES IDX 17 15 4 17 3 18 18 19 33 20 19 21 21 22 32 23 22 24 25 25
REMARK SMILES IDX 24 26 23 27 2 28 1 29 20 30 26 32 27 33 31 34 28 35 30 36
REMARK SMILES IDX 29 37
REMARK H PARENT 13 12 15 14 17 16 20 31
REMARK Flexibility Score: inf
ROOT
ATOM      1  O   UNL     1      54.654  15.978  -3.340  1.00  0.00    -0.458 OA
ENDROOT
BRANCH   1   2
ATOM      2  C   UNL     1      53.775  16.276  -4.430  1.00  0.00     0.339 C 
ATOM      3  C   UNL     1      52.384  17.629  -3.105  1.00  0.00     0.199 C 
ATOM      4  C   UNL     1      52.801  18.926  -3.833  1.00  0.00     0.180 C 
ATOM      5  O   UNL     1      52.448  16.513  -3.979  1.00  0.00    -0.328 OA
ATOM      6  C   UNL     1      54.219  18.762  -4.399  1.00  0.00     0.181 C 
ATOM      7  C   UNL     1      54.313  17.474  -5.236  1.00  0.00     0.214 C 
BRANCH   3   8
ATOM      8  C   UNL     1      50.981  17.747  -2.589  1.00  0.00     0.073 C 
ATOM      9  O   UNL     1      50.038  17.142  -3.164  1.00  0.00    -0.547 OA
ATOM     10  O   UNL     1      50.710  18.554  -1.492  1.00  0.00    -0.547 OA
ENDBRANCH   3   8
BRANCH   4  11
ATOM     11  O   UNL     1      52.791  20.011  -2.937  1.00  0.00    -0.387 OA
ATOM     12  H   UNL     1      52.521  20.815  -3.457  1.00  0.00     0.211 HD
ENDBRANCH   4  11
BRANCH   6  13
ATOM     13  O   UNL     1      54.544  19.879  -5.185  1.00  0.00    -0.387 OA
ATOM     14  H   UNL     1      54.437  20.678  -4.606  1.00  0.00     0.211 HD
ENDBRANCH   6  13
BRANCH   7  15
ATOM     15  O   UNL     1      53.575  17.625  -6.422  1.00  0.00    -0.384 OA
ATOM     16  H   UNL     1      54.099  17.187  -7.145  1.00  0.00     0.211 HD
ENDBRANCH   7  15
ENDBRANCH   1   2
BRANCH   1  17
ATOM     17  C   UNL     1      54.941  14.691  -2.857  1.00  0.00     0.172 A 
ATOM     18  C   UNL     1      54.282  14.260  -1.704  1.00  0.00     0.205 A 
ATOM     19  C   UNL     1      55.876  13.850  -3.476  1.00  0.00     0.097 A 
ATOM     20  C   UNL     1      54.508  12.963  -1.205  1.00  0.00     0.188 A 
ATOM     21  C   UNL     1      56.169  12.584  -2.961  1.00  0.00     0.134 A 
ATOM     22  C   UNL     1      55.446  12.099  -1.833  1.00  0.00     0.111 A 
ATOM     23  O   UNL     1      53.811  12.548  -0.152  1.00  0.00    -0.452 OA
ATOM     24  C   UNL     1      55.560  10.787  -1.310  1.00  0.00     0.197 A 
ATOM     25  C   UNL     1      53.929  11.338   0.383  1.00  0.00     0.138 A 
ATOM     26  C   UNL     1      54.813  10.417  -0.193  1.00  0.00     0.100 A 
ATOM     27  O   UNL     1      56.293   9.915  -1.845  1.00  0.00    -0.289 OA
BRANCH  18  28
ATOM     28  O   UNL     1      53.377  15.138  -1.091  1.00  0.00    -0.490 OA
ATOM     29  C   UNL     1      53.732  16.010  -0.022  1.00  0.00     0.278 C 
ENDBRANCH  18  28
BRANCH  21  30
ATOM     30  O   UNL     1      57.193  11.877  -3.600  1.00  0.00    -0.507 OA
ATOM     31  H   UNL     1      58.171  11.930  -3.365  1.00  0.00     0.293 HD
ENDBRANCH  21  30
BRANCH  25  32
ATOM     32  C   UNL     1      53.095  10.997   1.563  1.00  0.00     0.017 A 
ATOM     33  C   UNL     1      53.393   9.896   2.392  1.00  0.00     0.012 A 
ATOM     34  C   UNL     1      51.993  11.810   1.888  1.00  0.00     0.012 A 
ATOM     35  C   UNL     1      52.592   9.609   3.503  1.00  0.00     0.001 A 
ATOM     36  C   UNL     1      51.194  11.516   2.997  1.00  0.00     0.001 A 
ATOM     37  C   UNL     1      51.493  10.416   3.803  1.00  0.00     0.000 A 
ENDBRANCH  25  32
ENDBRANCH   1  17
TORSDOF 9
ENDMDL
