MODEL 1
REMARK VINA RESULT:    -3.514      0.000      0.000
REMARK INTER + INTRA:          -6.120
REMARK INTER:                  -5.569
REMARK INTRA:                  -0.551
REMARK UNBOUND:                -0.551
REMARK SMILES CCCCCCCCCCCC(=O)[O-]
REMARK SMILES IDX 7 1 8 2 9 3 10 4 11 5 12 6 13 7 14 8 6 9 5 10 4 11 3 12 2 13
REMARK SMILES IDX 1 14
REMARK H PARENT
REMARK Flexibility Score: inf
ROOT
ATOM      1  C   UNL     1      24.968  62.983  76.920  1.00  0.00     0.000 C 
ENDROOT
BRANCH   1   2
ATOM      2  C   UNL     1      26.289  62.225  76.722  1.00  0.00     0.000 C 
BRANCH   2   3
ATOM      3  C   UNL     1      26.461  61.135  77.788  1.00  0.00     0.000 C 
BRANCH   3   4
ATOM      4  C   UNL     1      27.640  61.453  78.716  1.00  0.00     0.006 C 
BRANCH   4   5
ATOM      5  C   UNL     1      28.935  60.823  78.195  1.00  0.00     0.053 C 
BRANCH   5   6
ATOM      6  C   UNL     1      29.084  59.428  78.711  1.00  0.00     0.041 C 
ATOM      7  O   UNL     1      29.502  59.226  79.882  1.00  0.00    -0.550 OA
ATOM      8  O   UNL     1      28.808  58.347  77.883  1.00  0.00    -0.550 OA
ENDBRANCH   5   6
ENDBRANCH   4   5
ENDBRANCH   3   4
ENDBRANCH   2   3
ENDBRANCH   1   2
BRANCH   1   9
ATOM      9  C   UNL     1      25.021  64.417  76.370  1.00  0.00     0.000 C 
BRANCH   9  10
ATOM     10  C   UNL     1      26.252  64.663  75.479  1.00  0.00    -0.000 C 
BRANCH  10  11
ATOM     11  C   UNL     1      26.259  66.066  74.851  1.00  0.00    -0.000 C 
BRANCH  11  12
ATOM     12  C   UNL     1      26.170  67.184  75.904  1.00  0.00    -0.000 C 
BRANCH  12  13
ATOM     13  C   UNL     1      24.937  68.081  75.707  1.00  0.00    -0.003 C 
ATOM     14  C   UNL     1      24.272  68.473  77.026  1.00  0.00     0.004 C 
ENDBRANCH  12  13
ENDBRANCH  11  12
ENDBRANCH  10  11
ENDBRANCH   9  10
ENDBRANCH   1   9
TORSDOF 10
ENDMDL
MODEL 2
REMARK VINA RESULT:    -3.494      8.362     10.905
REMARK INTER + INTRA:          -6.088
REMARK INTER:                  -5.391
REMARK INTRA:                  -0.696
REMARK UNBOUND:                -0.551
REMARK SMILES CCCCCCCCCCCC(=O)[O-]
REMARK SMILES IDX 7 1 8 2 9 3 10 4 11 5 12 6 13 7 14 8 6 9 5 10 4 11 3 12 2 13
REMARK SMILES IDX 1 14
REMARK H PARENT
REMARK Flexibility Score: inf
ROOT
ATOM      1  C   UNL     1      31.024  57.894  85.929  1.00  0.00     0.000 C 
ENDROOT
BRANCH   1   2
ATOM      2  C   UNL     1      32.125  56.875  85.599  1.00  0.00     0.000 C 
BRANCH   2   3
ATOM      3  C   UNL     1      32.713  57.133  84.206  1.00  0.00     0.000 C 
BRANCH   3   4
ATOM      4  C   UNL     1      31.653  56.942  83.115  1.00  0.00     0.006 C 
BRANCH   4   5
ATOM      5  C   UNL     1      31.751  58.042  82.055  1.00  0.00     0.053 C 
BRANCH   5   6
ATOM      6  C   UNL     1      30.430  58.721  81.881  1.00  0.00     0.041 C 
ATOM      7  O   UNL     1      29.837  59.220  82.873  1.00  0.00    -0.550 OA
ATOM      8  O   UNL     1      29.829  58.761  80.629  1.00  0.00    -0.550 OA
ENDBRANCH   5   6
ENDBRANCH   4   5
ENDBRANCH   3   4
ENDBRANCH   2   3
ENDBRANCH   1   2
BRANCH   1   9
ATOM      9  C   UNL     1      29.916  57.302  86.813  1.00  0.00     0.000 C 
BRANCH   9  10
ATOM     10  C   UNL     1      28.522  57.852  86.461  1.00  0.00    -0.000 C 
BRANCH  10  11
ATOM     11  C   UNL     1      27.591  57.934  87.683  1.00  0.00    -0.000 C 
BRANCH  11  12
ATOM     12  C   UNL     1      27.273  59.385  88.084  1.00  0.00    -0.000 C 
BRANCH  12  13
ATOM     13  C   UNL     1      27.776  60.406  87.052  1.00  0.00    -0.003 C 
ATOM     14  C   UNL     1      28.067  61.776  87.665  1.00  0.00     0.004 C 
ENDBRANCH  12  13
ENDBRANCH  11  12
ENDBRANCH  10  11
ENDBRANCH   9  10
ENDBRANCH   1   9
TORSDOF 10
ENDMDL
MODEL 3
REMARK VINA RESULT:    -3.477      2.145      2.623
REMARK INTER + INTRA:          -6.062
REMARK INTER:                  -5.222
REMARK INTRA:                  -0.840
REMARK UNBOUND:                -0.551
REMARK SMILES CCCCCCCCCCCC(=O)[O-]
REMARK SMILES IDX 7 1 8 2 9 3 10 4 11 5 12 6 13 7 14 8 6 9 5 10 4 11 3 12 2 13
REMARK SMILES IDX 1 14
REMARK H PARENT
REMARK Flexibility Score: inf
ROOT
ATOM      1  C   UNL     1      24.268  63.955  77.129  1.00  0.00     0.000 C 
ENDROOT
BRANCH   1   2
ATOM      2  C   UNL     1      24.232  63.588  78.620  1.00  0.00     0.000 C 
BRANCH   2   3
ATOM      3  C   UNL     1      24.290  62.067  78.813  1.00  0.00     0.000 C 
BRANCH   3   4
ATOM      4  C   UNL     1      24.711  61.709  80.243  1.00  0.00     0.006 C 
BRANCH   4   5
ATOM      5  C   UNL     1      25.896  62.564  80.697  1.00  0.00     0.053 C 
BRANCH   5   6
ATOM      6  C   UNL     1      27.179  61.811  80.536  1.00  0.00     0.041 C 
ATOM      7  O   UNL     1      27.789  61.825  79.435  1.00  0.00    -0.550 OA
ATOM      8  O   UNL     1      27.676  61.052  81.589  1.00  0.00    -0.550 OA
ENDBRANCH   5   6
ENDBRANCH   4   5
ENDBRANCH   3   4
ENDBRANCH   2   3
ENDBRANCH   1   2
BRANCH   1   9
ATOM      9  C   UNL     1      25.468  63.334  76.396  1.00  0.00     0.000 C 
BRANCH   9  10
ATOM     10  C   UNL     1      26.246  64.365  75.559  1.00  0.00    -0.000 C 
BRANCH  10  11
ATOM     11  C   UNL     1      25.466  65.673  75.355  1.00  0.00    -0.000 C 
BRANCH  11  12
ATOM     12  C   UNL     1      26.342  66.921  75.563  1.00  0.00    -0.000 C 
BRANCH  12  13
ATOM     13  C   UNL     1      25.576  68.072  76.234  1.00  0.00    -0.003 C 
ATOM     14  C   UNL     1      24.289  67.611  76.918  1.00  0.00     0.004 C 
ENDBRANCH  12  13
ENDBRANCH  11  12
ENDBRANCH  10  11
ENDBRANCH   9  10
ENDBRANCH   1   9
TORSDOF 10
ENDMDL
MODEL 4
REMARK VINA RESULT:    -3.468      1.465      2.192
REMARK INTER + INTRA:          -6.047
REMARK INTER:                  -5.096
REMARK INTRA:                  -0.950
REMARK UNBOUND:                -0.551
REMARK SMILES CCCCCCCCCCCC(=O)[O-]
REMARK SMILES IDX 7 1 8 2 9 3 10 4 11 5 12 6 13 7 14 8 6 9 5 10 4 11 3 12 2 13
REMARK SMILES IDX 1 14
REMARK H PARENT
REMARK Flexibility Score: inf
ROOT
ATOM      1  C   UNL     1      25.727  63.301  74.801  1.00  0.00     0.000 C 
ENDROOT
BRANCH   1   2
ATOM      2  C   UNL     1      24.668  62.885  75.832  1.00  0.00     0.000 C 
BRANCH   2   3
ATOM      3  C   UNL     1      25.123  63.226  77.256  1.00  0.00     0.000 C 
BRANCH   3   4
ATOM      4  C   UNL     1      25.551  61.965  78.016  1.00  0.00     0.006 C 
BRANCH   4   5
ATOM      5  C   UNL     1      26.954  61.519  77.595  1.00  0.00     0.053 C 
BRANCH   5   6
ATOM      6  C   UNL     1      27.828  61.336  78.796  1.00  0.00     0.041 C 
ATOM      7  O   UNL     1      28.877  60.644  78.717  1.00  0.00    -0.550 OA
ATOM      8  O   UNL     1      27.457  61.889  80.015  1.00  0.00    -0.550 OA
ENDBRANCH   5   6
ENDBRANCH   4   5
ENDBRANCH   3   4
ENDBRANCH   2   3
ENDBRANCH   1   2
BRANCH   1   9
ATOM      9  C   UNL     1      25.167  64.246  73.726  1.00  0.00     0.000 C 
BRANCH   9  10
ATOM     10  C   UNL     1      25.828  65.635  73.759  1.00  0.00    -0.000 C 
BRANCH  10  11
ATOM     11  C   UNL     1      26.679  65.857  75.019  1.00  0.00    -0.000 C 
BRANCH  11  12
ATOM     12  C   UNL     1      26.218  67.076  75.836  1.00  0.00    -0.000 C 
BRANCH  12  13
ATOM     13  C   UNL     1      24.688  67.220  75.866  1.00  0.00    -0.003 C 
ATOM     14  C   UNL     1      24.114  67.166  77.282  1.00  0.00     0.004 C 
ENDBRANCH  12  13
ENDBRANCH  11  12
ENDBRANCH  10  11
ENDBRANCH   9  10
ENDBRANCH   1   9
TORSDOF 10
ENDMDL
MODEL 5
REMARK VINA RESULT:    -3.460      4.464      7.260
REMARK INTER + INTRA:          -6.034
REMARK INTER:                  -5.453
REMARK INTRA:                  -0.582
REMARK UNBOUND:                -0.551
REMARK SMILES CCCCCCCCCCCC(=O)[O-]
REMARK SMILES IDX 7 1 8 2 9 3 10 4 11 5 12 6 13 7 14 8 6 9 5 10 4 11 3 12 2 13
REMARK SMILES IDX 1 14
REMARK H PARENT
REMARK Flexibility Score: inf
ROOT
ATOM      1  C   UNL     1      24.809  63.439  77.216  1.00  0.00     0.000 C 
ENDROOT
BRANCH   1   2
ATOM      2  C   UNL     1      24.679  64.593  76.211  1.00  0.00     0.000 C 
BRANCH   2   3
ATOM      3  C   UNL     1      26.028  64.898  75.547  1.00  0.00     0.000 C 
BRANCH   3   4
ATOM      4  C   UNL     1      26.013  66.276  74.876  1.00  0.00     0.006 C 
BRANCH   4   5
ATOM      5  C   UNL     1      26.241  67.389  75.902  1.00  0.00     0.053 C 
BRANCH   5   6
ATOM      6  C   UNL     1      24.974  68.149  76.141  1.00  0.00     0.041 C 
ATOM      7  O   UNL     1      24.507  68.254  77.305  1.00  0.00    -0.550 OA
ATOM      8  O   UNL     1      24.283  68.701  75.069  1.00  0.00    -0.550 OA
ENDBRANCH   5   6
ENDBRANCH   4   5
ENDBRANCH   3   4
ENDBRANCH   2   3
ENDBRANCH   1   2
BRANCH   1   9
ATOM      9  C   UNL     1      25.951  62.472  76.861  1.00  0.00     0.000 C 
BRANCH   9  10
ATOM     10  C   UNL     1      26.521  61.754  78.097  1.00  0.00    -0.000 C 
BRANCH  10  11
ATOM     11  C   UNL     1      25.454  61.481  79.170  1.00  0.00    -0.000 C 
BRANCH  11  12
ATOM     12  C   UNL     1      25.818  62.095  80.533  1.00  0.00    -0.000 C 
BRANCH  12  13
ATOM     13  C   UNL     1      27.296  61.888  80.896  1.00  0.00    -0.003 C 
ATOM     14  C   UNL     1      27.507  61.597  82.382  1.00  0.00     0.004 C 
ENDBRANCH  12  13
ENDBRANCH  11  12
ENDBRANCH  10  11
ENDBRANCH   9  10
ENDBRANCH   1   9
TORSDOF 10
ENDMDL
MODEL 6
REMARK VINA RESULT:    -3.422      8.490     10.426
REMARK INTER + INTRA:          -5.974
REMARK INTER:                  -4.570
REMARK INTRA:                  -1.405
REMARK UNBOUND:                -0.551
REMARK SMILES CCCCCCCCCCCC(=O)[O-]
REMARK SMILES IDX 7 1 8 2 9 3 10 4 11 5 12 6 13 7 14 8 6 9 5 10 4 11 3 12 2 13
REMARK SMILES IDX 1 14
REMARK H PARENT
REMARK Flexibility Score: inf
ROOT
ATOM      1  C   UNL     1      29.929  57.388  86.682  1.00  0.00     0.000 C 
ENDROOT
BRANCH   1   2
ATOM      2  C   UNL     1      29.989  58.031  85.289  1.00  0.00     0.000 C 
BRANCH   2   3
ATOM      3  C   UNL     1      28.793  57.599  84.432  1.00  0.00     0.000 C 
BRANCH   3   4
ATOM      4  C   UNL     1      28.790  58.328  83.083  1.00  0.00     0.006 C 
BRANCH   4   5
ATOM      5  C   UNL     1      30.085  59.118  82.882  1.00  0.00     0.053 C 
BRANCH   5   6
ATOM      6  C   UNL     1      30.893  58.526  81.771  1.00  0.00     0.041 C 
ATOM      7  O   UNL     1      31.919  57.842  82.027  1.00  0.00    -0.550 OA
ATOM      8  O   UNL     1      30.542  58.771  80.449  1.00  0.00    -0.550 OA
ENDBRANCH   5   6
ENDBRANCH   4   5
ENDBRANCH   3   4
ENDBRANCH   2   3
ENDBRANCH   1   2
BRANCH   1   9
ATOM      9  C   UNL     1      28.488  57.165  87.168  1.00  0.00     0.000 C 
BRANCH   9  10
ATOM     10  C   UNL     1      28.124  58.060  88.367  1.00  0.00    -0.000 C 
BRANCH  10  11
ATOM     11  C   UNL     1      27.125  59.169  87.997  1.00  0.00    -0.000 C 
BRANCH  11  12
ATOM     12  C   UNL     1      27.817  60.423  87.435  1.00  0.00    -0.000 C 
BRANCH  12  13
ATOM     13  C   UNL     1      27.329  60.780  86.022  1.00  0.00    -0.003 C 
ATOM     14  C   UNL     1      26.152  59.920  85.564  1.00  0.00     0.004 C 
ENDBRANCH  12  13
ENDBRANCH  11  12
ENDBRANCH  10  11
ENDBRANCH   9  10
ENDBRANCH   1   9
TORSDOF 10
ENDMDL
MODEL 7
REMARK VINA RESULT:    -3.402      8.556     10.679
REMARK INTER + INTRA:          -5.942
REMARK INTER:                  -4.706
REMARK INTRA:                  -1.237
REMARK UNBOUND:                -0.551
REMARK SMILES CCCCCCCCCCCC(=O)[O-]
REMARK SMILES IDX 7 1 8 2 9 3 10 4 11 5 12 6 13 7 14 8 6 9 5 10 4 11 3 12 2 13
REMARK SMILES IDX 1 14
REMARK H PARENT
REMARK Flexibility Score: inf
ROOT
ATOM      1  C   UNL     1      32.349  57.176  84.644  1.00  0.00     0.000 C 
ENDROOT
BRANCH   1   2
ATOM      2  C   UNL     1      31.412  57.130  85.859  1.00  0.00     0.000 C 
BRANCH   2   3
ATOM      3  C   UNL     1      30.582  58.416  85.963  1.00  0.00     0.000 C 
BRANCH   3   4
ATOM      4  C   UNL     1      29.167  58.120  86.472  1.00  0.00     0.006 C 
BRANCH   4   5
ATOM      5  C   UNL     1      28.205  59.254  86.111  1.00  0.00     0.053 C 
BRANCH   5   6
ATOM      6  C   UNL     1      27.901  60.087  87.316  1.00  0.00     0.041 C 
ATOM      7  O   UNL     1      27.095  59.670  88.189  1.00  0.00    -0.550 OA
ATOM      8  O   UNL     1      28.469  61.348  87.451  1.00  0.00    -0.550 OA
ENDBRANCH   5   6
ENDBRANCH   4   5
ENDBRANCH   3   4
ENDBRANCH   2   3
ENDBRANCH   1   2
BRANCH   1   9
ATOM      9  C   UNL     1      31.610  56.937  83.318  1.00  0.00     0.000 C 
BRANCH   9  10
ATOM     10  C   UNL     1      32.100  57.865  82.192  1.00  0.00    -0.000 C 
BRANCH  10  11
ATOM     11  C   UNL     1      30.952  58.621  81.504  1.00  0.00    -0.000 C 
BRANCH  11  12
ATOM     12  C   UNL     1      29.848  59.041  82.490  1.00  0.00    -0.000 C 
BRANCH  12  13
ATOM     13  C   UNL     1      28.453  58.573  82.046  1.00  0.00    -0.003 C 
ATOM     14  C   UNL     1      27.924  57.407  82.881  1.00  0.00     0.004 C 
ENDBRANCH  12  13
ENDBRANCH  11  12
ENDBRANCH  10  11
ENDBRANCH   9  10
ENDBRANCH   1   9
TORSDOF 10
ENDMDL
MODEL 8
REMARK VINA RESULT:    -3.398      7.239      9.320
REMARK INTER + INTRA:          -5.935
REMARK INTER:                  -4.595
REMARK INTRA:                  -1.340
REMARK UNBOUND:                -0.551
REMARK SMILES CCCCCCCCCCCC(=O)[O-]
REMARK SMILES IDX 7 1 8 2 9 3 10 4 11 5 12 6 13 7 14 8 6 9 5 10 4 11 3 12 2 13
REMARK SMILES IDX 1 14
REMARK H PARENT
REMARK Flexibility Score: inf
ROOT
ATOM      1  C   UNL     1      25.934  61.298  84.493  1.00  0.00     0.000 C 
ENDROOT
BRANCH   1   2
ATOM      2  C   UNL     1      27.189  61.437  83.619  1.00  0.00     0.000 C 
BRANCH   2   3
ATOM      3  C   UNL     1      27.423  60.170  82.787  1.00  0.00     0.000 C 
BRANCH   3   4
ATOM      4  C   UNL     1      28.806  59.573  83.069  1.00  0.00     0.006 C 
BRANCH   4   5
ATOM      5  C   UNL     1      29.223  58.604  81.959  1.00  0.00     0.053 C 
BRANCH   5   6
ATOM      6  C   UNL     1      30.712  58.456  81.925  1.00  0.00     0.041 C 
ATOM      7  O   UNL     1      31.382  58.994  81.005  1.00  0.00    -0.550 OA
ATOM      8  O   UNL     1      31.355  57.681  82.882  1.00  0.00    -0.550 OA
ENDBRANCH   5   6
ENDBRANCH   4   5
ENDBRANCH   3   4
ENDBRANCH   2   3
ENDBRANCH   1   2
BRANCH   1   9
ATOM      9  C   UNL     1      25.446  59.844  84.599  1.00  0.00     0.000 C 
BRANCH   9  10
ATOM     10  C   UNL     1      25.640  59.257  86.009  1.00  0.00    -0.000 C 
BRANCH  10  11
ATOM     11  C   UNL     1      26.930  58.432  86.135  1.00  0.00    -0.000 C 
BRANCH  11  12
ATOM     12  C   UNL     1      28.088  59.236  86.752  1.00  0.00    -0.000 C 
BRANCH  12  13
ATOM     13  C   UNL     1      27.605  60.256  87.795  1.00  0.00    -0.003 C 
ATOM     14  C   UNL     1      28.108  61.673  87.518  1.00  0.00     0.004 C 
ENDBRANCH  12  13
ENDBRANCH  11  12
ENDBRANCH  10  11
ENDBRANCH   9  10
ENDBRANCH   1   9
TORSDOF 10
ENDMDL
MODEL 9
REMARK VINA RESULT:    -3.389      7.699      9.892
REMARK INTER + INTRA:          -5.921
REMARK INTER:                  -4.535
REMARK INTRA:                  -1.386
REMARK UNBOUND:                -0.551
REMARK SMILES CCCCCCCCCCCC(=O)[O-]
REMARK SMILES IDX 7 1 8 2 9 3 10 4 11 5 12 6 13 7 14 8 6 9 5 10 4 11 3 12 2 13
REMARK SMILES IDX 1 14
REMARK H PARENT
REMARK Flexibility Score: inf
ROOT
ATOM      1  C   UNL     1      26.941  60.754  83.818  1.00  0.00     0.000 C 
ENDROOT
BRANCH   1   2
ATOM      2  C   UNL     1      26.661  59.244  83.849  1.00  0.00     0.000 C 
BRANCH   2   3
ATOM      3  C   UNL     1      27.777  58.464  83.143  1.00  0.00     0.000 C 
BRANCH   3   4
ATOM      4  C   UNL     1      29.014  59.344  82.928  1.00  0.00     0.006 C 
BRANCH   4   5
ATOM      5  C   UNL     1      30.301  58.546  83.150  1.00  0.00     0.053 C 
BRANCH   5   6
ATOM      6  C   UNL     1      31.083  58.446  81.879  1.00  0.00     0.041 C 
ATOM      7  O   UNL     1      30.526  58.667  80.772  1.00  0.00    -0.550 OA
ATOM      8  O   UNL     1      32.418  58.061  81.913  1.00  0.00    -0.550 OA
ENDBRANCH   5   6
ENDBRANCH   4   5
ENDBRANCH   3   4
ENDBRANCH   2   3
ENDBRANCH   1   2
BRANCH   1   9
ATOM      9  C   UNL     1      26.857  61.399  85.211  1.00  0.00     0.000 C 
BRANCH   9  10
ATOM     10  C   UNL     1      26.926  60.363  86.347  1.00  0.00    -0.000 C 
BRANCH  10  11
ATOM     11  C   UNL     1      28.285  60.362  87.066  1.00  0.00    -0.000 C 
BRANCH  11  12
ATOM     12  C   UNL     1      29.157  59.155  86.678  1.00  0.00    -0.000 C 
BRANCH  12  13
ATOM     13  C   UNL     1      28.432  57.816  86.881  1.00  0.00    -0.003 C 
ATOM     14  C   UNL     1      28.407  57.370  88.344  1.00  0.00     0.004 C 
ENDBRANCH  12  13
ENDBRANCH  11  12
ENDBRANCH  10  11
ENDBRANCH   9  10
ENDBRANCH   1   9
TORSDOF 10
ENDMDL
