MODEL 1
REMARK VINA RESULT:    -5.824      0.000      0.000
REMARK INTER + INTRA:          -5.824
REMARK INTER:                  -5.824
REMARK INTRA:                   0.000
REMARK UNBOUND:                 0.000
REMARK SMILES O=c1ccc2ccccc2o1
REMARK SMILES IDX 7 1 8 2 9 3 10 4 5 5 6 6 4 7 3 8 2 9 1 10 11 11
REMARK H PARENT
REMARK Flexibility Score: inf
ROOT
ATOM      1  C   UNL     1     -32.878  11.146 -31.763  1.00  0.00     0.001 A 
ATOM      2  C   UNL     1     -32.179   9.952 -31.971  1.00  0.00     0.004 A 
ATOM      3  C   UNL     1     -32.064   9.418 -33.259  1.00  0.00     0.048 A 
ATOM      4  C   UNL     1     -32.648  10.079 -34.346  1.00  0.00     0.138 A 
ATOM      5  C   UNL     1     -33.354  11.285 -34.136  1.00  0.00     0.018 A 
ATOM      6  C   UNL     1     -33.466  11.814 -32.842  1.00  0.00     0.012 A 
ATOM      7  C   UNL     1     -33.927  11.922 -35.241  1.00  0.00     0.019 A 
ATOM      8  C   UNL     1     -33.788  11.354 -36.506  1.00  0.00     0.094 A 
ATOM      9  C   UNL     1     -33.075  10.157 -36.638  1.00  0.00     0.336 A 
ATOM     10  O   UNL     1     -32.938   9.629 -37.773  1.00  0.00    -0.246 OA
ATOM     11  O   UNL     1     -32.539   9.570 -35.571  1.00  0.00    -0.423 OA
ENDROOT
TORSDOF 0
ENDMDL
MODEL 2
REMARK VINA RESULT:    -5.811      1.364      2.205
REMARK INTER + INTRA:          -5.811
REMARK INTER:                  -5.811
REMARK INTRA:                   0.000
REMARK UNBOUND:                 0.000
REMARK SMILES O=c1ccc2ccccc2o1
REMARK SMILES IDX 7 1 8 2 9 3 10 4 5 5 6 6 4 7 3 8 2 9 1 10 11 11
REMARK H PARENT
REMARK Flexibility Score: inf
ROOT
ATOM      1  C   UNL     1     -32.132   9.676 -32.178  1.00  0.00     0.001 A 
ATOM      2  C   UNL     1     -32.818  10.843 -31.826  1.00  0.00     0.004 A 
ATOM      3  C   UNL     1     -33.441  11.618 -32.809  1.00  0.00     0.048 A 
ATOM      4  C   UNL     1     -33.379  11.228 -34.152  1.00  0.00     0.138 A 
ATOM      5  C   UNL     1     -32.686  10.050 -34.509  1.00  0.00     0.018 A 
ATOM      6  C   UNL     1     -32.064   9.277 -33.517  1.00  0.00     0.012 A 
ATOM      7  C   UNL     1     -32.642   9.685 -35.858  1.00  0.00     0.019 A 
ATOM      8  C   UNL     1     -33.277  10.489 -36.804  1.00  0.00     0.094 A 
ATOM      9  C   UNL     1     -33.944  11.642 -36.378  1.00  0.00     0.336 A 
ATOM     10  O   UNL     1     -34.524  12.380 -37.218  1.00  0.00    -0.246 OA
ATOM     11  O   UNL     1     -33.972  11.967 -35.087  1.00  0.00    -0.423 OA
ENDROOT
TORSDOF 0
ENDMDL
MODEL 3
REMARK VINA RESULT:    -5.505      2.004      4.251
REMARK INTER + INTRA:          -5.505
REMARK INTER:                  -5.505
REMARK INTRA:                   0.000
REMARK UNBOUND:                 0.000
REMARK SMILES O=c1ccc2ccccc2o1
REMARK SMILES IDX 7 1 8 2 9 3 10 4 5 5 6 6 4 7 3 8 2 9 1 10 11 11
REMARK H PARENT
REMARK Flexibility Score: inf
ROOT
ATOM      1  C   UNL     1     -32.157   8.995 -36.309  1.00  0.00     0.001 A 
ATOM      2  C   UNL     1     -33.079   9.959 -36.730  1.00  0.00     0.004 A 
ATOM      3  C   UNL     1     -33.652  10.838 -35.805  1.00  0.00     0.048 A 
ATOM      4  C   UNL     1     -33.304  10.754 -34.451  1.00  0.00     0.138 A 
ATOM      5  C   UNL     1     -32.373   9.780 -34.025  1.00  0.00     0.018 A 
ATOM      6  C   UNL     1     -31.803   8.903 -34.959  1.00  0.00     0.012 A 
ATOM      7  C   UNL     1     -32.046   9.721 -32.667  1.00  0.00     0.019 A 
ATOM      8  C   UNL     1     -32.642  10.617 -31.781  1.00  0.00     0.094 A 
ATOM      9  C   UNL     1     -33.555  11.555 -32.274  1.00  0.00     0.336 A 
ATOM     10  O   UNL     1     -34.103  12.372 -31.488  1.00  0.00    -0.246 OA
ATOM     11  O   UNL     1     -33.850  11.590 -33.571  1.00  0.00    -0.423 OA
ENDROOT
TORSDOF 0
ENDMDL
MODEL 4
REMARK VINA RESULT:    -5.461      1.002      2.165
REMARK INTER + INTRA:          -5.461
REMARK INTER:                  -5.461
REMARK INTRA:                   0.000
REMARK UNBOUND:                 0.000
REMARK SMILES O=c1ccc2ccccc2o1
REMARK SMILES IDX 7 1 8 2 9 3 10 4 5 5 6 6 4 7 3 8 2 9 1 10 11 11
REMARK H PARENT
REMARK Flexibility Score: inf
ROOT
ATOM      1  C   UNL     1     -32.505  10.823 -31.362  1.00  0.00     0.001 A 
ATOM      2  C   UNL     1     -33.352  11.803 -31.890  1.00  0.00     0.004 A 
ATOM      3  C   UNL     1     -33.659  11.808 -33.255  1.00  0.00     0.048 A 
ATOM      4  C   UNL     1     -33.119  10.830 -34.098  1.00  0.00     0.138 A 
ATOM      5  C   UNL     1     -32.264   9.839 -33.565  1.00  0.00     0.018 A 
ATOM      6  C   UNL     1     -31.960   9.841 -32.195  1.00  0.00     0.012 A 
ATOM      7  C   UNL     1     -31.740   8.875 -34.431  1.00  0.00     0.019 A 
ATOM      8  C   UNL     1     -32.073   8.919 -35.784  1.00  0.00     0.094 A 
ATOM      9  C   UNL     1     -32.926   9.929 -36.242  1.00  0.00     0.336 A 
ATOM     10  O   UNL     1     -33.238   9.984 -37.460  1.00  0.00    -0.246 OA
ATOM     11  O   UNL     1     -33.411  10.835 -35.396  1.00  0.00    -0.423 OA
ENDROOT
TORSDOF 0
ENDMDL
MODEL 5
REMARK VINA RESULT:    -5.265      1.476      3.919
REMARK INTER + INTRA:          -5.265
REMARK INTER:                  -5.265
REMARK INTRA:                   0.000
REMARK UNBOUND:                 0.000
REMARK SMILES O=c1ccc2ccccc2o1
REMARK SMILES IDX 7 1 8 2 9 3 10 4 5 5 6 6 4 7 3 8 2 9 1 10 11 11
REMARK H PARENT
REMARK Flexibility Score: inf
ROOT
ATOM      1  C   UNL     1     -34.799  11.503 -37.752  1.00  0.00     0.001 A 
ATOM      2  C   UNL     1     -34.741  10.113 -37.898  1.00  0.00     0.004 A 
ATOM      3  C   UNL     1     -34.218   9.319 -36.873  1.00  0.00     0.048 A 
ATOM      4  C   UNL     1     -33.749   9.914 -35.696  1.00  0.00     0.138 A 
ATOM      5  C   UNL     1     -33.808  11.318 -35.548  1.00  0.00     0.018 A 
ATOM      6  C   UNL     1     -34.334  12.108 -36.580  1.00  0.00     0.012 A 
ATOM      7  C   UNL     1     -33.332  11.883 -34.361  1.00  0.00     0.019 A 
ATOM      8  C   UNL     1     -32.818  11.053 -33.366  1.00  0.00     0.094 A 
ATOM      9  C   UNL     1     -32.792   9.671 -33.582  1.00  0.00     0.336 A 
ATOM     10  O   UNL     1     -32.331   8.905 -32.694  1.00  0.00    -0.246 OA
ATOM     11  O   UNL     1     -33.250   9.157 -34.721  1.00  0.00    -0.423 OA
ENDROOT
TORSDOF 0
ENDMDL
MODEL 6
REMARK VINA RESULT:    -5.123      1.484      1.938
REMARK INTER + INTRA:          -5.123
REMARK INTER:                  -5.123
REMARK INTRA:                   0.000
REMARK UNBOUND:                 0.000
REMARK SMILES O=c1ccc2ccccc2o1
REMARK SMILES IDX 7 1 8 2 9 3 10 4 5 5 6 6 4 7 3 8 2 9 1 10 11 11
REMARK H PARENT
REMARK Flexibility Score: inf
ROOT
ATOM      1  C   UNL     1     -32.920  11.059 -33.432  1.00  0.00     0.001 A 
ATOM      2  C   UNL     1     -32.952   9.668 -33.575  1.00  0.00     0.004 A 
ATOM      3  C   UNL     1     -33.447   9.091 -34.749  1.00  0.00     0.048 A 
ATOM      4  C   UNL     1     -33.914   9.906 -35.787  1.00  0.00     0.138 A 
ATOM      5  C   UNL     1     -33.883  11.311 -35.643  1.00  0.00     0.018 A 
ATOM      6  C   UNL     1     -33.385  11.883 -34.463  1.00  0.00     0.012 A 
ATOM      7  C   UNL     1     -34.356  12.099 -36.697  1.00  0.00     0.019 A 
ATOM      8  C   UNL     1     -34.842  11.481 -37.848  1.00  0.00     0.094 A 
ATOM      9  C   UNL     1     -34.842  10.084 -37.920  1.00  0.00     0.336 A 
ATOM     10  O   UNL     1     -35.276   9.508 -38.952  1.00  0.00    -0.246 OA
ATOM     11  O   UNL     1     -34.386   9.357 -36.903  1.00  0.00    -0.423 OA
ENDROOT
TORSDOF 0
ENDMDL
MODEL 7
REMARK VINA RESULT:    -5.036      1.652      3.827
REMARK INTER + INTRA:          -5.036
REMARK INTER:                  -5.036
REMARK INTRA:                   0.000
REMARK UNBOUND:                 0.000
REMARK SMILES O=c1ccc2ccccc2o1
REMARK SMILES IDX 7 1 8 2 9 3 10 4 5 5 6 6 4 7 3 8 2 9 1 10 11 11
REMARK H PARENT
REMARK Flexibility Score: inf
ROOT
ATOM      1  C   UNL     1     -33.648  10.340 -37.322  1.00  0.00     0.001 A 
ATOM      2  C   UNL     1     -32.939   9.163 -37.057  1.00  0.00     0.004 A 
ATOM      3  C   UNL     1     -32.505   8.879 -35.757  1.00  0.00     0.048 A 
ATOM      4  C   UNL     1     -32.780   9.774 -34.716  1.00  0.00     0.138 A 
ATOM      5  C   UNL     1     -33.496  10.962 -34.984  1.00  0.00     0.018 A 
ATOM      6  C   UNL     1     -33.927  11.240 -36.289  1.00  0.00     0.012 A 
ATOM      7  C   UNL     1     -33.756  11.836 -33.924  1.00  0.00     0.019 A 
ATOM      8  C   UNL     1     -33.304  11.513 -32.645  1.00  0.00     0.094 A 
ATOM      9  C   UNL     1     -32.601  10.319 -32.455  1.00  0.00     0.336 A 
ATOM     10  O   UNL     1     -32.186  10.010 -31.307  1.00  0.00    -0.246 OA
ATOM     11  O   UNL     1     -32.367   9.504 -33.481  1.00  0.00    -0.423 OA
ENDROOT
TORSDOF 0
ENDMDL
MODEL 8
REMARK VINA RESULT:    -4.989      1.020      1.240
REMARK INTER + INTRA:          -4.989
REMARK INTER:                  -4.989
REMARK INTRA:                   0.000
REMARK UNBOUND:                 0.000
REMARK SMILES O=c1ccc2ccccc2o1
REMARK SMILES IDX 7 1 8 2 9 3 10 4 5 5 6 6 4 7 3 8 2 9 1 10 11 11
REMARK H PARENT
REMARK Flexibility Score: inf
ROOT
ATOM      1  C   UNL     1     -33.621  11.881 -31.357  1.00  0.00     0.001 A 
ATOM      2  C   UNL     1     -32.681  10.906 -31.010  1.00  0.00     0.004 A 
ATOM      3  C   UNL     1     -32.102  10.102 -31.998  1.00  0.00     0.048 A 
ATOM      4  C   UNL     1     -32.463  10.273 -33.339  1.00  0.00     0.138 A 
ATOM      5  C   UNL     1     -33.413  11.258 -33.690  1.00  0.00     0.018 A 
ATOM      6  C   UNL     1     -33.990  12.060 -32.694  1.00  0.00     0.012 A 
ATOM      7  C   UNL     1     -33.754  11.405 -35.038  1.00  0.00     0.019 A 
ATOM      8  C   UNL     1     -33.153  10.581 -35.989  1.00  0.00     0.094 A 
ATOM      9  C   UNL     1     -32.220   9.627 -35.568  1.00  0.00     0.336 A 
ATOM     10  O   UNL     1     -31.666   8.875 -36.413  1.00  0.00    -0.246 OA
ATOM     11  O   UNL     1     -31.913   9.507 -34.279  1.00  0.00    -0.423 OA
ENDROOT
TORSDOF 0
ENDMDL
MODEL 9
REMARK VINA RESULT:    -4.651      2.309      3.752
REMARK INTER + INTRA:          -4.651
REMARK INTER:                  -4.651
REMARK INTRA:                   0.000
REMARK UNBOUND:                 0.000
REMARK SMILES O=c1ccc2ccccc2o1
REMARK SMILES IDX 7 1 8 2 9 3 10 4 5 5 6 6 4 7 3 8 2 9 1 10 11 11
REMARK H PARENT
REMARK Flexibility Score: inf
ROOT
ATOM      1  C   UNL     1     -32.710  10.582 -34.913  1.00  0.00     0.001 A 
ATOM      2  C   UNL     1     -33.180  11.885 -35.106  1.00  0.00     0.004 A 
ATOM      3  C   UNL     1     -34.002  12.184 -36.198  1.00  0.00     0.048 A 
ATOM      4  C   UNL     1     -34.358  11.176 -37.103  1.00  0.00     0.138 A 
ATOM      5  C   UNL     1     -33.884   9.860 -36.908  1.00  0.00     0.018 A 
ATOM      6  C   UNL     1     -33.059   9.568 -35.811  1.00  0.00     0.012 A 
ATOM      7  C   UNL     1     -34.255   8.875 -37.829  1.00  0.00     0.019 A 
ATOM      8  C   UNL     1     -35.076   9.218 -38.902  1.00  0.00     0.094 A 
ATOM      9  C   UNL     1     -35.508  10.543 -39.031  1.00  0.00     0.336 A 
ATOM     10  O   UNL     1     -36.250  10.871 -39.994  1.00  0.00    -0.246 OA
ATOM     11  O   UNL     1     -35.139  11.461 -38.142  1.00  0.00    -0.423 OA
ENDROOT
TORSDOF 0
ENDMDL
