MODEL 1
REMARK VINA RESULT:    -7.435      0.000      0.000
REMARK INTER + INTRA:          -8.007
REMARK INTER:                  -8.087
REMARK INTRA:                   0.081
REMARK UNBOUND:                 0.081
REMARK SMILES CC1(C)CC[C@@]2(C(=O)[O-])CC[C@]3(C)C(=CC[C@H]4[C@@]5(C)CC[C@@H](O)C(C)(C)[C@@H]5CC[C@]43C)[C@H]2C1
REMARK SMILES IDX 6 1 5 2 10 3 32 4 4 5 11 6 14 7 33 8 2 9 12 10 15 11 1 12
REMARK SMILES IDX 3 13 13 14 30 15 16 16 17 17 29 18 31 19 18 20 28 21 27 22
REMARK SMILES IDX 20 23 19 24 24 25 21 26 22 27 25 28 26 29 7 30 8 31 9 32
REMARK SMILES IDX 23 33
REMARK H PARENT 23 34
REMARK Flexibility Score: inf
ROOT
ATOM      1  C   UNL     1      17.312  -8.482  14.424  1.00  0.00     0.017 C 
ATOM      2  C   UNL     1      18.542  -7.897  15.185  1.00  0.00     0.014 C 
ATOM      3  C   UNL     1      17.600  -9.908  13.912  1.00  0.00     0.014 C 
ATOM      4  C   UNL     1      16.075  -8.497  15.379  1.00  0.00     0.028 C 
ATOM      5  C   UNL     1      18.292  -6.471  15.704  1.00  0.00     0.007 C 
ATOM      6  C   UNL     1      17.839 -10.909  15.041  1.00  0.00     0.013 C 
ATOM      7  C   UNL     1      16.096  -9.648  16.422  1.00  0.00    -0.064 C 
ATOM      8  C   UNL     1      15.823  -7.049  15.921  1.00  0.00     0.015 C 
ATOM      9  C   UNL     1      17.040  -6.370  16.612  1.00  0.00    -0.035 C 
ATOM     10  C   UNL     1      16.637 -11.051  16.047  1.00  0.00    -0.006 C 
ATOM     11  C   UNL     1      15.286  -9.563  17.502  1.00  0.00    -0.027 C 
ATOM     12  C   UNL     1      16.712  -4.875  16.825  1.00  0.00     0.011 C 
ATOM     13  C   UNL     1      17.319  -6.983  18.002  1.00  0.00     0.011 C 
ATOM     14  C   UNL     1      15.508 -11.792  15.263  1.00  0.00     0.017 C 
ATOM     15  C   UNL     1      17.079 -11.876  17.383  1.00  0.00    -0.020 C 
ATOM     16  C   UNL     1      14.872 -10.761  18.287  1.00  0.00     0.032 C 
ATOM     17  C   UNL     1      16.071 -11.675  18.628  1.00  0.00     0.006 C 
ATOM     18  C   UNL     1      17.337 -13.398  17.019  1.00  0.00     0.008 C 
ATOM     19  C   UNL     1      18.456 -11.333  17.895  1.00  0.00     0.012 C 
ATOM     20  C   UNL     1      15.667 -13.011  19.390  1.00  0.00    -0.025 C 
ATOM     21  C   UNL     1      16.231 -14.442  17.305  1.00  0.00     0.005 C 
ATOM     22  C   UNL     1      15.139 -14.014  18.311  1.00  0.00     0.003 C 
ATOM     23  C   UNL     1      14.568 -12.778  20.493  1.00  0.00     0.010 C 
ATOM     24  C   UNL     1      16.923 -13.529  20.168  1.00  0.00     0.012 C 
ATOM     25  C   UNL     1      14.206 -15.171  18.850  1.00  0.00    -0.006 C 
ATOM     26  C   UNL     1      13.137 -13.077  20.029  1.00  0.00     0.033 C 
ATOM     27  C   UNL     1      12.943 -14.544  19.581  1.00  0.00     0.120 C 
ATOM     28  C   UNL     1      13.744 -16.057  17.656  1.00  0.00     0.014 C 
ATOM     29  C   UNL     1      14.936 -16.120  19.838  1.00  0.00     0.014 C 
ENDROOT
BRANCH   1  30
ATOM     30  C   UNL     1      17.026  -7.652  13.174  1.00  0.00     0.048 C 
ATOM     31  O   UNL     1      17.930  -7.446  12.319  1.00  0.00    -0.550 OA
ATOM     32  O   UNL     1      15.737  -7.206  12.900  1.00  0.00    -0.550 OA
ENDBRANCH   1  30
BRANCH  27  33
ATOM     33  O   UNL     1      11.797 -14.576  18.761  1.00  0.00    -0.393 OA
ATOM     34  H   UNL     1      11.228 -13.801  19.013  1.00  0.00     0.210 HD
ENDBRANCH  27  33
TORSDOF 2
ENDMDL
MODEL 2
REMARK VINA RESULT:    -6.383      2.219      7.471
REMARK INTER + INTRA:          -6.862
REMARK INTER:                  -7.342
REMARK INTRA:                   0.481
REMARK UNBOUND:                 0.081
REMARK SMILES CC1(C)CC[C@@]2(C(=O)[O-])CC[C@]3(C)C(=CC[C@H]4[C@@]5(C)CC[C@@H](O)C(C)(C)[C@@H]5CC[C@]43C)[C@H]2C1
REMARK SMILES IDX 6 1 5 2 10 3 32 4 4 5 11 6 14 7 33 8 2 9 12 10 15 11 1 12
REMARK SMILES IDX 3 13 13 14 30 15 16 16 17 17 29 18 31 19 18 20 28 21 27 22
REMARK SMILES IDX 20 23 19 24 24 25 21 26 22 27 25 28 26 29 7 30 8 31 9 32
REMARK SMILES IDX 23 33
REMARK H PARENT 23 34
REMARK Flexibility Score: inf
ROOT
ATOM      1  C   UNL     1      14.397 -11.736  19.916  1.00  0.00     0.017 C 
ATOM      2  C   UNL     1      15.223 -12.752  20.765  1.00  0.00     0.014 C 
ATOM      3  C   UNL     1      15.143 -10.395  19.769  1.00  0.00     0.014 C 
ATOM      4  C   UNL     1      14.117 -12.350  18.507  1.00  0.00     0.028 C 
ATOM      5  C   UNL     1      14.504 -14.100  20.939  1.00  0.00     0.007 C 
ATOM      6  C   UNL     1      16.457 -10.527  19.000  1.00  0.00     0.013 C 
ATOM      7  C   UNL     1      15.336 -12.305  17.545  1.00  0.00    -0.064 C 
ATOM      8  C   UNL     1      13.396 -13.730  18.677  1.00  0.00     0.015 C 
ATOM      9  C   UNL     1      14.124 -14.760  19.589  1.00  0.00    -0.035 C 
ATOM     10  C   UNL     1      16.299 -11.092  17.539  1.00  0.00    -0.006 C 
ATOM     11  C   UNL     1      15.333 -13.099  16.451  1.00  0.00    -0.027 C 
ATOM     12  C   UNL     1      13.157 -15.931  19.874  1.00  0.00     0.011 C 
ATOM     13  C   UNL     1      15.372 -15.349  18.895  1.00  0.00     0.011 C 
ATOM     14  C   UNL     1      15.616  -9.956  16.713  1.00  0.00     0.017 C 
ATOM     15  C   UNL     1      17.746 -11.504  16.906  1.00  0.00    -0.020 C 
ATOM     16  C   UNL     1      16.172 -12.814  15.252  1.00  0.00     0.032 C 
ATOM     17  C   UNL     1      17.635 -12.488  15.631  1.00  0.00     0.006 C 
ATOM     18  C   UNL     1      18.605 -10.201  16.626  1.00  0.00     0.008 C 
ATOM     19  C   UNL     1      18.562 -12.319  17.966  1.00  0.00     0.012 C 
ATOM     20  C   UNL     1      18.548 -12.090  14.392  1.00  0.00    -0.025 C 
ATOM     21  C   UNL     1      18.663  -9.627  15.189  1.00  0.00     0.005 C 
ATOM     22  C   UNL     1      18.243 -10.593  14.057  1.00  0.00     0.003 C 
ATOM     23  C   UNL     1      18.288 -12.990  13.126  1.00  0.00     0.010 C 
ATOM     24  C   UNL     1      20.042 -12.355  14.781  1.00  0.00     0.012 C 
ATOM     25  C   UNL     1      18.605 -10.131  12.589  1.00  0.00    -0.006 C 
ATOM     26  C   UNL     1      17.321 -12.376  12.106  1.00  0.00     0.033 C 
ATOM     27  C   UNL     1      17.821 -11.028  11.537  1.00  0.00     0.120 C 
ATOM     28  C   UNL     1      18.215  -8.635  12.409  1.00  0.00     0.014 C 
ATOM     29  C   UNL     1      20.125 -10.223  12.288  1.00  0.00     0.014 C 
ENDROOT
BRANCH   1  30
ATOM     30  C   UNL     1      13.090 -11.397  20.632  1.00  0.00     0.048 C 
ATOM     31  O   UNL     1      12.028 -12.019  20.358  1.00  0.00    -0.550 OA
ATOM     32  O   UNL     1      13.073 -10.478  21.676  1.00  0.00    -0.550 OA
ENDBRANCH   1  30
BRANCH  27  33
ATOM     33  O   UNL     1      16.696 -10.357  11.018  1.00  0.00    -0.393 OA
ATOM     34  H   UNL     1      16.737  -9.416  11.335  1.00  0.00     0.210 HD
ENDBRANCH  27  33
TORSDOF 2
ENDMDL
MODEL 3
REMARK VINA RESULT:    -6.249      2.336      3.178
REMARK INTER + INTRA:          -6.716
REMARK INTER:                  -7.109
REMARK INTRA:                   0.393
REMARK UNBOUND:                 0.081
REMARK SMILES CC1(C)CC[C@@]2(C(=O)[O-])CC[C@]3(C)C(=CC[C@H]4[C@@]5(C)CC[C@@H](O)C(C)(C)[C@@H]5CC[C@]43C)[C@H]2C1
REMARK SMILES IDX 6 1 5 2 10 3 32 4 4 5 11 6 14 7 33 8 2 9 12 10 15 11 1 12
REMARK SMILES IDX 3 13 13 14 30 15 16 16 17 17 29 18 31 19 18 20 28 21 27 22
REMARK SMILES IDX 20 23 19 24 24 25 21 26 22 27 25 28 26 29 7 30 8 31 9 32
REMARK SMILES IDX 23 33
REMARK H PARENT 23 34
REMARK Flexibility Score: inf
ROOT
ATOM      1  C   UNL     1      17.200 -11.833  12.181  1.00  0.00     0.017 C 
ATOM      2  C   UNL     1      18.717 -11.497  12.322  1.00  0.00     0.014 C 
ATOM      3  C   UNL     1      16.919 -13.306  12.543  1.00  0.00     0.014 C 
ATOM      4  C   UNL     1      16.375 -10.887  13.111  1.00  0.00     0.028 C 
ATOM      5  C   UNL     1      19.035 -10.037  11.960  1.00  0.00     0.007 C 
ATOM      6  C   UNL     1      17.229 -13.629  14.003  1.00  0.00     0.013 C 
ATOM      7  C   UNL     1      16.419 -11.282  14.613  1.00  0.00    -0.064 C 
ATOM      8  C   UNL     1      16.703  -9.397  12.757  1.00  0.00     0.015 C 
ATOM      9  C   UNL     1      18.212  -9.018  12.788  1.00  0.00    -0.035 C 
ATOM     10  C   UNL     1      16.417 -12.770  15.044  1.00  0.00    -0.006 C 
ATOM     11  C   UNL     1      16.048 -10.368  15.538  1.00  0.00    -0.027 C 
ATOM     12  C   UNL     1      18.379  -7.621  12.148  1.00  0.00     0.011 C 
ATOM     13  C   UNL     1      18.744  -8.928  14.236  1.00  0.00     0.011 C 
ATOM     14  C   UNL     1      14.943 -13.280  14.961  1.00  0.00     0.017 C 
ATOM     15  C   UNL     1      17.024 -12.937  16.549  1.00  0.00    -0.020 C 
ATOM     16  C   UNL     1      15.601 -10.752  16.908  1.00  0.00     0.032 C 
ATOM     17  C   UNL     1      16.557 -11.773  17.565  1.00  0.00     0.006 C 
ATOM     18  C   UNL     1      16.738 -14.401  17.089  1.00  0.00     0.008 C 
ATOM     19  C   UNL     1      18.585 -12.814  16.494  1.00  0.00     0.012 C 
ATOM     20  C   UNL     1      16.076 -12.280  18.994  1.00  0.00    -0.025 C 
ATOM     21  C   UNL     1      15.545 -14.633  18.047  1.00  0.00     0.005 C 
ATOM     22  C   UNL     1      14.985 -13.375  18.750  1.00  0.00     0.003 C 
ATOM     23  C   UNL     1      15.489 -11.124  19.887  1.00  0.00     0.010 C 
ATOM     24  C   UNL     1      17.328 -12.803  19.774  1.00  0.00     0.012 C 
ATOM     25  C   UNL     1      13.999 -13.641  19.957  1.00  0.00    -0.006 C 
ATOM     26  C   UNL     1      13.960 -11.013  19.848  1.00  0.00     0.033 C 
ATOM     27  C   UNL     1      13.250 -12.294  20.343  1.00  0.00     0.120 C 
ATOM     28  C   UNL     1      12.963 -14.727  19.545  1.00  0.00     0.014 C 
ATOM     29  C   UNL     1      14.725 -14.187  21.215  1.00  0.00     0.014 C 
ENDROOT
BRANCH   1  30
ATOM     30  C   UNL     1      16.763 -11.683  10.724  1.00  0.00     0.048 C 
ATOM     31  O   UNL     1      17.494 -11.077   9.894  1.00  0.00    -0.550 OA
ATOM     32  O   UNL     1      15.610 -12.309  10.263  1.00  0.00    -0.550 OA
ENDBRANCH   1  30
BRANCH  27  33
ATOM     33  O   UNL     1      11.938 -12.262  19.829  1.00  0.00    -0.393 OA
ATOM     34  H   UNL     1      11.928 -11.612  19.077  1.00  0.00     0.210 HD
ENDBRANCH  27  33
TORSDOF 2
ENDMDL
MODEL 4
REMARK VINA RESULT:    -6.003      1.721      2.328
REMARK INTER + INTRA:          -6.448
REMARK INTER:                  -6.957
REMARK INTRA:                   0.509
REMARK UNBOUND:                 0.081
REMARK SMILES CC1(C)CC[C@@]2(C(=O)[O-])CC[C@]3(C)C(=CC[C@H]4[C@@]5(C)CC[C@@H](O)C(C)(C)[C@@H]5CC[C@]43C)[C@H]2C1
REMARK SMILES IDX 6 1 5 2 10 3 32 4 4 5 11 6 14 7 33 8 2 9 12 10 15 11 1 12
REMARK SMILES IDX 3 13 13 14 30 15 16 16 17 17 29 18 31 19 18 20 28 21 27 22
REMARK SMILES IDX 20 23 19 24 24 25 21 26 22 27 25 28 26 29 7 30 8 31 9 32
REMARK SMILES IDX 23 33
REMARK H PARENT 23 34
REMARK Flexibility Score: inf
ROOT
ATOM      1  C   UNL     1      17.935 -10.689  12.573  1.00  0.00     0.017 C 
ATOM      2  C   UNL     1      19.329 -10.134  13.003  1.00  0.00     0.014 C 
ATOM      3  C   UNL     1      17.884 -12.225  12.698  1.00  0.00     0.014 C 
ATOM      4  C   UNL     1      16.826 -10.043  13.463  1.00  0.00     0.028 C 
ATOM      5  C   UNL     1      19.418  -8.604  12.882  1.00  0.00     0.007 C 
ATOM      6  C   UNL     1      18.039 -12.710  14.138  1.00  0.00     0.013 C 
ATOM      7  C   UNL     1      16.731 -10.647  14.891  1.00  0.00    -0.064 C 
ATOM      8  C   UNL     1      16.920  -8.483  13.355  1.00  0.00     0.015 C 
ATOM      9  C   UNL     1      18.312  -7.870  13.683  1.00  0.00    -0.035 C 
ATOM     10  C   UNL     1      16.945 -12.163  15.129  1.00  0.00    -0.006 C 
ATOM     11  C   UNL     1      16.071  -9.957  15.848  1.00  0.00    -0.027 C 
ATOM     12  C   UNL     1      18.306  -6.385  13.257  1.00  0.00     0.011 C 
ATOM     13  C   UNL     1      18.609  -7.915  15.198  1.00  0.00     0.011 C 
ATOM     14  C   UNL     1      15.617 -12.889  14.741  1.00  0.00     0.017 C 
ATOM     15  C   UNL     1      17.354 -12.454  16.681  1.00  0.00    -0.020 C 
ATOM     16  C   UNL     1      15.515 -10.611  17.068  1.00  0.00     0.032 C 
ATOM     17  C   UNL     1      16.541 -11.549  17.743  1.00  0.00     0.006 C 
ATOM     18  C   UNL     1      17.271 -14.009  16.981  1.00  0.00     0.008 C 
ATOM     19  C   UNL     1      18.857 -12.070  16.901  1.00  0.00     0.012 C 
ATOM     20  C   UNL     1      15.966 -12.338  18.998  1.00  0.00    -0.025 C 
ATOM     21  C   UNL     1      16.019 -14.575  17.692  1.00  0.00     0.005 C 
ATOM     22  C   UNL     1      15.143 -13.547  18.443  1.00  0.00     0.003 C 
ATOM     23  C   UNL     1      15.056 -11.442  19.918  1.00  0.00     0.010 C 
ATOM     24  C   UNL     1      17.171 -12.761  19.903  1.00  0.00     0.012 C 
ATOM     25  C   UNL     1      14.063 -14.150  19.429  1.00  0.00    -0.006 C 
ATOM     26  C   UNL     1      13.553 -11.578  19.642  1.00  0.00     0.033 C 
ATOM     27  C   UNL     1      13.030 -13.018  19.850  1.00  0.00     0.120 C 
ATOM     28  C   UNL     1      13.315 -15.317  18.720  1.00  0.00     0.014 C 
ATOM     29  C   UNL     1      14.693 -14.754  20.712  1.00  0.00     0.014 C 
ENDROOT
BRANCH   1  30
ATOM     30  C   UNL     1      17.687 -10.394  11.094  1.00  0.00     0.048 C 
ATOM     31  O   UNL     1      18.277  -9.436  10.523  1.00  0.00    -0.550 OA
ATOM     32  O   UNL     1      16.898 -11.244  10.325  1.00  0.00    -0.550 OA
ENDBRANCH   1  30
BRANCH  27  33
ATOM     33  O   UNL     1      11.821 -13.125  19.134  1.00  0.00    -0.393 OA
ATOM     34  H   UNL     1      11.986 -13.721  18.356  1.00  0.00     0.210 HD
ENDBRANCH  27  33
TORSDOF 2
ENDMDL
MODEL 5
REMARK VINA RESULT:    -5.482      1.448      7.849
REMARK INTER + INTRA:          -5.882
REMARK INTER:                  -6.589
REMARK INTRA:                   0.707
REMARK UNBOUND:                 0.081
REMARK SMILES CC1(C)CC[C@@]2(C(=O)[O-])CC[C@]3(C)C(=CC[C@H]4[C@@]5(C)CC[C@@H](O)C(C)(C)[C@@H]5CC[C@]43C)[C@H]2C1
REMARK SMILES IDX 6 1 5 2 10 3 32 4 4 5 11 6 14 7 33 8 2 9 12 10 15 11 1 12
REMARK SMILES IDX 3 13 13 14 30 15 16 16 17 17 29 18 31 19 18 20 28 21 27 22
REMARK SMILES IDX 20 23 19 24 24 25 21 26 22 27 25 28 26 29 7 30 8 31 9 32
REMARK SMILES IDX 23 33
REMARK H PARENT 23 34
REMARK Flexibility Score: inf
ROOT
ATOM      1  C   UNL     1      14.382 -12.667  19.174  1.00  0.00     0.017 C 
ATOM      2  C   UNL     1      15.357 -13.824  19.557  1.00  0.00     0.014 C 
ATOM      3  C   UNL     1      14.890 -11.311  19.703  1.00  0.00     0.014 C 
ATOM      4  C   UNL     1      14.232 -12.614  17.620  1.00  0.00     0.028 C 
ATOM      5  C   UNL     1      14.876 -15.194  19.052  1.00  0.00     0.007 C 
ATOM      6  C   UNL     1      16.218 -10.888  19.077  1.00  0.00     0.013 C 
ATOM      7  C   UNL     1      15.440 -11.962  16.891  1.00  0.00    -0.064 C 
ATOM      8  C   UNL     1      13.755 -14.011  17.097  1.00  0.00     0.015 C 
ATOM      9  C   UNL     1      14.635 -15.222  17.521  1.00  0.00    -0.035 C 
ATOM     10  C   UNL     1      16.181 -10.750  17.509  1.00  0.00    -0.006 C 
ATOM     11  C   UNL     1      15.588 -12.169  15.563  1.00  0.00    -0.027 C 
ATOM     12  C   UNL     1      13.879 -16.523  17.170  1.00  0.00     0.011 C 
ATOM     13  C   UNL     1      15.975 -15.246  16.754  1.00  0.00     0.011 C 
ATOM     14  C   UNL     1      15.325  -9.478  17.212  1.00  0.00     0.017 C 
ATOM     15  C   UNL     1      17.686 -10.616  16.892  1.00  0.00    -0.020 C 
ATOM     16  C   UNL     1      16.384 -11.254  14.695  1.00  0.00     0.032 C 
ATOM     17  C   UNL     1      17.764 -10.924  15.310  1.00  0.00     0.006 C 
ATOM     18  C   UNL     1      18.314  -9.217  17.296  1.00  0.00     0.008 C 
ATOM     19  C   UNL     1      18.613 -11.693  17.553  1.00  0.00     0.012 C 
ATOM     20  C   UNL     1      18.614  -9.882  14.462  1.00  0.00    -0.025 C 
ATOM     21  C   UNL     1      18.294  -8.056  16.273  1.00  0.00     0.005 C 
ATOM     22  C   UNL     1      18.063  -8.457  14.798  1.00  0.00     0.003 C 
ATOM     23  C   UNL     1      18.531 -10.142  12.911  1.00  0.00     0.010 C 
ATOM     24  C   UNL     1      20.125 -10.073  14.827  1.00  0.00     0.012 C 
ATOM     25  C   UNL     1      18.362  -7.336  13.724  1.00  0.00    -0.006 C 
ATOM     26  C   UNL     1      17.489  -9.282  12.185  1.00  0.00     0.033 C 
ATOM     27  C   UNL     1      17.759  -7.765  12.318  1.00  0.00     0.120 C 
ATOM     28  C   UNL     1      17.724  -5.994  14.189  1.00  0.00     0.014 C 
ATOM     29  C   UNL     1      19.879  -7.059  13.553  1.00  0.00     0.014 C 
ENDROOT
BRANCH   1  30
ATOM     30  C   UNL     1      13.025 -12.882  19.845  1.00  0.00     0.048 C 
ATOM     31  O   UNL     1      12.546 -12.008  20.617  1.00  0.00    -0.550 OA
ATOM     32  O   UNL     1      12.247 -13.990  19.527  1.00  0.00    -0.550 OA
ENDBRANCH   1  30
BRANCH  27  33
ATOM     33  O   UNL     1      16.543  -7.105  12.050  1.00  0.00    -0.393 OA
ATOM     34  H   UNL     1      15.918  -7.776  11.666  1.00  0.00     0.210 HD
ENDBRANCH  27  33
TORSDOF 2
ENDMDL
MODEL 6
REMARK VINA RESULT:    -5.332      1.756      7.827
REMARK INTER + INTRA:          -5.719
REMARK INTER:                  -6.342
REMARK INTRA:                   0.623
REMARK UNBOUND:                 0.081
REMARK SMILES CC1(C)CC[C@@]2(C(=O)[O-])CC[C@]3(C)C(=CC[C@H]4[C@@]5(C)CC[C@@H](O)C(C)(C)[C@@H]5CC[C@]43C)[C@H]2C1
REMARK SMILES IDX 6 1 5 2 10 3 32 4 4 5 11 6 14 7 33 8 2 9 12 10 15 11 1 12
REMARK SMILES IDX 3 13 13 14 30 15 16 16 17 17 29 18 31 19 18 20 28 21 27 22
REMARK SMILES IDX 20 23 19 24 24 25 21 26 22 27 25 28 26 29 7 30 8 31 9 32
REMARK SMILES IDX 23 33
REMARK H PARENT 23 34
REMARK Flexibility Score: inf
ROOT
ATOM      1  C   UNL     1      14.687 -11.044  19.713  1.00  0.00     0.017 C 
ATOM      2  C   UNL     1      15.759 -12.024  20.285  1.00  0.00     0.014 C 
ATOM      3  C   UNL     1      15.095  -9.575  19.945  1.00  0.00     0.014 C 
ATOM      4  C   UNL     1      14.506 -11.315  18.186  1.00  0.00     0.028 C 
ATOM      5  C   UNL     1      15.380 -13.500  20.079  1.00  0.00     0.007 C 
ATOM      6  C   UNL     1      16.373  -9.189  19.203  1.00  0.00     0.013 C 
ATOM      7  C   UNL     1      15.644 -10.734  17.302  1.00  0.00    -0.064 C 
ATOM      8  C   UNL     1      14.132 -12.820  17.967  1.00  0.00     0.015 C 
ATOM      9  C   UNL     1      15.114 -13.852  18.593  1.00  0.00    -0.035 C 
ATOM     10  C   UNL     1      16.297  -9.371  17.641  1.00  0.00    -0.006 C 
ATOM     11  C   UNL     1      15.785 -11.191  16.037  1.00  0.00    -0.027 C 
ATOM     12  C   UNL     1      14.458 -15.250  18.534  1.00  0.00     0.011 C 
ATOM     13  C   UNL     1      16.438 -13.929  17.801  1.00  0.00     0.011 C 
ATOM     14  C   UNL     1      15.337  -8.251  17.127  1.00  0.00     0.017 C 
ATOM     15  C   UNL     1      17.775  -9.251  16.960  1.00  0.00    -0.020 C 
ATOM     16  C   UNL     1      16.489 -10.412  14.978  1.00  0.00     0.032 C 
ATOM     17  C   UNL     1      17.848  -9.863  15.468  1.00  0.00     0.006 C 
ATOM     18  C   UNL     1      18.296  -7.757  17.056  1.00  0.00     0.008 C 
ATOM     19  C   UNL     1      18.797 -10.101  17.789  1.00  0.00     0.012 C 
ATOM     20  C   UNL     1      18.597  -8.952  14.402  1.00  0.00    -0.025 C 
ATOM     21  C   UNL     1      18.165  -6.829  15.824  1.00  0.00     0.005 C 
ATOM     22  C   UNL     1      17.940  -7.534  14.467  1.00  0.00     0.003 C 
ATOM     23  C   UNL     1      18.507  -9.523  12.938  1.00  0.00     0.010 C 
ATOM     24  C   UNL     1      20.125  -8.952  14.747  1.00  0.00     0.012 C 
ATOM     25  C   UNL     1      18.129  -6.632  13.182  1.00  0.00    -0.006 C 
ATOM     26  C   UNL     1      17.386  -8.907  12.091  1.00  0.00     0.033 C 
ATOM     27  C   UNL     1      17.537  -7.379  11.911  1.00  0.00     0.120 C 
ATOM     28  C   UNL     1      17.394  -5.276  13.393  1.00  0.00     0.014 C 
ATOM     29  C   UNL     1      19.616  -6.282  12.908  1.00  0.00     0.014 C 
ENDROOT
BRANCH   1  30
ATOM     30  C   UNL     1      13.365 -11.221  20.459  1.00  0.00     0.048 C 
ATOM     31  O   UNL     1      12.964 -10.343  21.271  1.00  0.00    -0.550 OA
ATOM     32  O   UNL     1      12.529 -12.294  20.171  1.00  0.00    -0.550 OA
ENDBRANCH   1  30
BRANCH  27  33
ATOM     33  O   UNL     1      16.267  -6.878  11.558  1.00  0.00    -0.393 OA
ATOM     34  H   UNL     1      16.411  -6.077  10.987  1.00  0.00     0.210 HD
ENDBRANCH  27  33
TORSDOF 2
ENDMDL
MODEL 7
REMARK VINA RESULT:    -5.084      1.326      7.926
REMARK INTER + INTRA:          -5.449
REMARK INTER:                  -5.611
REMARK INTRA:                   0.162
REMARK UNBOUND:                 0.081
REMARK SMILES CC1(C)CC[C@@]2(C(=O)[O-])CC[C@]3(C)C(=CC[C@H]4[C@@]5(C)CC[C@@H](O)C(C)(C)[C@@H]5CC[C@]43C)[C@H]2C1
REMARK SMILES IDX 6 1 5 2 10 3 32 4 4 5 11 6 14 7 33 8 2 9 12 10 15 11 1 12
REMARK SMILES IDX 3 13 13 14 30 15 16 16 17 17 29 18 31 19 18 20 28 21 27 22
REMARK SMILES IDX 20 23 19 24 24 25 21 26 22 27 25 28 26 29 7 30 8 31 9 32
REMARK SMILES IDX 23 33
REMARK H PARENT 23 34
REMARK Flexibility Score: inf
ROOT
ATOM      1  C   UNL     1      14.571 -13.861  18.948  1.00  0.00     0.017 C 
ATOM      2  C   UNL     1      15.685 -14.938  19.132  1.00  0.00     0.014 C 
ATOM      3  C   UNL     1      14.925 -12.558  19.693  1.00  0.00     0.014 C 
ATOM      4  C   UNL     1      14.380 -13.572  17.424  1.00  0.00     0.028 C 
ATOM      5  C   UNL     1      15.359 -16.254  18.408  1.00  0.00     0.007 C 
ATOM      6  C   UNL     1      16.179 -11.881  19.142  1.00  0.00     0.013 C 
ATOM      7  C   UNL     1      15.485 -12.668  16.810  1.00  0.00    -0.064 C 
ATOM      8  C   UNL     1      14.061 -14.911  16.678  1.00  0.00     0.015 C 
ATOM      9  C   UNL     1      15.088 -16.060  16.894  1.00  0.00    -0.035 C 
ATOM     10  C   UNL     1      16.091 -11.493  17.619  1.00  0.00    -0.006 C 
ATOM     11  C   UNL     1      15.628 -12.634  15.466  1.00  0.00    -0.027 C 
ATOM     12  C   UNL     1      14.485 -17.368  16.335  1.00  0.00     0.011 C 
ATOM     13  C   UNL     1      16.404 -15.795  16.130  1.00  0.00     0.011 C 
ATOM     14  C   UNL     1      15.084 -10.302  17.539  1.00  0.00     0.017 C 
ATOM     15  C   UNL     1      17.555 -11.079  17.029  1.00  0.00    -0.020 C 
ATOM     16  C   UNL     1      16.290 -11.500  14.760  1.00  0.00     0.032 C 
ATOM     17  C   UNL     1      17.633 -11.111  15.417  1.00  0.00     0.006 C 
ATOM     18  C   UNL     1      18.021  -9.699  17.657  1.00  0.00     0.008 C 
ATOM     19  C   UNL     1      18.618 -12.128  17.500  1.00  0.00     0.012 C 
ATOM     20  C   UNL     1      18.334  -9.849  14.752  1.00  0.00    -0.025 C 
ATOM     21  C   UNL     1      17.840  -8.397  16.840  1.00  0.00     0.005 C 
ATOM     22  C   UNL     1      17.625  -8.575  15.320  1.00  0.00     0.003 C 
ATOM     23  C   UNL     1      18.248  -9.858  13.180  1.00  0.00     0.010 C 
ATOM     24  C   UNL     1      19.865  -9.913  15.076  1.00  0.00     0.012 C 
ATOM     25  C   UNL     1      17.765  -7.265  14.446  1.00  0.00    -0.006 C 
ATOM     26  C   UNL     1      17.095  -9.024  12.608  1.00  0.00     0.033 C 
ATOM     27  C   UNL     1      17.185  -7.528  12.990  1.00  0.00     0.120 C 
ATOM     28  C   UNL     1      16.982  -6.105  15.128  1.00  0.00     0.014 C 
ATOM     29  C   UNL     1      19.234  -6.782  14.319  1.00  0.00     0.014 C 
ENDROOT
BRANCH   1  30
ATOM     30  C   UNL     1      13.265 -14.346  19.577  1.00  0.00     0.048 C 
ATOM     31  O   UNL     1      13.236 -15.407  20.258  1.00  0.00    -0.550 OA
ATOM     32  O   UNL     1      12.114 -13.568  19.507  1.00  0.00    -0.550 OA
ENDBRANCH   1  30
BRANCH  27  33
ATOM     33  O   UNL     1      15.894  -6.985  12.837  1.00  0.00    -0.393 OA
ATOM     34  H   UNL     1      15.767  -6.310  13.556  1.00  0.00     0.210 HD
ENDBRANCH  27  33
TORSDOF 2
ENDMDL
MODEL 8
REMARK VINA RESULT:    -4.736      3.743      6.661
REMARK INTER + INTRA:          -5.070
REMARK INTER:                  -5.600
REMARK INTRA:                   0.530
REMARK UNBOUND:                 0.081
REMARK SMILES CC1(C)CC[C@@]2(C(=O)[O-])CC[C@]3(C)C(=CC[C@H]4[C@@]5(C)CC[C@@H](O)C(C)(C)[C@@H]5CC[C@]43C)[C@H]2C1
REMARK SMILES IDX 6 1 5 2 10 3 32 4 4 5 11 6 14 7 33 8 2 9 12 10 15 11 1 12
REMARK SMILES IDX 3 13 13 14 30 15 16 16 17 17 29 18 31 19 18 20 28 21 27 22
REMARK SMILES IDX 20 23 19 24 24 25 21 26 22 27 25 28 26 29 7 30 8 31 9 32
REMARK SMILES IDX 23 33
REMARK H PARENT 23 34
REMARK Flexibility Score: inf
ROOT
ATOM      1  C   UNL     1      17.655 -12.564  13.144  1.00  0.00     0.017 C 
ATOM      2  C   UNL     1      19.014 -12.245  12.447  1.00  0.00     0.014 C 
ATOM      3  C   UNL     1      17.850 -12.830  14.651  1.00  0.00     0.014 C 
ATOM      4  C   UNL     1      16.675 -11.366  12.935  1.00  0.00     0.028 C 
ATOM      5  C   UNL     1      18.858 -11.983  10.940  1.00  0.00     0.007 C 
ATOM      6  C   UNL     1      18.368 -11.609  15.408  1.00  0.00     0.013 C 
ATOM      7  C   UNL     1      16.965 -10.145  13.851  1.00  0.00    -0.064 C 
ATOM      8  C   UNL     1      16.521 -11.084  11.402  1.00  0.00     0.015 C 
ATOM      9  C   UNL     1      17.849 -10.848  10.627  1.00  0.00    -0.035 C 
ATOM     10  C   UNL     1      17.437 -10.343  15.313  1.00  0.00    -0.006 C 
ATOM     11  C   UNL     1      16.428  -8.946  13.530  1.00  0.00    -0.027 C 
ATOM     12  C   UNL     1      17.544 -10.872   9.112  1.00  0.00     0.011 C 
ATOM     13  C   UNL     1      18.459  -9.466  10.953  1.00  0.00     0.011 C 
ATOM     14  C   UNL     1      16.175 -10.676  16.171  1.00  0.00     0.017 C 
ATOM     15  C   UNL     1      18.198  -9.008  15.862  1.00  0.00    -0.020 C 
ATOM     16  C   UNL     1      16.236  -7.860  14.534  1.00  0.00     0.032 C 
ATOM     17  C   UNL     1      17.503  -7.630  15.389  1.00  0.00     0.006 C 
ATOM     18  C   UNL     1      18.401  -9.107  17.432  1.00  0.00     0.008 C 
ATOM     19  C   UNL     1      19.643  -8.951  15.260  1.00  0.00     0.012 C 
ATOM     20  C   UNL     1      17.320  -6.540  16.532  1.00  0.00    -0.025 C 
ATOM     21  C   UNL     1      17.417  -8.365  18.369  1.00  0.00     0.005 C 
ATOM     22  C   UNL     1      16.579  -7.241  17.720  1.00  0.00     0.003 C 
ATOM     23  C   UNL     1      16.503  -5.282  16.054  1.00  0.00     0.010 C 
ATOM     24  C   UNL     1      18.735  -5.988  16.913  1.00  0.00     0.012 C 
ATOM     25  C   UNL     1      15.825  -6.277  18.721  1.00  0.00    -0.006 C 
ATOM     26  C   UNL     1      15.011  -5.330  16.405  1.00  0.00     0.033 C 
ATOM     27  C   UNL     1      14.752  -5.414  17.928  1.00  0.00     0.120 C 
ATOM     28  C   UNL     1      15.120  -7.125  19.819  1.00  0.00     0.014 C 
ATOM     29  C   UNL     1      16.787  -5.315  19.467  1.00  0.00     0.014 C 
ENDROOT
BRANCH   1  30
ATOM     30  C   UNL     1      17.065 -13.855  12.577  1.00  0.00     0.048 C 
ATOM     31  O   UNL     1      17.206 -14.948  13.191  1.00  0.00    -0.550 OA
ATOM     32  O   UNL     1      16.268 -13.828  11.438  1.00  0.00    -0.550 OA
ENDBRANCH   1  30
BRANCH  27  33
ATOM     33  O   UNL     1      13.448  -5.920  18.097  1.00  0.00    -0.393 OA
ATOM     34  H   UNL     1      13.468  -6.541  18.874  1.00  0.00     0.210 HD
ENDBRANCH  27  33
TORSDOF 2
ENDMDL
