MODEL 1
REMARK VINA RESULT:    -6.902      0.000      0.000
REMARK INTER + INTRA:         -11.017
REMARK INTER:                 -10.533
REMARK INTRA:                  -0.484
REMARK UNBOUND:                -0.484
REMARK SMILES O=C([O-])CCCCCCCCC(=O)[O-]
REMARK SMILES IDX 7 1 6 2 5 3 4 4 2 5 1 6 3 7 8 8 9 9 10 10 11 11 12 12 13 13
REMARK SMILES IDX 14 14
REMARK H PARENT
REMARK Flexibility Score: inf
ROOT
ATOM      1  C   UNL     1       7.738  -4.475  20.731  1.00  0.00     0.000 C 
ENDROOT
BRANCH   1   2
ATOM      2  C   UNL     1       6.911  -5.719  21.089  1.00  0.00     0.000 C 
BRANCH   2   3
ATOM      3  C   UNL     1       7.799  -6.814  21.692  1.00  0.00     0.006 C 
BRANCH   3   4
ATOM      4  C   UNL     1       7.335  -8.204  21.249  1.00  0.00     0.053 C 
BRANCH   4   5
ATOM      5  C   UNL     1       6.916  -9.019  22.431  1.00  0.00     0.041 C 
ATOM      6  O   UNL     1       6.274 -10.089  22.267  1.00  0.00    -0.550 OA
ATOM      7  O   UNL     1       7.192  -8.571  23.717  1.00  0.00    -0.550 OA
ENDBRANCH   4   5
ENDBRANCH   3   4
ENDBRANCH   2   3
ENDBRANCH   1   2
BRANCH   1   8
ATOM      8  C   UNL     1       6.880  -3.204  20.599  1.00  0.00     0.000 C 
BRANCH   8   9
ATOM      9  C   UNL     1       6.327  -2.647  21.927  1.00  0.00     0.000 C 
BRANCH   9  10
ATOM     10  C   UNL     1       4.810  -2.387  21.944  1.00  0.00     0.006 C 
BRANCH  10  11
ATOM     11  C   UNL     1       4.170  -2.497  20.554  1.00  0.00     0.053 C 
BRANCH  11  12
ATOM     12  C   UNL     1       3.829  -1.139  20.027  1.00  0.00     0.041 C 
ATOM     13  O   UNL     1       4.735  -0.388  19.579  1.00  0.00    -0.550 OA
ATOM     14  O   UNL     1       2.505  -0.722  19.985  1.00  0.00    -0.550 OA
ENDBRANCH  11  12
ENDBRANCH  10  11
ENDBRANCH   9  10
ENDBRANCH   8   9
ENDBRANCH   1   8
TORSDOF 9
ENDMDL
MODEL 2
REMARK VINA RESULT:    -6.792      0.313      7.111
REMARK INTER + INTRA:         -10.849
REMARK INTER:                 -10.364
REMARK INTRA:                  -0.485
REMARK UNBOUND:                -0.484
REMARK SMILES O=C([O-])CCCCCCCCC(=O)[O-]
REMARK SMILES IDX 7 1 6 2 5 3 4 4 2 5 1 6 3 7 8 8 9 9 10 10 11 11 12 12 13 13
REMARK SMILES IDX 14 14
REMARK H PARENT
REMARK Flexibility Score: inf
ROOT
ATOM      1  C   UNL     1       6.888  -2.858  20.900  1.00  0.00     0.000 C 
ENDROOT
BRANCH   1   2
ATOM      2  C   UNL     1       6.021  -2.971  22.162  1.00  0.00     0.000 C 
BRANCH   2   3
ATOM      3  C   UNL     1       4.593  -2.479  21.893  1.00  0.00     0.006 C 
BRANCH   3   4
ATOM      4  C   UNL     1       4.292  -2.459  20.392  1.00  0.00     0.053 C 
BRANCH   4   5
ATOM      5  C   UNL     1       3.912  -1.081  19.952  1.00  0.00     0.041 C 
ATOM      6  O   UNL     1       2.699  -0.751  19.881  1.00  0.00    -0.550 OA
ATOM      7  O   UNL     1       4.895  -0.176  19.574  1.00  0.00    -0.550 OA
ENDBRANCH   4   5
ENDBRANCH   3   4
ENDBRANCH   2   3
ENDBRANCH   1   2
BRANCH   1   8
ATOM      8  C   UNL     1       7.549  -4.192  20.508  1.00  0.00     0.000 C 
BRANCH   8   9
ATOM      9  C   UNL     1       6.786  -5.455  20.956  1.00  0.00     0.000 C 
BRANCH   9  10
ATOM     10  C   UNL     1       7.662  -6.564  21.566  1.00  0.00     0.006 C 
BRANCH  10  11
ATOM     11  C   UNL     1       7.178  -7.974  21.201  1.00  0.00     0.053 C 
BRANCH  11  12
ATOM     12  C   UNL     1       6.948  -8.784  22.438  1.00  0.00     0.041 C 
ATOM     13  O   UNL     1       6.368  -9.899  22.366  1.00  0.00    -0.550 OA
ATOM     14  O   UNL     1       7.418  -8.330  23.663  1.00  0.00    -0.550 OA
ENDBRANCH  11  12
ENDBRANCH  10  11
ENDBRANCH   9  10
ENDBRANCH   8   9
ENDBRANCH   1   8
TORSDOF 9
ENDMDL
MODEL 3
REMARK VINA RESULT:    -6.489      1.223      1.557
REMARK INTER + INTRA:         -10.386
REMARK INTER:                  -9.802
REMARK INTRA:                  -0.584
REMARK UNBOUND:                -0.484
REMARK SMILES O=C([O-])CCCCCCCCC(=O)[O-]
REMARK SMILES IDX 7 1 6 2 5 3 4 4 2 5 1 6 3 7 8 8 9 9 10 10 11 11 12 12 13 13
REMARK SMILES IDX 14 14
REMARK H PARENT
REMARK Flexibility Score: inf
ROOT
ATOM      1  C   UNL     1       7.234  -3.366  20.423  1.00  0.00     0.000 C 
ENDROOT
BRANCH   1   2
ATOM      2  C   UNL     1       6.794  -4.757  19.944  1.00  0.00     0.000 C 
BRANCH   2   3
ATOM      3  C   UNL     1       6.528  -5.688  21.134  1.00  0.00     0.006 C 
BRANCH   3   4
ATOM      4  C   UNL     1       7.772  -6.510  21.480  1.00  0.00     0.053 C 
BRANCH   4   5
ATOM      5  C   UNL     1       7.407  -7.942  21.709  1.00  0.00     0.041 C 
ATOM      6  O   UNL     1       7.411  -8.758  20.751  1.00  0.00    -0.550 OA
ATOM      7  O   UNL     1       7.015  -8.366  22.973  1.00  0.00    -0.550 OA
ENDBRANCH   4   5
ENDBRANCH   3   4
ENDBRANCH   2   3
ENDBRANCH   1   2
BRANCH   1   8
ATOM      8  C   UNL     1       6.678  -3.009  21.814  1.00  0.00     0.000 C 
BRANCH   8   9
ATOM      9  C   UNL     1       5.605  -1.903  21.825  1.00  0.00     0.000 C 
BRANCH   9  10
ATOM     10  C   UNL     1       4.193  -2.367  22.224  1.00  0.00     0.006 C 
BRANCH  10  11
ATOM     11  C   UNL     1       3.111  -1.895  21.244  1.00  0.00     0.053 C 
BRANCH  11  12
ATOM     12  C   UNL     1       3.638  -1.895  19.844  1.00  0.00     0.041 C 
ATOM     13  O   UNL     1       3.824  -2.983  19.238  1.00  0.00    -0.550 OA
ATOM     14  O   UNL     1       3.877  -0.693  19.191  1.00  0.00    -0.550 OA
ENDBRANCH  11  12
ENDBRANCH  10  11
ENDBRANCH   9  10
ENDBRANCH   8   9
ENDBRANCH   1   8
TORSDOF 9
ENDMDL
MODEL 4
REMARK VINA RESULT:    -6.311      1.377      2.349
REMARK INTER + INTRA:         -10.115
REMARK INTER:                  -9.673
REMARK INTRA:                  -0.442
REMARK UNBOUND:                -0.484
REMARK SMILES O=C([O-])CCCCCCCCC(=O)[O-]
REMARK SMILES IDX 7 1 6 2 5 3 4 4 2 5 1 6 3 7 8 8 9 9 10 10 11 11 12 12 13 13
REMARK SMILES IDX 14 14
REMARK H PARENT
REMARK Flexibility Score: inf
ROOT
ATOM      1  C   UNL     1       6.545  -3.086  21.690  1.00  0.00     0.000 C 
ENDROOT
BRANCH   1   2
ATOM      2  C   UNL     1       7.295  -3.904  20.628  1.00  0.00     0.000 C 
BRANCH   2   3
ATOM      3  C   UNL     1       7.812  -5.223  21.215  1.00  0.00     0.006 C 
BRANCH   3   4
ATOM      4  C   UNL     1       6.761  -6.329  21.094  1.00  0.00     0.053 C 
BRANCH   4   5
ATOM      5  C   UNL     1       7.297  -7.622  21.620  1.00  0.00     0.041 C 
ATOM      6  O   UNL     1       7.576  -7.742  22.842  1.00  0.00    -0.550 OA
ATOM      7  O   UNL     1       7.536  -8.681  20.752  1.00  0.00    -0.550 OA
ENDBRANCH   4   5
ENDBRANCH   3   4
ENDBRANCH   2   3
ENDBRANCH   1   2
BRANCH   1   8
ATOM      8  C   UNL     1       5.017  -3.126  21.505  1.00  0.00     0.000 C 
BRANCH   8   9
ATOM      9  C   UNL     1       4.539  -3.306  20.050  1.00  0.00     0.000 C 
BRANCH   9  10
ATOM     10  C   UNL     1       3.253  -2.543  19.687  1.00  0.00     0.006 C 
BRANCH  10  11
ATOM     11  C   UNL     1       3.380  -1.028  19.894  1.00  0.00     0.053 C 
BRANCH  11  12
ATOM     12  C   UNL     1       2.264  -0.311  19.203  1.00  0.00     0.041 C 
ATOM     13  O   UNL     1       1.207  -0.926  18.902  1.00  0.00    -0.550 OA
ATOM     14  O   UNL     1       2.370   1.048  18.935  1.00  0.00    -0.550 OA
ENDBRANCH  11  12
ENDBRANCH  10  11
ENDBRANCH   9  10
ENDBRANCH   8   9
ENDBRANCH   1   8
TORSDOF 9
ENDMDL
MODEL 5
REMARK VINA RESULT:    -6.274      1.301      7.480
REMARK INTER + INTRA:         -10.059
REMARK INTER:                  -9.688
REMARK INTRA:                  -0.371
REMARK UNBOUND:                -0.484
REMARK SMILES O=C([O-])CCCCCCCCC(=O)[O-]
REMARK SMILES IDX 7 1 6 2 5 3 4 4 2 5 1 6 3 7 8 8 9 9 10 10 11 11 12 12 13 13
REMARK SMILES IDX 14 14
REMARK H PARENT
REMARK Flexibility Score: inf
ROOT
ATOM      1  C   UNL     1       5.677  -1.853  21.457  1.00  0.00     0.000 C 
ENDROOT
BRANCH   1   2
ATOM      2  C   UNL     1       4.191  -2.219  21.323  1.00  0.00     0.000 C 
BRANCH   2   3
ATOM      3  C   UNL     1       3.762  -2.238  19.851  1.00  0.00     0.006 C 
BRANCH   3   4
ATOM      4  C   UNL     1       2.355  -1.659  19.681  1.00  0.00     0.053 C 
BRANCH   4   5
ATOM      5  C   UNL     1       2.420  -0.288  19.089  1.00  0.00     0.041 C 
ATOM      6  O   UNL     1       3.497   0.137  18.593  1.00  0.00    -0.550 OA
ATOM      7  O   UNL     1       1.307   0.542  19.130  1.00  0.00    -0.550 OA
ENDBRANCH   4   5
ENDBRANCH   3   4
ENDBRANCH   2   3
ENDBRANCH   1   2
BRANCH   1   8
ATOM      8  C   UNL     1       6.554  -3.054  21.857  1.00  0.00     0.000 C 
BRANCH   8   9
ATOM      9  C   UNL     1       6.805  -4.082  20.736  1.00  0.00     0.000 C 
BRANCH   9  10
ATOM     10  C   UNL     1       6.488  -5.542  21.106  1.00  0.00     0.006 C 
BRANCH  10  11
ATOM     11  C   UNL     1       7.743  -6.354  21.454  1.00  0.00     0.053 C 
BRANCH  11  12
ATOM     12  C   UNL     1       7.386  -7.785  21.703  1.00  0.00     0.041 C 
ATOM     13  O   UNL     1       7.421  -8.620  20.760  1.00  0.00    -0.550 OA
ATOM     14  O   UNL     1       7.062  -8.208  22.985  1.00  0.00    -0.550 OA
ENDBRANCH  11  12
ENDBRANCH  10  11
ENDBRANCH   9  10
ENDBRANCH   8   9
ENDBRANCH   1   8
TORSDOF 9
ENDMDL
MODEL 6
REMARK VINA RESULT:    -6.110      2.274      7.685
REMARK INTER + INTRA:          -9.808
REMARK INTER:                  -9.324
REMARK INTRA:                  -0.484
REMARK UNBOUND:                -0.484
REMARK SMILES O=C([O-])CCCCCCCCC(=O)[O-]
REMARK SMILES IDX 7 1 6 2 5 3 4 4 2 5 1 6 3 7 8 8 9 9 10 10 11 11 12 12 13 13
REMARK SMILES IDX 14 14
REMARK H PARENT
REMARK Flexibility Score: inf
ROOT
ATOM      1  C   UNL     1       3.496  -1.894  21.478  1.00  0.00     0.000 C 
ENDROOT
BRANCH   1   2
ATOM      2  C   UNL     1       3.513  -1.976  19.944  1.00  0.00     0.000 C 
BRANCH   2   3
ATOM      3  C   UNL     1       2.235  -1.373  19.348  1.00  0.00     0.006 C 
BRANCH   3   4
ATOM      4  C   UNL     1       2.345   0.149  19.234  1.00  0.00     0.053 C 
BRANCH   4   5
ATOM      5  C   UNL     1       2.197   0.581  17.810  1.00  0.00     0.041 C 
ATOM      6  O   UNL     1       3.145   0.422  16.998  1.00  0.00    -0.550 OA
ATOM      7  O   UNL     1       1.028   1.204  17.390  1.00  0.00    -0.550 OA
ENDBRANCH   4   5
ENDBRANCH   3   4
ENDBRANCH   2   3
ENDBRANCH   1   2
BRANCH   1   8
ATOM      8  C   UNL     1       4.720  -2.566  22.126  1.00  0.00     0.000 C 
BRANCH   8   9
ATOM      9  C   UNL     1       6.086  -2.093  21.589  1.00  0.00     0.000 C 
BRANCH   9  10
ATOM     10  C   UNL     1       6.866  -3.140  20.775  1.00  0.00     0.006 C 
BRANCH  10  11
ATOM     11  C   UNL     1       6.184  -4.515  20.764  1.00  0.00     0.053 C 
BRANCH  11  12
ATOM     12  C   UNL     1       7.161  -5.585  21.138  1.00  0.00     0.041 C 
ATOM     13  O   UNL     1       8.341  -5.282  21.456  1.00  0.00    -0.550 OA
ATOM     14  O   UNL     1       6.754  -6.911  21.185  1.00  0.00    -0.550 OA
ENDBRANCH  11  12
ENDBRANCH  10  11
ENDBRANCH   9  10
ENDBRANCH   8   9
ENDBRANCH   1   8
TORSDOF 9
ENDMDL
MODEL 7
REMARK VINA RESULT:    -5.953      2.772      4.279
REMARK INTER + INTRA:          -9.568
REMARK INTER:                  -9.140
REMARK INTRA:                  -0.428
REMARK UNBOUND:                -0.484
REMARK SMILES O=C([O-])CCCCCCCCC(=O)[O-]
REMARK SMILES IDX 7 1 6 2 5 3 4 4 2 5 1 6 3 7 8 8 9 9 10 10 11 11 12 12 13 13
REMARK SMILES IDX 14 14
REMARK H PARENT
REMARK Flexibility Score: inf
ROOT
ATOM      1  C   UNL     1       5.394  -1.522  20.154  1.00  0.00     0.000 C 
ENDROOT
BRANCH   1   2
ATOM      2  C   UNL     1       6.112  -1.643  21.506  1.00  0.00     0.000 C 
BRANCH   2   3
ATOM      3  C   UNL     1       5.762  -2.967  22.197  1.00  0.00     0.006 C 
BRANCH   3   4
ATOM      4  C   UNL     1       5.489  -4.068  21.169  1.00  0.00     0.053 C 
BRANCH   4   5
ATOM      5  C   UNL     1       6.709  -4.908  20.963  1.00  0.00     0.041 C 
ATOM      6  O   UNL     1       7.726  -4.421  20.404  1.00  0.00    -0.550 OA
ATOM      7  O   UNL     1       6.707  -6.244  21.345  1.00  0.00    -0.550 OA
ENDBRANCH   4   5
ENDBRANCH   3   4
ENDBRANCH   2   3
ENDBRANCH   1   2
BRANCH   1   8
ATOM      8  C   UNL     1       5.268  -0.064  19.673  1.00  0.00     0.000 C 
BRANCH   8   9
ATOM      9  C   UNL     1       3.969   0.262  18.909  1.00  0.00     0.000 C 
BRANCH   9  10
ATOM     10  C   UNL     1       2.790  -0.686  19.192  1.00  0.00     0.006 C 
BRANCH  10  11
ATOM     11  C   UNL     1       1.444   0.046  19.278  1.00  0.00     0.053 C 
BRANCH  11  12
ATOM     12  C   UNL     1       1.258   0.939  18.092  1.00  0.00     0.041 C 
ATOM     13  O   UNL     1       0.949   0.450  16.973  1.00  0.00    -0.550 OA
ATOM     14  O   UNL     1       1.378   2.315  18.232  1.00  0.00    -0.550 OA
ENDBRANCH  11  12
ENDBRANCH  10  11
ENDBRANCH   9  10
ENDBRANCH   8   9
ENDBRANCH   1   8
TORSDOF 9
ENDMDL
MODEL 8
REMARK VINA RESULT:    -5.699      2.609      4.179
REMARK INTER + INTRA:          -9.182
REMARK INTER:                  -8.688
REMARK INTRA:                  -0.494
REMARK UNBOUND:                -0.484
REMARK SMILES O=C([O-])CCCCCCCCC(=O)[O-]
REMARK SMILES IDX 7 1 6 2 5 3 4 4 2 5 1 6 3 7 8 8 9 9 10 10 11 11 12 12 13 13
REMARK SMILES IDX 14 14
REMARK H PARENT
REMARK Flexibility Score: inf
ROOT
ATOM      1  C   UNL     1       6.309  -0.007  20.039  1.00  0.00     0.000 C 
ENDROOT
BRANCH   1   2
ATOM      2  C   UNL     1       6.138  -1.089  21.115  1.00  0.00     0.000 C 
BRANCH   2   3
ATOM      3  C   UNL     1       6.905  -2.363  20.739  1.00  0.00     0.006 C 
BRANCH   3   4
ATOM      4  C   UNL     1       6.390  -3.569  21.528  1.00  0.00     0.053 C 
BRANCH   4   5
ATOM      5  C   UNL     1       6.562  -4.826  20.737  1.00  0.00     0.041 C 
ATOM      6  O   UNL     1       6.534  -5.946  21.312  1.00  0.00    -0.550 OA
ATOM      7  O   UNL     1       6.804  -4.760  19.371  1.00  0.00    -0.550 OA
ENDBRANCH   4   5
ENDBRANCH   3   4
ENDBRANCH   2   3
ENDBRANCH   1   2
BRANCH   1   8
ATOM      8  C   UNL     1       4.991   0.715  19.704  1.00  0.00     0.000 C 
BRANCH   8   9
ATOM      9  C   UNL     1       4.066  -0.035  18.724  1.00  0.00     0.000 C 
BRANCH   9  10
ATOM     10  C   UNL     1       2.564   0.056  19.045  1.00  0.00     0.006 C 
BRANCH  10  11
ATOM     11  C   UNL     1       1.928  -1.313  19.320  1.00  0.00     0.053 C 
BRANCH  11  12
ATOM     12  C   UNL     1       2.869  -2.178  20.098  1.00  0.00     0.041 C 
ATOM     13  O   UNL     1       3.578  -3.034  19.507  1.00  0.00    -0.550 OA
ATOM     14  O   UNL     1       2.999  -2.006  21.470  1.00  0.00    -0.550 OA
ENDBRANCH  11  12
ENDBRANCH  10  11
ENDBRANCH   9  10
ENDBRANCH   8   9
ENDBRANCH   1   8
TORSDOF 9
ENDMDL
MODEL 9
REMARK VINA RESULT:    -5.396      2.371      7.517
REMARK INTER + INTRA:          -8.719
REMARK INTER:                  -8.480
REMARK INTRA:                  -0.239
REMARK UNBOUND:                -0.484
REMARK SMILES O=C([O-])CCCCCCCCC(=O)[O-]
REMARK SMILES IDX 7 1 6 2 5 3 4 4 2 5 1 6 3 7 8 8 9 9 10 10 11 11 12 12 13 13
REMARK SMILES IDX 14 14
REMARK H PARENT
REMARK Flexibility Score: inf
ROOT
ATOM      1  C   UNL     1       6.123  -0.188  20.774  1.00  0.00     0.000 C 
ENDROOT
BRANCH   1   2
ATOM      2  C   UNL     1       5.298   0.367  19.604  1.00  0.00     0.000 C 
BRANCH   2   3
ATOM      3  C   UNL     1       3.954  -0.362  19.483  1.00  0.00     0.006 C 
BRANCH   3   4
ATOM      4  C   UNL     1       3.152   0.156  18.287  1.00  0.00     0.053 C 
BRANCH   4   5
ATOM      5  C   UNL     1       1.715   0.339  18.659  1.00  0.00     0.041 C 
ATOM      6  O   UNL     1       1.000  -0.659  18.932  1.00  0.00    -0.550 OA
ATOM      7  O   UNL     1       1.153   1.610  18.657  1.00  0.00    -0.550 OA
ENDBRANCH   4   5
ENDBRANCH   3   4
ENDBRANCH   2   3
ENDBRANCH   1   2
BRANCH   1   8
ATOM      8  C   UNL     1       6.485  -1.675  20.598  1.00  0.00     0.000 C 
BRANCH   8   9
ATOM      9  C   UNL     1       5.619  -2.659  21.408  1.00  0.00     0.000 C 
BRANCH   9  10
ATOM     10  C   UNL     1       5.226  -3.948  20.665  1.00  0.00     0.006 C 
BRANCH  10  11
ATOM     11  C   UNL     1       5.501  -5.216  21.484  1.00  0.00     0.053 C 
BRANCH  11  12
ATOM     12  C   UNL     1       6.841  -5.782  21.136  1.00  0.00     0.041 C 
ATOM     13  O   UNL     1       7.013  -7.029  21.105  1.00  0.00    -0.550 OA
ATOM     14  O   UNL     1       7.888  -4.934  20.800  1.00  0.00    -0.550 OA
ENDBRANCH  11  12
ENDBRANCH  10  11
ENDBRANCH   9  10
ENDBRANCH   8   9
ENDBRANCH   1   8
TORSDOF 9
ENDMDL
