MODEL 1
REMARK VINA RESULT:    -4.665      0.000      0.000
REMARK INTER + INTRA:          -5.842
REMARK INTER:                  -5.756
REMARK INTRA:                  -0.086
REMARK UNBOUND:                -0.086
REMARK SMILES CCCCCC(=O)[O-]
REMARK SMILES IDX 4 1 5 2 6 3 7 4 8 5 3 6 2 7 1 8
REMARK H PARENT
REMARK Flexibility Score: inf
ROOT
ATOM      1  C   UNL     1      27.246 -11.547  20.273  1.00  0.00     0.006 C 
ENDROOT
BRANCH   1   2
ATOM      2  C   UNL     1      28.027 -10.839  21.389  1.00  0.00     0.053 C 
BRANCH   2   3
ATOM      3  C   UNL     1      27.920  -9.348  21.286  1.00  0.00     0.041 C 
ATOM      4  O   UNL     1      28.254  -8.621  22.259  1.00  0.00    -0.550 OA
ATOM      5  O   UNL     1      27.482  -8.761  20.106  1.00  0.00    -0.550 OA
ENDBRANCH   2   3
ENDBRANCH   1   2
BRANCH   1   6
ATOM      6  C   UNL     1      27.869 -12.902  19.899  1.00  0.00     0.000 C 
BRANCH   6   7
ATOM      7  C   UNL     1      27.238 -13.512  18.638  1.00  0.00    -0.003 C 
ATOM      8  C   UNL     1      26.231 -12.578  17.968  1.00  0.00     0.004 C 
ENDBRANCH   6   7
ENDBRANCH   1   6
TORSDOF 4
ENDMDL
MODEL 2
REMARK VINA RESULT:    -4.626      1.227      1.915
REMARK INTER + INTRA:          -5.794
REMARK INTER:                  -5.680
REMARK INTRA:                  -0.114
REMARK UNBOUND:                -0.086
REMARK SMILES CCCCCC(=O)[O-]
REMARK SMILES IDX 4 1 5 2 6 3 7 4 8 5 3 6 2 7 1 8
REMARK H PARENT
REMARK Flexibility Score: inf
ROOT
ATOM      1  C   UNL     1      27.712 -11.200  20.714  1.00  0.00     0.006 C 
ENDROOT
BRANCH   1   2
ATOM      2  C   UNL     1      26.481 -10.605  20.015  1.00  0.00     0.053 C 
BRANCH   2   3
ATOM      3  C   UNL     1      26.615  -9.127  19.812  1.00  0.00     0.041 C 
ATOM      4  O   UNL     1      26.181  -8.591  18.759  1.00  0.00    -0.550 OA
ATOM      5  O   UNL     1      27.189  -8.337  20.801  1.00  0.00    -0.550 OA
ENDBRANCH   2   3
ENDBRANCH   1   2
BRANCH   1   6
ATOM      6  C   UNL     1      28.075 -12.590  20.166  1.00  0.00     0.000 C 
BRANCH   6   7
ATOM      7  C   UNL     1      26.910 -13.249  19.411  1.00  0.00    -0.003 C 
ATOM      8  C   UNL     1      27.282 -13.657  17.986  1.00  0.00     0.004 C 
ENDBRANCH   6   7
ENDBRANCH   1   6
TORSDOF 4
ENDMDL
MODEL 3
REMARK VINA RESULT:    -4.239      2.840      4.674
REMARK INTER + INTRA:          -5.317
REMARK INTER:                  -5.256
REMARK INTRA:                  -0.061
REMARK UNBOUND:                -0.086
REMARK SMILES CCCCCC(=O)[O-]
REMARK SMILES IDX 4 1 5 2 6 3 7 4 8 5 3 6 2 7 1 8
REMARK H PARENT
REMARK Flexibility Score: inf
ROOT
ATOM      1  C   UNL     1      27.091 -11.274  20.304  1.00  0.00     0.006 C 
ENDROOT
BRANCH   1   2
ATOM      2  C   UNL     1      27.682 -12.623  19.872  1.00  0.00     0.053 C 
BRANCH   2   3
ATOM      3  C   UNL     1      26.886 -13.254  18.770  1.00  0.00     0.041 C 
ATOM      4  O   UNL     1      26.385 -12.540  17.862  1.00  0.00    -0.550 OA
ATOM      5  O   UNL     1      26.724 -14.633  18.730  1.00  0.00    -0.550 OA
ENDBRANCH   2   3
ENDBRANCH   1   2
BRANCH   1   6
ATOM      6  C   UNL     1      27.849 -10.662  21.494  1.00  0.00     0.000 C 
BRANCH   6   7
ATOM      7  C   UNL     1      29.216 -10.088  21.089  1.00  0.00    -0.003 C 
ATOM      8  C   UNL     1      29.842  -9.223  22.182  1.00  0.00     0.004 C 
ENDBRANCH   6   7
ENDBRANCH   1   6
TORSDOF 4
ENDMDL
MODEL 4
REMARK VINA RESULT:    -4.130      8.841      9.552
REMARK INTER + INTRA:          -5.182
REMARK INTER:                  -5.085
REMARK INTRA:                  -0.097
REMARK UNBOUND:                -0.086
REMARK SMILES CCCCCC(=O)[O-]
REMARK SMILES IDX 4 1 5 2 6 3 7 4 8 5 3 6 2 7 1 8
REMARK H PARENT
REMARK Flexibility Score: inf
ROOT
ATOM      1  C   UNL     1      36.379  -9.679  21.400  1.00  0.00     0.006 C 
ENDROOT
BRANCH   1   2
ATOM      2  C   UNL     1      36.882 -10.901  20.617  1.00  0.00     0.053 C 
BRANCH   2   3
ATOM      3  C   UNL     1      38.246 -11.329  21.067  1.00  0.00     0.041 C 
ATOM      4  O   UNL     1      39.272 -10.812  20.554  1.00  0.00    -0.550 OA
ATOM      5  O   UNL     1      38.381 -12.277  22.074  1.00  0.00    -0.550 OA
ENDBRANCH   2   3
ENDBRANCH   1   2
BRANCH   1   6
ATOM      6  C   UNL     1      34.956  -9.270  20.986  1.00  0.00     0.000 C 
BRANCH   6   7
ATOM      7  C   UNL     1      34.426 -10.097  19.804  1.00  0.00    -0.003 C 
ATOM      8  C   UNL     1      33.151  -9.513  19.198  1.00  0.00     0.004 C 
ENDBRANCH   6   7
ENDBRANCH   1   6
TORSDOF 4
ENDMDL
MODEL 5
REMARK VINA RESULT:    -4.100     10.275     11.085
REMARK INTER + INTRA:          -5.145
REMARK INTER:                  -5.019
REMARK INTRA:                  -0.127
REMARK UNBOUND:                -0.086
REMARK SMILES CCCCCC(=O)[O-]
REMARK SMILES IDX 4 1 5 2 6 3 7 4 8 5 3 6 2 7 1 8
REMARK H PARENT
REMARK Flexibility Score: inf
ROOT
ATOM      1  C   UNL     1      37.855 -10.640  21.329  1.00  0.00     0.006 C 
ENDROOT
BRANCH   1   2
ATOM      2  C   UNL     1      38.411 -11.918  21.972  1.00  0.00     0.053 C 
BRANCH   2   3
ATOM      3  C   UNL     1      39.358 -12.636  21.059  1.00  0.00     0.041 C 
ATOM      4  O   UNL     1      40.162 -11.984  20.342  1.00  0.00    -0.550 OA
ATOM      5  O   UNL     1      39.373 -14.025  21.022  1.00  0.00    -0.550 OA
ENDBRANCH   2   3
ENDBRANCH   1   2
BRANCH   1   6
ATOM      6  C   UNL     1      36.539 -10.896  20.576  1.00  0.00     0.000 C 
BRANCH   6   7
ATOM      7  C   UNL     1      35.488  -9.805  20.839  1.00  0.00    -0.003 C 
ATOM      8  C   UNL     1      35.976  -8.738  21.818  1.00  0.00     0.004 C 
ENDBRANCH   6   7
ENDBRANCH   1   6
TORSDOF 4
ENDMDL
MODEL 6
REMARK VINA RESULT:    -4.042      2.780      3.788
REMARK INTER + INTRA:          -5.074
REMARK INTER:                  -4.980
REMARK INTRA:                  -0.094
REMARK UNBOUND:                -0.086
REMARK SMILES CCCCCC(=O)[O-]
REMARK SMILES IDX 4 1 5 2 6 3 7 4 8 5 3 6 2 7 1 8
REMARK H PARENT
REMARK Flexibility Score: inf
ROOT
ATOM      1  C   UNL     1      27.091  -9.092  19.949  1.00  0.00     0.006 C 
ENDROOT
BRANCH   1   2
ATOM      2  C   UNL     1      26.189  -8.544  18.833  1.00  0.00     0.053 C 
BRANCH   2   3
ATOM      3  C   UNL     1      25.281  -7.462  19.331  1.00  0.00     0.041 C 
ATOM      4  O   UNL     1      24.235  -7.757  19.967  1.00  0.00    -0.550 OA
ATOM      5  O   UNL     1      25.605  -6.128  19.119  1.00  0.00    -0.550 OA
ENDBRANCH   2   3
ENDBRANCH   1   2
BRANCH   1   6
ATOM      6  C   UNL     1      26.823 -10.580  20.233  1.00  0.00     0.000 C 
BRANCH   6   7
ATOM      7  C   UNL     1      27.957 -11.240  21.032  1.00  0.00    -0.003 C 
ATOM      8  C   UNL     1      28.540 -10.319  22.103  1.00  0.00     0.004 C 
ENDBRANCH   6   7
ENDBRANCH   1   6
TORSDOF 4
ENDMDL
MODEL 7
REMARK VINA RESULT:    -4.000      8.256      9.044
REMARK INTER + INTRA:          -5.022
REMARK INTER:                  -4.918
REMARK INTRA:                  -0.104
REMARK UNBOUND:                -0.086
REMARK SMILES CCCCCC(=O)[O-]
REMARK SMILES IDX 4 1 5 2 6 3 7 4 8 5 3 6 2 7 1 8
REMARK H PARENT
REMARK Flexibility Score: inf
ROOT
ATOM      1  C   UNL     1      36.485  -9.728  21.577  1.00  0.00     0.006 C 
ENDROOT
BRANCH   1   2
ATOM      2  C   UNL     1      36.048  -8.380  22.169  1.00  0.00     0.053 C 
BRANCH   2   3
ATOM      3  C   UNL     1      37.147  -7.734  22.957  1.00  0.00     0.041 C 
ATOM      4  O   UNL     1      38.243  -8.332  23.121  1.00  0.00    -0.550 OA
ATOM      5  O   UNL     1      36.971  -6.460  23.482  1.00  0.00    -0.550 OA
ENDBRANCH   2   3
ENDBRANCH   1   2
BRANCH   1   6
ATOM      6  C   UNL     1      35.497 -10.243  20.517  1.00  0.00     0.000 C 
BRANCH   6   7
ATOM      7  C   UNL     1      34.240  -9.365  20.407  1.00  0.00    -0.003 C 
ATOM      8  C   UNL     1      33.348  -9.754  19.229  1.00  0.00     0.004 C 
ENDBRANCH   6   7
ENDBRANCH   1   6
TORSDOF 4
ENDMDL
MODEL 8
REMARK VINA RESULT:    -3.937      2.953      4.506
REMARK INTER + INTRA:          -4.945
REMARK INTER:                  -4.882
REMARK INTRA:                  -0.062
REMARK UNBOUND:                -0.086
REMARK SMILES CCCCCC(=O)[O-]
REMARK SMILES IDX 4 1 5 2 6 3 7 4 8 5 3 6 2 7 1 8
REMARK H PARENT
REMARK Flexibility Score: inf
ROOT
ATOM      1  C   UNL     1      26.525 -11.001  20.045  1.00  0.00     0.006 C 
ENDROOT
BRANCH   1   2
ATOM      2  C   UNL     1      27.341 -12.284  19.834  1.00  0.00     0.053 C 
BRANCH   2   3
ATOM      3  C   UNL     1      26.780 -13.125  18.727  1.00  0.00     0.041 C 
ATOM      4  O   UNL     1      26.805 -14.381  18.812  1.00  0.00    -0.550 OA
ATOM      5  O   UNL     1      26.203 -12.521  17.617  1.00  0.00    -0.550 OA
ENDBRANCH   2   3
ENDBRANCH   1   2
BRANCH   1   6
ATOM      6  C   UNL     1      27.405  -9.821  20.490  1.00  0.00     0.000 C 
BRANCH   6   7
ATOM      7  C   UNL     1      26.742  -8.460  20.228  1.00  0.00    -0.003 C 
ATOM      8  C   UNL     1      27.440  -7.664  19.126  1.00  0.00     0.004 C 
ENDBRANCH   6   7
ENDBRANCH   1   6
TORSDOF 4
ENDMDL
MODEL 9
REMARK VINA RESULT:    -3.915      2.373      3.183
REMARK INTER + INTRA:          -4.917
REMARK INTER:                  -4.866
REMARK INTRA:                  -0.051
REMARK UNBOUND:                -0.086
REMARK SMILES CCCCCC(=O)[O-]
REMARK SMILES IDX 4 1 5 2 6 3 7 4 8 5 3 6 2 7 1 8
REMARK H PARENT
REMARK Flexibility Score: inf
ROOT
ATOM      1  C   UNL     1      26.989  -8.872  20.192  1.00  0.00     0.006 C 
ENDROOT
BRANCH   1   2
ATOM      2  C   UNL     1      26.727  -7.960  18.985  1.00  0.00     0.053 C 
BRANCH   2   3
ATOM      3  C   UNL     1      27.368  -6.616  19.152  1.00  0.00     0.041 C 
ATOM      4  O   UNL     1      27.632  -6.180  20.303  1.00  0.00    -0.550 OA
ATOM      5  O   UNL     1      27.702  -5.861  18.035  1.00  0.00    -0.550 OA
ENDBRANCH   2   3
ENDBRANCH   1   2
BRANCH   1   6
ATOM      6  C   UNL     1      26.633 -10.339  19.899  1.00  0.00     0.000 C 
BRANCH   6   7
ATOM      7  C   UNL     1      27.556 -11.326  20.630  1.00  0.00    -0.003 C 
ATOM      8  C   UNL     1      27.714 -12.652  19.886  1.00  0.00     0.004 C 
ENDBRANCH   6   7
ENDBRANCH   1   6
TORSDOF 4
ENDMDL
