MODEL 1
REMARK VINA RESULT:    -2.340      0.000      0.000
REMARK INTER + INTRA:          -2.340
REMARK INTER:                  -2.340
REMARK INTRA:                   0.000
REMARK UNBOUND:                 0.000
REMARK SMILES CC(=O)[O-]
REMARK SMILES IDX 1 1 2 2 3 3 4 4
REMARK H PARENT
REMARK Flexibility Score: inf
ROOT
ATOM      1  C   UNL     1      38.459 -11.591  27.633  1.00  0.00     0.063 C 
ATOM      2  C   UNL     1      36.999 -11.309  27.744  1.00  0.00     0.038 C 
ATOM      3  O   UNL     1      36.458 -11.215  28.877  1.00  0.00    -0.550 OA
ATOM      4  O   UNL     1      36.242 -11.096  26.599  1.00  0.00    -0.550 OA
ENDROOT
TORSDOF 0
ENDMDL
MODEL 2
REMARK VINA RESULT:    -2.327      1.573      1.822
REMARK INTER + INTRA:          -2.327
REMARK INTER:                  -2.327
REMARK INTRA:                   0.000
REMARK UNBOUND:                 0.000
REMARK SMILES CC(=O)[O-]
REMARK SMILES IDX 1 1 2 2 3 3 4 4
REMARK H PARENT
REMARK Flexibility Score: inf
ROOT
ATOM      1  C   UNL     1      36.641 -11.125  26.896  1.00  0.00     0.063 C 
ATOM      2  C   UNL     1      37.103 -11.510  28.260  1.00  0.00     0.038 C 
ATOM      3  O   UNL     1      36.428 -11.185  29.271  1.00  0.00    -0.550 OA
ATOM      4  O   UNL     1      38.252 -12.275  28.415  1.00  0.00    -0.550 OA
ENDROOT
TORSDOF 0
ENDMDL
MODEL 3
REMARK VINA RESULT:    -2.218     13.279     13.618
REMARK INTER + INTRA:          -2.218
REMARK INTER:                  -2.218
REMARK INTRA:                   0.000
REMARK UNBOUND:                 0.000
REMARK SMILES CC(=O)[O-]
REMARK SMILES IDX 1 1 2 2 3 3 4 4
REMARK H PARENT
REMARK Flexibility Score: inf
ROOT
ATOM      1  C   UNL     1      41.597  -0.277  18.810  1.00  0.00     0.063 C 
ATOM      2  C   UNL     1      41.320  -1.002  20.082  1.00  0.00     0.038 C 
ATOM      3  O   UNL     1      41.957  -0.709  21.128  1.00  0.00    -0.550 OA
ATOM      4  O   UNL     1      40.321  -1.966  20.131  1.00  0.00    -0.550 OA
ENDROOT
TORSDOF 0
ENDMDL
MODEL 4
REMARK VINA RESULT:    -2.202     13.203     13.645
REMARK INTER + INTRA:          -2.202
REMARK INTER:                  -2.202
REMARK INTRA:                   0.000
REMARK UNBOUND:                 0.000
REMARK SMILES CC(=O)[O-]
REMARK SMILES IDX 1 1 2 2 3 3 4 4
REMARK H PARENT
REMARK Flexibility Score: inf
ROOT
ATOM      1  C   UNL     1      42.112  -0.583  21.052  1.00  0.00     0.063 C 
ATOM      2  C   UNL     1      41.274  -1.042  19.908  1.00  0.00     0.038 C 
ATOM      3  O   UNL     1      41.475  -0.581  18.754  1.00  0.00    -0.550 OA
ATOM      4  O   UNL     1      40.306  -2.019  20.101  1.00  0.00    -0.550 OA
ENDROOT
TORSDOF 0
ENDMDL
MODEL 5
REMARK VINA RESULT:    -2.164      3.557      3.802
REMARK INTER + INTRA:          -2.164
REMARK INTER:                  -2.164
REMARK INTRA:                   0.000
REMARK UNBOUND:                 0.000
REMARK SMILES CC(=O)[O-]
REMARK SMILES IDX 1 1 2 2 3 3 4 4
REMARK H PARENT
REMARK Flexibility Score: inf
ROOT
ATOM      1  C   UNL     1      40.973  -9.469  25.107  1.00  0.00     0.063 C 
ATOM      2  C   UNL     1      39.699  -9.525  25.879  1.00  0.00     0.038 C 
ATOM      3  O   UNL     1      39.668 -10.076  27.010  1.00  0.00    -0.550 OA
ATOM      4  O   UNL     1      38.553  -8.920  25.375  1.00  0.00    -0.550 OA
ENDROOT
TORSDOF 0
ENDMDL
MODEL 6
REMARK VINA RESULT:    -2.117      3.624      4.116
REMARK INTER + INTRA:          -2.117
REMARK INTER:                  -2.117
REMARK INTRA:                   0.000
REMARK UNBOUND:                 0.000
REMARK SMILES CC(=O)[O-]
REMARK SMILES IDX 1 1 2 2 3 3 4 4
REMARK H PARENT
REMARK Flexibility Score: inf
ROOT
ATOM      1  C   UNL     1      39.722 -10.459  27.006  1.00  0.00     0.063 C 
ATOM      2  C   UNL     1      39.786  -9.547  25.828  1.00  0.00     0.038 C 
ATOM      3  O   UNL     1      38.757  -8.926  25.453  1.00  0.00    -0.550 OA
ATOM      4  O   UNL     1      40.995  -9.337  25.175  1.00  0.00    -0.550 OA
ENDROOT
TORSDOF 0
ENDMDL
MODEL 7
REMARK VINA RESULT:    -2.099     19.428     19.872
REMARK INTER + INTRA:          -2.099
REMARK INTER:                  -2.099
REMARK INTRA:                   0.000
REMARK UNBOUND:                 0.000
REMARK SMILES CC(=O)[O-]
REMARK SMILES IDX 1 1 2 2 3 3 4 4
REMARK H PARENT
REMARK Flexibility Score: inf
ROOT
ATOM      1  C   UNL     1      52.804  -0.640  20.105  1.00  0.00     0.063 C 
ATOM      2  C   UNL     1      51.709  -1.083  19.196  1.00  0.00     0.038 C 
ATOM      3  O   UNL     1      50.558  -1.304  19.655  1.00  0.00    -0.550 OA
ATOM      4  O   UNL     1      51.941  -1.202  17.832  1.00  0.00    -0.550 OA
ENDROOT
TORSDOF 0
ENDMDL
MODEL 8
REMARK VINA RESULT:    -2.094     13.838     14.271
REMARK INTER + INTRA:          -2.094
REMARK INTER:                  -2.094
REMARK INTRA:                   0.000
REMARK UNBOUND:                 0.000
REMARK SMILES CC(=O)[O-]
REMARK SMILES IDX 1 1 2 2 3 3 4 4
REMARK H PARENT
REMARK Flexibility Score: inf
ROOT
ATOM      1  C   UNL     1      40.681  -1.711  20.035  1.00  0.00     0.063 C 
ATOM      2  C   UNL     1      41.483  -0.489  19.738  1.00  0.00     0.038 C 
ATOM      3  O   UNL     1      41.710  -0.157  18.545  1.00  0.00    -0.550 OA
ATOM      4  O   UNL     1      41.935   0.316  20.776  1.00  0.00    -0.550 OA
ENDROOT
TORSDOF 0
ENDMDL
MODEL 9
REMARK VINA RESULT:    -2.063     19.271     19.690
REMARK INTER + INTRA:          -2.063
REMARK INTER:                  -2.063
REMARK INTRA:                   0.000
REMARK UNBOUND:                 0.000
REMARK SMILES CC(=O)[O-]
REMARK SMILES IDX 1 1 2 2 3 3 4 4
REMARK H PARENT
REMARK Flexibility Score: inf
ROOT
ATOM      1  C   UNL     1      51.399  -1.104  18.802  1.00  0.00     0.063 C 
ATOM      2  C   UNL     1      51.831  -0.830  20.202  1.00  0.00     0.038 C 
ATOM      3  O   UNL     1      53.047  -0.631  20.461  1.00  0.00    -0.550 OA
ATOM      4  O   UNL     1      50.887  -0.741  21.217  1.00  0.00    -0.550 OA
ENDROOT
TORSDOF 0
ENDMDL
