MODEL 1
REMARK VINA RESULT:    -3.437      0.000      0.000
REMARK INTER + INTRA:          -6.971
REMARK INTER:                  -6.049
REMARK INTRA:                  -0.923
REMARK UNBOUND:                -0.923
REMARK SMILES CCCCCCCCCCCCCCC(=O)[O-]
REMARK SMILES IDX 9 1 10 2 11 3 12 4 13 5 14 6 15 7 16 8 17 9 8 10 7 11 6 12
REMARK SMILES IDX 5 13 4 14 3 15 2 16 1 17
REMARK H PARENT
REMARK Flexibility Score: inf
ROOT
ATOM      1  C   UNL     1      55.243  25.701 -35.745  1.00  0.00     0.000 C 
ENDROOT
BRANCH   1   2
ATOM      2  C   UNL     1      54.868  25.833 -37.229  1.00  0.00     0.000 C 
BRANCH   2   3
ATOM      3  C   UNL     1      55.182  27.228 -37.796  1.00  0.00     0.000 C 
BRANCH   3   4
ATOM      4  C   UNL     1      54.132  27.700 -38.816  1.00  0.00     0.000 C 
BRANCH   4   5
ATOM      5  C   UNL     1      53.962  29.230 -38.826  1.00  0.00     0.006 C 
BRANCH   5   6
ATOM      6  C   UNL     1      55.024  29.935 -37.971  1.00  0.00     0.053 C 
BRANCH   6   7
ATOM      7  C   UNL     1      54.526  31.244 -37.439  1.00  0.00     0.041 C 
ATOM      8  O   UNL     1      55.285  31.979 -36.751  1.00  0.00    -0.550 OA
ATOM      9  O   UNL     1      53.216  31.638 -37.674  1.00  0.00    -0.550 OA
ENDBRANCH   6   7
ENDBRANCH   5   6
ENDBRANCH   4   5
ENDBRANCH   3   4
ENDBRANCH   2   3
ENDBRANCH   1   2
BRANCH   1  10
ATOM     10  C   UNL     1      55.523  27.057 -35.079  1.00  0.00     0.000 C 
BRANCH  10  11
ATOM     11  C   UNL     1      56.985  27.149 -34.619  1.00  0.00    -0.000 C 
BRANCH  11  12
ATOM     12  C   UNL     1      57.124  27.626 -33.165  1.00  0.00    -0.000 C 
BRANCH  12  13
ATOM     13  C   UNL     1      55.861  28.344 -32.656  1.00  0.00    -0.000 C 
BRANCH  13  14
ATOM     14  C   UNL     1      55.987  29.877 -32.702  1.00  0.00    -0.000 C 
BRANCH  14  15
ATOM     15  C   UNL     1      55.252  30.627 -31.574  1.00  0.00    -0.000 C 
BRANCH  15  16
ATOM     16  C   UNL     1      56.179  31.111 -30.440  1.00  0.00    -0.003 C 
ATOM     17  C   UNL     1      56.381  30.051 -29.357  1.00  0.00     0.004 C 
ENDBRANCH  15  16
ENDBRANCH  14  15
ENDBRANCH  13  14
ENDBRANCH  12  13
ENDBRANCH  11  12
ENDBRANCH  10  11
ENDBRANCH   1  10
TORSDOF 13
ENDMDL
MODEL 2
REMARK VINA RESULT:    -3.389     20.177     22.220
REMARK INTER + INTRA:          -6.887
REMARK INTER:                  -6.364
REMARK INTRA:                  -0.523
REMARK UNBOUND:                -0.923
REMARK SMILES CCCCCCCCCCCCCCC(=O)[O-]
REMARK SMILES IDX 9 1 10 2 11 3 12 4 13 5 14 6 15 7 16 8 17 9 8 10 7 11 6 12
REMARK SMILES IDX 5 13 4 14 3 15 2 16 1 17
REMARK H PARENT
REMARK Flexibility Score: inf
ROOT
ATOM      1  C   UNL     1      40.020  12.821 -35.388  1.00  0.00     0.000 C 
ENDROOT
BRANCH   1   2
ATOM      2  C   UNL     1      38.924  12.412 -36.385  1.00  0.00     0.000 C 
BRANCH   2   3
ATOM      3  C   UNL     1      37.640  13.246 -36.227  1.00  0.00     0.000 C 
BRANCH   3   4
ATOM      4  C   UNL     1      37.670  14.141 -34.978  1.00  0.00     0.000 C 
BRANCH   4   5
ATOM      5  C   UNL     1      37.002  13.480 -33.758  1.00  0.00     0.006 C 
BRANCH   5   6
ATOM      6  C   UNL     1      36.882  14.446 -32.571  1.00  0.00     0.053 C 
BRANCH   6   7
ATOM      7  C   UNL     1      36.875  13.716 -31.262  1.00  0.00     0.041 C 
ATOM      8  O   UNL     1      36.898  14.358 -30.179  1.00  0.00    -0.550 OA
ATOM      9  O   UNL     1      36.875  12.328 -31.240  1.00  0.00    -0.550 OA
ENDBRANCH   6   7
ENDBRANCH   5   6
ENDBRANCH   4   5
ENDBRANCH   3   4
ENDBRANCH   2   3
ENDBRANCH   1   2
BRANCH   1  10
ATOM     10  C   UNL     1      41.362  13.124 -36.071  1.00  0.00     0.000 C 
BRANCH  10  11
ATOM     11  C   UNL     1      42.336  11.947 -35.908  1.00  0.00    -0.000 C 
BRANCH  11  12
ATOM     12  C   UNL     1      43.712  12.222 -36.534  1.00  0.00    -0.000 C 
BRANCH  12  13
ATOM     13  C   UNL     1      44.828  12.345 -35.482  1.00  0.00    -0.000 C 
BRANCH  13  14
ATOM     14  C   UNL     1      44.284  12.477 -34.049  1.00  0.00    -0.000 C 
BRANCH  14  15
ATOM     15  C   UNL     1      45.315  12.938 -32.999  1.00  0.00    -0.000 C 
BRANCH  15  16
ATOM     16  C   UNL     1      44.925  12.588 -31.548  1.00  0.00    -0.003 C 
ATOM     17  C   UNL     1      46.131  12.570 -30.608  1.00  0.00     0.004 C 
ENDBRANCH  15  16
ENDBRANCH  14  15
ENDBRANCH  13  14
ENDBRANCH  12  13
ENDBRANCH  11  12
ENDBRANCH  10  11
ENDBRANCH   1  10
TORSDOF 13
ENDMDL
MODEL 3
REMARK VINA RESULT:    -3.063      1.416      2.150
REMARK INTER + INTRA:          -6.313
REMARK INTER:                  -5.368
REMARK INTRA:                  -0.945
REMARK UNBOUND:                -0.923
REMARK SMILES CCCCCCCCCCCCCCC(=O)[O-]
REMARK SMILES IDX 9 1 10 2 11 3 12 4 13 5 14 6 15 7 16 8 17 9 8 10 7 11 6 12
REMARK SMILES IDX 5 13 4 14 3 15 2 16 1 17
REMARK H PARENT
REMARK Flexibility Score: inf
ROOT
ATOM      1  C   UNL     1      55.180  27.266 -35.217  1.00  0.00     0.000 C 
ENDROOT
BRANCH   1   2
ATOM      2  C   UNL     1      55.351  27.268 -36.744  1.00  0.00     0.000 C 
BRANCH   2   3
ATOM      3  C   UNL     1      55.207  28.674 -37.353  1.00  0.00     0.000 C 
BRANCH   3   4
ATOM      4  C   UNL     1      56.232  29.670 -36.785  1.00  0.00     0.000 C 
BRANCH   4   5
ATOM      5  C   UNL     1      55.584  30.742 -35.891  1.00  0.00     0.006 C 
BRANCH   5   6
ATOM      6  C   UNL     1      55.354  32.060 -36.644  1.00  0.00     0.053 C 
BRANCH   6   7
ATOM      7  C   UNL     1      54.374  31.893 -37.766  1.00  0.00     0.041 C 
ATOM      8  O   UNL     1      53.164  31.645 -37.519  1.00  0.00    -0.550 OA
ATOM      9  O   UNL     1      54.804  31.979 -39.083  1.00  0.00    -0.550 OA
ENDBRANCH   6   7
ENDBRANCH   5   6
ENDBRANCH   4   5
ENDBRANCH   3   4
ENDBRANCH   2   3
ENDBRANCH   1   2
BRANCH   1  10
ATOM     10  C   UNL     1      56.386  26.660 -34.484  1.00  0.00     0.000 C 
BRANCH  10  11
ATOM     11  C   UNL     1      57.122  27.730 -33.663  1.00  0.00    -0.000 C 
BRANCH  11  12
ATOM     12  C   UNL     1      56.178  28.552 -32.772  1.00  0.00    -0.000 C 
BRANCH  12  13
ATOM     13  C   UNL     1      56.019  27.948 -31.365  1.00  0.00    -0.000 C 
BRANCH  13  14
ATOM     14  C   UNL     1      56.794  28.728 -30.289  1.00  0.00    -0.000 C 
BRANCH  14  15
ATOM     15  C   UNL     1      55.918  29.447 -29.245  1.00  0.00    -0.000 C 
BRANCH  15  16
ATOM     16  C   UNL     1      56.561  30.723 -28.665  1.00  0.00    -0.003 C 
ATOM     17  C   UNL     1      56.431  31.923 -29.604  1.00  0.00     0.004 C 
ENDBRANCH  15  16
ENDBRANCH  14  15
ENDBRANCH  13  14
ENDBRANCH  12  13
ENDBRANCH  11  12
ENDBRANCH  10  11
ENDBRANCH   1  10
TORSDOF 13
ENDMDL
MODEL 4
REMARK VINA RESULT:    -2.859     18.908     21.478
REMARK INTER + INTRA:          -5.955
REMARK INTER:                  -5.110
REMARK INTRA:                  -0.845
REMARK UNBOUND:                -0.923
REMARK SMILES CCCCCCCCCCCCCCC(=O)[O-]
REMARK SMILES IDX 9 1 10 2 11 3 12 4 13 5 14 6 15 7 16 8 17 9 8 10 7 11 6 12
REMARK SMILES IDX 5 13 4 14 3 15 2 16 1 17
REMARK H PARENT
REMARK Flexibility Score: inf
ROOT
ATOM      1  C   UNL     1      43.632  11.909 -35.625  1.00  0.00     0.000 C 
ENDROOT
BRANCH   1   2
ATOM      2  C   UNL     1      44.985  12.452 -36.114  1.00  0.00     0.000 C 
BRANCH   2   3
ATOM      3  C   UNL     1      45.990  12.652 -34.966  1.00  0.00     0.000 C 
BRANCH   3   4
ATOM      4  C   UNL     1      45.315  12.654 -33.585  1.00  0.00     0.000 C 
BRANCH   4   5
ATOM      5  C   UNL     1      46.277  13.065 -32.455  1.00  0.00     0.006 C 
BRANCH   5   6
ATOM      6  C   UNL     1      46.326  12.022 -31.330  1.00  0.00     0.053 C 
BRANCH   6   7
ATOM      7  C   UNL     1      45.912  12.607 -30.015  1.00  0.00     0.041 C 
ATOM      8  O   UNL     1      45.382  13.749 -29.967  1.00  0.00    -0.550 OA
ATOM      9  O   UNL     1      46.140  11.905 -28.838  1.00  0.00    -0.550 OA
ENDBRANCH   6   7
ENDBRANCH   5   6
ENDBRANCH   4   5
ENDBRANCH   3   4
ENDBRANCH   2   3
ENDBRANCH   1   2
BRANCH   1  10
ATOM     10  C   UNL     1      42.566  11.886 -36.730  1.00  0.00     0.000 C 
BRANCH  10  11
ATOM     11  C   UNL     1      41.205  12.345 -36.187  1.00  0.00    -0.000 C 
BRANCH  11  12
ATOM     12  C   UNL     1      40.846  13.778 -36.609  1.00  0.00    -0.000 C 
BRANCH  12  13
ATOM     13  C   UNL     1      40.399  14.650 -35.423  1.00  0.00    -0.000 C 
BRANCH  13  14
ATOM     14  C   UNL     1      38.868  14.739 -35.292  1.00  0.00    -0.000 C 
BRANCH  14  15
ATOM     15  C   UNL     1      38.081  14.366 -36.563  1.00  0.00    -0.000 C 
BRANCH  15  16
ATOM     16  C   UNL     1      37.034  13.255 -36.344  1.00  0.00    -0.003 C 
ATOM     17  C   UNL     1      37.672  11.912 -35.988  1.00  0.00     0.004 C 
ENDBRANCH  15  16
ENDBRANCH  14  15
ENDBRANCH  13  14
ENDBRANCH  12  13
ENDBRANCH  11  12
ENDBRANCH  10  11
ENDBRANCH   1  10
TORSDOF 13
ENDMDL
MODEL 5
REMARK VINA RESULT:    -2.685      1.203      2.255
REMARK INTER + INTRA:          -5.648
REMARK INTER:                  -4.808
REMARK INTRA:                  -0.840
REMARK UNBOUND:                -0.923
REMARK SMILES CCCCCCCCCCCCCCC(=O)[O-]
REMARK SMILES IDX 9 1 10 2 11 3 12 4 13 5 14 6 15 7 16 8 17 9 8 10 7 11 6 12
REMARK SMILES IDX 5 13 4 14 3 15 2 16 1 17
REMARK H PARENT
REMARK Flexibility Score: inf
ROOT
ATOM      1  C   UNL     1      56.503  26.405 -34.482  1.00  0.00     0.000 C 
ENDROOT
BRANCH   1   2
ATOM      2  C   UNL     1      55.429  26.483 -35.579  1.00  0.00     0.000 C 
BRANCH   2   3
ATOM      3  C   UNL     1      55.175  27.923 -36.056  1.00  0.00     0.000 C 
BRANCH   3   4
ATOM      4  C   UNL     1      55.463  28.106 -37.555  1.00  0.00     0.000 C 
BRANCH   4   5
ATOM      5  C   UNL     1      54.448  29.037 -38.244  1.00  0.00     0.006 C 
BRANCH   5   6
ATOM      6  C   UNL     1      55.104  30.326 -38.759  1.00  0.00     0.053 C 
BRANCH   6   7
ATOM      7  C   UNL     1      54.501  31.544 -38.129  1.00  0.00     0.041 C 
ATOM      8  O   UNL     1      53.463  32.063 -38.618  1.00  0.00    -0.550 OA
ATOM      9  O   UNL     1      55.104  32.125 -37.021  1.00  0.00    -0.550 OA
ENDBRANCH   6   7
ENDBRANCH   5   6
ENDBRANCH   4   5
ENDBRANCH   3   4
ENDBRANCH   2   3
ENDBRANCH   1   2
BRANCH   1  10
ATOM     10  C   UNL     1      56.726  27.749 -33.772  1.00  0.00     0.000 C 
BRANCH  10  11
ATOM     11  C   UNL     1      56.500  27.612 -32.259  1.00  0.00    -0.000 C 
BRANCH  11  12
ATOM     12  C   UNL     1      57.088  28.786 -31.460  1.00  0.00    -0.000 C 
BRANCH  12  13
ATOM     13  C   UNL     1      56.111  29.331 -30.404  1.00  0.00    -0.000 C 
BRANCH  13  14
ATOM     14  C   UNL     1      55.757  30.812 -30.625  1.00  0.00    -0.000 C 
BRANCH  14  15
ATOM     15  C   UNL     1      55.241  31.157 -32.035  1.00  0.00    -0.000 C 
BRANCH  15  16
ATOM     16  C   UNL     1      56.218  32.014 -32.865  1.00  0.00    -0.003 C 
ATOM     17  C   UNL     1      56.324  31.541 -34.315  1.00  0.00     0.004 C 
ENDBRANCH  15  16
ENDBRANCH  14  15
ENDBRANCH  13  14
ENDBRANCH  12  13
ENDBRANCH  11  12
ENDBRANCH  10  11
ENDBRANCH   1  10
TORSDOF 13
ENDMDL
MODEL 6
REMARK VINA RESULT:    -2.671     19.637     21.944
REMARK INTER + INTRA:          -5.623
REMARK INTER:                  -5.218
REMARK INTRA:                  -0.405
REMARK UNBOUND:                -0.923
REMARK SMILES CCCCCCCCCCCCCCC(=O)[O-]
REMARK SMILES IDX 9 1 10 2 11 3 12 4 13 5 14 6 15 7 16 8 17 9 8 10 7 11 6 12
REMARK SMILES IDX 5 13 4 14 3 15 2 16 1 17
REMARK H PARENT
REMARK Flexibility Score: inf
ROOT
ATOM      1  C   UNL     1      42.404  12.056 -35.727  1.00  0.00     0.000 C 
ENDROOT
BRANCH   1   2
ATOM      2  C   UNL     1      43.784  12.630 -36.087  1.00  0.00     0.000 C 
BRANCH   2   3
ATOM      3  C   UNL     1      44.913  12.034 -35.229  1.00  0.00     0.000 C 
BRANCH   3   4
ATOM      4  C   UNL     1      44.766  12.381 -33.738  1.00  0.00     0.000 C 
BRANCH   4   5
ATOM      5  C   UNL     1      46.046  12.997 -33.144  1.00  0.00     0.006 C 
BRANCH   5   6
ATOM      6  C   UNL     1      46.593  12.171 -31.971  1.00  0.00     0.053 C 
BRANCH   6   7
ATOM      7  C   UNL     1      45.936  12.545 -30.677  1.00  0.00     0.041 C 
ATOM      8  O   UNL     1      44.955  13.334 -30.669  1.00  0.00    -0.550 OA
ATOM      9  O   UNL     1      46.429  12.047 -29.477  1.00  0.00    -0.550 OA
ENDBRANCH   6   7
ENDBRANCH   5   6
ENDBRANCH   4   5
ENDBRANCH   3   4
ENDBRANCH   2   3
ENDBRANCH   1   2
BRANCH   1  10
ATOM     10  C   UNL     1      41.249  12.985 -36.132  1.00  0.00     0.000 C 
BRANCH  10  11
ATOM     11  C   UNL     1      40.103  12.186 -36.770  1.00  0.00    -0.000 C 
BRANCH  11  12
ATOM     12  C   UNL     1      38.751  12.429 -36.081  1.00  0.00    -0.000 C 
BRANCH  12  13
ATOM     13  C   UNL     1      38.679  13.801 -35.388  1.00  0.00    -0.000 C 
BRANCH  13  14
ATOM     14  C   UNL     1      37.298  14.088 -34.773  1.00  0.00    -0.000 C 
BRANCH  14  15
ATOM     15  C   UNL     1      36.875  13.129 -33.643  1.00  0.00    -0.000 C 
BRANCH  15  16
ATOM     16  C   UNL     1      36.946  13.756 -32.235  1.00  0.00    -0.003 C 
ATOM     17  C   UNL     1      37.146  12.709 -31.139  1.00  0.00     0.004 C 
ENDBRANCH  15  16
ENDBRANCH  14  15
ENDBRANCH  13  14
ENDBRANCH  12  13
ENDBRANCH  11  12
ENDBRANCH  10  11
ENDBRANCH   1  10
TORSDOF 13
ENDMDL
MODEL 7
REMARK VINA RESULT:    -2.426      2.495      4.078
REMARK INTER + INTRA:          -5.192
REMARK INTER:                  -4.646
REMARK INTRA:                  -0.546
REMARK UNBOUND:                -0.923
REMARK SMILES CCCCCCCCCCCCCCC(=O)[O-]
REMARK SMILES IDX 9 1 10 2 11 3 12 4 13 5 14 6 15 7 16 8 17 9 8 10 7 11 6 12
REMARK SMILES IDX 5 13 4 14 3 15 2 16 1 17
REMARK H PARENT
REMARK Flexibility Score: inf
ROOT
ATOM      1  C   UNL     1      55.375  31.017 -35.962  1.00  0.00     0.000 C 
ENDROOT
BRANCH   1   2
ATOM      2  C   UNL     1      54.768  31.434 -37.311  1.00  0.00     0.000 C 
BRANCH   2   3
ATOM      3  C   UNL     1      54.690  30.266 -38.310  1.00  0.00     0.000 C 
BRANCH   3   4
ATOM      4  C   UNL     1      55.735  29.175 -38.023  1.00  0.00     0.000 C 
BRANCH   4   5
ATOM      5  C   UNL     1      55.222  28.107 -37.039  1.00  0.00     0.006 C 
BRANCH   5   6
ATOM      6  C   UNL     1      56.180  27.905 -35.857  1.00  0.00     0.053 C 
BRANCH   6   7
ATOM      7  C   UNL     1      55.620  26.947 -34.849  1.00  0.00     0.041 C 
ATOM      8  O   UNL     1      55.624  27.242 -33.624  1.00  0.00    -0.550 OA
ATOM      9  O   UNL     1      55.124  25.717 -35.259  1.00  0.00    -0.550 OA
ENDBRANCH   6   7
ENDBRANCH   5   6
ENDBRANCH   4   5
ENDBRANCH   3   4
ENDBRANCH   2   3
ENDBRANCH   1   2
BRANCH   1  10
ATOM     10  C   UNL     1      56.227  32.125 -35.325  1.00  0.00     0.000 C 
BRANCH  10  11
ATOM     11  C   UNL     1      56.173  32.044 -33.792  1.00  0.00    -0.000 C 
BRANCH  11  12
ATOM     12  C   UNL     1      55.753  30.656 -33.283  1.00  0.00    -0.000 C 
BRANCH  12  13
ATOM     13  C   UNL     1      54.940  30.725 -31.978  1.00  0.00    -0.000 C 
BRANCH  13  14
ATOM     14  C   UNL     1      55.630  31.566 -30.890  1.00  0.00    -0.000 C 
BRANCH  14  15
ATOM     15  C   UNL     1      56.538  30.773 -29.930  1.00  0.00    -0.000 C 
BRANCH  15  16
ATOM     16  C   UNL     1      56.140  29.291 -29.776  1.00  0.00    -0.003 C 
ATOM     17  C   UNL     1      57.125  28.346 -30.466  1.00  0.00     0.004 C 
ENDBRANCH  15  16
ENDBRANCH  14  15
ENDBRANCH  13  14
ENDBRANCH  12  13
ENDBRANCH  11  12
ENDBRANCH  10  11
ENDBRANCH   1  10
TORSDOF 13
ENDMDL
MODEL 8
REMARK VINA RESULT:    -2.297      1.795      3.036
REMARK INTER + INTRA:          -4.964
REMARK INTER:                  -3.949
REMARK INTRA:                  -1.015
REMARK UNBOUND:                -0.923
REMARK SMILES CCCCCCCCCCCCCCC(=O)[O-]
REMARK SMILES IDX 9 1 10 2 11 3 12 4 13 5 14 6 15 7 16 8 17 9 8 10 7 11 6 12
REMARK SMILES IDX 5 13 4 14 3 15 2 16 1 17
REMARK H PARENT
REMARK Flexibility Score: inf
ROOT
ATOM      1  C   UNL     1      57.077  28.468 -34.920  1.00  0.00     0.000 C 
ENDROOT
BRANCH   1   2
ATOM      2  C   UNL     1      56.323  27.299 -34.265  1.00  0.00     0.000 C 
BRANCH   2   3
ATOM      3  C   UNL     1      55.050  26.911 -35.038  1.00  0.00     0.000 C 
BRANCH   3   4
ATOM      4  C   UNL     1      55.337  25.939 -36.194  1.00  0.00     0.000 C 
BRANCH   4   5
ATOM      5  C   UNL     1      54.851  26.476 -37.553  1.00  0.00     0.006 C 
BRANCH   5   6
ATOM      6  C   UNL     1      55.384  27.886 -37.841  1.00  0.00     0.053 C 
BRANCH   6   7
ATOM      7  C   UNL     1      54.322  28.773 -38.416  1.00  0.00     0.041 C 
ATOM      8  O   UNL     1      53.333  28.271 -39.013  1.00  0.00    -0.550 OA
ATOM      9  O   UNL     1      54.441  30.153 -38.321  1.00  0.00    -0.550 OA
ENDBRANCH   6   7
ENDBRANCH   5   6
ENDBRANCH   4   5
ENDBRANCH   3   4
ENDBRANCH   2   3
ENDBRANCH   1   2
BRANCH   1  10
ATOM     10  C   UNL     1      56.219  29.736 -35.042  1.00  0.00     0.000 C 
BRANCH  10  11
ATOM     11  C   UNL     1      57.102  30.975 -35.257  1.00  0.00    -0.000 C 
BRANCH  11  12
ATOM     12  C   UNL     1      57.056  31.952 -34.072  1.00  0.00    -0.000 C 
BRANCH  12  13
ATOM     13  C   UNL     1      57.094  31.234 -32.711  1.00  0.00    -0.000 C 
BRANCH  13  14
ATOM     14  C   UNL     1      55.701  31.081 -32.078  1.00  0.00    -0.000 C 
BRANCH  14  15
ATOM     15  C   UNL     1      55.652  30.205 -30.811  1.00  0.00    -0.000 C 
BRANCH  15  16
ATOM     16  C   UNL     1      57.010  29.580 -30.432  1.00  0.00    -0.003 C 
ATOM     17  C   UNL     1      57.125  28.120 -30.873  1.00  0.00     0.004 C 
ENDBRANCH  15  16
ENDBRANCH  14  15
ENDBRANCH  13  14
ENDBRANCH  12  13
ENDBRANCH  11  12
ENDBRANCH  10  11
ENDBRANCH   1  10
TORSDOF 13
ENDMDL
