MODEL 1
REMARK VINA RESULT:    -4.391      0.000      0.000
REMARK INTER + INTRA:          -9.151
REMARK INTER:                  -7.471
REMARK INTRA:                  -1.680
REMARK UNBOUND:                -1.680
REMARK SMILES CCCCCCCCCCCCCC(=O)[O-]
REMARK SMILES IDX 8 1 9 2 10 3 11 4 12 5 13 6 14 7 15 8 16 9 7 10 6 11 5 12
REMARK SMILES IDX 4 13 3 14 2 15 1 16
REMARK H PARENT
REMARK Flexibility Score: inf
ROOT
ATOM      1  C   UNL     1       7.885  78.623  31.142  1.00  0.00     0.000 C 
ENDROOT
BRANCH   1   2
ATOM      2  C   UNL     1       7.802  77.204  31.731  1.00  0.00     0.000 C 
BRANCH   2   3
ATOM      3  C   UNL     1       9.138  76.448  31.638  1.00  0.00     0.000 C 
BRANCH   3   4
ATOM      4  C   UNL     1      10.313  77.242  32.230  1.00  0.00     0.000 C 
BRANCH   4   5
ATOM      5  C   UNL     1      11.489  77.298  31.244  1.00  0.00     0.006 C 
BRANCH   5   6
ATOM      6  C   UNL     1      11.549  78.630  30.485  1.00  0.00     0.053 C 
BRANCH   6   7
ATOM      7  C   UNL     1      10.744  78.587  29.222  1.00  0.00     0.041 C 
ATOM      8  O   UNL     1      10.178  79.629  28.797  1.00  0.00    -0.550 OA
ATOM      9  O   UNL     1      10.590  77.390  28.534  1.00  0.00    -0.550 OA
ENDBRANCH   6   7
ENDBRANCH   5   6
ENDBRANCH   4   5
ENDBRANCH   3   4
ENDBRANCH   2   3
ENDBRANCH   1   2
BRANCH   1  10
ATOM     10  C   UNL     1       7.807  79.721  32.218  1.00  0.00     0.000 C 
BRANCH  10  11
ATOM     11  C   UNL     1       9.080  80.576  32.376  1.00  0.00    -0.000 C 
BRANCH  11  12
ATOM     12  C   UNL     1       9.586  80.732  33.823  1.00  0.00    -0.000 C 
BRANCH  12  13
ATOM     13  C   UNL     1       8.824  79.902  34.875  1.00  0.00    -0.000 C 
BRANCH  13  14
ATOM     14  C   UNL     1       9.699  78.948  35.708  1.00  0.00    -0.000 C 
BRANCH  14  15
ATOM     15  C   UNL     1      11.199  79.118  35.427  1.00  0.00    -0.003 C 
ATOM     16  C   UNL     1      11.963  77.830  35.720  1.00  0.00     0.004 C 
ENDBRANCH  14  15
ENDBRANCH  13  14
ENDBRANCH  12  13
ENDBRANCH  11  12
ENDBRANCH  10  11
ENDBRANCH   1  10
TORSDOF 12
ENDMDL
MODEL 2
REMARK VINA RESULT:    -4.228     16.773     18.057
REMARK INTER + INTRA:          -8.874
REMARK INTER:                  -7.751
REMARK INTRA:                  -1.123
REMARK UNBOUND:                -1.680
REMARK SMILES CCCCCCCCCCCCCC(=O)[O-]
REMARK SMILES IDX 8 1 9 2 10 3 11 4 12 5 13 6 14 7 15 8 16 9 7 10 6 11 5 12
REMARK SMILES IDX 4 13 3 14 2 15 1 16
REMARK H PARENT
REMARK Flexibility Score: inf
ROOT
ATOM      1  C   UNL     1      18.110  74.377  17.024  1.00  0.00     0.000 C 
ENDROOT
BRANCH   1   2
ATOM      2  C   UNL     1      18.221  74.465  18.555  1.00  0.00     0.000 C 
BRANCH   2   3
ATOM      3  C   UNL     1      18.452  73.093  19.210  1.00  0.00     0.000 C 
BRANCH   3   4
ATOM      4  C   UNL     1      18.733  71.984  18.183  1.00  0.00     0.000 C 
BRANCH   4   5
ATOM      5  C   UNL     1      19.021  70.648  18.884  1.00  0.00     0.006 C 
BRANCH   5   6
ATOM      6  C   UNL     1      18.085  69.529  18.411  1.00  0.00     0.053 C 
BRANCH   6   7
ATOM      7  C   UNL     1      17.001  69.251  19.408  1.00  0.00     0.041 C 
ATOM      8  O   UNL     1      17.184  69.505  20.628  1.00  0.00    -0.550 OA
ATOM      9  O   UNL     1      15.805  68.680  18.995  1.00  0.00    -0.550 OA
ENDBRANCH   6   7
ENDBRANCH   5   6
ENDBRANCH   4   5
ENDBRANCH   3   4
ENDBRANCH   2   3
ENDBRANCH   1   2
BRANCH   1  10
ATOM     10  C   UNL     1      19.194  75.195  16.298  1.00  0.00     0.000 C 
BRANCH  10  11
ATOM     11  C   UNL     1      20.640  74.921  16.758  1.00  0.00    -0.000 C 
BRANCH  11  12
ATOM     12  C   UNL     1      21.481  76.178  17.052  1.00  0.00    -0.000 C 
BRANCH  12  13
ATOM     13  C   UNL     1      21.286  76.781  18.457  1.00  0.00    -0.000 C 
BRANCH  13  14
ATOM     14  C   UNL     1      20.150  77.815  18.568  1.00  0.00    -0.000 C 
BRANCH  14  15
ATOM     15  C   UNL     1      20.158  78.833  17.418  1.00  0.00    -0.003 C 
ATOM     16  C   UNL     1      20.554  80.220  17.916  1.00  0.00     0.004 C 
ENDBRANCH  14  15
ENDBRANCH  13  14
ENDBRANCH  12  13
ENDBRANCH  11  12
ENDBRANCH  10  11
ENDBRANCH   1  10
TORSDOF 12
ENDMDL
MODEL 3
REMARK VINA RESULT:    -4.139     16.234     17.427
REMARK INTER + INTRA:          -8.723
REMARK INTER:                  -8.091
REMARK INTRA:                  -0.631
REMARK UNBOUND:                -1.680
REMARK SMILES CCCCCCCCCCCCCC(=O)[O-]
REMARK SMILES IDX 8 1 9 2 10 3 11 4 12 5 13 6 14 7 15 8 16 9 7 10 6 11 5 12
REMARK SMILES IDX 4 13 3 14 2 15 1 16
REMARK H PARENT
REMARK Flexibility Score: inf
ROOT
ATOM      1  C   UNL     1      19.237  73.949  20.121  1.00  0.00     0.000 C 
ENDROOT
BRANCH   1   2
ATOM      2  C   UNL     1      18.368  72.710  19.848  1.00  0.00     0.000 C 
BRANCH   2   3
ATOM      3  C   UNL     1      18.822  71.935  18.599  1.00  0.00     0.000 C 
BRANCH   3   4
ATOM      4  C   UNL     1      19.158  70.466  18.902  1.00  0.00     0.000 C 
BRANCH   4   5
ATOM      5  C   UNL     1      18.052  69.534  18.385  1.00  0.00     0.006 C 
BRANCH   5   6
ATOM      6  C   UNL     1      16.976  69.264  19.444  1.00  0.00     0.053 C 
BRANCH   6   7
ATOM      7  C   UNL     1      15.596  69.339  18.866  1.00  0.00     0.041 C 
ATOM      8  O   UNL     1      14.945  68.283  18.643  1.00  0.00    -0.550 OA
ATOM      9  O   UNL     1      15.042  70.571  18.542  1.00  0.00    -0.550 OA
ENDBRANCH   6   7
ENDBRANCH   5   6
ENDBRANCH   4   5
ENDBRANCH   3   4
ENDBRANCH   2   3
ENDBRANCH   1   2
BRANCH   1  10
ATOM     10  C   UNL     1      19.934  74.481  18.855  1.00  0.00     0.000 C 
BRANCH  10  11
ATOM     11  C   UNL     1      19.022  75.253  17.881  1.00  0.00    -0.000 C 
BRANCH  11  12
ATOM     12  C   UNL     1      18.249  76.430  18.505  1.00  0.00    -0.000 C 
BRANCH  12  13
ATOM     13  C   UNL     1      19.129  77.535  19.124  1.00  0.00    -0.000 C 
BRANCH  13  14
ATOM     14  C   UNL     1      20.262  78.047  18.216  1.00  0.00    -0.000 C 
BRANCH  14  15
ATOM     15  C   UNL     1      19.935  79.397  17.561  1.00  0.00    -0.003 C 
ATOM     16  C   UNL     1      20.729  80.528  18.210  1.00  0.00     0.004 C 
ENDBRANCH  14  15
ENDBRANCH  13  14
ENDBRANCH  12  13
ENDBRANCH  11  12
ENDBRANCH  10  11
ENDBRANCH   1  10
TORSDOF 12
ENDMDL
MODEL 4
REMARK VINA RESULT:    -4.125     15.450     16.683
REMARK INTER + INTRA:          -8.698
REMARK INTER:                  -7.276
REMARK INTRA:                  -1.423
REMARK UNBOUND:                -1.680
REMARK SMILES CCCCCCCCCCCCCC(=O)[O-]
REMARK SMILES IDX 8 1 9 2 10 3 11 4 12 5 13 6 14 7 15 8 16 9 7 10 6 11 5 12
REMARK SMILES IDX 4 13 3 14 2 15 1 16
REMARK H PARENT
REMARK Flexibility Score: inf
ROOT
ATOM      1  C   UNL     1      18.372  72.588  20.001  1.00  0.00     0.000 C 
ENDROOT
BRANCH   1   2
ATOM      2  C   UNL     1      18.838  71.884  18.715  1.00  0.00     0.000 C 
BRANCH   2   3
ATOM      3  C   UNL     1      18.998  70.365  18.900  1.00  0.00     0.000 C 
BRANCH   3   4
ATOM      4  C   UNL     1      17.883  69.562  18.213  1.00  0.00     0.000 C 
BRANCH   4   5
ATOM      5  C   UNL     1      16.599  69.574  19.056  1.00  0.00     0.006 C 
BRANCH   5   6
ATOM      6  C   UNL     1      16.741  68.751  20.343  1.00  0.00     0.053 C 
BRANCH   6   7
ATOM      7  C   UNL     1      16.636  69.608  21.567  1.00  0.00     0.041 C 
ATOM      8  O   UNL     1      17.274  69.304  22.610  1.00  0.00    -0.550 OA
ATOM      9  O   UNL     1      15.806  70.722  21.567  1.00  0.00    -0.550 OA
ENDBRANCH   6   7
ENDBRANCH   5   6
ENDBRANCH   4   5
ENDBRANCH   3   4
ENDBRANCH   2   3
ENDBRANCH   1   2
BRANCH   1  10
ATOM     10  C   UNL     1      17.080  73.402  19.800  1.00  0.00     0.000 C 
BRANCH  10  11
ATOM     11  C   UNL     1      16.928  74.058  18.413  1.00  0.00    -0.000 C 
BRANCH  11  12
ATOM     12  C   UNL     1      16.894  75.598  18.419  1.00  0.00    -0.000 C 
BRANCH  12  13
ATOM     13  C   UNL     1      18.220  76.282  18.034  1.00  0.00    -0.000 C 
BRANCH  13  14
ATOM     14  C   UNL     1      19.028  76.845  19.217  1.00  0.00    -0.000 C 
BRANCH  14  15
ATOM     15  C   UNL     1      20.416  76.202  19.349  1.00  0.00    -0.003 C 
ATOM     16  C   UNL     1      20.540  75.425  20.657  1.00  0.00     0.004 C 
ENDBRANCH  14  15
ENDBRANCH  13  14
ENDBRANCH  12  13
ENDBRANCH  11  12
ENDBRANCH  10  11
ENDBRANCH   1  10
TORSDOF 12
ENDMDL
MODEL 5
REMARK VINA RESULT:    -4.123     16.311     17.831
REMARK INTER + INTRA:          -8.695
REMARK INTER:                  -7.557
REMARK INTRA:                  -1.138
REMARK UNBOUND:                -1.680
REMARK SMILES CCCCCCCCCCCCCC(=O)[O-]
REMARK SMILES IDX 8 1 9 2 10 3 11 4 12 5 13 6 14 7 15 8 16 9 7 10 6 11 5 12
REMARK SMILES IDX 4 13 3 14 2 15 1 16
REMARK H PARENT
REMARK Flexibility Score: inf
ROOT
ATOM      1  C   UNL     1      18.811  74.195  19.080  1.00  0.00     0.000 C 
ENDROOT
BRANCH   1   2
ATOM      2  C   UNL     1      19.175  73.440  17.791  1.00  0.00     0.000 C 
BRANCH   2   3
ATOM      3  C   UNL     1      18.504  72.058  17.708  1.00  0.00     0.000 C 
BRANCH   3   4
ATOM      4  C   UNL     1      18.755  71.200  18.957  1.00  0.00     0.000 C 
BRANCH   4   5
ATOM      5  C   UNL     1      18.262  69.761  18.742  1.00  0.00     0.006 C 
BRANCH   5   6
ATOM      6  C   UNL     1      16.740  69.688  18.565  1.00  0.00     0.053 C 
BRANCH   6   7
ATOM      7  C   UNL     1      16.099  68.825  19.608  1.00  0.00     0.041 C 
ATOM      8  O   UNL     1      15.105  68.109  19.314  1.00  0.00    -0.550 OA
ATOM      9  O   UNL     1      16.577  68.837  20.912  1.00  0.00    -0.550 OA
ENDBRANCH   6   7
ENDBRANCH   5   6
ENDBRANCH   4   5
ENDBRANCH   3   4
ENDBRANCH   2   3
ENDBRANCH   1   2
BRANCH   1  10
ATOM     10  C   UNL     1      20.049  74.673  19.862  1.00  0.00     0.000 C 
BRANCH  10  11
ATOM     11  C   UNL     1      20.307  76.192  19.817  1.00  0.00    -0.000 C 
BRANCH  11  12
ATOM     12  C   UNL     1      19.124  77.040  19.312  1.00  0.00    -0.000 C 
BRANCH  12  13
ATOM     13  C   UNL     1      19.455  77.994  18.147  1.00  0.00    -0.000 C 
BRANCH  13  14
ATOM     14  C   UNL     1      19.488  77.335  16.756  1.00  0.00    -0.000 C 
BRANCH  14  15
ATOM     15  C   UNL     1      20.880  77.376  16.111  1.00  0.00    -0.003 C 
ATOM     16  C   UNL     1      21.644  76.080  16.367  1.00  0.00     0.004 C 
ENDBRANCH  14  15
ENDBRANCH  13  14
ENDBRANCH  12  13
ENDBRANCH  11  12
ENDBRANCH  10  11
ENDBRANCH   1  10
TORSDOF 12
ENDMDL
MODEL 6
REMARK VINA RESULT:    -4.067     15.515     17.163
REMARK INTER + INTRA:          -8.600
REMARK INTER:                  -6.623
REMARK INTRA:                  -1.977
REMARK UNBOUND:                -1.680
REMARK SMILES CCCCCCCCCCCCCC(=O)[O-]
REMARK SMILES IDX 8 1 9 2 10 3 11 4 12 5 13 6 14 7 15 8 16 9 7 10 6 11 5 12
REMARK SMILES IDX 4 13 3 14 2 15 1 16
REMARK H PARENT
REMARK Flexibility Score: inf
ROOT
ATOM      1  C   UNL     1      16.869  73.758  18.382  1.00  0.00     0.000 C 
ENDROOT
BRANCH   1   2
ATOM      2  C   UNL     1      18.078  73.385  17.507  1.00  0.00     0.000 C 
BRANCH   2   3
ATOM      3  C   UNL     1      19.407  73.450  18.278  1.00  0.00     0.000 C 
BRANCH   3   4
ATOM      4  C   UNL     1      19.296  74.245  19.588  1.00  0.00     0.000 C 
BRANCH   4   5
ATOM      5  C   UNL     1      20.205  75.483  19.556  1.00  0.00     0.006 C 
BRANCH   5   6
ATOM      6  C   UNL     1      19.414  76.780  19.337  1.00  0.00     0.053 C 
BRANCH   6   7
ATOM      7  C   UNL     1      19.376  77.170  17.891  1.00  0.00     0.041 C 
ATOM      8  O   UNL     1      18.328  76.992  17.214  1.00  0.00    -0.550 OA
ATOM      9  O   UNL     1      20.508  77.697  17.282  1.00  0.00    -0.550 OA
ENDBRANCH   6   7
ENDBRANCH   5   6
ENDBRANCH   4   5
ENDBRANCH   3   4
ENDBRANCH   2   3
ENDBRANCH   1   2
BRANCH   1  10
ATOM     10  C   UNL     1      15.735  72.719  18.309  1.00  0.00     0.000 C 
BRANCH  10  11
ATOM     11  C   UNL     1      15.551  71.861  19.576  1.00  0.00    -0.000 C 
BRANCH  11  12
ATOM     12  C   UNL     1      16.707  71.940  20.592  1.00  0.00    -0.000 C 
BRANCH  12  13
ATOM     13  C   UNL     1      17.685  70.749  20.562  1.00  0.00    -0.000 C 
BRANCH  13  14
ATOM     14  C   UNL     1      17.306  69.621  19.585  1.00  0.00    -0.000 C 
BRANCH  14  15
ATOM     15  C   UNL     1      18.173  69.614  18.318  1.00  0.00    -0.003 C 
ATOM     16  C   UNL     1      17.309  69.601  17.060  1.00  0.00     0.004 C 
ENDBRANCH  14  15
ENDBRANCH  13  14
ENDBRANCH  12  13
ENDBRANCH  11  12
ENDBRANCH  10  11
ENDBRANCH   1  10
TORSDOF 12
ENDMDL
MODEL 7
REMARK VINA RESULT:    -4.062     15.732     17.194
REMARK INTER + INTRA:          -8.592
REMARK INTER:                  -7.210
REMARK INTRA:                  -1.382
REMARK UNBOUND:                -1.680
REMARK SMILES CCCCCCCCCCCCCC(=O)[O-]
REMARK SMILES IDX 8 1 9 2 10 3 11 4 12 5 13 6 14 7 15 8 16 9 7 10 6 11 5 12
REMARK SMILES IDX 4 13 3 14 2 15 1 16
REMARK H PARENT
REMARK Flexibility Score: inf
ROOT
ATOM      1  C   UNL     1      16.197  73.378  18.503  1.00  0.00     0.000 C 
ENDROOT
BRANCH   1   2
ATOM      2  C   UNL     1      15.959  74.886  18.315  1.00  0.00     0.000 C 
BRANCH   2   3
ATOM      3  C   UNL     1      16.521  75.411  16.983  1.00  0.00     0.000 C 
BRANCH   3   4
ATOM      4  C   UNL     1      17.727  76.343  17.173  1.00  0.00     0.000 C 
BRANCH   4   5
ATOM      5  C   UNL     1      18.265  76.258  18.609  1.00  0.00     0.006 C 
BRANCH   5   6
ATOM      6  C   UNL     1      18.863  77.588  19.086  1.00  0.00     0.053 C 
BRANCH   6   7
ATOM      7  C   UNL     1      20.177  77.875  18.426  1.00  0.00     0.041 C 
ATOM      8  O   UNL     1      21.011  76.947  18.245  1.00  0.00    -0.550 OA
ATOM      9  O   UNL     1      20.496  79.171  18.044  1.00  0.00    -0.550 OA
ENDBRANCH   6   7
ENDBRANCH   5   6
ENDBRANCH   4   5
ENDBRANCH   3   4
ENDBRANCH   2   3
ENDBRANCH   1   2
BRANCH   1  10
ATOM     10  C   UNL     1      16.774  73.032  19.888  1.00  0.00     0.000 C 
BRANCH  10  11
ATOM     11  C   UNL     1      18.295  72.784  19.921  1.00  0.00    -0.000 C 
BRANCH  11  12
ATOM     12  C   UNL     1      18.864  72.053  18.690  1.00  0.00    -0.000 C 
BRANCH  12  13
ATOM     13  C   UNL     1      18.946  70.520  18.821  1.00  0.00    -0.000 C 
BRANCH  13  14
ATOM     14  C   UNL     1      17.925  69.740  17.972  1.00  0.00    -0.000 C 
BRANCH  14  15
ATOM     15  C   UNL     1      16.709  69.272  18.784  1.00  0.00    -0.003 C 
ATOM     16  C   UNL     1      17.013  69.274  20.280  1.00  0.00     0.004 C 
ENDBRANCH  14  15
ENDBRANCH  13  14
ENDBRANCH  12  13
ENDBRANCH  11  12
ENDBRANCH  10  11
ENDBRANCH   1  10
TORSDOF 12
ENDMDL
MODEL 8
REMARK VINA RESULT:    -4.029     16.285     17.460
REMARK INTER + INTRA:          -8.535
REMARK INTER:                  -7.084
REMARK INTRA:                  -1.451
REMARK UNBOUND:                -1.680
REMARK SMILES CCCCCCCCCCCCCC(=O)[O-]
REMARK SMILES IDX 8 1 9 2 10 3 11 4 12 5 13 6 14 7 15 8 16 9 7 10 6 11 5 12
REMARK SMILES IDX 4 13 3 14 2 15 1 16
REMARK H PARENT
REMARK Flexibility Score: inf
ROOT
ATOM      1  C   UNL     1      16.809  75.509  16.508  1.00  0.00     0.000 C 
ENDROOT
BRANCH   1   2
ATOM      2  C   UNL     1      17.616  74.405  17.214  1.00  0.00     0.000 C 
BRANCH   2   3
ATOM      3  C   UNL     1      17.043  74.050  18.596  1.00  0.00     0.000 C 
BRANCH   3   4
ATOM      4  C   UNL     1      17.776  72.872  19.258  1.00  0.00     0.000 C 
BRANCH   4   5
ATOM      5  C   UNL     1      18.751  72.210  18.273  1.00  0.00     0.006 C 
BRANCH   5   6
ATOM      6  C   UNL     1      19.136  70.789  18.702  1.00  0.00     0.053 C 
BRANCH   6   7
ATOM      7  C   UNL     1      18.001  69.827  18.522  1.00  0.00     0.041 C 
ATOM      8  O   UNL     1      17.642  69.482  17.364  1.00  0.00    -0.550 OA
ATOM      9  O   UNL     1      17.319  69.339  19.629  1.00  0.00    -0.550 OA
ENDBRANCH   6   7
ENDBRANCH   5   6
ENDBRANCH   4   5
ENDBRANCH   3   4
ENDBRANCH   2   3
ENDBRANCH   1   2
BRANCH   1  10
ATOM     10  C   UNL     1      17.684  76.697  16.066  1.00  0.00     0.000 C 
BRANCH  10  11
ATOM     11  C   UNL     1      19.183  76.567  16.401  1.00  0.00    -0.000 C 
BRANCH  11  12
ATOM     12  C   UNL     1      19.838  77.842  16.966  1.00  0.00    -0.000 C 
BRANCH  12  13
ATOM     13  C   UNL     1      19.714  78.019  18.492  1.00  0.00    -0.000 C 
BRANCH  13  14
ATOM     14  C   UNL     1      19.462  76.719  19.278  1.00  0.00    -0.000 C 
BRANCH  14  15
ATOM     15  C   UNL     1      20.760  76.020  19.705  1.00  0.00    -0.003 C 
ATOM     16  C   UNL     1      20.499  75.005  20.815  1.00  0.00     0.004 C 
ENDBRANCH  14  15
ENDBRANCH  13  14
ENDBRANCH  12  13
ENDBRANCH  11  12
ENDBRANCH  10  11
ENDBRANCH   1  10
TORSDOF 12
ENDMDL
MODEL 9
REMARK VINA RESULT:    -4.023     15.805     17.369
REMARK INTER + INTRA:          -8.525
REMARK INTER:                  -6.827
REMARK INTRA:                  -1.699
REMARK UNBOUND:                -1.680
REMARK SMILES CCCCCCCCCCCCCC(=O)[O-]
REMARK SMILES IDX 8 1 9 2 10 3 11 4 12 5 13 6 14 7 15 8 16 9 7 10 6 11 5 12
REMARK SMILES IDX 4 13 3 14 2 15 1 16
REMARK H PARENT
REMARK Flexibility Score: inf
ROOT
ATOM      1  C   UNL     1      18.403  74.673  17.398  1.00  0.00     0.000 C 
ENDROOT
BRANCH   1   2
ATOM      2  C   UNL     1      19.849  74.504  17.894  1.00  0.00     0.000 C 
BRANCH   2   3
ATOM      3  C   UNL     1      20.000  74.822  19.391  1.00  0.00     0.000 C 
BRANCH   3   4
ATOM      4  C   UNL     1      20.947  76.003  19.655  1.00  0.00     0.000 C 
BRANCH   4   5
ATOM      5  C   UNL     1      21.236  76.775  18.359  1.00  0.00     0.006 C 
BRANCH   5   6
ATOM      6  C   UNL     1      20.554  78.149  18.336  1.00  0.00     0.053 C 
BRANCH   6   7
ATOM      7  C   UNL     1      20.194  78.567  16.943  1.00  0.00     0.041 C 
ATOM      8  O   UNL     1      20.175  79.789  16.634  1.00  0.00    -0.550 OA
ATOM      9  O   UNL     1      19.845  77.612  15.997  1.00  0.00    -0.550 OA
ENDBRANCH   6   7
ENDBRANCH   5   6
ENDBRANCH   4   5
ENDBRANCH   3   4
ENDBRANCH   2   3
ENDBRANCH   1   2
BRANCH   1  10
ATOM     10  C   UNL     1      17.492  75.354  18.435  1.00  0.00     0.000 C 
BRANCH  10  11
ATOM     11  C   UNL     1      16.122  74.679  18.648  1.00  0.00    -0.000 C 
BRANCH  11  12
ATOM     12  C   UNL     1      16.173  73.156  18.878  1.00  0.00    -0.000 C 
BRANCH  12  13
ATOM     13  C   UNL     1      16.911  72.714  20.156  1.00  0.00    -0.000 C 
BRANCH  13  14
ATOM     14  C   UNL     1      18.075  71.732  19.928  1.00  0.00    -0.000 C 
BRANCH  14  15
ATOM     15  C   UNL     1      18.089  71.146  18.509  1.00  0.00    -0.003 C 
ATOM     16  C   UNL     1      18.215  69.625  18.544  1.00  0.00     0.004 C 
ENDBRANCH  14  15
ENDBRANCH  13  14
ENDBRANCH  12  13
ENDBRANCH  11  12
ENDBRANCH  10  11
ENDBRANCH   1  10
TORSDOF 12
ENDMDL
