MODEL 1
REMARK VINA RESULT:    -3.642      0.000      0.000
REMARK INTER + INTRA:          -5.680
REMARK INTER:                  -5.133
REMARK INTRA:                  -0.547
REMARK UNBOUND:                -0.547
REMARK SMILES CCCCCCCCC(=O)[O-]
REMARK SMILES IDX 6 1 7 2 8 3 9 4 10 5 11 6 5 7 4 8 3 9 2 10 1 11
REMARK H PARENT
REMARK Flexibility Score: inf
ROOT
ATOM      1  C   UNL     1      34.748  45.561  21.704  1.00  0.00     0.000 C 
ENDROOT
BRANCH   1   2
ATOM      2  C   UNL     1      33.667  44.506  21.424  1.00  0.00     0.006 C 
BRANCH   2   3
ATOM      3  C   UNL     1      32.341  44.816  22.132  1.00  0.00     0.053 C 
BRANCH   3   4
ATOM      4  C   UNL     1      31.850  43.611  22.872  1.00  0.00     0.041 C 
ATOM      5  O   UNL     1      31.047  42.814  22.321  1.00  0.00    -0.550 OA
ATOM      6  O   UNL     1      32.242  43.396  24.187  1.00  0.00    -0.550 OA
ENDBRANCH   3   4
ENDBRANCH   2   3
ENDBRANCH   1   2
BRANCH   1   7
ATOM      7  C   UNL     1      36.161  45.068  21.357  1.00  0.00     0.000 C 
BRANCH   7   8
ATOM      8  C   UNL     1      37.001  44.871  22.629  1.00  0.00    -0.000 C 
BRANCH   8   9
ATOM      9  C   UNL     1      36.672  45.902  23.721  1.00  0.00    -0.000 C 
BRANCH   9  10
ATOM     10  C   UNL     1      36.564  45.270  25.116  1.00  0.00    -0.003 C 
ATOM     11  C   UNL     1      35.555  44.126  25.125  1.00  0.00     0.004 C 
ENDBRANCH   9  10
ENDBRANCH   8   9
ENDBRANCH   7   8
ENDBRANCH   1   7
TORSDOF 7
ENDMDL
MODEL 2
REMARK VINA RESULT:    -3.438      1.916      4.437
REMARK INTER + INTRA:          -5.393
REMARK INTER:                  -4.913
REMARK INTRA:                  -0.480
REMARK UNBOUND:                -0.547
REMARK SMILES CCCCCCCCC(=O)[O-]
REMARK SMILES IDX 6 1 7 2 8 3 9 4 10 5 11 6 5 7 4 8 3 9 2 10 1 11
REMARK H PARENT
REMARK Flexibility Score: inf
ROOT
ATOM      1  C   UNL     1      36.301  45.104  21.857  1.00  0.00     0.000 C 
ENDROOT
BRANCH   1   2
ATOM      2  C   UNL     1      36.074  46.110  22.996  1.00  0.00     0.006 C 
BRANCH   2   3
ATOM      3  C   UNL     1      36.697  45.651  24.322  1.00  0.00     0.053 C 
BRANCH   3   4
ATOM      4  C   UNL     1      36.226  44.275  24.671  1.00  0.00     0.041 C 
ATOM      5  O   UNL     1      37.035  43.311  24.677  1.00  0.00    -0.550 OA
ATOM      6  O   UNL     1      34.882  44.048  24.941  1.00  0.00    -0.550 OA
ENDBRANCH   3   4
ENDBRANCH   2   3
ENDBRANCH   1   2
BRANCH   1   7
ATOM      7  C   UNL     1      35.037  44.864  21.018  1.00  0.00     0.000 C 
BRANCH   7   8
ATOM      8  C   UNL     1      33.777  45.278  21.795  1.00  0.00    -0.000 C 
BRANCH   8   9
ATOM      9  C   UNL     1      32.692  44.191  21.787  1.00  0.00    -0.000 C 
BRANCH   9  10
ATOM     10  C   UNL     1      31.315  44.726  22.205  1.00  0.00    -0.003 C 
ATOM     11  C   UNL     1      31.149  46.189  21.803  1.00  0.00     0.004 C 
ENDBRANCH   9  10
ENDBRANCH   8   9
ENDBRANCH   7   8
ENDBRANCH   1   7
TORSDOF 7
ENDMDL
MODEL 3
REMARK VINA RESULT:    -3.403     17.451     18.287
REMARK INTER + INTRA:          -5.344
REMARK INTER:                  -4.887
REMARK INTRA:                  -0.457
REMARK UNBOUND:                -0.547
REMARK SMILES CCCCCCCCC(=O)[O-]
REMARK SMILES IDX 6 1 7 2 8 3 9 4 10 5 11 6 5 7 4 8 3 9 2 10 1 11
REMARK H PARENT
REMARK Flexibility Score: inf
ROOT
ATOM      1  C   UNL     1      35.481  26.881  13.291  1.00  0.00     0.000 C 
ENDROOT
BRANCH   1   2
ATOM      2  C   UNL     1      34.176  27.249  12.570  1.00  0.00     0.006 C 
BRANCH   2   3
ATOM      3  C   UNL     1      34.084  28.746  12.243  1.00  0.00     0.053 C 
BRANCH   3   4
ATOM      4  C   UNL     1      32.976  29.383  13.022  1.00  0.00     0.041 C 
ATOM      5  O   UNL     1      32.684  30.592  12.833  1.00  0.00    -0.550 OA
ATOM      6  O   UNL     1      32.300  28.653  13.991  1.00  0.00    -0.550 OA
ENDBRANCH   3   4
ENDBRANCH   2   3
ENDBRANCH   1   2
BRANCH   1   7
ATOM      7  C   UNL     1      35.439  27.201  14.793  1.00  0.00     0.000 C 
BRANCH   7   8
ATOM      8  C   UNL     1      36.656  28.044  15.207  1.00  0.00    -0.000 C 
BRANCH   8   9
ATOM      9  C   UNL     1      36.446  28.769  16.546  1.00  0.00    -0.000 C 
BRANCH   9  10
ATOM     10  C   UNL     1      34.962  28.993  16.871  1.00  0.00    -0.003 C 
ATOM     11  C   UNL     1      34.715  28.944  18.376  1.00  0.00     0.004 C 
ENDBRANCH   9  10
ENDBRANCH   8   9
ENDBRANCH   7   8
ENDBRANCH   1   7
TORSDOF 7
ENDMDL
MODEL 4
REMARK VINA RESULT:    -3.354      2.949      5.251
REMARK INTER + INTRA:          -5.275
REMARK INTER:                  -4.879
REMARK INTRA:                  -0.395
REMARK UNBOUND:                -0.547
REMARK SMILES CCCCCCCCC(=O)[O-]
REMARK SMILES IDX 6 1 7 2 8 3 9 4 10 5 11 6 5 7 4 8 3 9 2 10 1 11
REMARK H PARENT
REMARK Flexibility Score: inf
ROOT
ATOM      1  C   UNL     1      33.774  44.518  22.516  1.00  0.00     0.000 C 
ENDROOT
BRANCH   1   2
ATOM      2  C   UNL     1      34.926  44.525  23.532  1.00  0.00     0.006 C 
BRANCH   2   3
ATOM      3  C   UNL     1      35.977  45.600  23.226  1.00  0.00     0.053 C 
BRANCH   3   4
ATOM      4  C   UNL     1      36.646  45.319  21.917  1.00  0.00     0.041 C 
ATOM      5  O   UNL     1      36.736  46.221  21.046  1.00  0.00    -0.550 OA
ATOM      6  O   UNL     1      37.125  44.044  21.642  1.00  0.00    -0.550 OA
ENDBRANCH   3   4
ENDBRANCH   2   3
ENDBRANCH   1   2
BRANCH   1   7
ATOM      7  C   UNL     1      32.506  43.844  23.061  1.00  0.00     0.000 C 
BRANCH   7   8
ATOM      8  C   UNL     1      31.244  44.494  22.474  1.00  0.00    -0.000 C 
BRANCH   8   9
ATOM      9  C   UNL     1      31.564  45.550  21.405  1.00  0.00    -0.000 C 
BRANCH   9  10
ATOM     10  C   UNL     1      31.003  46.935  21.755  1.00  0.00    -0.003 C 
ATOM     11  C   UNL     1      29.676  46.818  22.500  1.00  0.00     0.004 C 
ENDBRANCH   9  10
ENDBRANCH   8   9
ENDBRANCH   7   8
ENDBRANCH   1   7
TORSDOF 7
ENDMDL
MODEL 5
REMARK VINA RESULT:    -3.345     17.516     18.344
REMARK INTER + INTRA:          -5.262
REMARK INTER:                  -4.755
REMARK INTRA:                  -0.507
REMARK UNBOUND:                -0.547
REMARK SMILES CCCCCCCCC(=O)[O-]
REMARK SMILES IDX 6 1 7 2 8 3 9 4 10 5 11 6 5 7 4 8 3 9 2 10 1 11
REMARK H PARENT
REMARK Flexibility Score: inf
ROOT
ATOM      1  C   UNL     1      36.354  27.191  14.808  1.00  0.00     0.000 C 
ENDROOT
BRANCH   1   2
ATOM      2  C   UNL     1      34.868  26.892  14.555  1.00  0.00     0.006 C 
BRANCH   2   3
ATOM      3  C   UNL     1      34.468  27.083  13.086  1.00  0.00     0.053 C 
BRANCH   3   4
ATOM      4  C   UNL     1      33.712  28.362  12.913  1.00  0.00     0.041 C 
ATOM      5  O   UNL     1      34.061  29.191  12.032  1.00  0.00    -0.550 OA
ATOM      6  O   UNL     1      32.651  28.662  13.758  1.00  0.00    -0.550 OA
ENDBRANCH   3   4
ENDBRANCH   2   3
ENDBRANCH   1   2
BRANCH   1   7
ATOM      7  C   UNL     1      36.567  28.310  15.839  1.00  0.00     0.000 C 
BRANCH   7   8
ATOM      8  C   UNL     1      35.247  28.667  16.540  1.00  0.00    -0.000 C 
BRANCH   8   9
ATOM      9  C   UNL     1      35.454  29.142  17.986  1.00  0.00    -0.000 C 
BRANCH   9  10
ATOM     10  C   UNL     1      34.590  28.368  18.992  1.00  0.00    -0.003 C 
ATOM     11  C   UNL     1      34.902  26.875  18.951  1.00  0.00     0.004 C 
ENDBRANCH   9  10
ENDBRANCH   8   9
ENDBRANCH   7   8
ENDBRANCH   1   7
TORSDOF 7
ENDMDL
MODEL 6
REMARK VINA RESULT:    -3.328     17.667     18.492
REMARK INTER + INTRA:          -5.238
REMARK INTER:                  -4.741
REMARK INTRA:                  -0.497
REMARK UNBOUND:                -0.547
REMARK SMILES CCCCCCCCC(=O)[O-]
REMARK SMILES IDX 6 1 7 2 8 3 9 4 10 5 11 6 5 7 4 8 3 9 2 10 1 11
REMARK H PARENT
REMARK Flexibility Score: inf
ROOT
ATOM      1  C   UNL     1      35.303  26.906  15.398  1.00  0.00     0.000 C 
ENDROOT
BRANCH   1   2
ATOM      2  C   UNL     1      34.810  26.889  13.943  1.00  0.00     0.006 C 
BRANCH   2   3
ATOM      3  C   UNL     1      33.701  27.916  13.683  1.00  0.00     0.053 C 
BRANCH   3   4
ATOM      4  C   UNL     1      33.782  28.428  12.279  1.00  0.00     0.041 C 
ATOM      5  O   UNL     1      33.672  27.636  11.308  1.00  0.00    -0.550 OA
ATOM      6  O   UNL     1      34.029  29.775  12.044  1.00  0.00    -0.550 OA
ENDBRANCH   3   4
ENDBRANCH   2   3
ENDBRANCH   1   2
BRANCH   1   7
ATOM      7  C   UNL     1      36.489  27.859  15.610  1.00  0.00     0.000 C 
BRANCH   7   8
ATOM      8  C   UNL     1      36.362  28.602  16.950  1.00  0.00    -0.000 C 
BRANCH   8   9
ATOM      9  C   UNL     1      34.908  28.964  17.290  1.00  0.00    -0.000 C 
BRANCH   9  10
ATOM     10  C   UNL     1      34.513  28.549  18.714  1.00  0.00    -0.003 C 
ATOM     11  C   UNL     1      35.139  27.208  19.089  1.00  0.00     0.004 C 
ENDBRANCH   9  10
ENDBRANCH   8   9
ENDBRANCH   7   8
ENDBRANCH   1   7
TORSDOF 7
ENDMDL
MODEL 7
REMARK VINA RESULT:    -3.326     17.315     18.410
REMARK INTER + INTRA:          -5.234
REMARK INTER:                  -4.792
REMARK INTRA:                  -0.442
REMARK UNBOUND:                -0.547
REMARK SMILES CCCCCCCCC(=O)[O-]
REMARK SMILES IDX 6 1 7 2 8 3 9 4 10 5 11 6 5 7 4 8 3 9 2 10 1 11
REMARK H PARENT
REMARK Flexibility Score: inf
ROOT
ATOM      1  C   UNL     1      36.204  27.579  14.618  1.00  0.00     0.000 C 
ENDROOT
BRANCH   1   2
ATOM      2  C   UNL     1      36.278  27.824  16.133  1.00  0.00     0.006 C 
BRANCH   2   3
ATOM      3  C   UNL     1      35.212  28.811  16.625  1.00  0.00     0.053 C 
BRANCH   3   4
ATOM      4  C   UNL     1      35.275  28.949  18.114  1.00  0.00     0.041 C 
ATOM      5  O   UNL     1      34.251  28.735  18.814  1.00  0.00    -0.550 OA
ATOM      6  O   UNL     1      36.453  29.361  18.724  1.00  0.00    -0.550 OA
ENDBRANCH   3   4
ENDBRANCH   2   3
ENDBRANCH   1   2
BRANCH   1   7
ATOM      7  C   UNL     1      34.845  27.016  14.175  1.00  0.00     0.000 C 
BRANCH   7   8
ATOM      8  C   UNL     1      34.708  27.054  12.645  1.00  0.00    -0.000 C 
BRANCH   8   9
ATOM      9  C   UNL     1      33.738  28.144  12.164  1.00  0.00    -0.000 C 
BRANCH   9  10
ATOM     10  C   UNL     1      32.962  28.796  13.318  1.00  0.00    -0.003 C 
ATOM     11  C   UNL     1      32.649  30.258  13.012  1.00  0.00     0.004 C 
ENDBRANCH   9  10
ENDBRANCH   8   9
ENDBRANCH   7   8
ENDBRANCH   1   7
TORSDOF 7
ENDMDL
MODEL 8
REMARK VINA RESULT:    -3.317     17.369     18.453
REMARK INTER + INTRA:          -5.221
REMARK INTER:                  -4.723
REMARK INTRA:                  -0.499
REMARK UNBOUND:                -0.547
REMARK SMILES CCCCCCCCC(=O)[O-]
REMARK SMILES IDX 6 1 7 2 8 3 9 4 10 5 11 6 5 7 4 8 3 9 2 10 1 11
REMARK H PARENT
REMARK Flexibility Score: inf
ROOT
ATOM      1  C   UNL     1      36.363  28.188  15.542  1.00  0.00     0.000 C 
ENDROOT
BRANCH   1   2
ATOM      2  C   UNL     1      35.203  28.697  16.412  1.00  0.00     0.006 C 
BRANCH   2   3
ATOM      3  C   UNL     1      35.643  29.040  17.841  1.00  0.00     0.053 C 
BRANCH   3   4
ATOM      4  C   UNL     1      34.751  28.367  18.837  1.00  0.00     0.041 C 
ATOM      5  O   UNL     1      34.199  29.038  19.747  1.00  0.00    -0.550 OA
ATOM      6  O   UNL     1      34.569  26.991  18.788  1.00  0.00    -0.550 OA
ENDBRANCH   3   4
ENDBRANCH   2   3
ENDBRANCH   1   2
BRANCH   1   7
ATOM      7  C   UNL     1      35.984  26.952  14.712  1.00  0.00     0.000 C 
BRANCH   7   8
ATOM      8  C   UNL     1      34.530  27.046  14.223  1.00  0.00    -0.000 C 
BRANCH   8   9
ATOM      9  C   UNL     1      34.424  27.103  12.691  1.00  0.00    -0.000 C 
BRANCH   9  10
ATOM     10  C   UNL     1      33.792  28.409  12.190  1.00  0.00    -0.003 C 
ATOM     11  C   UNL     1      32.929  29.053  13.272  1.00  0.00     0.004 C 
ENDBRANCH   9  10
ENDBRANCH   8   9
ENDBRANCH   7   8
ENDBRANCH   1   7
TORSDOF 7
ENDMDL
MODEL 9
REMARK VINA RESULT:    -3.276     17.337     18.407
REMARK INTER + INTRA:          -5.164
REMARK INTER:                  -4.735
REMARK INTRA:                  -0.429
REMARK UNBOUND:                -0.547
REMARK SMILES CCCCCCCCC(=O)[O-]
REMARK SMILES IDX 6 1 7 2 8 3 9 4 10 5 11 6 5 7 4 8 3 9 2 10 1 11
REMARK H PARENT
REMARK Flexibility Score: inf
ROOT
ATOM      1  C   UNL     1      36.377  27.739  15.849  1.00  0.00     0.000 C 
ENDROOT
BRANCH   1   2
ATOM      2  C   UNL     1      35.229  28.560  16.455  1.00  0.00     0.006 C 
BRANCH   2   3
ATOM      3  C   UNL     1      35.570  29.119  17.843  1.00  0.00     0.053 C 
BRANCH   3   4
ATOM      4  C   UNL     1      34.723  28.468  18.890  1.00  0.00     0.041 C 
ATOM      5  O   UNL     1      34.443  27.244  18.808  1.00  0.00    -0.550 OA
ATOM      6  O   UNL     1      34.201  29.225  19.931  1.00  0.00    -0.550 OA
ENDBRANCH   3   4
ENDBRANCH   2   3
ENDBRANCH   1   2
BRANCH   1   7
ATOM      7  C   UNL     1      36.197  27.487  14.345  1.00  0.00     0.000 C 
BRANCH   7   8
ATOM      8  C   UNL     1      34.738  27.127  14.020  1.00  0.00    -0.000 C 
BRANCH   8   9
ATOM      9  C   UNL     1      34.444  27.150  12.512  1.00  0.00    -0.000 C 
BRANCH   9  10
ATOM     10  C   UNL     1      33.614  28.370  12.090  1.00  0.00    -0.003 C 
ATOM     11  C   UNL     1      32.948  29.027  13.297  1.00  0.00     0.004 C 
ENDBRANCH   9  10
ENDBRANCH   8   9
ENDBRANCH   7   8
ENDBRANCH   1   7
TORSDOF 7
ENDMDL
