MODEL 1
REMARK VINA RESULT:    -4.433      0.000      0.000
REMARK INTER + INTRA:          -6.098
REMARK INTER:                  -6.247
REMARK INTRA:                   0.149
REMARK UNBOUND:                 0.149
REMARK SMILES CC1=CCC(=C(C)C)C(=O)CC(C)=CCC1
REMARK SMILES IDX 12 1 14 2 13 3 15 4 16 5 2 6 1 7 3 8 11 10 9 11 10 12 5 13
REMARK SMILES IDX 6 14 7 15 8 16 4 17
REMARK H PARENT
REMARK Flexibility Score: 60.00
ROOT
ATOM      1  C   UNL     1      -9.217  74.449  21.322  1.00  0.00    -0.070 C 
ATOM      2  C   UNL     1      -8.100  73.927  20.769  1.00  0.00    -0.027 C 
ATOM      3  C   UNL     1     -10.422  74.637  20.435  1.00  0.00     0.039 C 
ENDROOT
BRANCH   2   4
ATOM      4  C   UNL     1      -6.829  73.573  21.510  1.00  0.00     0.032 C 
BRANCH   4   5
ATOM      5  C   UNL     1      -6.811  72.158  22.125  1.00  0.00     0.034 C 
BRANCH   5   6
ATOM      6  C   UNL     1      -6.261  72.128  23.540  1.00  0.00    -0.077 C 
ATOM      7  C   UNL     1      -4.776  72.321  23.718  1.00  0.00     0.039 C 
ATOM      8  C   UNL     1      -7.023  72.009  24.654  1.00  0.00    -0.023 CG0
ATOM      9  G   UNL     1      -8.522  71.788  24.717  1.00  0.00     0.000 G0
ENDBRANCH   5   6
ENDBRANCH   4   5
ENDBRANCH   2   4
BRANCH   1  10
ATOM     10  C   UNL     1      -9.344  74.766  22.798  1.00  0.00     0.111 C 
BRANCH  10  11
ATOM     11  C   UNL     1      -9.936  73.614  23.566  1.00  0.00     0.163 C 
ATOM     12  O   UNL     1     -10.962  73.052  23.095  1.00  0.00    -0.294 OA
BRANCH  11  13
ATOM     13  C   UNL     1      -9.319  73.083  24.817  1.00  0.00    -0.002 C 
ATOM     14  C   UNL     1      -9.529  73.702  26.017  1.00  0.00    -0.069 C 
ATOM     15  C   UNL     1     -10.257  75.027  26.100  1.00  0.00     0.039 C 
ATOM     16  C   UNL     1      -9.051  73.103  27.323  1.00  0.00     0.039 C 
BRANCH  13  17
ATOM     17  C   UNL     1      -8.536  71.784  24.710  1.00  0.00     0.066 CG0
ATOM     18  G   UNL     1      -7.040  72.017  24.641  1.00  0.00     0.000 G0
ENDBRANCH  13  17
ENDBRANCH  11  13
ENDBRANCH  10  11
ENDBRANCH   1  10
TORSDOF 0
ENDMDL
MODEL 2
REMARK VINA RESULT:    -3.920      2.083      4.838
REMARK INTER + INTRA:          -5.376
REMARK INTER:                  -5.586
REMARK INTRA:                   0.211
REMARK UNBOUND:                 0.149
REMARK SMILES CC1=CCC(=C(C)C)C(=O)CC(C)=CCC1
REMARK SMILES IDX 12 1 14 2 13 3 15 4 16 5 2 6 1 7 3 8 11 10 9 11 10 12 5 13
REMARK SMILES IDX 6 14 7 15 8 16 4 17
REMARK H PARENT
REMARK Flexibility Score: 60.00
ROOT
ATOM      1  C   UNL     1      -9.006  73.112  25.008  1.00  0.00    -0.070 C 
ATOM      2  C   UNL     1      -9.509  74.241  24.463  1.00  0.00    -0.027 C 
ATOM      3  C   UNL     1      -9.049  72.972  26.508  1.00  0.00     0.039 C 
ENDROOT
BRANCH   2   4
ATOM      4  C   UNL     1      -9.645  74.524  22.982  1.00  0.00     0.032 C 
BRANCH   4   5
ATOM      5  C   UNL     1      -8.330  74.916  22.275  1.00  0.00     0.034 C 
BRANCH   5   6
ATOM      6  C   UNL     1      -8.003  74.028  21.088  1.00  0.00    -0.077 C 
ATOM      7  C   UNL     1      -8.904  74.112  19.881  1.00  0.00     0.039 C 
ATOM      8  C   UNL     1      -6.918  73.220  21.013  1.00  0.00    -0.023 CG0
ATOM      9  G   UNL     1      -5.892  72.964  22.100  1.00  0.00     0.000 G0
ENDBRANCH   5   6
ENDBRANCH   4   5
ENDBRANCH   2   4
BRANCH   1  10
ATOM     10  C   UNL     1      -8.488  71.950  24.183  1.00  0.00     0.111 C 
BRANCH  10  11
ATOM     11  C   UNL     1      -6.983  71.905  24.169  1.00  0.00     0.163 C 
ATOM     12  O   UNL     1      -6.376  71.992  25.269  1.00  0.00    -0.294 OA
BRANCH  11  13
ATOM     13  C   UNL     1      -6.200  71.701  22.914  1.00  0.00    -0.002 C 
ATOM     14  C   UNL     1      -5.876  70.443  22.489  1.00  0.00    -0.069 C 
ATOM     15  C   UNL     1      -6.156  69.228  23.348  1.00  0.00     0.039 C 
ATOM     16  C   UNL     1      -5.225  70.194  21.146  1.00  0.00     0.039 C 
BRANCH  13  17
ATOM     17  C   UNL     1      -5.870  72.936  22.091  1.00  0.00     0.066 CG0
ATOM     18  G   UNL     1      -6.916  73.219  21.031  1.00  0.00     0.000 G0
ENDBRANCH  13  17
ENDBRANCH  11  13
ENDBRANCH  10  11
ENDBRANCH   1  10
TORSDOF 0
ENDMDL
MODEL 3
REMARK VINA RESULT:    -3.571      1.447      3.977
REMARK INTER + INTRA:          -4.883
REMARK INTER:                  -5.998
REMARK INTRA:                   1.114
REMARK UNBOUND:                 0.149
REMARK SMILES CC1=CCC(=C(C)C)C(=O)CC(C)=CCC1
REMARK SMILES IDX 12 1 14 2 13 3 15 4 16 5 2 6 1 7 3 8 11 10 9 11 10 12 5 13
REMARK SMILES IDX 6 14 7 15 8 16 4 17
REMARK H PARENT
REMARK Flexibility Score: 60.00
ROOT
ATOM      1  C   UNL     1      -9.345  73.383  25.740  1.00  0.00    -0.070 C 
ATOM      2  C   UNL     1      -8.264  72.598  25.941  1.00  0.00    -0.027 C 
ATOM      3  C   UNL     1     -10.392  73.433  26.823  1.00  0.00     0.039 C 
ENDROOT
BRANCH   2   4
ATOM      4  C   UNL     1      -7.065  72.490  25.023  1.00  0.00     0.032 C 
BRANCH   4   5
ATOM      5  C   UNL     1      -6.619  71.047  24.708  1.00  0.00     0.034 C 
BRANCH   5   6
ATOM      6  C   UNL     1      -7.042  70.578  23.327  1.00  0.00    -0.077 C 
ATOM      7  C   UNL     1      -7.124  69.092  23.087  1.00  0.00     0.039 C 
ATOM      8  C   UNL     1      -7.418  71.405  22.322  1.00  0.00    -0.023 CG0
ATOM      9  G   UNL     1      -7.399  72.921  22.328  1.00  0.00     0.000 G0
ENDBRANCH   5   6
ENDBRANCH   4   5
ENDBRANCH   2   4
BRANCH   1  10
ATOM     10  C   UNL     1      -9.507  74.280  24.529  1.00  0.00     0.111 C 
BRANCH  10  11
ATOM     11  C   UNL     1      -9.696  73.480  23.267  1.00  0.00     0.163 C 
ATOM     12  O   UNL     1     -10.726  72.761  23.168  1.00  0.00    -0.294 OA
BRANCH  11  13
ATOM     13  C   UNL     1      -8.745  73.560  22.118  1.00  0.00    -0.002 C 
ATOM     14  C   UNL     1      -9.070  74.258  20.989  1.00  0.00    -0.069 C 
ATOM     15  C   UNL     1     -10.455  74.836  20.795  1.00  0.00     0.039 C 
ATOM     16  C   UNL     1      -8.071  74.491  19.876  1.00  0.00     0.039 C 
BRANCH  13  17
ATOM     17  C   UNL     1      -7.378  72.921  22.301  1.00  0.00     0.066 CG0
ATOM     18  G   UNL     1      -7.450  71.407  22.330  1.00  0.00     0.000 G0
ENDBRANCH  13  17
ENDBRANCH  11  13
ENDBRANCH  10  11
ENDBRANCH   1  10
TORSDOF 0
ENDMDL
MODEL 4
REMARK VINA RESULT:    -3.242      2.117      4.369
REMARK INTER + INTRA:          -4.420
REMARK INTER:                  -4.885
REMARK INTRA:                   0.466
REMARK UNBOUND:                 0.149
REMARK SMILES CC1=CCC(=C(C)C)C(=O)CC(C)=CCC1
REMARK SMILES IDX 12 1 14 2 13 3 15 4 16 5 2 6 1 7 3 8 11 10 9 11 10 12 5 13
REMARK SMILES IDX 6 14 7 15 8 16 4 17
REMARK H PARENT
REMARK Flexibility Score: 60.00
ROOT
ATOM      1  C   UNL     1      -6.436  73.055  21.159  1.00  0.00    -0.070 C 
ATOM      2  C   UNL     1      -7.669  73.498  20.828  1.00  0.00    -0.027 C 
ATOM      3  C   UNL     1      -5.665  72.276  20.124  1.00  0.00     0.039 C 
ENDROOT
BRANCH   2   4
ATOM      4  C   UNL     1      -8.554  74.374  21.689  1.00  0.00     0.032 C 
BRANCH   4   5
ATOM      5  C   UNL     1      -9.647  73.618  22.473  1.00  0.00     0.034 C 
BRANCH   5   6
ATOM      6  C   UNL     1      -9.230  73.265  23.890  1.00  0.00    -0.077 C 
ATOM      7  C   UNL     1      -9.599  74.228  24.989  1.00  0.00     0.039 C 
ATOM      8  C   UNL     1      -8.612  72.110  24.239  1.00  0.00    -0.023 CG0
ATOM      9  G   UNL     1      -8.132  71.012  23.311  1.00  0.00     0.000 G0
ENDBRANCH   5   6
ENDBRANCH   4   5
ENDBRANCH   2   4
BRANCH   1  10
ATOM     10  C   UNL     1      -5.761  73.380  22.477  1.00  0.00     0.111 C 
BRANCH  10  11
ATOM     11  C   UNL     1      -5.876  72.242  23.456  1.00  0.00     0.163 C 
ATOM     12  O   UNL     1      -5.369  72.390  24.600  1.00  0.00    -0.294 OA
BRANCH  11  13
ATOM     13  C   UNL     1      -6.614  70.983  23.139  1.00  0.00    -0.002 C 
ATOM     14  C   UNL     1      -5.940  69.846  22.793  1.00  0.00    -0.069 C 
ATOM     15  C   UNL     1      -4.444  69.859  22.565  1.00  0.00     0.039 C 
ATOM     16  C   UNL     1      -6.645  68.518  22.621  1.00  0.00     0.039 C 
BRANCH  13  17
ATOM     17  C   UNL     1      -8.125  71.001  23.311  1.00  0.00     0.066 CG0
ATOM     18  G   UNL     1      -8.584  72.102  24.247  1.00  0.00     0.000 G0
ENDBRANCH  13  17
ENDBRANCH  11  13
ENDBRANCH  10  11
ENDBRANCH   1  10
TORSDOF 0
ENDMDL
MODEL 5
REMARK VINA RESULT:    -3.205     13.205     14.651
REMARK INTER + INTRA:          -4.368
REMARK INTER:                  -5.414
REMARK INTRA:                   1.047
REMARK UNBOUND:                 0.149
REMARK SMILES CC1=CCC(=C(C)C)C(=O)CC(C)=CCC1
REMARK SMILES IDX 12 1 14 2 13 3 15 4 16 5 2 6 1 7 3 8 11 10 9 11 10 12 5 13
REMARK SMILES IDX 6 14 7 15 8 16 4 17
REMARK H PARENT
REMARK Flexibility Score: 60.00
ROOT
ATOM      1  C   UNL     1      -8.791  67.747  38.636  1.00  0.00    -0.070 C 
ATOM      2  C   UNL     1      -7.801  67.387  37.790  1.00  0.00    -0.027 C 
ATOM      3  C   UNL     1      -8.495  67.735  40.114  1.00  0.00     0.039 C 
ENDROOT
BRANCH   2   4
ATOM      4  C   UNL     1      -7.871  67.428  36.279  1.00  0.00     0.032 C 
BRANCH   4   5
ATOM      5  C   UNL     1      -7.047  68.557  35.624  1.00  0.00     0.034 C 
BRANCH   5   6
ATOM      6  C   UNL     1      -6.895  69.779  36.512  1.00  0.00    -0.077 C 
ATOM      7  C   UNL     1      -5.532  70.055  37.096  1.00  0.00     0.039 C 
ATOM      8  C   UNL     1      -7.883  70.673  36.757  1.00  0.00    -0.023 CG0
ATOM      9  G   UNL     1      -9.325  70.592  36.296  1.00  0.00     0.000 G0
ENDBRANCH   5   6
ENDBRANCH   4   5
ENDBRANCH   2   4
BRANCH   1  10
ATOM     10  C   UNL     1     -10.143  68.248  38.169  1.00  0.00     0.111 C 
BRANCH  10  11
ATOM     11  C   UNL     1     -10.335  69.708  38.484  1.00  0.00     0.163 C 
ATOM     12  O   UNL     1     -10.463  70.042  39.692  1.00  0.00    -0.294 OA
BRANCH  11  13
ATOM     13  C   UNL     1     -10.317  70.764  37.429  1.00  0.00    -0.002 C 
ATOM     14  C   UNL     1     -11.103  71.876  37.540  1.00  0.00    -0.069 C 
ATOM     15  C   UNL     1     -12.131  72.004  38.644  1.00  0.00     0.039 C 
ATOM     16  C   UNL     1     -10.992  73.036  36.574  1.00  0.00     0.039 C 
BRANCH  13  17
ATOM     17  C   UNL     1      -9.323  70.593  36.291  1.00  0.00     0.066 CG0
ATOM     18  G   UNL     1      -7.885  70.672  36.765  1.00  0.00     0.000 G0
ENDBRANCH  13  17
ENDBRANCH  11  13
ENDBRANCH  10  11
ENDBRANCH   1  10
TORSDOF 0
ENDMDL
MODEL 6
REMARK VINA RESULT:    -3.188      2.141      3.786
REMARK INTER + INTRA:          -4.343
REMARK INTER:                  -4.919
REMARK INTRA:                   0.576
REMARK UNBOUND:                 0.149
REMARK SMILES CC1=CCC(=C(C)C)C(=O)CC(C)=CCC1
REMARK SMILES IDX 12 1 14 2 13 3 15 4 16 5 2 6 1 7 3 8 11 10 9 11 10 12 5 13
REMARK SMILES IDX 6 14 7 15 8 16 4 17
REMARK H PARENT
REMARK Flexibility Score: 60.00
ROOT
ATOM      1  C   UNL     1      -4.587  72.508  21.680  1.00  0.00    -0.070 C 
ATOM      2  C   UNL     1      -4.144  71.562  22.537  1.00  0.00    -0.027 C 
ATOM      3  C   UNL     1      -4.083  72.465  20.260  1.00  0.00     0.039 C 
ENDROOT
BRANCH   2   4
ATOM      4  C   UNL     1      -4.605  71.379  23.968  1.00  0.00     0.032 C 
BRANCH   4   5
ATOM      5  C   UNL     1      -5.190  69.986  24.286  1.00  0.00     0.034 C 
BRANCH   5   6
ATOM      6  C   UNL     1      -6.403  69.641  23.440  1.00  0.00    -0.077 C 
ATOM      7  C   UNL     1      -6.414  68.302  22.745  1.00  0.00     0.039 C 
ATOM      8  C   UNL     1      -7.504  70.423  23.327  1.00  0.00    -0.023 CG0
ATOM      9  G   UNL     1      -7.708  71.805  23.916  1.00  0.00     0.000 G0
ENDBRANCH   5   6
ENDBRANCH   4   5
ENDBRANCH   2   4
BRANCH   1  10
ATOM     10  C   UNL     1      -5.627  73.545  22.052  1.00  0.00     0.111 C 
BRANCH  10  11
ATOM     11  C   UNL     1      -7.023  73.063  21.757  1.00  0.00     0.163 C 
ATOM     12  O   UNL     1      -7.316  72.788  20.563  1.00  0.00    -0.294 OA
BRANCH  11  13
ATOM     13  C   UNL     1      -8.039  72.846  22.829  1.00  0.00    -0.002 C 
ATOM     14  C   UNL     1      -9.247  73.484  22.787  1.00  0.00    -0.069 C 
ATOM     15  C   UNL     1      -9.538  74.546  21.749  1.00  0.00     0.039 C 
ATOM     16  C   UNL     1     -10.356  73.166  23.768  1.00  0.00     0.039 C 
BRANCH  13  17
ATOM     17  C   UNL     1      -7.709  71.821  23.903  1.00  0.00     0.066 CG0
ATOM     18  G   UNL     1      -7.497  70.434  23.329  1.00  0.00     0.000 G0
ENDBRANCH  13  17
ENDBRANCH  11  13
ENDBRANCH  10  11
ENDBRANCH   1  10
TORSDOF 0
ENDMDL
MODEL 7
REMARK VINA RESULT:    -3.175     12.093     14.106
REMARK INTER + INTRA:          -4.326
REMARK INTER:                  -4.418
REMARK INTRA:                   0.093
REMARK UNBOUND:                 0.149
REMARK SMILES CC1=CCC(=C(C)C)C(=O)CC(C)=CCC1
REMARK SMILES IDX 12 1 14 2 13 3 15 4 16 5 2 6 1 7 3 8 11 10 9 11 10 12 5 13
REMARK SMILES IDX 6 14 7 15 8 16 4 17
REMARK H PARENT
REMARK Flexibility Score: 60.00
ROOT
ATOM      1  C   UNL     1      -4.507  67.875  33.823  1.00  0.00    -0.070 C 
ATOM      2  C   UNL     1      -5.778  67.704  33.398  1.00  0.00    -0.027 C 
ATOM      3  C   UNL     1      -3.463  68.242  32.799  1.00  0.00     0.039 C 
ENDROOT
BRANCH   2   4
ATOM      4  C   UNL     1      -6.976  67.431  34.281  1.00  0.00     0.032 C 
BRANCH   4   5
ATOM      5  C   UNL     1      -7.619  68.688  34.905  1.00  0.00     0.034 C 
BRANCH   5   6
ATOM      6  C   UNL     1      -7.859  68.558  36.399  1.00  0.00    -0.077 C 
ATOM      7  C   UNL     1      -8.951  67.623  36.854  1.00  0.00     0.039 C 
ATOM      8  C   UNL     1      -7.113  69.171  37.349  1.00  0.00    -0.023 CG0
ATOM      9  G   UNL     1      -5.985  70.161  37.129  1.00  0.00     0.000 G0
ENDBRANCH   5   6
ENDBRANCH   4   5
ENDBRANCH   2   4
BRANCH   1  10
ATOM     10  C   UNL     1      -4.102  67.807  35.282  1.00  0.00     0.111 C 
BRANCH  10  11
ATOM     11  C   UNL     1      -3.974  69.179  35.888  1.00  0.00     0.163 C 
ATOM     12  O   UNL     1      -3.357  70.062  35.235  1.00  0.00    -0.294 OA
BRANCH  11  13
ATOM     13  C   UNL     1      -4.602  69.539  37.195  1.00  0.00    -0.002 C 
ATOM     14  C   UNL     1      -3.918  69.374  38.367  1.00  0.00    -0.069 C 
ATOM     15  C   UNL     1      -2.574  68.678  38.401  1.00  0.00     0.039 C 
ATOM     16  C   UNL     1      -4.462  69.874  39.688  1.00  0.00     0.039 C 
BRANCH  13  17
ATOM     17  C   UNL     1      -5.980  70.180  37.152  1.00  0.00     0.066 CG0
ATOM     18  G   UNL     1      -7.092  69.167  37.343  1.00  0.00     0.000 G0
ENDBRANCH  13  17
ENDBRANCH  11  13
ENDBRANCH  10  11
ENDBRANCH   1  10
TORSDOF 0
ENDMDL
MODEL 8
REMARK VINA RESULT:    -3.054     12.416     13.893
REMARK INTER + INTRA:          -4.155
REMARK INTER:                  -4.617
REMARK INTRA:                   0.463
REMARK UNBOUND:                 0.149
REMARK SMILES CC1=CCC(=C(C)C)C(=O)CC(C)=CCC1
REMARK SMILES IDX 12 1 14 2 13 3 15 4 16 5 2 6 1 7 3 8 11 10 9 11 10 12 5 13
REMARK SMILES IDX 6 14 7 15 8 16 4 17
REMARK H PARENT
REMARK Flexibility Score: 60.00
ROOT
ATOM      1  C   UNL     1      -7.815  66.602  34.839  1.00  0.00    -0.070 C 
ATOM      2  C   UNL     1      -8.448  67.506  35.619  1.00  0.00    -0.027 C 
ATOM      3  C   UNL     1      -8.301  65.175  34.876  1.00  0.00     0.039 C 
ENDROOT
BRANCH   2   4
ATOM      4  C   UNL     1      -8.174  68.994  35.649  1.00  0.00     0.032 C 
BRANCH   4   5
ATOM      5  C   UNL     1      -7.585  69.517  36.976  1.00  0.00     0.034 C 
BRANCH   5   6
ATOM      6  C   UNL     1      -6.511  68.612  37.552  1.00  0.00    -0.077 C 
ATOM      7  C   UNL     1      -6.843  67.840  38.804  1.00  0.00     0.039 C 
ATOM      8  C   UNL     1      -5.303  68.398  36.976  1.00  0.00    -0.023 CG0
ATOM      9  G   UNL     1      -4.749  69.070  35.736  1.00  0.00     0.000 G0
ENDBRANCH   5   6
ENDBRANCH   4   5
ENDBRANCH   2   4
BRANCH   1  10
ATOM     10  C   UNL     1      -6.711  66.970  33.869  1.00  0.00     0.111 C 
BRANCH  10  11
ATOM     11  C   UNL     1      -5.352  66.874  34.510  1.00  0.00     0.163 C 
ATOM     12  O   UNL     1      -4.962  65.744  34.909  1.00  0.00    -0.294 OA
BRANCH  11  13
ATOM     13  C   UNL     1      -4.438  68.049  34.632  1.00  0.00    -0.002 C 
ATOM     14  C   UNL     1      -3.424  68.241  33.735  1.00  0.00    -0.069 C 
ATOM     15  C   UNL     1      -3.092  67.198  32.691  1.00  0.00     0.039 C 
ATOM     16  C   UNL     1      -2.584  69.500  33.735  1.00  0.00     0.039 C 
BRANCH  13  17
ATOM     17  C   UNL     1      -4.746  69.059  35.726  1.00  0.00     0.066 CG0
ATOM     18  G   UNL     1      -5.289  68.402  36.979  1.00  0.00     0.000 G0
ENDBRANCH  13  17
ENDBRANCH  11  13
ENDBRANCH  10  11
ENDBRANCH   1  10
TORSDOF 0
ENDMDL
MODEL 9
REMARK VINA RESULT:    -2.926      2.692      4.886
REMARK INTER + INTRA:          -3.975
REMARK INTER:                  -4.285
REMARK INTRA:                   0.310
REMARK UNBOUND:                 0.149
REMARK SMILES CC1=CCC(=C(C)C)C(=O)CC(C)=CCC1
REMARK SMILES IDX 12 1 14 2 13 3 15 4 16 5 2 6 1 7 3 8 11 10 9 11 10 12 5 13
REMARK SMILES IDX 6 14 7 15 8 16 4 17
REMARK H PARENT
REMARK Flexibility Score: 60.00
ROOT
ATOM      1  C   UNL     1      -7.911  72.592  24.023  1.00  0.00    -0.070 C 
ATOM      2  C   UNL     1      -7.941  73.441  22.972  1.00  0.00    -0.027 C 
ATOM      3  C   UNL     1      -9.221  72.235  24.679  1.00  0.00     0.039 C 
ENDROOT
BRANCH   2   4
ATOM      4  C   UNL     1      -6.752  73.841  22.125  1.00  0.00     0.032 C 
BRANCH   4   5
ATOM      5  C   UNL     1      -6.398  72.849  20.998  1.00  0.00     0.034 C 
BRANCH   5   6
ATOM      6  C   UNL     1      -4.903  72.673  20.803  1.00  0.00    -0.077 C 
ATOM      7  C   UNL     1      -4.128  73.838  20.240  1.00  0.00     0.039 C 
ATOM      8  C   UNL     1      -4.210  71.567  21.166  1.00  0.00    -0.023 CG0
ATOM      9  G   UNL     1      -4.774  70.278  21.730  1.00  0.00     0.000 G0
ENDBRANCH   5   6
ENDBRANCH   4   5
ENDBRANCH   2   4
BRANCH   1  10
ATOM     10  C   UNL     1      -6.646  71.914  24.508  1.00  0.00     0.111 C 
BRANCH  10  11
ATOM     11  C   UNL     1      -6.350  70.662  23.726  1.00  0.00     0.163 C 
ATOM     12  O   UNL     1      -7.313  69.902  23.435  1.00  0.00    -0.294 OA
BRANCH  11  13
ATOM     13  C   UNL     1      -4.979  70.327  23.238  1.00  0.00    -0.002 C 
ATOM     14  C   UNL     1      -3.986  69.998  24.117  1.00  0.00    -0.069 C 
ATOM     15  C   UNL     1      -4.190  70.114  25.613  1.00  0.00     0.039 C 
ATOM     16  C   UNL     1      -2.634  69.502  23.650  1.00  0.00     0.039 C 
BRANCH  13  17
ATOM     17  C   UNL     1      -4.770  70.275  21.733  1.00  0.00     0.066 CG0
ATOM     18  G   UNL     1      -4.220  71.576  21.183  1.00  0.00     0.000 G0
ENDBRANCH  13  17
ENDBRANCH  11  13
ENDBRANCH  10  11
ENDBRANCH   1  10
TORSDOF 0
ENDMDL
