MODEL 1
REMARK VINA RESULT:    -3.683      0.000      0.000
REMARK INTER + INTRA:          -8.653
REMARK INTER:                  -5.621
REMARK INTRA:                  -3.033
REMARK UNBOUND:                -3.033
REMARK SMILES CC(=O)CCC=C(C)CCC=C(C)CCC=C(C)C
REMARK SMILES IDX 10 1 11 2 12 3 13 4 14 5 15 6 16 7 18 8 17 9 19 10 9 11 7 12
REMARK SMILES IDX 6 13 8 14 5 15 4 16 2 17 3 18 1 19
REMARK H PARENT
REMARK Flexibility Score: inf
ROOT
ATOM      1  C   UNL     1     182.531 189.870 225.605  1.00  0.00     0.032 C 
ENDROOT
BRANCH   1   2
ATOM      2  C   UNL     1     183.560 188.853 226.030  1.00  0.00    -0.028 C 
ATOM      3  C   UNL     1     184.046 187.870 225.240  1.00  0.00    -0.077 C 
ATOM      4  C   UNL     1     185.028 186.893 225.837  1.00  0.00     0.039 C 
BRANCH   3   5
ATOM      5  C   UNL     1     183.675 187.727 223.774  1.00  0.00     0.034 C 
BRANCH   5   6
ATOM      6  C   UNL     1     182.538 186.715 223.567  1.00  0.00     0.032 C 
BRANCH   6   7
ATOM      7  C   UNL     1     181.276 187.381 223.072  1.00  0.00    -0.028 C 
ATOM      8  C   UNL     1     180.097 187.168 225.272  1.00  0.00     0.039 C 
ATOM      9  C   UNL     1     180.163 187.563 223.815  1.00  0.00    -0.080 C 
ATOM     10  C   UNL     1     178.962 188.199 223.164  1.00  0.00     0.039 C 
ENDBRANCH   6   7
ENDBRANCH   5   6
ENDBRANCH   3   5
ENDBRANCH   1   2
BRANCH   1  11
ATOM     11  C   UNL     1     183.210 191.156 225.119  1.00  0.00     0.034 C 
BRANCH  11  12
ATOM     12  C   UNL     1     183.208 191.222 223.606  1.00  0.00    -0.077 C 
ATOM     13  C   UNL     1     184.339 191.339 222.875  1.00  0.00    -0.028 C 
ATOM     14  C   UNL     1     181.894 191.090 222.879  1.00  0.00     0.039 C 
BRANCH  13  15
ATOM     15  C   UNL     1     185.719 191.464 223.480  1.00  0.00     0.035 C 
BRANCH  15  16
ATOM     16  C   UNL     1     186.531 190.170 223.343  1.00  0.00     0.079 C 
BRANCH  16  17
ATOM     17  C   UNL     1     187.199 189.787 224.638  1.00  0.00     0.130 C 
ATOM     18  O   UNL     1     188.087 188.950 224.637  1.00  0.00    -0.300 OA
ATOM     19  C   UNL     1     186.810 190.442 225.930  1.00  0.00     0.087 C 
ENDBRANCH  16  17
ENDBRANCH  15  16
ENDBRANCH  13  15
ENDBRANCH  11  12
ENDBRANCH   1  11
TORSDOF 9
ENDMDL
MODEL 2
REMARK VINA RESULT:    -3.506      5.975      9.001
REMARK INTER + INTRA:          -8.383
REMARK INTER:                  -5.127
REMARK INTRA:                  -3.256
REMARK UNBOUND:                -3.033
REMARK SMILES CC(=O)CCC=C(C)CCC=C(C)CCC=C(C)C
REMARK SMILES IDX 10 1 11 2 12 3 13 4 14 5 15 6 16 7 18 8 17 9 19 10 9 11 7 12
REMARK SMILES IDX 6 13 8 14 5 15 4 16 2 17 3 18 1 19
REMARK H PARENT
REMARK Flexibility Score: inf
ROOT
ATOM      1  C   UNL     1     188.292 181.430 223.247  1.00  0.00     0.032 C 
ENDROOT
BRANCH   1   2
ATOM      2  C   UNL     1     189.464 181.839 224.103  1.00  0.00    -0.028 C 
ATOM      3  C   UNL     1     190.099 183.030 224.024  1.00  0.00    -0.077 C 
ATOM      4  C   UNL     1     191.296 183.262 224.911  1.00  0.00     0.039 C 
BRANCH   3   5
ATOM      5  C   UNL     1     189.641 184.152 223.108  1.00  0.00     0.034 C 
BRANCH   5   6
ATOM      6  C   UNL     1     189.692 185.519 223.808  1.00  0.00     0.032 C 
BRANCH   6   7
ATOM      7  C   UNL     1     188.410 185.818 224.551  1.00  0.00    -0.028 C 
ATOM      8  C   UNL     1     189.542 185.987 226.779  1.00  0.00     0.039 C 
ATOM      9  C   UNL     1     188.323 186.000 225.886  1.00  0.00    -0.080 C 
ATOM     10  C   UNL     1     186.963 186.241 226.490  1.00  0.00     0.039 C 
ENDBRANCH   6   7
ENDBRANCH   5   6
ENDBRANCH   3   5
ENDBRANCH   1   2
BRANCH   1  11
ATOM     11  C   UNL     1     187.074 181.100 224.118  1.00  0.00     0.034 C 
BRANCH  11  12
ATOM     12  C   UNL     1     186.444 182.369 224.657  1.00  0.00    -0.077 C 
ATOM     13  C   UNL     1     186.519 182.729 225.957  1.00  0.00    -0.028 C 
ATOM     14  C   UNL     1     185.759 183.301 223.692  1.00  0.00     0.039 C 
BRANCH  13  15
ATOM     15  C   UNL     1     187.192 181.892 227.023  1.00  0.00     0.035 C 
BRANCH  15  16
ATOM     16  C   UNL     1     188.441 182.576 227.593  1.00  0.00     0.079 C 
BRANCH  16  17
ATOM     17  C   UNL     1     189.547 181.589 227.861  1.00  0.00     0.130 C 
ATOM     18  O   UNL     1     190.624 181.985 228.279  1.00  0.00    -0.300 OA
ATOM     19  C   UNL     1     189.337 180.119 227.651  1.00  0.00     0.087 C 
ENDBRANCH  16  17
ENDBRANCH  15  16
ENDBRANCH  13  15
ENDBRANCH  11  12
ENDBRANCH   1  11
TORSDOF 9
ENDMDL
MODEL 3
REMARK VINA RESULT:    -3.488      5.611      8.990
REMARK INTER + INTRA:          -8.356
REMARK INTER:                  -5.590
REMARK INTRA:                  -2.766
REMARK UNBOUND:                -3.033
REMARK SMILES CC(=O)CCC=C(C)CCC=C(C)CCC=C(C)C
REMARK SMILES IDX 10 1 11 2 12 3 13 4 14 5 15 6 16 7 18 8 17 9 19 10 9 11 7 12
REMARK SMILES IDX 6 13 8 14 5 15 4 16 2 17 3 18 1 19
REMARK H PARENT
REMARK Flexibility Score: inf
ROOT
ATOM      1  C   UNL     1     188.584 182.045 222.875  1.00  0.00     0.032 C 
ENDROOT
BRANCH   1   2
ATOM      2  C   UNL     1     187.218 182.172 223.500  1.00  0.00    -0.028 C 
ATOM      3  C   UNL     1     186.563 183.340 223.694  1.00  0.00    -0.077 C 
ATOM      4  C   UNL     1     185.227 183.302 224.391  1.00  0.00     0.039 C 
BRANCH   3   5
ATOM      5  C   UNL     1     187.098 184.677 223.212  1.00  0.00     0.034 C 
BRANCH   5   6
ATOM      6  C   UNL     1     187.470 185.600 224.382  1.00  0.00     0.032 C 
BRANCH   6   7
ATOM      7  C   UNL     1     188.928 185.993 224.346  1.00  0.00    -0.028 C 
ATOM      8  C   UNL     1     188.445 188.448 224.467  1.00  0.00     0.039 C 
ATOM      9  C   UNL     1     189.380 187.266 224.353  1.00  0.00    -0.080 C 
ATOM     10  C   UNL     1     190.865 187.501 224.262  1.00  0.00     0.039 C 
ENDBRANCH   6   7
ENDBRANCH   5   6
ENDBRANCH   3   5
ENDBRANCH   1   2
BRANCH   1  11
ATOM     11  C   UNL     1     189.615 181.587 223.914  1.00  0.00     0.034 C 
BRANCH  11  12
ATOM     12  C   UNL     1     190.537 182.729 224.291  1.00  0.00    -0.077 C 
ATOM     13  C   UNL     1     190.702 183.147 225.566  1.00  0.00    -0.028 C 
ATOM     14  C   UNL     1     191.352 183.386 223.208  1.00  0.00     0.039 C 
BRANCH  13  15
ATOM     15  C   UNL     1     189.957 182.561 226.744  1.00  0.00     0.035 C 
BRANCH  15  16
ATOM     16  C   UNL     1     188.583 183.212 226.943  1.00  0.00     0.079 C 
BRANCH  16  17
ATOM     17  C   UNL     1     187.514 182.190 227.229  1.00  0.00     0.130 C 
ATOM     18  O   UNL     1     186.447 182.546 227.702  1.00  0.00    -0.300 OA
ATOM     19  C   UNL     1     187.730 180.740 226.913  1.00  0.00     0.087 C 
ENDBRANCH  16  17
ENDBRANCH  15  16
ENDBRANCH  13  15
ENDBRANCH  11  12
ENDBRANCH   1  11
TORSDOF 9
ENDMDL
MODEL 4
REMARK VINA RESULT:    -3.454      2.312      5.065
REMARK INTER + INTRA:          -8.304
REMARK INTER:                  -5.184
REMARK INTRA:                  -3.120
REMARK UNBOUND:                -3.033
REMARK SMILES CC(=O)CCC=C(C)CCC=C(C)CCC=C(C)C
REMARK SMILES IDX 10 1 11 2 12 3 13 4 14 5 15 6 16 7 18 8 17 9 19 10 9 11 7 12
REMARK SMILES IDX 6 13 8 14 5 15 4 16 2 17 3 18 1 19
REMARK H PARENT
REMARK Flexibility Score: inf
ROOT
ATOM      1  C   UNL     1     183.087 191.255 223.998  1.00  0.00     0.032 C 
ENDROOT
BRANCH   1   2
ATOM      2  C   UNL     1     182.869 190.318 225.158  1.00  0.00    -0.028 C 
ATOM      3  C   UNL     1     183.467 190.431 226.366  1.00  0.00    -0.077 C 
ATOM      4  C   UNL     1     183.189 189.372 227.403  1.00  0.00     0.039 C 
BRANCH   3   5
ATOM      5  C   UNL     1     184.376 191.591 226.733  1.00  0.00     0.034 C 
BRANCH   5   6
ATOM      6  C   UNL     1     185.581 191.133 227.567  1.00  0.00     0.032 C 
BRANCH   6   7
ATOM      7  C   UNL     1     186.770 190.793 226.699  1.00  0.00    -0.028 C 
ATOM      8  C   UNL     1     186.930 188.440 227.543  1.00  0.00     0.039 C 
ATOM      9  C   UNL     1     187.404 189.601 226.700  1.00  0.00    -0.080 C 
ATOM     10  C   UNL     1     188.611 189.429 225.813  1.00  0.00     0.039 C 
ENDBRANCH   6   7
ENDBRANCH   5   6
ENDBRANCH   3   5
ENDBRANCH   1   2
BRANCH   1  11
ATOM     11  C   UNL     1     183.863 190.557 222.875  1.00  0.00     0.034 C 
BRANCH  11  12
ATOM     12  C   UNL     1     185.355 190.633 223.130  1.00  0.00    -0.077 C 
ATOM     13  C   UNL     1     186.146 189.538 223.182  1.00  0.00    -0.028 C 
ATOM     14  C   UNL     1     185.995 191.990 223.269  1.00  0.00     0.039 C 
BRANCH  13  15
ATOM     15  C   UNL     1     185.632 188.123 223.042  1.00  0.00     0.035 C 
BRANCH  15  16
ATOM     16  C   UNL     1     186.276 187.170 224.057  1.00  0.00     0.079 C 
BRANCH  16  17
ATOM     17  C   UNL     1     185.243 186.383 224.820  1.00  0.00     0.130 C 
ATOM     18  O   UNL     1     185.590 185.438 225.510  1.00  0.00    -0.300 OA
ATOM     19  C   UNL     1     183.792 186.760 224.769  1.00  0.00     0.087 C 
ENDBRANCH  16  17
ENDBRANCH  15  16
ENDBRANCH  13  15
ENDBRANCH  11  12
ENDBRANCH   1  11
TORSDOF 9
ENDMDL
MODEL 5
REMARK VINA RESULT:    -3.431      2.199      4.496
REMARK INTER + INTRA:          -8.269
REMARK INTER:                  -5.091
REMARK INTRA:                  -3.178
REMARK UNBOUND:                -3.033
REMARK SMILES CC(=O)CCC=C(C)CCC=C(C)CCC=C(C)C
REMARK SMILES IDX 10 1 11 2 12 3 13 4 14 5 15 6 16 7 18 8 17 9 19 10 9 11 7 12
REMARK SMILES IDX 6 13 8 14 5 15 4 16 2 17 3 18 1 19
REMARK H PARENT
REMARK Flexibility Score: inf
ROOT
ATOM      1  C   UNL     1     187.540 190.116 225.534  1.00  0.00     0.032 C 
ENDROOT
BRANCH   1   2
ATOM      2  C   UNL     1     186.659 189.588 226.637  1.00  0.00    -0.028 C 
ATOM      3  C   UNL     1     185.620 190.259 227.184  1.00  0.00    -0.077 C 
ATOM      4  C   UNL     1     184.874 189.613 228.325  1.00  0.00     0.039 C 
BRANCH   3   5
ATOM      5  C   UNL     1     185.153 191.613 226.679  1.00  0.00     0.034 C 
BRANCH   5   6
ATOM      6  C   UNL     1     183.624 191.676 226.543  1.00  0.00     0.032 C 
BRANCH   6   7
ATOM      7  C   UNL     1     183.158 191.173 225.197  1.00  0.00    -0.028 C 
ATOM      8  C   UNL     1     181.744 189.352 226.177  1.00  0.00     0.039 C 
ATOM      9  C   UNL     1     182.340 190.114 225.015  1.00  0.00    -0.080 C 
ATOM     10  C   UNL     1     182.004 189.701 223.606  1.00  0.00     0.039 C 
ENDBRANCH   6   7
ENDBRANCH   5   6
ENDBRANCH   3   5
ENDBRANCH   1   2
BRANCH   1  11
ATOM     11  C   UNL     1     187.485 189.196 224.309  1.00  0.00     0.034 C 
BRANCH  11  12
ATOM     12  C   UNL     1     186.236 189.464 223.495  1.00  0.00    -0.077 C 
ATOM     13  C   UNL     1     185.248 188.554 223.347  1.00  0.00    -0.028 C 
ATOM     14  C   UNL     1     186.057 190.826 222.875  1.00  0.00     0.039 C 
BRANCH  13  15
ATOM     15  C   UNL     1     185.297 187.160 223.930  1.00  0.00     0.035 C 
BRANCH  15  16
ATOM     16  C   UNL     1     184.536 187.061 225.258  1.00  0.00     0.079 C 
BRANCH  16  17
ATOM     17  C   UNL     1     183.358 186.127 225.161  1.00  0.00     0.130 C 
ATOM     18  O   UNL     1     183.057 185.430 226.118  1.00  0.00    -0.300 OA
ATOM     19  C   UNL     1     182.528 186.059 223.914  1.00  0.00     0.087 C 
ENDBRANCH  16  17
ENDBRANCH  15  16
ENDBRANCH  13  15
ENDBRANCH  11  12
ENDBRANCH   1  11
TORSDOF 9
ENDMDL
MODEL 6
REMARK VINA RESULT:    -3.393      1.933      3.553
REMARK INTER + INTRA:          -8.211
REMARK INTER:                  -5.127
REMARK INTRA:                  -3.083
REMARK UNBOUND:                -3.033
REMARK SMILES CC(=O)CCC=C(C)CCC=C(C)CCC=C(C)C
REMARK SMILES IDX 10 1 11 2 12 3 13 4 14 5 15 6 16 7 18 8 17 9 19 10 9 11 7 12
REMARK SMILES IDX 6 13 8 14 5 15 4 16 2 17 3 18 1 19
REMARK H PARENT
REMARK Flexibility Score: inf
ROOT
ATOM      1  C   UNL     1     184.172 191.028 222.875  1.00  0.00     0.032 C 
ENDROOT
BRANCH   1   2
ATOM      2  C   UNL     1     185.536 190.752 223.455  1.00  0.00    -0.028 C 
ATOM      3  C   UNL     1     186.064 189.520 223.635  1.00  0.00    -0.077 C 
ATOM      4  C   UNL     1     187.420 189.413 224.287  1.00  0.00     0.039 C 
BRANCH   3   5
ATOM      5  C   UNL     1     185.370 188.249 223.180  1.00  0.00     0.034 C 
BRANCH   5   6
ATOM      6  C   UNL     1     185.739 187.048 224.063  1.00  0.00     0.032 C 
BRANCH   6   7
ATOM      7  C   UNL     1     184.854 186.955 225.284  1.00  0.00    -0.028 C 
ATOM      8  C   UNL     1     183.134 185.538 224.139  1.00  0.00     0.039 C 
ATOM      9  C   UNL     1     183.669 186.308 225.325  1.00  0.00    -0.080 C 
ATOM     10  C   UNL     1     182.874 186.347 226.605  1.00  0.00     0.039 C 
ENDBRANCH   6   7
ENDBRANCH   5   6
ENDBRANCH   3   5
ENDBRANCH   1   2
BRANCH   1  11
ATOM     11  C   UNL     1     183.171 191.369 223.985  1.00  0.00     0.034 C 
BRANCH  11  12
ATOM     12  C   UNL     1     182.467 190.118 224.472  1.00  0.00    -0.077 C 
ATOM     13  C   UNL     1     182.411 189.770 225.776  1.00  0.00    -0.028 C 
ATOM     14  C   UNL     1     181.747 189.257 223.466  1.00  0.00     0.039 C 
BRANCH  13  15
ATOM     15  C   UNL     1     183.076 190.555 226.884  1.00  0.00     0.035 C 
BRANCH  15  16
ATOM     16  C   UNL     1     184.480 190.027 227.205  1.00  0.00     0.079 C 
BRANCH  16  17
ATOM     17  C   UNL     1     185.512 191.124 227.177  1.00  0.00     0.130 C 
ATOM     18  O   UNL     1     185.220 192.218 226.719  1.00  0.00    -0.300 OA
ATOM     19  C   UNL     1     186.888 190.904 227.730  1.00  0.00     0.087 C 
ENDBRANCH  16  17
ENDBRANCH  15  16
ENDBRANCH  13  15
ENDBRANCH  11  12
ENDBRANCH   1  11
TORSDOF 9
ENDMDL
MODEL 7
REMARK VINA RESULT:    -3.392      2.265      4.555
REMARK INTER + INTRA:          -8.209
REMARK INTER:                  -5.013
REMARK INTRA:                  -3.196
REMARK UNBOUND:                -3.033
REMARK SMILES CC(=O)CCC=C(C)CCC=C(C)CCC=C(C)C
REMARK SMILES IDX 10 1 11 2 12 3 13 4 14 5 15 6 16 7 18 8 17 9 19 10 9 11 7 12
REMARK SMILES IDX 6 13 8 14 5 15 4 16 2 17 3 18 1 19
REMARK H PARENT
REMARK Flexibility Score: inf
ROOT
ATOM      1  C   UNL     1     184.113 191.310 223.309  1.00  0.00     0.032 C 
ENDROOT
BRANCH   1   2
ATOM      2  C   UNL     1     182.983 190.878 224.209  1.00  0.00    -0.028 C 
ATOM      3  C   UNL     1     182.543 189.606 224.338  1.00  0.00    -0.077 C 
ATOM      4  C   UNL     1     181.359 189.348 225.236  1.00  0.00     0.039 C 
BRANCH   3   5
ATOM      5  C   UNL     1     183.206 188.427 223.648  1.00  0.00     0.034 C 
BRANCH   5   6
ATOM      6  C   UNL     1     183.200 187.170 224.532  1.00  0.00     0.032 C 
BRANCH   6   7
ATOM      7  C   UNL     1     184.292 187.211 225.575  1.00  0.00    -0.028 C 
ATOM      8  C   UNL     1     185.952 186.016 224.128  1.00  0.00     0.039 C 
ATOM      9  C   UNL     1     185.521 186.671 225.420  1.00  0.00    -0.080 C 
ATOM     10  C   UNL     1     186.488 186.747 226.573  1.00  0.00     0.039 C 
ENDBRANCH   6   7
ENDBRANCH   5   6
ENDBRANCH   3   5
ENDBRANCH   1   2
BRANCH   1  11
ATOM     11  C   UNL     1     185.311 191.792 224.137  1.00  0.00     0.034 C 
BRANCH  11  12
ATOM     12  C   UNL     1     186.132 190.615 224.623  1.00  0.00    -0.077 C 
ATOM     13  C   UNL     1     186.228 190.278 225.928  1.00  0.00    -0.028 C 
ATOM     14  C   UNL     1     186.821 189.745 223.604  1.00  0.00     0.039 C 
BRANCH  13  15
ATOM     15  C   UNL     1     185.572 191.057 227.047  1.00  0.00     0.035 C 
BRANCH  15  16
ATOM     16  C   UNL     1     184.376 190.310 227.649  1.00  0.00     0.079 C 
BRANCH  16  17
ATOM     17  C   UNL     1     183.216 191.232 227.919  1.00  0.00     0.130 C 
ATOM     18  O   UNL     1     182.165 190.777 228.341  1.00  0.00    -0.300 OA
ATOM     19  C   UNL     1     183.341 192.712 227.705  1.00  0.00     0.087 C 
ENDBRANCH  16  17
ENDBRANCH  15  16
ENDBRANCH  13  15
ENDBRANCH  11  12
ENDBRANCH   1  11
TORSDOF 9
ENDMDL
MODEL 8
REMARK VINA RESULT:    -3.384      4.808      7.418
REMARK INTER + INTRA:          -8.197
REMARK INTER:                  -5.057
REMARK INTRA:                  -3.140
REMARK UNBOUND:                -3.033
REMARK SMILES CC(=O)CCC=C(C)CCC=C(C)CCC=C(C)C
REMARK SMILES IDX 10 1 11 2 12 3 13 4 14 5 15 6 16 7 18 8 17 9 19 10 9 11 7 12
REMARK SMILES IDX 6 13 8 14 5 15 4 16 2 17 3 18 1 19
REMARK H PARENT
REMARK Flexibility Score: inf
ROOT
ATOM      1  C   UNL     1     189.366 181.492 224.809  1.00  0.00     0.032 C 
ENDROOT
BRANCH   1   2
ATOM      2  C   UNL     1     189.294 182.585 225.846  1.00  0.00    -0.028 C 
ATOM      3  C   UNL     1     188.318 182.705 226.775  1.00  0.00    -0.077 C 
ATOM      4  C   UNL     1     188.358 183.893 227.703  1.00  0.00     0.039 C 
BRANCH   3   5
ATOM      5  C   UNL     1     187.209 181.682 226.945  1.00  0.00     0.034 C 
BRANCH   5   6
ATOM      6  C   UNL     1     185.882 182.340 227.352  1.00  0.00     0.032 C 
BRANCH   6   7
ATOM      7  C   UNL     1     185.039 182.698 226.150  1.00  0.00    -0.028 C 
ATOM      8  C   UNL     1     184.685 185.065 226.890  1.00  0.00     0.039 C 
ATOM      9  C   UNL     1     184.471 183.905 225.944  1.00  0.00    -0.080 C 
ATOM     10  C   UNL     1     183.614 184.096 224.720  1.00  0.00     0.039 C 
ENDBRANCH   6   7
ENDBRANCH   5   6
ENDBRANCH   3   5
ENDBRANCH   1   2
BRANCH   1  11
ATOM     11  C   UNL     1     188.977 182.031 223.427  1.00  0.00     0.034 C 
BRANCH  11  12
ATOM     12  C   UNL     1     187.470 182.064 223.272  1.00  0.00    -0.077 C 
ATOM     13  C   UNL     1     186.782 183.204 223.044  1.00  0.00    -0.028 C 
ATOM     14  C   UNL     1     186.712 180.762 223.311  1.00  0.00     0.039 C 
BRANCH  13  15
ATOM     15  C   UNL     1     187.424 184.571 222.967  1.00  0.00     0.035 C 
BRANCH  15  16
ATOM     16  C   UNL     1     187.379 185.309 224.310  1.00  0.00     0.079 C 
BRANCH  16  17
ATOM     17  C   UNL     1     186.819 186.700 224.167  1.00  0.00     0.130 C 
ATOM     18  O   UNL     1     185.645 186.853 223.869  1.00  0.00    -0.300 OA
ATOM     19  C   UNL     1     187.675 187.906 224.414  1.00  0.00     0.087 C 
ENDBRANCH  16  17
ENDBRANCH  15  16
ENDBRANCH  13  15
ENDBRANCH  11  12
ENDBRANCH   1  11
TORSDOF 9
ENDMDL
MODEL 9
REMARK VINA RESULT:    -3.343      5.157      8.090
REMARK INTER + INTRA:          -8.135
REMARK INTER:                  -4.968
REMARK INTRA:                  -3.166
REMARK UNBOUND:                -3.033
REMARK SMILES CC(=O)CCC=C(C)CCC=C(C)CCC=C(C)C
REMARK SMILES IDX 10 1 11 2 12 3 13 4 14 5 15 6 16 7 18 8 17 9 19 10 9 11 7 12
REMARK SMILES IDX 6 13 8 14 5 15 4 16 2 17 3 18 1 19
REMARK H PARENT
REMARK Flexibility Score: inf
ROOT
ATOM      1  C   UNL     1     187.108 181.108 223.637  1.00  0.00     0.032 C 
ENDROOT
BRANCH   1   2
ATOM      2  C   UNL     1     186.341 182.400 223.511  1.00  0.00    -0.028 C 
ATOM      3  C   UNL     1     185.688 183.013 224.524  1.00  0.00    -0.077 C 
ATOM      4  C   UNL     1     184.915 184.271 224.218  1.00  0.00     0.039 C 
BRANCH   3   5
ATOM      5  C   UNL     1     185.727 182.510 225.957  1.00  0.00     0.034 C 
BRANCH   5   6
ATOM      6  C   UNL     1     185.773 183.666 226.968  1.00  0.00     0.032 C 
BRANCH   6   7
ATOM      7  C   UNL     1     187.191 184.042 227.327  1.00  0.00    -0.028 C 
ATOM      8  C   UNL     1     186.941 186.408 226.542  1.00  0.00     0.039 C 
ATOM      9  C   UNL     1     187.738 185.259 227.115  1.00  0.00    -0.080 C 
ATOM     10  C   UNL     1     189.185 185.469 227.481  1.00  0.00     0.039 C 
ENDBRANCH   6   7
ENDBRANCH   5   6
ENDBRANCH   3   5
ENDBRANCH   1   2
BRANCH   1  11
ATOM     11  C   UNL     1     188.608 181.345 223.424  1.00  0.00     0.034 C 
BRANCH  11  12
ATOM     12  C   UNL     1     189.232 181.959 224.661  1.00  0.00    -0.077 C 
ATOM     13  C   UNL     1     189.753 183.206 224.678  1.00  0.00    -0.028 C 
ATOM     14  C   UNL     1     189.216 181.170 225.945  1.00  0.00     0.039 C 
BRANCH  13  15
ATOM     15  C   UNL     1     189.815 184.106 223.464  1.00  0.00     0.035 C 
BRANCH  15  16
ATOM     16  C   UNL     1     189.103 185.444 223.698  1.00  0.00     0.079 C 
BRANCH  16  17
ATOM     17  C   UNL     1     190.080 186.561 223.956  1.00  0.00     0.130 C 
ATOM     18  O   UNL     1     191.276 186.364 223.815  1.00  0.00    -0.300 OA
ATOM     19  C   UNL     1     189.603 187.926 224.355  1.00  0.00     0.087 C 
ENDBRANCH  16  17
ENDBRANCH  15  16
ENDBRANCH  13  15
ENDBRANCH  11  12
ENDBRANCH   1  11
TORSDOF 9
ENDMDL
