MODEL 1
REMARK VINA RESULT:    -5.986      0.000      0.000
REMARK INTER + INTRA:          -8.753
REMARK INTER:                  -8.086
REMARK INTRA:                  -0.667
REMARK UNBOUND:                -0.667
REMARK SMILES COc1ccc(-c2cc(=O)c3c(OC)c(OC)c(OC)cc3o2)cc1OC
REMARK SMILES IDX 7 1 8 2 9 3 10 4 11 5 12 6 15 7 18 8 21 9 22 10 23 11 6 12
REMARK SMILES IDX 3 13 25 14 4 15 24 16 5 17 2 18 1 19 26 20 27 21 13 22 14 23
REMARK SMILES IDX 19 24 20 25 16 26 17 27
REMARK H PARENT
REMARK Flexibility Score: inf
ROOT
ATOM      1  C   UNL     1     122.130 124.872 138.610  1.00  0.00     0.138 A 
ATOM      2  C   UNL     1     121.027 124.144 139.082  1.00  0.00     0.100 A 
ATOM      3  C   UNL     1     121.151 123.391 140.249  1.00  0.00     0.197 A 
ATOM      4  O   UNL     1     120.164 122.710 140.640  1.00  0.00    -0.289 OA
ATOM      5  C   UNL     1     122.378 123.381 140.947  1.00  0.00     0.111 A 
ATOM      6  C   UNL     1     122.580 122.671 142.158  1.00  0.00     0.179 A 
ATOM      7  C   UNL     1     123.875 122.613 142.733  1.00  0.00     0.204 A 
ATOM      8  C   UNL     1     124.924 123.352 142.164  1.00  0.00     0.168 A 
ATOM      9  C   UNL     1     124.700 124.107 141.002  1.00  0.00     0.098 A 
ATOM     10  C   UNL     1     123.449 124.112 140.389  1.00  0.00     0.146 A 
ATOM     11  O   UNL     1     123.282 124.814 139.271  1.00  0.00    -0.456 OA
ENDROOT
BRANCH   1  12
ATOM     12  C   UNL     1     122.056 125.693 137.374  1.00  0.00     0.021 A 
ATOM     13  C   UNL     1     121.910 127.303 135.060  1.00  0.00     0.160 A 
ATOM     14  C   UNL     1     121.521 125.957 135.000  1.00  0.00     0.161 A 
ATOM     15  C   UNL     1     122.361 127.842 136.278  1.00  0.00     0.051 A 
ATOM     16  C   UNL     1     121.591 125.158 136.158  1.00  0.00     0.062 A 
ATOM     17  C   UNL     1     122.427 127.045 137.421  1.00  0.00     0.016 A 
BRANCH  13  18
ATOM     18  O   UNL     1     121.833 128.073 133.888  1.00  0.00    -0.493 OA
ATOM     19  C   UNL     1     122.319 129.407 133.765  1.00  0.00     0.278 C 
ENDBRANCH  13  18
BRANCH  14  20
ATOM     20  O   UNL     1     121.066 125.451 133.772  1.00  0.00    -0.493 OA
ATOM     21  C   UNL     1     119.827 124.773 133.585  1.00  0.00     0.278 C 
ENDBRANCH  14  20
ENDBRANCH   1  12
BRANCH   6  22
ATOM     22  O   UNL     1     121.501 122.063 142.803  1.00  0.00    -0.492 OA
ATOM     23  C   UNL     1     120.875 122.677 143.925  1.00  0.00     0.278 C 
ENDBRANCH   6  22
BRANCH   8  24
ATOM     24  O   UNL     1     126.183 123.301 142.783  1.00  0.00    -0.493 OA
ATOM     25  C   UNL     1     127.273 122.500 142.336  1.00  0.00     0.278 C 
ENDBRANCH   8  24
BRANCH   7  26
ATOM     26  O   UNL     1     124.186 121.840 143.868  1.00  0.00    -0.490 OA
ATOM     27  C   UNL     1     124.408 120.434 143.887  1.00  0.00     0.278 C 
ENDBRANCH   7  26
TORSDOF 6
ENDMDL
MODEL 2
REMARK VINA RESULT:    -5.969      1.854      2.486
REMARK INTER + INTRA:          -8.729
REMARK INTER:                  -8.065
REMARK INTRA:                  -0.664
REMARK UNBOUND:                -0.667
REMARK SMILES COc1ccc(-c2cc(=O)c3c(OC)c(OC)c(OC)cc3o2)cc1OC
REMARK SMILES IDX 7 1 8 2 9 3 10 4 11 5 12 6 15 7 18 8 21 9 22 10 23 11 6 12
REMARK SMILES IDX 3 13 25 14 4 15 24 16 5 17 2 18 1 19 26 20 27 21 13 22 14 23
REMARK SMILES IDX 19 24 20 25 16 26 17 27
REMARK H PARENT
REMARK Flexibility Score: inf
ROOT
ATOM      1  C   UNL     1     122.509 124.937 139.901  1.00  0.00     0.138 A 
ATOM      2  C   UNL     1     121.731 125.322 141.004  1.00  0.00     0.100 A 
ATOM      3  C   UNL     1     122.083 124.880 142.279  1.00  0.00     0.197 A 
ATOM      4  O   UNL     1     121.353 125.200 143.256  1.00  0.00    -0.289 OA
ATOM      5  C   UNL     1     123.223 124.064 142.446  1.00  0.00     0.111 A 
ATOM      6  C   UNL     1     123.671 123.600 143.709  1.00  0.00     0.179 A 
ATOM      7  C   UNL     1     124.753 122.686 143.781  1.00  0.00     0.204 A 
ATOM      8  C   UNL     1     125.448 122.335 142.612  1.00  0.00     0.168 A 
ATOM      9  C   UNL     1     125.040 122.853 141.372  1.00  0.00     0.098 A 
ATOM     10  C   UNL     1     123.933 123.694 141.283  1.00  0.00     0.146 A 
ATOM     11  O   UNL     1     123.556 124.140 140.088  1.00  0.00    -0.456 OA
ENDROOT
BRANCH   1  12
ATOM     12  C   UNL     1     122.183 125.378 138.521  1.00  0.00     0.021 A 
ATOM     13  C   UNL     1     121.516 126.177 135.897  1.00  0.00     0.160 A 
ATOM     14  C   UNL     1     122.836 126.306 136.352  1.00  0.00     0.161 A 
ATOM     15  C   UNL     1     120.537 125.639 136.751  1.00  0.00     0.051 A 
ATOM     16  C   UNL     1     123.166 125.902 137.661  1.00  0.00     0.062 A 
ATOM     17  C   UNL     1     120.871 125.241 138.046  1.00  0.00     0.016 A 
BRANCH  13  18
ATOM     18  O   UNL     1     121.216 126.592 134.589  1.00  0.00    -0.493 OA
ATOM     19  C   UNL     1     120.633 125.759 133.591  1.00  0.00     0.278 C 
ENDBRANCH  13  18
BRANCH  14  20
ATOM     20  O   UNL     1     123.793 126.837 135.472  1.00  0.00    -0.493 OA
ATOM     21  C   UNL     1     124.666 126.058 134.661  1.00  0.00     0.278 C 
ENDBRANCH  14  20
ENDBRANCH   1  12
BRANCH   6  22
ATOM     22  O   UNL     1     123.075 124.070 144.881  1.00  0.00    -0.492 OA
ATOM     23  C   UNL     1     123.669 125.117 145.640  1.00  0.00     0.278 C 
ENDBRANCH   6  22
BRANCH   8  24
ATOM     24  O   UNL     1     126.538 121.458 142.727  1.00  0.00    -0.493 OA
ATOM     25  C   UNL     1     127.890 121.807 142.445  1.00  0.00     0.278 C 
ENDBRANCH   8  24
BRANCH   7  26
ATOM     26  O   UNL     1     125.187 122.090 144.980  1.00  0.00    -0.490 OA
ATOM     27  C   UNL     1     124.592 120.965 145.618  1.00  0.00     0.278 C 
ENDBRANCH   7  26
TORSDOF 6
ENDMDL
MODEL 3
REMARK VINA RESULT:    -5.851      2.193      8.224
REMARK INTER + INTRA:          -8.571
REMARK INTER:                  -7.910
REMARK INTRA:                  -0.661
REMARK UNBOUND:                -0.667
REMARK SMILES COc1ccc(-c2cc(=O)c3c(OC)c(OC)c(OC)cc3o2)cc1OC
REMARK SMILES IDX 7 1 8 2 9 3 10 4 11 5 12 6 15 7 18 8 21 9 22 10 23 11 6 12
REMARK SMILES IDX 3 13 25 14 4 15 24 16 5 17 2 18 1 19 26 20 27 21 13 22 14 23
REMARK SMILES IDX 19 24 20 25 16 26 17 27
REMARK H PARENT
REMARK Flexibility Score: inf
ROOT
ATOM      1  C   UNL     1     122.314 124.510 139.898  1.00  0.00     0.138 A 
ATOM      2  C   UNL     1     121.061 124.706 139.297  1.00  0.00     0.100 A 
ATOM      3  C   UNL     1     120.987 125.352 138.063  1.00  0.00     0.197 A 
ATOM      4  O   UNL     1     119.852 125.556 137.552  1.00  0.00    -0.289 OA
ATOM      5  C   UNL     1     122.171 125.788 137.429  1.00  0.00     0.111 A 
ATOM      6  C   UNL     1     122.188 126.421 136.161  1.00  0.00     0.179 A 
ATOM      7  C   UNL     1     123.405 126.938 135.648  1.00  0.00     0.204 A 
ATOM      8  C   UNL     1     124.604 126.720 136.344  1.00  0.00     0.168 A 
ATOM      9  C   UNL     1     124.588 126.032 137.568  1.00  0.00     0.098 A 
ATOM     10  C   UNL     1     123.387 125.584 138.116  1.00  0.00     0.146 A 
ATOM     11  O   UNL     1     123.407 124.964 139.292  1.00  0.00    -0.456 OA
ENDROOT
BRANCH   1  12
ATOM     12  C   UNL     1     122.455 123.828 141.210  1.00  0.00     0.021 A 
ATOM     13  C   UNL     1     122.677 122.493 143.687  1.00  0.00     0.160 A 
ATOM     14  C   UNL     1     123.071 123.834 143.579  1.00  0.00     0.161 A 
ATOM     15  C   UNL     1     122.164 121.827 142.559  1.00  0.00     0.051 A 
ATOM     16  C   UNL     1     122.954 124.498 142.342  1.00  0.00     0.062 A 
ATOM     17  C   UNL     1     122.051 122.491 141.338  1.00  0.00     0.016 A 
BRANCH  13  18
ATOM     18  O   UNL     1     122.809 121.856 144.932  1.00  0.00    -0.493 OA
ATOM     19  C   UNL     1     123.907 121.028 145.304  1.00  0.00     0.278 C 
ENDBRANCH  13  18
BRANCH  14  20
ATOM     20  O   UNL     1     123.570 124.474 144.725  1.00  0.00    -0.493 OA
ATOM     21  C   UNL     1     123.074 125.704 145.244  1.00  0.00     0.278 C 
ENDBRANCH  14  20
ENDBRANCH   1  12
BRANCH   6  22
ATOM     22  O   UNL     1     121.019 126.501 135.400  1.00  0.00    -0.492 OA
ATOM     23  C   UNL     1     120.818 125.662 134.269  1.00  0.00     0.278 C 
ENDBRANCH   6  22
BRANCH   8  24
ATOM     24  O   UNL     1     125.794 127.213 135.787  1.00  0.00    -0.493 OA
ATOM     25  C   UNL     1     126.748 126.420 135.086  1.00  0.00     0.278 C 
ENDBRANCH   8  24
BRANCH   7  26
ATOM     26  O   UNL     1     123.491 127.678 134.453  1.00  0.00    -0.490 OA
ATOM     27  C   UNL     1     123.191 129.062 134.303  1.00  0.00     0.278 C 
ENDBRANCH   7  26
TORSDOF 6
ENDMDL
MODEL 4
REMARK VINA RESULT:    -5.690      1.952      8.386
REMARK INTER + INTRA:          -8.352
REMARK INTER:                  -7.607
REMARK INTRA:                  -0.745
REMARK UNBOUND:                -0.667
REMARK SMILES COc1ccc(-c2cc(=O)c3c(OC)c(OC)c(OC)cc3o2)cc1OC
REMARK SMILES IDX 7 1 8 2 9 3 10 4 11 5 12 6 15 7 18 8 21 9 22 10 23 11 6 12
REMARK SMILES IDX 3 13 25 14 4 15 24 16 5 17 2 18 1 19 26 20 27 21 13 22 14 23
REMARK SMILES IDX 19 24 20 25 16 26 17 27
REMARK H PARENT
REMARK Flexibility Score: inf
ROOT
ATOM      1  C   UNL     1     121.889 125.056 139.364  1.00  0.00     0.138 A 
ATOM      2  C   UNL     1     121.117 124.736 138.236  1.00  0.00     0.100 A 
ATOM      3  C   UNL     1     121.217 125.525 137.091  1.00  0.00     0.197 A 
ATOM      4  O   UNL     1     120.489 125.250 136.098  1.00  0.00    -0.289 OA
ATOM      5  C   UNL     1     122.102 126.626 137.075  1.00  0.00     0.111 A 
ATOM      6  C   UNL     1     122.290 127.458 135.942  1.00  0.00     0.179 A 
ATOM      7  C   UNL     1     123.104 128.615 136.045  1.00  0.00     0.204 A 
ATOM      8  C   UNL     1     123.811 128.866 137.231  1.00  0.00     0.168 A 
ATOM      9  C   UNL     1     123.672 127.999 138.327  1.00  0.00     0.098 A 
ATOM     10  C   UNL     1     122.817 126.901 138.260  1.00  0.00     0.146 A 
ATOM     11  O   UNL     1     122.686 126.120 139.328  1.00  0.00    -0.456 OA
ENDROOT
BRANCH   1  12
ATOM     12  C   UNL     1     121.825 124.251 140.610  1.00  0.00     0.021 A 
ATOM     13  C   UNL     1     121.648 122.701 142.963  1.00  0.00     0.160 A 
ATOM     14  C   UNL     1     122.449 123.852 142.944  1.00  0.00     0.161 A 
ATOM     15  C   UNL     1     120.931 122.335 141.809  1.00  0.00     0.051 A 
ATOM     16  C   UNL     1     122.531 124.625 141.769  1.00  0.00     0.062 A 
ATOM     17  C   UNL     1     121.017 123.106 140.650  1.00  0.00     0.016 A 
BRANCH  13  18
ATOM     18  O   UNL     1     121.589 121.947 144.147  1.00  0.00    -0.493 OA
ATOM     19  C   UNL     1     122.414 120.821 144.429  1.00  0.00     0.278 C 
ENDBRANCH  13  18
BRANCH  14  20
ATOM     20  O   UNL     1     123.145 124.197 144.113  1.00  0.00    -0.493 OA
ATOM     21  C   UNL     1     124.536 123.974 144.322  1.00  0.00     0.278 C 
ENDBRANCH  14  20
ENDBRANCH   1  12
BRANCH   6  22
ATOM     22  O   UNL     1     121.707 127.120 134.718  1.00  0.00    -0.492 OA
ATOM     23  C   UNL     1     122.459 126.470 133.700  1.00  0.00     0.278 C 
ENDBRANCH   6  22
BRANCH   8  24
ATOM     24  O   UNL     1     124.638 129.999 137.283  1.00  0.00    -0.493 OA
ATOM     25  C   UNL     1     124.361 131.168 138.049  1.00  0.00     0.278 C 
ENDBRANCH   8  24
BRANCH   7  26
ATOM     26  O   UNL     1     123.254 129.553 135.006  1.00  0.00    -0.490 OA
ATOM     27  C   UNL     1     122.347 130.605 134.693  1.00  0.00     0.278 C 
ENDBRANCH   7  26
TORSDOF 6
ENDMDL
MODEL 5
REMARK VINA RESULT:    -5.623      1.495      1.959
REMARK INTER + INTRA:          -8.263
REMARK INTER:                  -7.724
REMARK INTRA:                  -0.538
REMARK UNBOUND:                -0.667
REMARK SMILES COc1ccc(-c2cc(=O)c3c(OC)c(OC)c(OC)cc3o2)cc1OC
REMARK SMILES IDX 7 1 8 2 9 3 10 4 11 5 12 6 15 7 18 8 21 9 22 10 23 11 6 12
REMARK SMILES IDX 3 13 25 14 4 15 24 16 5 17 2 18 1 19 26 20 27 21 13 22 14 23
REMARK SMILES IDX 19 24 20 25 16 26 17 27
REMARK H PARENT
REMARK Flexibility Score: inf
ROOT
ATOM      1  C   UNL     1     122.660 124.852 139.123  1.00  0.00     0.138 A 
ATOM      2  C   UNL     1     121.526 124.584 139.906  1.00  0.00     0.100 A 
ATOM      3  C   UNL     1     121.676 123.917 141.121  1.00  0.00     0.197 A 
ATOM      4  O   UNL     1     120.645 123.648 141.797  1.00  0.00    -0.289 OA
ATOM      5  C   UNL     1     122.963 123.531 141.554  1.00  0.00     0.111 A 
ATOM      6  C   UNL     1     123.208 122.880 142.790  1.00  0.00     0.179 A 
ATOM      7  C   UNL     1     124.513 122.416 143.096  1.00  0.00     0.204 A 
ATOM      8  C   UNL     1     125.577 122.706 142.228  1.00  0.00     0.168 A 
ATOM      9  C   UNL     1     125.338 123.411 141.037  1.00  0.00     0.098 A 
ATOM     10  C   UNL     1     124.047 123.806 140.692  1.00  0.00     0.146 A 
ATOM     11  O   UNL     1     123.854 124.444 139.542  1.00  0.00    -0.456 OA
ENDROOT
BRANCH   1  12
ATOM     12  C   UNL     1     122.562 125.561 137.821  1.00  0.00     0.021 A 
ATOM     13  C   UNL     1     122.322 126.882 135.338  1.00  0.00     0.160 A 
ATOM     14  C   UNL     1     123.593 126.620 135.869  1.00  0.00     0.161 A 
ATOM     15  C   UNL     1     121.176 126.473 136.044  1.00  0.00     0.051 A 
ATOM     16  C   UNL     1     123.708 125.957 137.107  1.00  0.00     0.062 A 
ATOM     17  C   UNL     1     121.299 125.816 137.269  1.00  0.00     0.016 A 
BRANCH  13  18
ATOM     18  O   UNL     1     122.237 127.549 134.104  1.00  0.00    -0.493 OA
ATOM     19  C   UNL     1     122.036 128.951 133.956  1.00  0.00     0.278 C 
ENDBRANCH  13  18
BRANCH  14  20
ATOM     20  O   UNL     1     124.717 127.032 135.136  1.00  0.00    -0.493 OA
ATOM     21  C   UNL     1     125.975 126.364 135.142  1.00  0.00     0.278 C 
ENDBRANCH  14  20
ENDBRANCH   1  12
BRANCH   6  22
ATOM     22  O   UNL     1     122.176 122.729 143.719  1.00  0.00    -0.492 OA
ATOM     23  C   UNL     1     121.603 121.452 143.981  1.00  0.00     0.278 C 
ENDBRANCH   6  22
BRANCH   8  24
ATOM     24  O   UNL     1     126.861 122.265 142.583  1.00  0.00    -0.493 OA
ATOM     25  C   UNL     1     127.937 123.121 142.954  1.00  0.00     0.278 C 
ENDBRANCH   8  24
BRANCH   7  26
ATOM     26  O   UNL     1     124.818 121.663 144.245  1.00  0.00    -0.490 OA
ATOM     27  C   UNL     1     125.176 122.190 145.519  1.00  0.00     0.278 C 
ENDBRANCH   7  26
TORSDOF 6
ENDMDL
MODEL 6
REMARK VINA RESULT:    -5.555      4.907      7.039
REMARK INTER + INTRA:          -8.171
REMARK INTER:                  -7.642
REMARK INTRA:                  -0.529
REMARK UNBOUND:                -0.667
REMARK SMILES COc1ccc(-c2cc(=O)c3c(OC)c(OC)c(OC)cc3o2)cc1OC
REMARK SMILES IDX 7 1 8 2 9 3 10 4 11 5 12 6 15 7 18 8 21 9 22 10 23 11 6 12
REMARK SMILES IDX 3 13 25 14 4 15 24 16 5 17 2 18 1 19 26 20 27 21 13 22 14 23
REMARK SMILES IDX 19 24 20 25 16 26 17 27
REMARK H PARENT
REMARK Flexibility Score: inf
ROOT
ATOM      1  C   UNL     1     125.996 126.018 135.142  1.00  0.00     0.138 A 
ATOM      2  C   UNL     1     127.095 126.519 134.427  1.00  0.00     0.100 A 
ATOM      3  C   UNL     1     128.386 126.176 134.825  1.00  0.00     0.197 A 
ATOM      4  O   UNL     1     129.365 126.665 134.198  1.00  0.00    -0.289 OA
ATOM      5  C   UNL     1     128.572 125.319 135.932  1.00  0.00     0.111 A 
ATOM      6  C   UNL     1     129.848 124.892 136.382  1.00  0.00     0.179 A 
ATOM      7  C   UNL     1     129.956 124.130 137.573  1.00  0.00     0.204 A 
ATOM      8  C   UNL     1     128.795 123.705 138.237  1.00  0.00     0.168 A 
ATOM      9  C   UNL     1     127.532 124.075 137.746  1.00  0.00     0.098 A 
ATOM     10  C   UNL     1     127.418 124.885 136.618  1.00  0.00     0.146 A 
ATOM     11  O   UNL     1     126.206 125.241 136.201  1.00  0.00    -0.456 OA
ENDROOT
BRANCH   1  12
ATOM     12  C   UNL     1     124.598 126.348 134.764  1.00  0.00     0.021 A 
ATOM     13  C   UNL     1     121.947 126.939 133.996  1.00  0.00     0.160 A 
ATOM     14  C   UNL     1     122.676 127.864 134.758  1.00  0.00     0.161 A 
ATOM     15  C   UNL     1     122.549 125.728 133.612  1.00  0.00     0.051 A 
ATOM     16  C   UNL     1     124.001 127.567 135.135  1.00  0.00     0.062 A 
ATOM     17  C   UNL     1     123.862 125.441 133.989  1.00  0.00     0.016 A 
BRANCH  13  18
ATOM     18  O   UNL     1     120.627 127.261 133.638  1.00  0.00    -0.493 OA
ATOM     19  C   UNL     1     119.786 126.441 132.833  1.00  0.00     0.278 C 
ENDBRANCH  13  18
BRANCH  14  20
ATOM     20  O   UNL     1     122.051 129.069 135.117  1.00  0.00    -0.493 OA
ATOM     21  C   UNL     1     122.452 130.356 134.658  1.00  0.00     0.278 C 
ENDBRANCH  14  20
ENDBRANCH   1  12
BRANCH   6  22
ATOM     22  O   UNL     1     130.990 125.188 135.635  1.00  0.00    -0.492 OA
ATOM     23  C   UNL     1     131.549 124.236 134.737  1.00  0.00     0.278 C 
ENDBRANCH   6  22
BRANCH   8  24
ATOM     24  O   UNL     1     128.940 122.920 139.391  1.00  0.00    -0.493 OA
ATOM     25  C   UNL     1     128.267 123.160 140.623  1.00  0.00     0.278 C 
ENDBRANCH   8  24
BRANCH   7  26
ATOM     26  O   UNL     1     131.187 123.763 138.150  1.00  0.00    -0.490 OA
ATOM     27  C   UNL     1     131.907 122.563 137.890  1.00  0.00     0.278 C 
ENDBRANCH   7  26
TORSDOF 6
ENDMDL
MODEL 7
REMARK VINA RESULT:    -5.554      6.462     10.652
REMARK INTER + INTRA:          -8.169
REMARK INTER:                  -7.517
REMARK INTRA:                  -0.653
REMARK UNBOUND:                -0.667
REMARK SMILES COc1ccc(-c2cc(=O)c3c(OC)c(OC)c(OC)cc3o2)cc1OC
REMARK SMILES IDX 7 1 8 2 9 3 10 4 11 5 12 6 15 7 18 8 21 9 22 10 23 11 6 12
REMARK SMILES IDX 3 13 25 14 4 15 24 16 5 17 2 18 1 19 26 20 27 21 13 22 14 23
REMARK SMILES IDX 19 24 20 25 16 26 17 27
REMARK H PARENT
REMARK Flexibility Score: inf
ROOT
ATOM      1  C   UNL     1     124.197 131.418 135.722  1.00  0.00     0.138 A 
ATOM      2  C   UNL     1     125.526 131.819 135.513  1.00  0.00     0.100 A 
ATOM      3  C   UNL     1     125.973 133.023 136.057  1.00  0.00     0.197 A 
ATOM      4  O   UNL     1     127.157 133.390 135.828  1.00  0.00    -0.289 OA
ATOM      5  C   UNL     1     125.089 133.815 136.821  1.00  0.00     0.111 A 
ATOM      6  C   UNL     1     125.470 135.034 137.438  1.00  0.00     0.179 A 
ATOM      7  C   UNL     1     124.492 135.832 138.086  1.00  0.00     0.204 A 
ATOM      8  C   UNL     1     123.178 135.356 138.214  1.00  0.00     0.168 A 
ATOM      9  C   UNL     1     122.824 134.116 137.658  1.00  0.00     0.098 A 
ATOM     10  C   UNL     1     123.760 133.359 136.956  1.00  0.00     0.146 A 
ATOM     11  O   UNL     1     123.381 132.204 136.417  1.00  0.00    -0.456 OA
ENDROOT
BRANCH   1  12
ATOM     12  C   UNL     1     123.667 130.146 135.168  1.00  0.00     0.021 A 
ATOM     13  C   UNL     1     122.603 127.755 134.111  1.00  0.00     0.160 A 
ATOM     14  C   UNL     1     123.733 127.709 134.941  1.00  0.00     0.161 A 
ATOM     15  C   UNL     1     122.003 128.994 133.821  1.00  0.00     0.051 A 
ATOM     16  C   UNL     1     124.258 128.905 135.470  1.00  0.00     0.062 A 
ATOM     17  C   UNL     1     122.529 130.173 134.350  1.00  0.00     0.016 A 
BRANCH  13  18
ATOM     18  O   UNL     1     122.104 126.547 133.595  1.00  0.00    -0.493 OA
ATOM     19  C   UNL     1     120.899 125.922 134.024  1.00  0.00     0.278 C 
ENDBRANCH  13  18
BRANCH  14  20
ATOM     20  O   UNL     1     124.303 126.457 135.219  1.00  0.00    -0.493 OA
ATOM     21  C   UNL     1     125.547 126.001 134.697  1.00  0.00     0.278 C 
ENDBRANCH  14  20
ENDBRANCH   1  12
BRANCH   6  22
ATOM     22  O   UNL     1     126.809 135.430 137.441  1.00  0.00    -0.492 OA
ATOM     23  C   UNL     1     127.609 135.311 138.613  1.00  0.00     0.278 C 
ENDBRANCH   6  22
BRANCH   8  24
ATOM     24  O   UNL     1     122.247 136.155 138.896  1.00  0.00    -0.493 OA
ATOM     25  C   UNL     1     121.615 135.795 140.120  1.00  0.00     0.278 C 
ENDBRANCH   8  24
BRANCH   7  26
ATOM     26  O   UNL     1     124.762 137.104 138.624  1.00  0.00    -0.490 OA
ATOM     27  C   UNL     1     124.994 138.295 137.878  1.00  0.00     0.278 C 
ENDBRANCH   7  26
TORSDOF 6
ENDMDL
MODEL 8
REMARK VINA RESULT:    -5.481      1.636      8.595
REMARK INTER + INTRA:          -8.071
REMARK INTER:                  -7.552
REMARK INTRA:                  -0.519
REMARK UNBOUND:                -0.667
REMARK SMILES COc1ccc(-c2cc(=O)c3c(OC)c(OC)c(OC)cc3o2)cc1OC
REMARK SMILES IDX 7 1 8 2 9 3 10 4 11 5 12 6 15 7 18 8 21 9 22 10 23 11 6 12
REMARK SMILES IDX 3 13 25 14 4 15 24 16 5 17 2 18 1 19 26 20 27 21 13 22 14 23
REMARK SMILES IDX 19 24 20 25 16 26 17 27
REMARK H PARENT
REMARK Flexibility Score: inf
ROOT
ATOM      1  C   UNL     1     123.608 124.848 139.693  1.00  0.00     0.138 A 
ATOM      2  C   UNL     1     124.599 125.842 139.722  1.00  0.00     0.100 A 
ATOM      3  C   UNL     1     124.650 126.789 138.699  1.00  0.00     0.197 A 
ATOM      4  O   UNL     1     125.569 127.652 138.717  1.00  0.00    -0.289 OA
ATOM      5  C   UNL     1     123.698 126.745 137.658  1.00  0.00     0.111 A 
ATOM      6  C   UNL     1     123.657 127.688 136.600  1.00  0.00     0.179 A 
ATOM      7  C   UNL     1     122.748 127.504 135.527  1.00  0.00     0.204 A 
ATOM      8  C   UNL     1     121.815 126.456 135.575  1.00  0.00     0.168 A 
ATOM      9  C   UNL     1     121.818 125.565 136.661  1.00  0.00     0.098 A 
ATOM     10  C   UNL     1     122.756 125.694 137.683  1.00  0.00     0.146 A 
ATOM     11  O   UNL     1     122.748 124.813 138.680  1.00  0.00    -0.456 OA
ENDROOT
BRANCH   1  12
ATOM     12  C   UNL     1     123.504 123.815 140.755  1.00  0.00     0.021 A 
ATOM     13  C   UNL     1     123.357 121.824 142.750  1.00  0.00     0.160 A 
ATOM     14  C   UNL     1     122.195 122.502 142.354  1.00  0.00     0.161 A 
ATOM     15  C   UNL     1     124.586 122.136 142.141  1.00  0.00     0.051 A 
ATOM     16  C   UNL     1     122.273 123.492 141.355  1.00  0.00     0.062 A 
ATOM     17  C   UNL     1     124.654 123.117 141.151  1.00  0.00     0.016 A 
BRANCH  13  18
ATOM     18  O   UNL     1     123.250 120.845 143.752  1.00  0.00    -0.493 OA
ATOM     19  C   UNL     1     123.551 121.060 145.127  1.00  0.00     0.278 C 
ENDBRANCH  13  18
BRANCH  14  20
ATOM     20  O   UNL     1     120.983 122.162 142.974  1.00  0.00    -0.493 OA
ATOM     21  C   UNL     1     120.211 123.046 143.781  1.00  0.00     0.278 C 
ENDBRANCH  14  20
ENDBRANCH   1  12
BRANCH   6  22
ATOM     22  O   UNL     1     124.483 128.815 136.631  1.00  0.00    -0.492 OA
ATOM     23  C   UNL     1     125.594 128.936 135.751  1.00  0.00     0.278 C 
ENDBRANCH   6  22
BRANCH   8  24
ATOM     24  O   UNL     1     120.905 126.329 134.514  1.00  0.00    -0.493 OA
ATOM     25  C   UNL     1     120.533 125.093 133.911  1.00  0.00     0.278 C 
ENDBRANCH   8  24
BRANCH   7  26
ATOM     26  O   UNL     1     122.718 128.327 134.385  1.00  0.00    -0.490 OA
ATOM     27  C   UNL     1     122.119 129.616 134.298  1.00  0.00     0.278 C 
ENDBRANCH   7  26
TORSDOF 6
ENDMDL
MODEL 9
REMARK VINA RESULT:    -5.421      1.705      3.772
REMARK INTER + INTRA:          -7.990
REMARK INTER:                  -7.305
REMARK INTRA:                  -0.686
REMARK UNBOUND:                -0.667
REMARK SMILES COc1ccc(-c2cc(=O)c3c(OC)c(OC)c(OC)cc3o2)cc1OC
REMARK SMILES IDX 7 1 8 2 9 3 10 4 11 5 12 6 15 7 18 8 21 9 22 10 23 11 6 12
REMARK SMILES IDX 3 13 25 14 4 15 24 16 5 17 2 18 1 19 26 20 27 21 13 22 14 23
REMARK SMILES IDX 19 24 20 25 16 26 17 27
REMARK H PARENT
REMARK Flexibility Score: inf
ROOT
ATOM      1  C   UNL     1     123.956 124.877 139.334  1.00  0.00     0.138 A 
ATOM      2  C   UNL     1     125.356 124.974 139.372  1.00  0.00     0.100 A 
ATOM      3  C   UNL     1     126.058 124.348 140.401  1.00  0.00     0.197 A 
ATOM      4  O   UNL     1     127.312 124.476 140.446  1.00  0.00    -0.289 OA
ATOM      5  C   UNL     1     125.355 123.615 141.382  1.00  0.00     0.111 A 
ATOM      6  C   UNL     1     125.993 122.920 142.441  1.00  0.00     0.179 A 
ATOM      7  C   UNL     1     125.211 122.309 143.455  1.00  0.00     0.204 A 
ATOM      8  C   UNL     1     123.812 122.295 143.342  1.00  0.00     0.168 A 
ATOM      9  C   UNL     1     123.190 122.928 142.254  1.00  0.00     0.098 A 
ATOM     10  C   UNL     1     123.947 123.594 141.292  1.00  0.00     0.146 A 
ATOM     11  O   UNL     1     123.322 124.209 140.292  1.00  0.00    -0.456 OA
ENDROOT
BRANCH   1  12
ATOM     12  C   UNL     1     123.155 125.522 138.262  1.00  0.00     0.021 A 
ATOM     13  C   UNL     1     121.607 126.694 136.213  1.00  0.00     0.160 A 
ATOM     14  C   UNL     1     122.843 127.257 136.562  1.00  0.00     0.161 A 
ATOM     15  C   UNL     1     121.154 125.542 136.881  1.00  0.00     0.051 A 
ATOM     16  C   UNL     1     123.614 126.666 137.582  1.00  0.00     0.062 A 
ATOM     17  C   UNL     1     121.924 124.962 137.890  1.00  0.00     0.016 A 
BRANCH  13  18
ATOM     18  O   UNL     1     120.857 127.306 135.195  1.00  0.00    -0.493 OA
ATOM     19  C   UNL     1     120.866 126.900 133.830  1.00  0.00     0.278 C 
ENDBRANCH  13  18
BRANCH  14  20
ATOM     20  O   UNL     1     123.272 128.400 135.870  1.00  0.00    -0.493 OA
ATOM     21  C   UNL     1     124.219 128.394 134.807  1.00  0.00     0.278 C 
ENDBRANCH  14  20
ENDBRANCH   1  12
BRANCH   6  22
ATOM     22  O   UNL     1     127.385 122.805 142.467  1.00  0.00    -0.492 OA
ATOM     23  C   UNL     1     128.025 121.565 142.190  1.00  0.00     0.278 C 
ENDBRANCH   6  22
BRANCH   8  24
ATOM     24  O   UNL     1     123.072 121.647 144.344  1.00  0.00    -0.493 OA
ATOM     25  C   UNL     1     122.035 120.702 144.101  1.00  0.00     0.278 C 
ENDBRANCH   8  24
BRANCH   7  26
ATOM     26  O   UNL     1     125.762 121.699 144.597  1.00  0.00    -0.490 OA
ATOM     27  C   UNL     1     126.227 122.372 145.762  1.00  0.00     0.278 C 
ENDBRANCH   7  26
TORSDOF 6
ENDMDL
