MODEL 1
REMARK VINA RESULT:    -6.172      0.000      0.000
REMARK INTER + INTRA:         -10.665
REMARK INTER:                  -8.336
REMARK INTRA:                  -2.329
REMARK UNBOUND:                -2.329
REMARK SMILES CC[C@@H](CC[C@@H](C)[C@H]1CC[C@@H]2[C@H]3CC(=O)C4=CC(=O)CC[C@]4(C)[C@H]3CC[C@@]21C)C(C)C
REMARK SMILES IDX 4 1 3 2 2 3 1 4 29 5 30 6 31 7 5 8 6 9 7 10 8 11 9 12 27 13
REMARK SMILES IDX 10 14 11 15 26 16 28 17 12 18 25 19 24 20 13 21 22 22 14 23
REMARK SMILES IDX 16 24 21 25 23 26 15 27 17 28 20 29 18 30 19 31
REMARK H PARENT
REMARK Flexibility Score: inf
ROOT
ATOM      1  C   UNL     1      21.077  33.748  30.207  1.00  0.00     0.004 C 
ENDROOT
BRANCH   1   2
ATOM      2  C   UNL     1      21.084  33.517  31.745  1.00  0.00    -0.009 C 
BRANCH   2   3
ATOM      3  C   UNL     1      20.831  34.796  32.596  1.00  0.00     0.000 C 
ATOM      4  C   UNL     1      19.345  35.119  32.775  1.00  0.00     0.004 C 
ENDBRANCH   2   3
BRANCH   2   5
ATOM      5  C   UNL     1      22.305  32.665  32.238  1.00  0.00    -0.014 C 
ATOM      6  C   UNL     1      23.213  32.259  31.061  1.00  0.00     0.007 C 
ATOM      7  C   UNL     1      21.914  31.406  33.037  1.00  0.00     0.007 C 
ENDBRANCH   2   5
ENDBRANCH   1   2
BRANCH   1   8
ATOM      8  C   UNL     1      20.004  33.001  29.377  1.00  0.00     0.004 C 
BRANCH   8   9
ATOM      9  C   UNL     1      18.738  32.569  30.170  1.00  0.00    -0.011 C 
ATOM     10  C   UNL     1      17.468  33.347  29.748  1.00  0.00     0.008 C 
BRANCH   9  11
ATOM     11  C   UNL     1      18.586  31.008  30.233  1.00  0.00    -0.002 C 
ATOM     12  C   UNL     1      19.904  30.279  29.907  1.00  0.00     0.005 C 
ATOM     13  C   UNL     1      17.963  30.287  31.493  1.00  0.00    -0.026 C 
ATOM     14  C   UNL     1      20.119  29.230  30.983  1.00  0.00     0.005 C 
ATOM     15  C   UNL     1      18.750  28.943  31.619  1.00  0.00    -0.001 C 
ATOM     16  C   UNL     1      16.437  30.051  31.319  1.00  0.00     0.007 C 
ATOM     17  C   UNL     1      18.168  31.065  32.818  1.00  0.00     0.012 C 
ATOM     18  C   UNL     1      18.053  27.687  30.997  1.00  0.00     0.004 C 
ATOM     19  C   UNL     1      16.027  29.017  30.243  1.00  0.00     0.005 C 
ATOM     20  C   UNL     1      17.150  28.045  29.791  1.00  0.00     0.003 C 
ATOM     21  C   UNL     1      17.252  26.890  32.056  1.00  0.00     0.085 C 
ATOM     22  C   UNL     1      16.655  26.742  29.026  1.00  0.00    -0.000 C 
ATOM     23  C   UNL     1      16.476  25.766  31.436  1.00  0.00     0.159 C 
ATOM     24  C   UNL     1      16.516  25.546  29.973  1.00  0.00     0.005 C 
ATOM     25  C   UNL     1      17.711  26.372  27.938  1.00  0.00     0.020 C 
ATOM     26  C   UNL     1      15.287  26.977  28.323  1.00  0.00     0.017 C 
ATOM     27  O   UNL     1      15.825  24.984  32.182  1.00  0.00    -0.295 OA
ATOM     28  C   UNL     1      16.530  24.289  29.500  1.00  0.00     0.055 C 
ATOM     29  C   UNL     1      17.386  25.073  27.181  1.00  0.00     0.081 C 
ATOM     30  C   UNL     1      16.870  23.999  28.097  1.00  0.00     0.156 C 
ATOM     31  O   UNL     1      16.737  22.827  27.660  1.00  0.00    -0.295 OA
ENDBRANCH   9  11
ENDBRANCH   8   9
ENDBRANCH   1   8
TORSDOF 6
ENDMDL
MODEL 2
REMARK VINA RESULT:    -5.925      2.930      7.456
REMARK INTER + INTRA:         -10.333
REMARK INTER:                  -8.547
REMARK INTRA:                  -1.786
REMARK UNBOUND:                -2.329
REMARK SMILES CC[C@@H](CC[C@@H](C)[C@H]1CC[C@@H]2[C@H]3CC(=O)C4=CC(=O)CC[C@]4(C)[C@H]3CC[C@@]21C)C(C)C
REMARK SMILES IDX 4 1 3 2 2 3 1 4 29 5 30 6 31 7 5 8 6 9 7 10 8 11 9 12 27 13
REMARK SMILES IDX 10 14 11 15 26 16 28 17 12 18 25 19 24 20 13 21 22 22 14 23
REMARK SMILES IDX 16 24 21 25 23 26 15 27 17 28 20 29 18 30 19 31
REMARK H PARENT
REMARK Flexibility Score: inf
ROOT
ATOM      1  C   UNL     1      20.136  23.378  26.869  1.00  0.00     0.004 C 
ENDROOT
BRANCH   1   2
ATOM      2  C   UNL     1      21.135  24.570  26.842  1.00  0.00    -0.009 C 
BRANCH   2   3
ATOM      3  C   UNL     1      22.598  24.185  26.475  1.00  0.00     0.000 C 
ATOM      4  C   UNL     1      23.158  24.988  25.298  1.00  0.00     0.004 C 
ENDBRANCH   2   3
BRANCH   2   5
ATOM      5  C   UNL     1      21.026  25.498  28.101  1.00  0.00    -0.014 C 
ATOM      6  C   UNL     1      20.794  26.966  27.693  1.00  0.00     0.007 C 
ATOM      7  C   UNL     1      22.238  25.419  29.051  1.00  0.00     0.007 C 
ENDBRANCH   2   5
ENDBRANCH   1   2
BRANCH   1   8
ATOM      8  C   UNL     1      18.738  23.603  26.243  1.00  0.00     0.004 C 
BRANCH   8   9
ATOM      9  C   UNL     1      17.559  23.643  27.255  1.00  0.00    -0.011 C 
ATOM     10  C   UNL     1      17.584  22.465  28.257  1.00  0.00     0.008 C 
BRANCH   9  11
ATOM     11  C   UNL     1      17.376  25.068  27.890  1.00  0.00    -0.002 C 
ATOM     12  C   UNL     1      16.883  26.106  26.863  1.00  0.00     0.005 C 
ATOM     13  C   UNL     1      16.526  25.285  29.204  1.00  0.00    -0.026 C 
ATOM     14  C   UNL     1      15.720  26.850  27.494  1.00  0.00     0.005 C 
ATOM     15  C   UNL     1      15.840  26.676  29.016  1.00  0.00    -0.001 C 
ATOM     16  C   UNL     1      17.421  25.247  30.475  1.00  0.00     0.007 C 
ATOM     17  C   UNL     1      15.400  24.238  29.396  1.00  0.00     0.012 C 
ATOM     18  C   UNL     1      16.557  27.886  29.702  1.00  0.00     0.004 C 
ATOM     19  C   UNL     1      18.408  26.427  30.647  1.00  0.00     0.005 C 
ATOM     20  C   UNL     1      18.090  27.690  29.800  1.00  0.00     0.003 C 
ATOM     21  C   UNL     1      15.959  28.193  31.098  1.00  0.00     0.085 C 
ATOM     22  C   UNL     1      18.819  29.023  30.267  1.00  0.00    -0.000 C 
ATOM     23  C   UNL     1      16.733  29.263  31.810  1.00  0.00     0.159 C 
ATOM     24  C   UNL     1      17.926  29.869  31.179  1.00  0.00     0.005 C 
ATOM     25  C   UNL     1      19.156  29.875  29.003  1.00  0.00     0.020 C 
ATOM     26  C   UNL     1      20.145  28.716  31.020  1.00  0.00     0.017 C 
ATOM     27  O   UNL     1      16.326  29.669  32.933  1.00  0.00    -0.295 OA
ATOM     28  C   UNL     1      18.154  31.184  31.340  1.00  0.00     0.055 C 
ATOM     29  C   UNL     1      19.793  31.237  29.330  1.00  0.00     0.081 C 
ATOM     30  C   UNL     1      19.135  31.900  30.507  1.00  0.00     0.156 C 
ATOM     31  O   UNL     1      19.418  33.095  30.780  1.00  0.00    -0.295 OA
ENDBRANCH   9  11
ENDBRANCH   8   9
ENDBRANCH   1   8
TORSDOF 6
ENDMDL
MODEL 3
REMARK VINA RESULT:    -5.821      4.337      8.339
REMARK INTER + INTRA:         -10.192
REMARK INTER:                  -7.992
REMARK INTRA:                  -2.201
REMARK UNBOUND:                -2.329
REMARK SMILES CC[C@@H](CC[C@@H](C)[C@H]1CC[C@@H]2[C@H]3CC(=O)C4=CC(=O)CC[C@]4(C)[C@H]3CC[C@@]21C)C(C)C
REMARK SMILES IDX 4 1 3 2 2 3 1 4 29 5 30 6 31 7 5 8 6 9 7 10 8 11 9 12 27 13
REMARK SMILES IDX 10 14 11 15 26 16 28 17 12 18 25 19 24 20 13 21 22 22 14 23
REMARK SMILES IDX 16 24 21 25 23 26 15 27 17 28 20 29 18 30 19 31
REMARK H PARENT
REMARK Flexibility Score: inf
ROOT
ATOM      1  C   UNL     1      20.196  25.798  28.535  1.00  0.00     0.004 C 
ENDROOT
BRANCH   1   2
ATOM      2  C   UNL     1      21.522  26.043  27.759  1.00  0.00    -0.009 C 
BRANCH   2   3
ATOM      3  C   UNL     1      22.097  24.787  27.041  1.00  0.00     0.000 C 
ATOM      4  C   UNL     1      21.053  23.694  26.804  1.00  0.00     0.004 C 
ENDBRANCH   2   3
BRANCH   2   5
ATOM      5  C   UNL     1      22.588  26.838  28.589  1.00  0.00    -0.014 C 
ATOM      6  C   UNL     1      23.971  26.790  27.911  1.00  0.00     0.007 C 
ATOM      7  C   UNL     1      22.723  26.373  30.053  1.00  0.00     0.007 C 
ENDBRANCH   2   5
ENDBRANCH   1   2
BRANCH   1   8
ATOM      8  C   UNL     1      19.002  26.732  28.221  1.00  0.00     0.004 C 
BRANCH   8   9
ATOM      9  C   UNL     1      18.738  27.844  29.274  1.00  0.00    -0.011 C 
ATOM     10  C   UNL     1      18.318  27.283  30.654  1.00  0.00     0.008 C 
BRANCH   9  11
ATOM     11  C   UNL     1      19.887  28.915  29.300  1.00  0.00    -0.002 C 
ATOM     12  C   UNL     1      20.180  29.491  27.902  1.00  0.00     0.005 C 
ATOM     13  C   UNL     1      19.857  30.136  30.302  1.00  0.00    -0.026 C 
ATOM     14  C   UNL     1      20.226  31.002  28.036  1.00  0.00     0.005 C 
ATOM     15  C   UNL     1      20.501  31.321  29.513  1.00  0.00    -0.001 C 
ATOM     16  C   UNL     1      20.634  29.820  31.610  1.00  0.00     0.007 C 
ATOM     17  C   UNL     1      18.426  30.575  30.704  1.00  0.00     0.012 C 
ATOM     18  C   UNL     1      22.018  31.581  29.796  1.00  0.00     0.004 C 
ATOM     19  C   UNL     1      22.169  29.680  31.472  1.00  0.00     0.005 C 
ATOM     20  C   UNL     1      22.780  30.289  30.181  1.00  0.00     0.003 C 
ATOM     21  C   UNL     1      22.223  32.672  30.876  1.00  0.00     0.085 C 
ATOM     22  C   UNL     1      24.352  30.528  30.219  1.00  0.00    -0.000 C 
ATOM     23  C   UNL     1      23.670  32.825  31.243  1.00  0.00     0.159 C 
ATOM     24  C   UNL     1      24.697  31.967  30.612  1.00  0.00     0.005 C 
ATOM     25  C   UNL     1      24.929  30.269  28.792  1.00  0.00     0.020 C 
ATOM     26  C   UNL     1      25.053  29.561  31.215  1.00  0.00     0.017 C 
ATOM     27  O   UNL     1      24.003  33.724  32.063  1.00  0.00    -0.295 OA
ATOM     28  C   UNL     1      25.893  32.497  30.303  1.00  0.00     0.055 C 
ATOM     29  C   UNL     1      26.438  30.551  28.678  1.00  0.00     0.081 C 
ATOM     30  C   UNL     1      26.837  31.798  29.416  1.00  0.00     0.156 C 
ATOM     31  O   UNL     1      27.997  32.260  29.262  1.00  0.00    -0.295 OA
ENDBRANCH   9  11
ENDBRANCH   8   9
ENDBRANCH   1   8
TORSDOF 6
ENDMDL
MODEL 4
REMARK VINA RESULT:    -5.804      3.576      8.401
REMARK INTER + INTRA:         -10.169
REMARK INTER:                  -8.644
REMARK INTRA:                  -1.525
REMARK UNBOUND:                -2.329
REMARK SMILES CC[C@@H](CC[C@@H](C)[C@H]1CC[C@@H]2[C@H]3CC(=O)C4=CC(=O)CC[C@]4(C)[C@H]3CC[C@@]21C)C(C)C
REMARK SMILES IDX 4 1 3 2 2 3 1 4 29 5 30 6 31 7 5 8 6 9 7 10 8 11 9 12 27 13
REMARK SMILES IDX 10 14 11 15 26 16 28 17 12 18 25 19 24 20 13 21 22 22 14 23
REMARK SMILES IDX 16 24 21 25 23 26 15 27 17 28 20 29 18 30 19 31
REMARK H PARENT
REMARK Flexibility Score: inf
ROOT
ATOM      1  C   UNL     1      16.195  24.999  29.918  1.00  0.00     0.004 C 
ENDROOT
BRANCH   1   2
ATOM      2  C   UNL     1      16.318  24.262  28.554  1.00  0.00    -0.009 C 
BRANCH   2   3
ATOM      3  C   UNL     1      16.745  22.769  28.657  1.00  0.00     0.000 C 
ATOM      4  C   UNL     1      15.987  21.996  29.738  1.00  0.00     0.004 C 
ENDBRANCH   2   3
BRANCH   2   5
ATOM      5  C   UNL     1      17.124  25.075  27.481  1.00  0.00    -0.014 C 
ATOM      6  C   UNL     1      16.393  26.378  27.105  1.00  0.00     0.007 C 
ATOM      7  C   UNL     1      17.444  24.282  26.198  1.00  0.00     0.007 C 
ENDBRANCH   2   5
ENDBRANCH   1   2
BRANCH   1   8
ATOM      8  C   UNL     1      17.504  25.490  30.585  1.00  0.00     0.004 C 
BRANCH   8   9
ATOM      9  C   UNL     1      17.471  26.955  31.105  1.00  0.00    -0.011 C 
ATOM     10  C   UNL     1      17.237  27.048  32.632  1.00  0.00     0.008 C 
BRANCH   9  11
ATOM     11  C   UNL     1      18.670  27.804  30.551  1.00  0.00    -0.002 C 
ATOM     12  C   UNL     1      19.237  27.227  29.240  1.00  0.00     0.005 C 
ATOM     13  C   UNL     1      18.556  29.367  30.352  1.00  0.00    -0.026 C 
ATOM     14  C   UNL     1      19.365  28.377  28.257  1.00  0.00     0.005 C 
ATOM     15  C   UNL     1      19.406  29.675  29.078  1.00  0.00    -0.001 C 
ATOM     16  C   UNL     1      19.075  30.140  31.596  1.00  0.00     0.007 C 
ATOM     17  C   UNL     1      17.111  29.853  30.070  1.00  0.00     0.012 C 
ATOM     18  C   UNL     1      20.868  30.171  29.340  1.00  0.00     0.004 C 
ATOM     19  C   UNL     1      20.597  30.058  31.862  1.00  0.00     0.005 C 
ATOM     20  C   UNL     1      21.461  29.604  30.653  1.00  0.00     0.003 C 
ATOM     21  C   UNL     1      20.961  31.717  29.326  1.00  0.00     0.085 C 
ATOM     22  C   UNL     1      23.015  29.914  30.773  1.00  0.00    -0.000 C 
ATOM     23  C   UNL     1      22.331  32.193  29.710  1.00  0.00     0.159 C 
ATOM     24  C   UNL     1      23.388  31.222  30.069  1.00  0.00     0.005 C 
ATOM     25  C   UNL     1      23.808  28.757  30.087  1.00  0.00     0.020 C 
ATOM     26  C   UNL     1      23.467  30.006  32.259  1.00  0.00     0.017 C 
ATOM     27  O   UNL     1      22.582  33.429  29.679  1.00  0.00    -0.295 OA
ATOM     28  C   UNL     1      24.653  31.459  29.682  1.00  0.00     0.055 C 
ATOM     29  C   UNL     1      25.330  28.984  30.063  1.00  0.00     0.081 C 
ATOM     30  C   UNL     1      25.683  30.408  29.739  1.00  0.00     0.156 C 
ATOM     31  O   UNL     1      26.882  30.707  29.499  1.00  0.00    -0.295 OA
ENDBRANCH   9  11
ENDBRANCH   8   9
ENDBRANCH   1   8
TORSDOF 6
ENDMDL
MODEL 5
REMARK VINA RESULT:    -5.711      1.700      3.336
REMARK INTER + INTRA:         -10.044
REMARK INTER:                  -8.849
REMARK INTRA:                  -1.195
REMARK UNBOUND:                -2.329
REMARK SMILES CC[C@@H](CC[C@@H](C)[C@H]1CC[C@@H]2[C@H]3CC(=O)C4=CC(=O)CC[C@]4(C)[C@H]3CC[C@@]21C)C(C)C
REMARK SMILES IDX 4 1 3 2 2 3 1 4 29 5 30 6 31 7 5 8 6 9 7 10 8 11 9 12 27 13
REMARK SMILES IDX 10 14 11 15 26 16 28 17 12 18 25 19 24 20 13 21 22 22 14 23
REMARK SMILES IDX 16 24 21 25 23 26 15 27 17 28 20 29 18 30 19 31
REMARK H PARENT
REMARK Flexibility Score: inf
ROOT
ATOM      1  C   UNL     1      18.196  31.613  29.913  1.00  0.00     0.004 C 
ENDROOT
BRANCH   1   2
ATOM      2  C   UNL     1      19.341  32.662  29.990  1.00  0.00    -0.009 C 
BRANCH   2   3
ATOM      3  C   UNL     1      18.998  34.047  29.367  1.00  0.00     0.000 C 
ATOM      4  C   UNL     1      17.564  34.500  29.651  1.00  0.00     0.004 C 
ENDBRANCH   2   3
BRANCH   2   5
ATOM      5  C   UNL     1      20.732  32.096  29.539  1.00  0.00    -0.014 C 
ATOM      6  C   UNL     1      20.587  30.693  28.918  1.00  0.00     0.007 C 
ATOM      7  C   UNL     1      21.789  32.050  30.660  1.00  0.00     0.007 C 
ENDBRANCH   2   5
ENDBRANCH   1   2
BRANCH   1   8
ATOM      8  C   UNL     1      17.738  30.957  31.239  1.00  0.00     0.004 C 
BRANCH   8   9
ATOM      9  C   UNL     1      16.478  30.053  31.128  1.00  0.00    -0.011 C 
ATOM     10  C   UNL     1      15.349  30.693  30.284  1.00  0.00     0.008 C 
BRANCH   9  11
ATOM     11  C   UNL     1      16.845  28.573  30.756  1.00  0.00    -0.002 C 
ATOM     12  C   UNL     1      18.205  28.144  31.339  1.00  0.00     0.005 C 
ATOM     13  C   UNL     1      15.840  27.381  31.016  1.00  0.00    -0.026 C 
ATOM     14  C   UNL     1      18.008  26.797  32.009  1.00  0.00     0.005 C 
ATOM     15  C   UNL     1      16.745  26.167  31.400  1.00  0.00    -0.001 C 
ATOM     16  C   UNL     1      14.972  27.083  29.761  1.00  0.00     0.007 C 
ATOM     17  C   UNL     1      14.875  27.629  32.203  1.00  0.00     0.012 C 
ATOM     18  C   UNL     1      17.075  25.170  30.239  1.00  0.00     0.004 C 
ATOM     19  C   UNL     1      15.719  26.487  28.544  1.00  0.00     0.005 C 
ATOM     20  C   UNL     1      17.107  25.862  28.854  1.00  0.00     0.003 C 
ATOM     21  C   UNL     1      16.101  23.966  30.221  1.00  0.00     0.085 C 
ATOM     22  C   UNL     1      17.683  24.894  27.732  1.00  0.00    -0.000 C 
ATOM     23  C   UNL     1      16.332  23.083  29.030  1.00  0.00     0.159 C 
ATOM     24  C   UNL     1      17.372  23.426  28.035  1.00  0.00     0.005 C 
ATOM     25  C   UNL     1      19.235  25.055  27.685  1.00  0.00     0.020 C 
ATOM     26  C   UNL     1      17.111  25.242  26.328  1.00  0.00     0.017 C 
ATOM     27  O   UNL     1      15.658  22.023  28.913  1.00  0.00    -0.295 OA
ATOM     28  C   UNL     1      18.098  22.440  27.481  1.00  0.00     0.055 C 
ATOM     29  C   UNL     1      19.923  24.104  26.690  1.00  0.00     0.081 C 
ATOM     30  C   UNL     1      19.330  22.724  26.726  1.00  0.00     0.156 C 
ATOM     31  O   UNL     1      19.903  21.790  26.109  1.00  0.00    -0.295 OA
ENDBRANCH   9  11
ENDBRANCH   8   9
ENDBRANCH   1   8
TORSDOF 6
ENDMDL
MODEL 6
REMARK VINA RESULT:    -5.559      4.232      8.371
REMARK INTER + INTRA:          -9.838
REMARK INTER:                  -8.158
REMARK INTRA:                  -1.680
REMARK UNBOUND:                -2.329
REMARK SMILES CC[C@@H](CC[C@@H](C)[C@H]1CC[C@@H]2[C@H]3CC(=O)C4=CC(=O)CC[C@]4(C)[C@H]3CC[C@@]21C)C(C)C
REMARK SMILES IDX 4 1 3 2 2 3 1 4 29 5 30 6 31 7 5 8 6 9 7 10 8 11 9 12 27 13
REMARK SMILES IDX 10 14 11 15 26 16 28 17 12 18 25 19 24 20 13 21 22 22 14 23
REMARK SMILES IDX 16 24 21 25 23 26 15 27 17 28 20 29 18 30 19 31
REMARK H PARENT
REMARK Flexibility Score: inf
ROOT
ATOM      1  C   UNL     1      18.971  27.186  29.720  1.00  0.00     0.004 C 
ENDROOT
BRANCH   1   2
ATOM      2  C   UNL     1      19.392  26.697  28.304  1.00  0.00    -0.009 C 
BRANCH   2   3
ATOM      3  C   UNL     1      18.685  25.394  27.829  1.00  0.00     0.000 C 
ATOM      4  C   UNL     1      17.194  25.585  27.539  1.00  0.00     0.004 C 
ENDBRANCH   2   3
BRANCH   2   5
ATOM      5  C   UNL     1      20.945  26.686  28.088  1.00  0.00    -0.014 C 
ATOM      6  C   UNL     1      21.456  25.262  27.797  1.00  0.00     0.007 C 
ATOM      7  C   UNL     1      21.749  27.286  29.259  1.00  0.00     0.007 C 
ENDBRANCH   2   5
ENDBRANCH   1   2
BRANCH   1   8
ATOM      8  C   UNL     1      18.163  28.503  29.810  1.00  0.00     0.004 C 
BRANCH   8   9
ATOM      9  C   UNL     1      18.645  29.502  30.899  1.00  0.00    -0.011 C 
ATOM     10  C   UNL     1      18.593  28.909  32.327  1.00  0.00     0.008 C 
BRANCH   9  11
ATOM     11  C   UNL     1      19.997  30.196  30.505  1.00  0.00    -0.002 C 
ATOM     12  C   UNL     1      20.049  30.566  29.010  1.00  0.00     0.005 C 
ATOM     13  C   UNL     1      20.553  31.440  31.304  1.00  0.00    -0.026 C 
ATOM     14  C   UNL     1      20.520  32.006  28.916  1.00  0.00     0.005 C 
ATOM     15  C   UNL     1      21.250  32.333  30.228  1.00  0.00    -0.001 C 
ATOM     16  C   UNL     1      21.539  31.005  32.424  1.00  0.00     0.007 C 
ATOM     17  C   UNL     1      19.445  32.299  31.966  1.00  0.00     0.012 C 
ATOM     18  C   UNL     1      22.802  32.164  30.107  1.00  0.00     0.004 C 
ATOM     19  C   UNL     1      22.891  30.421  31.950  1.00  0.00     0.005 C 
ATOM     20  C   UNL     1      23.275  30.738  30.478  1.00  0.00     0.003 C 
ATOM     21  C   UNL     1      23.562  33.223  30.944  1.00  0.00     0.085 C 
ATOM     22  C   UNL     1      24.806  30.517  30.112  1.00  0.00    -0.000 C 
ATOM     23  C   UNL     1      25.042  32.979  30.935  1.00  0.00     0.159 C 
ATOM     24  C   UNL     1      25.606  31.820  30.207  1.00  0.00     0.005 C 
ATOM     25  C   UNL     1      24.897  30.006  28.640  1.00  0.00     0.020 C 
ATOM     26  C   UNL     1      25.470  29.461  31.041  1.00  0.00     0.017 C 
ATOM     27  O   UNL     1      25.802  33.798  31.520  1.00  0.00    -0.295 OA
ATOM     28  C   UNL     1      26.772  31.961  29.555  1.00  0.00     0.055 C 
ATOM     29  C   UNL     1      26.341  29.834  28.136  1.00  0.00     0.081 C 
ATOM     30  C   UNL     1      27.231  30.961  28.577  1.00  0.00     0.156 C 
ATOM     31  O   UNL     1      28.388  31.059  28.092  1.00  0.00    -0.295 OA
ENDBRANCH   9  11
ENDBRANCH   8   9
ENDBRANCH   1   8
TORSDOF 6
ENDMDL
MODEL 7
REMARK VINA RESULT:    -5.490      7.098     10.831
REMARK INTER + INTRA:          -9.744
REMARK INTER:                  -7.895
REMARK INTRA:                  -1.849
REMARK UNBOUND:                -2.329
REMARK SMILES CC[C@@H](CC[C@@H](C)[C@H]1CC[C@@H]2[C@H]3CC(=O)C4=CC(=O)CC[C@]4(C)[C@H]3CC[C@@]21C)C(C)C
REMARK SMILES IDX 4 1 3 2 2 3 1 4 29 5 30 6 31 7 5 8 6 9 7 10 8 11 9 12 27 13
REMARK SMILES IDX 10 14 11 15 26 16 28 17 12 18 25 19 24 20 13 21 22 22 14 23
REMARK SMILES IDX 16 24 21 25 23 26 15 27 17 28 20 29 18 30 19 31
REMARK H PARENT
REMARK Flexibility Score: inf
ROOT
ATOM      1  C   UNL     1      31.032  33.227  28.573  1.00  0.00     0.004 C 
ENDROOT
BRANCH   1   2
ATOM      2  C   UNL     1      32.054  32.280  27.882  1.00  0.00    -0.009 C 
BRANCH   2   3
ATOM      3  C   UNL     1      31.818  30.765  28.146  1.00  0.00     0.000 C 
ATOM      4  C   UNL     1      30.369  30.328  27.918  1.00  0.00     0.004 C 
ENDBRANCH   2   3
BRANCH   2   5
ATOM      5  C   UNL     1      33.543  32.729  28.075  1.00  0.00    -0.014 C 
ATOM      6  C   UNL     1      34.267  32.858  26.721  1.00  0.00     0.007 C 
ATOM      7  C   UNL     1      34.363  31.813  29.006  1.00  0.00     0.007 C 
ENDBRANCH   2   5
ENDBRANCH   1   2
BRANCH   1   8
ATOM      8  C   UNL     1      31.428  33.826  29.945  1.00  0.00     0.004 C 
BRANCH   8   9
ATOM      9  C   UNL     1      31.397  32.828  31.136  1.00  0.00    -0.011 C 
ATOM     10  C   UNL     1      31.829  33.472  32.475  1.00  0.00     0.008 C 
BRANCH   9  11
ATOM     11  C   UNL     1      30.061  32.005  31.181  1.00  0.00    -0.002 C 
ATOM     12  C   UNL     1      30.183  30.739  32.051  1.00  0.00     0.005 C 
ATOM     13  C   UNL     1      28.683  32.683  31.550  1.00  0.00    -0.026 C 
ATOM     14  C   UNL     1      28.981  30.708  32.977  1.00  0.00     0.005 C 
ATOM     15  C   UNL     1      27.895  31.591  32.343  1.00  0.00    -0.001 C 
ATOM     16  C   UNL     1      27.915  33.145  30.281  1.00  0.00     0.007 C 
ATOM     17  C   UNL     1      28.826  33.914  32.482  1.00  0.00     0.012 C 
ATOM     18  C   UNL     1      26.860  30.762  31.511  1.00  0.00     0.004 C 
ATOM     19  C   UNL     1      27.374  32.019  29.367  1.00  0.00     0.005 C 
ATOM     20  C   UNL     1      27.272  30.617  30.026  1.00  0.00     0.003 C 
ATOM     21  C   UNL     1      25.431  31.348  31.623  1.00  0.00     0.085 C 
ATOM     22  C   UNL     1      26.348  29.572  29.264  1.00  0.00    -0.000 C 
ATOM     23  C   UNL     1      24.467  30.635  30.721  1.00  0.00     0.159 C 
ATOM     24  C   UNL     1      24.932  29.535  29.847  1.00  0.00     0.005 C 
ATOM     25  C   UNL     1      26.969  28.149  29.423  1.00  0.00     0.020 C 
ATOM     26  C   UNL     1      26.248  29.897  27.746  1.00  0.00     0.017 C 
ATOM     27  O   UNL     1      23.247  30.957  30.750  1.00  0.00    -0.295 OA
ATOM     28  C   UNL     1      24.137  28.469  29.659  1.00  0.00     0.055 C 
ATOM     29  C   UNL     1      26.116  27.031  28.796  1.00  0.00     0.081 C 
ATOM     30  C   UNL     1      24.649  27.225  29.060  1.00  0.00     0.156 C 
ATOM     31  O   UNL     1      23.844  26.302  28.773  1.00  0.00    -0.295 OA
ENDBRANCH   9  11
ENDBRANCH   8   9
ENDBRANCH   1   8
TORSDOF 6
ENDMDL
MODEL 8
REMARK VINA RESULT:    -5.466      2.514      4.760
REMARK INTER + INTRA:          -9.712
REMARK INTER:                  -7.736
REMARK INTRA:                  -1.975
REMARK UNBOUND:                -2.329
REMARK SMILES CC[C@@H](CC[C@@H](C)[C@H]1CC[C@@H]2[C@H]3CC(=O)C4=CC(=O)CC[C@]4(C)[C@H]3CC[C@@]21C)C(C)C
REMARK SMILES IDX 4 1 3 2 2 3 1 4 29 5 30 6 31 7 5 8 6 9 7 10 8 11 9 12 27 13
REMARK SMILES IDX 10 14 11 15 26 16 28 17 12 18 25 19 24 20 13 21 22 22 14 23
REMARK SMILES IDX 16 24 21 25 23 26 15 27 17 28 20 29 18 30 19 31
REMARK H PARENT
REMARK Flexibility Score: inf
ROOT
ATOM      1  C   UNL     1      25.745  32.117  30.555  1.00  0.00     0.004 C 
ENDROOT
BRANCH   1   2
ATOM      2  C   UNL     1      25.706  30.601  30.211  1.00  0.00    -0.009 C 
BRANCH   2   3
ATOM      3  C   UNL     1      27.083  29.880  30.286  1.00  0.00     0.000 C 
ATOM      4  C   UNL     1      27.984  30.411  31.404  1.00  0.00     0.004 C 
ENDBRANCH   2   3
BRANCH   2   5
ATOM      5  C   UNL     1      24.899  30.283  28.904  1.00  0.00    -0.014 C 
ATOM      6  C   UNL     1      23.840  29.193  29.154  1.00  0.00     0.007 C 
ATOM      7  C   UNL     1      25.777  29.874  27.704  1.00  0.00     0.007 C 
ENDBRANCH   2   5
ENDBRANCH   1   2
BRANCH   1   8
ATOM      8  C   UNL     1      24.966  32.586  31.808  1.00  0.00     0.004 C 
BRANCH   8   9
ATOM      9  C   UNL     1      23.562  33.192  31.526  1.00  0.00    -0.011 C 
ATOM     10  C   UNL     1      23.577  34.246  30.393  1.00  0.00     0.008 C 
BRANCH   9  11
ATOM     11  C   UNL     1      22.456  32.084  31.405  1.00  0.00    -0.002 C 
ATOM     12  C   UNL     1      22.718  30.892  32.345  1.00  0.00     0.005 C 
ATOM     13  C   UNL     1      20.919  32.432  31.524  1.00  0.00    -0.026 C 
ATOM     14  C   UNL     1      21.420  30.597  33.075  1.00  0.00     0.005 C 
ATOM     15  C   UNL     1      20.280  31.199  32.239  1.00  0.00    -0.001 C 
ATOM     16  C   UNL     1      20.282  32.688  30.130  1.00  0.00     0.007 C 
ATOM     17  C   UNL     1      20.631  33.675  32.405  1.00  0.00     0.012 C 
ATOM     18  C   UNL     1      19.607  30.143  31.300  1.00  0.00     0.004 C 
ATOM     19  C   UNL     1      20.162  31.457  29.200  1.00  0.00     0.005 C 
ATOM     20  C   UNL     1      20.274  30.077  29.905  1.00  0.00     0.003 C 
ATOM     21  C   UNL     1      18.083  30.386  31.161  1.00  0.00     0.085 C 
ATOM     22  C   UNL     1      19.744  28.838  29.062  1.00  0.00    -0.000 C 
ATOM     23  C   UNL     1      17.462  29.459  30.158  1.00  0.00     0.159 C 
ATOM     24  C   UNL     1      18.298  28.485  29.422  1.00  0.00     0.005 C 
ATOM     25  C   UNL     1      20.635  27.598  29.385  1.00  0.00     0.020 C 
ATOM     26  C   UNL     1      19.819  29.112  27.533  1.00  0.00     0.017 C 
ATOM     27  O   UNL     1      16.213  29.493  29.983  1.00  0.00    -0.295 OA
ATOM     28  C   UNL     1      17.804  27.262  29.166  1.00  0.00     0.055 C 
ATOM     29  C   UNL     1      20.168  26.306  28.691  1.00  0.00     0.081 C 
ATOM     30  C   UNL     1      18.672  26.161  28.715  1.00  0.00     0.156 C 
ATOM     31  O   UNL     1      18.152  25.074  28.355  1.00  0.00    -0.295 OA
ENDBRANCH   9  11
ENDBRANCH   8   9
ENDBRANCH   1   8
TORSDOF 6
ENDMDL
MODEL 9
REMARK VINA RESULT:    -5.350      3.489      7.499
REMARK INTER + INTRA:          -9.555
REMARK INTER:                  -7.300
REMARK INTRA:                  -2.255
REMARK UNBOUND:                -2.329
REMARK SMILES CC[C@@H](CC[C@@H](C)[C@H]1CC[C@@H]2[C@H]3CC(=O)C4=CC(=O)CC[C@]4(C)[C@H]3CC[C@@]21C)C(C)C
REMARK SMILES IDX 4 1 3 2 2 3 1 4 29 5 30 6 31 7 5 8 6 9 7 10 8 11 9 12 27 13
REMARK SMILES IDX 10 14 11 15 26 16 28 17 12 18 25 19 24 20 13 21 22 22 14 23
REMARK SMILES IDX 16 24 21 25 23 26 15 27 17 28 20 29 18 30 19 31
REMARK H PARENT
REMARK Flexibility Score: inf
ROOT
ATOM      1  C   UNL     1      15.657  29.366  30.638  1.00  0.00     0.004 C 
ENDROOT
BRANCH   1   2
ATOM      2  C   UNL     1      16.581  28.500  29.734  1.00  0.00    -0.009 C 
BRANCH   2   3
ATOM      3  C   UNL     1      15.959  27.151  29.271  1.00  0.00     0.000 C 
ATOM      4  C   UNL     1      16.669  26.539  28.061  1.00  0.00     0.004 C 
ENDBRANCH   2   3
BRANCH   2   5
ATOM      5  C   UNL     1      18.040  28.361  30.293  1.00  0.00    -0.014 C 
ATOM      6  C   UNL     1      18.101  28.726  31.788  1.00  0.00     0.007 C 
ATOM      7  C   UNL     1      19.091  29.186  29.524  1.00  0.00     0.007 C 
ENDBRANCH   2   5
ENDBRANCH   1   2
BRANCH   1   8
ATOM      8  C   UNL     1      15.478  30.856  30.256  1.00  0.00     0.004 C 
BRANCH   8   9
ATOM      9  C   UNL     1      16.031  31.875  31.291  1.00  0.00    -0.011 C 
ATOM     10  C   UNL     1      15.684  31.500  32.752  1.00  0.00     0.008 C 
BRANCH   9  11
ATOM     11  C   UNL     1      17.537  32.227  31.024  1.00  0.00    -0.002 C 
ATOM     12  C   UNL     1      17.796  32.609  29.553  1.00  0.00     0.005 C 
ATOM     13  C   UNL     1      18.312  33.280  31.912  1.00  0.00    -0.026 C 
ATOM     14  C   UNL     1      18.606  33.892  29.554  1.00  0.00     0.005 C 
ATOM     15  C   UNL     1      19.287  34.000  30.927  1.00  0.00    -0.001 C 
ATOM     16  C   UNL     1      19.072  32.591  33.080  1.00  0.00     0.007 C 
ATOM     17  C   UNL     1      17.395  34.366  32.529  1.00  0.00     0.012 C 
ATOM     18  C   UNL     1      20.757  33.462  30.909  1.00  0.00     0.004 C 
ATOM     19  C   UNL     1      20.276  31.706  32.679  1.00  0.00     0.005 C 
ATOM     20  C   UNL     1      20.841  31.954  31.253  1.00  0.00     0.003 C 
ATOM     21  C   UNL     1      21.681  34.283  31.843  1.00  0.00     0.085 C 
ATOM     22  C   UNL     1      22.297  31.376  30.988  1.00  0.00    -0.000 C 
ATOM     23  C   UNL     1      23.054  33.685  31.929  1.00  0.00     0.159 C 
ATOM     24  C   UNL     1      23.377  32.442  31.195  1.00  0.00     0.005 C 
ATOM     25  C   UNL     1      22.378  30.893  29.506  1.00  0.00     0.020 C 
ATOM     26  C   UNL     1      22.611  30.168  31.917  1.00  0.00     0.017 C 
ATOM     27  O   UNL     1      23.941  34.281  32.601  1.00  0.00    -0.295 OA
ATOM     28  C   UNL     1      24.591  32.310  30.634  1.00  0.00     0.055 C 
ATOM     29  C   UNL     1      23.773  30.385  29.099  1.00  0.00     0.081 C 
ATOM     30  C   UNL     1      24.872  31.251  29.650  1.00  0.00     0.156 C 
ATOM     31  O   UNL     1      26.053  31.075  29.253  1.00  0.00    -0.295 OA
ENDBRANCH   9  11
ENDBRANCH   8   9
ENDBRANCH   1   8
TORSDOF 6
ENDMDL
