MODEL 1
REMARK VINA RESULT:    -3.412      0.000      0.000
REMARK INTER + INTRA:          -4.119
REMARK INTER:                  -4.010
REMARK INTRA:                  -0.109
REMARK UNBOUND:                -0.109
REMARK SMILES CCCCC(=O)[O-]
REMARK SMILES IDX 4 1 5 2 6 3 7 4 3 5 2 6 1 7
REMARK H PARENT
REMARK Flexibility Score: inf
ROOT
ATOM      1  C   UNL     1     129.872 131.368 128.358  1.00  0.00     0.053 C 
ENDROOT
BRANCH   1   2
ATOM      2  C   UNL     1     130.795 132.461 128.797  1.00  0.00     0.041 C 
ATOM      3  O   UNL     1     131.157 133.350 127.981  1.00  0.00    -0.550 OA
ATOM      4  O   UNL     1     131.295 132.471 130.093  1.00  0.00    -0.550 OA
ENDBRANCH   1   2
BRANCH   1   5
ATOM      5  C   UNL     1     128.828 131.912 127.375  1.00  0.00     0.006 C 
BRANCH   5   6
ATOM      6  C   UNL     1     127.556 132.408 128.080  1.00  0.00    -0.003 C 
ATOM      7  C   UNL     1     127.440 133.931 128.084  1.00  0.00     0.004 C 
ENDBRANCH   5   6
ENDBRANCH   1   5
TORSDOF 3
ENDMDL
MODEL 2
REMARK VINA RESULT:    -3.377      9.553     10.357
REMARK INTER + INTRA:          -4.078
REMARK INTER:                  -3.963
REMARK INTRA:                  -0.115
REMARK UNBOUND:                -0.109
REMARK SMILES CCCCC(=O)[O-]
REMARK SMILES IDX 4 1 5 2 6 3 7 4 3 5 2 6 1 7
REMARK H PARENT
REMARK Flexibility Score: inf
ROOT
ATOM      1  C   UNL     1     126.045 124.539 128.180  1.00  0.00     0.053 C 
ENDROOT
BRANCH   1   2
ATOM      2  C   UNL     1     125.131 123.462 128.674  1.00  0.00     0.041 C 
ATOM      3  O   UNL     1     124.736 122.558 127.891  1.00  0.00    -0.550 OA
ATOM      4  O   UNL     1     124.676 123.484 129.986  1.00  0.00    -0.550 OA
ENDBRANCH   1   2
BRANCH   1   5
ATOM      5  C   UNL     1     127.136 123.945 127.281  1.00  0.00     0.006 C 
BRANCH   5   6
ATOM      6  C   UNL     1     128.331 123.405 128.082  1.00  0.00    -0.003 C 
ATOM      7  C   UNL     1     128.451 121.884 128.012  1.00  0.00     0.004 C 
ENDBRANCH   5   6
ENDBRANCH   1   5
TORSDOF 3
ENDMDL
MODEL 3
REMARK VINA RESULT:    -3.225     10.016     10.669
REMARK INTER + INTRA:          -3.900
REMARK INTER:                  -3.820
REMARK INTRA:                  -0.080
REMARK UNBOUND:                -0.109
REMARK SMILES CCCCC(=O)[O-]
REMARK SMILES IDX 4 1 5 2 6 3 7 4 3 5 2 6 1 7
REMARK H PARENT
REMARK Flexibility Score: inf
ROOT
ATOM      1  C   UNL     1     125.231 122.792 128.219  1.00  0.00     0.053 C 
ENDROOT
BRANCH   1   2
ATOM      2  C   UNL     1     124.770 122.294 129.553  1.00  0.00     0.041 C 
ATOM      3  O   UNL     1     124.717 121.058 129.784  1.00  0.00    -0.550 OA
ATOM      4  O   UNL     1     124.350 123.195 130.524  1.00  0.00    -0.550 OA
ENDBRANCH   1   2
BRANCH   1   5
ATOM      5  C   UNL     1     126.763 122.792 128.148  1.00  0.00     0.006 C 
BRANCH   5   6
ATOM      6  C   UNL     1     127.334 124.150 127.712  1.00  0.00    -0.003 C 
ATOM      7  C   UNL     1     126.627 125.329 128.378  1.00  0.00     0.004 C 
ENDBRANCH   5   6
ENDBRANCH   1   5
TORSDOF 3
ENDMDL
MODEL 4
REMARK VINA RESULT:    -3.127      1.347      2.059
REMARK INTER + INTRA:          -3.784
REMARK INTER:                  -3.701
REMARK INTRA:                  -0.083
REMARK UNBOUND:                -0.109
REMARK SMILES CCCCC(=O)[O-]
REMARK SMILES IDX 4 1 5 2 6 3 7 4 3 5 2 6 1 7
REMARK H PARENT
REMARK Flexibility Score: inf
ROOT
ATOM      1  C   UNL     1     130.526 133.223 128.267  1.00  0.00     0.053 C 
ENDROOT
BRANCH   1   2
ATOM      2  C   UNL     1     131.021 133.547 129.641  1.00  0.00     0.041 C 
ATOM      3  O   UNL     1     131.162 134.747 129.997  1.00  0.00    -0.550 OA
ATOM      4  O   UNL     1     131.375 132.525 130.513  1.00  0.00    -0.550 OA
ENDBRANCH   1   2
BRANCH   1   5
ATOM      5  C   UNL     1     128.993 133.170 128.249  1.00  0.00     0.006 C 
BRANCH   5   6
ATOM      6  C   UNL     1     128.455 131.843 127.691  1.00  0.00    -0.003 C 
ATOM      7  C   UNL     1     129.190 130.626 128.250  1.00  0.00     0.004 C 
ENDBRANCH   5   6
ENDBRANCH   1   5
TORSDOF 3
ENDMDL
MODEL 5
REMARK VINA RESULT:    -3.120      9.706     10.219
REMARK INTER + INTRA:          -3.776
REMARK INTER:                  -3.724
REMARK INTRA:                  -0.052
REMARK UNBOUND:                -0.109
REMARK SMILES CCCCC(=O)[O-]
REMARK SMILES IDX 4 1 5 2 6 3 7 4 3 5 2 6 1 7
REMARK H PARENT
REMARK Flexibility Score: inf
ROOT
ATOM      1  C   UNL     1     125.910 123.974 128.291  1.00  0.00     0.053 C 
ENDROOT
BRANCH   1   2
ATOM      2  C   UNL     1     127.124 123.763 127.442  1.00  0.00     0.041 C 
ATOM      3  O   UNL     1     128.017 122.952 127.804  1.00  0.00    -0.550 OA
ATOM      4  O   UNL     1     127.294 124.498 126.276  1.00  0.00    -0.550 OA
ENDBRANCH   1   2
BRANCH   1   5
ATOM      5  C   UNL     1     124.979 122.758 128.206  1.00  0.00     0.006 C 
BRANCH   5   6
ATOM      6  C   UNL     1     124.882 121.996 129.537  1.00  0.00    -0.003 C 
ATOM      7  C   UNL     1     124.211 122.815 130.638  1.00  0.00     0.004 C 
ENDBRANCH   5   6
ENDBRANCH   1   5
TORSDOF 3
ENDMDL
MODEL 6
REMARK VINA RESULT:    -3.110      2.377      3.458
REMARK INTER + INTRA:          -3.764
REMARK INTER:                  -3.741
REMARK INTRA:                  -0.023
REMARK UNBOUND:                -0.109
REMARK SMILES CCCCC(=O)[O-]
REMARK SMILES IDX 4 1 5 2 6 3 7 4 3 5 2 6 1 7
REMARK H PARENT
REMARK Flexibility Score: inf
ROOT
ATOM      1  C   UNL     1     129.706 131.513 128.192  1.00  0.00     0.053 C 
ENDROOT
BRANCH   1   2
ATOM      2  C   UNL     1     128.546 131.901 127.330  1.00  0.00     0.041 C 
ATOM      3  O   UNL     1     128.400 131.381 126.193  1.00  0.00    -0.550 OA
ATOM      4  O   UNL     1     127.653 132.874 127.762  1.00  0.00    -0.550 OA
ENDBRANCH   1   2
BRANCH   1   5
ATOM      5  C   UNL     1     130.653 132.703 128.382  1.00  0.00     0.006 C 
BRANCH   5   6
ATOM      6  C   UNL     1     131.323 132.710 129.765  1.00  0.00    -0.003 C 
ATOM      7  C   UNL     1     131.314 134.090 130.419  1.00  0.00     0.004 C 
ENDBRANCH   5   6
ENDBRANCH   1   5
TORSDOF 3
ENDMDL
MODEL 7
REMARK VINA RESULT:    -3.011     12.097     12.781
REMARK INTER + INTRA:          -3.647
REMARK INTER:                  -3.600
REMARK INTRA:                  -0.048
REMARK UNBOUND:                -0.109
REMARK SMILES CCCCC(=O)[O-]
REMARK SMILES IDX 4 1 5 2 6 3 7 4 3 5 2 6 1 7
REMARK H PARENT
REMARK Flexibility Score: inf
ROOT
ATOM      1  C   UNL     1     124.728 121.571 129.969  1.00  0.00     0.053 C 
ENDROOT
BRANCH   1   2
ATOM      2  C   UNL     1     125.306 122.220 128.750  1.00  0.00     0.041 C 
ATOM      3  O   UNL     1     124.546 122.681 127.858  1.00  0.00    -0.550 OA
ATOM      4  O   UNL     1     126.683 122.271 128.576  1.00  0.00    -0.550 OA
ENDBRANCH   1   2
BRANCH   1   5
ATOM      5  C   UNL     1     125.697 120.520 130.525  1.00  0.00     0.006 C 
BRANCH   5   6
ATOM      6  C   UNL     1     125.309 119.089 130.121  1.00  0.00    -0.003 C 
ATOM      7  C   UNL     1     124.682 118.300 131.269  1.00  0.00     0.004 C 
ENDBRANCH   5   6
ENDBRANCH   1   5
TORSDOF 3
ENDMDL
MODEL 8
REMARK VINA RESULT:    -2.975      3.525      4.326
REMARK INTER + INTRA:          -3.606
REMARK INTER:                  -3.589
REMARK INTRA:                  -0.016
REMARK UNBOUND:                -0.109
REMARK SMILES CCCCC(=O)[O-]
REMARK SMILES IDX 4 1 5 2 6 3 7 4 3 5 2 6 1 7
REMARK H PARENT
REMARK Flexibility Score: inf
ROOT
ATOM      1  C   UNL     1     130.223 134.768 129.840  1.00  0.00     0.053 C 
ENDROOT
BRANCH   1   2
ATOM      2  C   UNL     1     131.003 133.605 129.312  1.00  0.00     0.041 C 
ATOM      3  O   UNL     1     131.189 133.478 128.073  1.00  0.00    -0.550 OA
ATOM      4  O   UNL     1     131.481 132.635 130.184  1.00  0.00    -0.550 OA
ENDBRANCH   1   2
BRANCH   1   5
ATOM      5  C   UNL     1     131.102 135.632 130.753  1.00  0.00     0.006 C 
BRANCH   5   6
ATOM      6  C   UNL     1     130.745 137.124 130.676  1.00  0.00    -0.003 C 
ATOM      7  C   UNL     1     131.491 137.964 131.711  1.00  0.00     0.004 C 
ENDBRANCH   5   6
ENDBRANCH   1   5
TORSDOF 3
ENDMDL
MODEL 9
REMARK VINA RESULT:    -2.942      2.393      3.170
REMARK INTER + INTRA:          -3.566
REMARK INTER:                  -3.517
REMARK INTRA:                  -0.049
REMARK UNBOUND:                -0.109
REMARK SMILES CCCCC(=O)[O-]
REMARK SMILES IDX 4 1 5 2 6 3 7 4 3 5 2 6 1 7
REMARK H PARENT
REMARK Flexibility Score: inf
ROOT
ATOM      1  C   UNL     1     130.998 132.371 129.101  1.00  0.00     0.053 C 
ENDROOT
BRANCH   1   2
ATOM      2  C   UNL     1     129.823 131.865 128.325  1.00  0.00     0.041 C 
ATOM      3  O   UNL     1     129.031 132.674 127.775  1.00  0.00    -0.550 OA
ATOM      4  O   UNL     1     129.574 130.500 128.251  1.00  0.00    -0.550 OA
ENDBRANCH   1   2
BRANCH   1   5
ATOM      5  C   UNL     1     131.032 133.903 129.082  1.00  0.00     0.006 C 
BRANCH   5   6
ATOM      6  C   UNL     1     130.789 134.516 130.470  1.00  0.00    -0.003 C 
ATOM      7  C   UNL     1     130.399 135.992 130.404  1.00  0.00     0.004 C 
ENDBRANCH   5   6
ENDBRANCH   1   5
TORSDOF 3
ENDMDL
