MODEL 1
REMARK VINA RESULT:    -3.532      0.000      0.000
REMARK INTER + INTRA:          -4.169
REMARK INTER:                  -4.151
REMARK INTRA:                  -0.018
REMARK UNBOUND:                -0.018
REMARK SMILES CCCCC(=O)[O-]
REMARK SMILES IDX 4 1 5 2 6 3 7 4 3 5 2 6 1 7
REMARK H PARENT
REMARK Flexibility Score: inf
ROOT
ATOM      1  C   UNL     1     134.816 133.359 133.751  1.00  0.00     0.053 C 
ENDROOT
BRANCH   1   2
ATOM      2  C   UNL     1     135.460 134.685 133.495  1.00  0.00     0.041 C 
ATOM      3  O   UNL     1     134.750 135.702 133.277  1.00  0.00    -0.550 OA
ATOM      4  O   UNL     1     136.842 134.808 133.545  1.00  0.00    -0.550 OA
ENDBRANCH   1   2
BRANCH   1   5
ATOM      5  C   UNL     1     135.677 132.225 133.185  1.00  0.00     0.006 C 
BRANCH   5   6
ATOM      6  C   UNL     1     134.961 130.876 133.312  1.00  0.00    -0.003 C 
ATOM      7  C   UNL     1     135.931 129.716 133.104  1.00  0.00     0.004 C 
ENDBRANCH   5   6
ENDBRANCH   1   5
TORSDOF 3
ENDMDL
MODEL 2
REMARK VINA RESULT:    -3.506      3.521      4.046
REMARK INTER + INTRA:          -4.138
REMARK INTER:                  -4.094
REMARK INTRA:                  -0.044
REMARK UNBOUND:                -0.018
REMARK SMILES CCCCC(=O)[O-]
REMARK SMILES IDX 4 1 5 2 6 3 7 4 3 5 2 6 1 7
REMARK H PARENT
REMARK Flexibility Score: inf
ROOT
ATOM      1  C   UNL     1     131.855 134.139 132.891  1.00  0.00     0.053 C 
ENDROOT
BRANCH   1   2
ATOM      2  C   UNL     1     132.937 134.718 133.745  1.00  0.00     0.041 C 
ATOM      3  O   UNL     1     133.172 135.955 133.717  1.00  0.00    -0.550 OA
ATOM      4  O   UNL     1     133.653 133.901 134.610  1.00  0.00    -0.550 OA
ENDBRANCH   1   2
BRANCH   1   5
ATOM      5  C   UNL     1     131.008 133.148 133.696  1.00  0.00     0.006 C 
BRANCH   5   6
ATOM      6  C   UNL     1     130.951 131.782 133.001  1.00  0.00    -0.003 C 
ATOM      7  C   UNL     1     129.531 131.223 133.000  1.00  0.00     0.004 C 
ENDBRANCH   5   6
ENDBRANCH   1   5
TORSDOF 3
ENDMDL
MODEL 3
REMARK VINA RESULT:    -3.497      3.174      3.885
REMARK INTER + INTRA:          -4.128
REMARK INTER:                  -4.087
REMARK INTRA:                  -0.041
REMARK UNBOUND:                -0.018
REMARK SMILES CCCCC(=O)[O-]
REMARK SMILES IDX 4 1 5 2 6 3 7 4 3 5 2 6 1 7
REMARK H PARENT
REMARK Flexibility Score: inf
ROOT
ATOM      1  C   UNL     1     134.278 135.868 133.395  1.00  0.00     0.053 C 
ENDROOT
BRANCH   1   2
ATOM      2  C   UNL     1     132.784 135.949 133.424  1.00  0.00     0.041 C 
ATOM      3  O   UNL     1     132.093 134.897 133.445  1.00  0.00    -0.550 OA
ATOM      4  O   UNL     1     132.156 137.186 133.479  1.00  0.00    -0.550 OA
ENDBRANCH   1   2
BRANCH   1   5
ATOM      5  C   UNL     1     134.746 134.458 133.769  1.00  0.00     0.006 C 
BRANCH   5   6
ATOM      6  C   UNL     1     136.224 134.258 133.413  1.00  0.00    -0.003 C 
ATOM      7  C   UNL     1     136.922 135.596 133.185  1.00  0.00     0.004 C 
ENDBRANCH   5   6
ENDBRANCH   1   5
TORSDOF 3
ENDMDL
MODEL 4
REMARK VINA RESULT:    -3.496      2.978      4.686
REMARK INTER + INTRA:          -4.127
REMARK INTER:                  -4.105
REMARK INTRA:                  -0.022
REMARK UNBOUND:                -0.018
REMARK SMILES CCCCC(=O)[O-]
REMARK SMILES IDX 4 1 5 2 6 3 7 4 3 5 2 6 1 7
REMARK H PARENT
REMARK Flexibility Score: inf
ROOT
ATOM      1  C   UNL     1     133.663 133.693 134.466  1.00  0.00     0.053 C 
ENDROOT
BRANCH   1   2
ATOM      2  C   UNL     1     134.189 132.521 133.699  1.00  0.00     0.041 C 
ATOM      3  O   UNL     1     135.402 132.479 133.361  1.00  0.00    -0.550 OA
ATOM      4  O   UNL     1     133.354 131.453 133.401  1.00  0.00    -0.550 OA
ENDBRANCH   1   2
BRANCH   1   5
ATOM      5  C   UNL     1     132.640 134.467 133.628  1.00  0.00     0.006 C 
BRANCH   5   6
ATOM      6  C   UNL     1     133.012 135.952 133.541  1.00  0.00    -0.003 C 
ATOM      7  C   UNL     1     131.814 136.796 133.116  1.00  0.00     0.004 C 
ENDBRANCH   5   6
ENDBRANCH   1   5
TORSDOF 3
ENDMDL
MODEL 5
REMARK VINA RESULT:    -3.489      1.576      2.258
REMARK INTER + INTRA:          -4.118
REMARK INTER:                  -4.097
REMARK INTRA:                  -0.021
REMARK UNBOUND:                -0.018
REMARK SMILES CCCCC(=O)[O-]
REMARK SMILES IDX 4 1 5 2 6 3 7 4 3 5 2 6 1 7
REMARK H PARENT
REMARK Flexibility Score: inf
ROOT
ATOM      1  C   UNL     1     133.608 133.669 134.510  1.00  0.00     0.053 C 
ENDROOT
BRANCH   1   2
ATOM      2  C   UNL     1     133.231 134.899 133.747  1.00  0.00     0.041 C 
ATOM      3  O   UNL     1     134.119 135.715 133.382  1.00  0.00    -0.550 OA
ATOM      4  O   UNL     1     131.906 135.121 133.395  1.00  0.00    -0.550 OA
ENDBRANCH   1   2
BRANCH   1   5
ATOM      5  C   UNL     1     134.660 132.862 133.743  1.00  0.00     0.006 C 
BRANCH   5   6
ATOM      6  C   UNL     1     134.207 131.409 133.554  1.00  0.00    -0.003 C 
ATOM      7  C   UNL     1     135.388 130.504 133.215  1.00  0.00     0.004 C 
ENDBRANCH   5   6
ENDBRANCH   1   5
TORSDOF 3
ENDMDL
MODEL 6
REMARK VINA RESULT:    -3.487      2.388      2.786
REMARK INTER + INTRA:          -4.116
REMARK INTER:                  -4.071
REMARK INTRA:                  -0.045
REMARK UNBOUND:                -0.018
REMARK SMILES CCCCC(=O)[O-]
REMARK SMILES IDX 4 1 5 2 6 3 7 4 3 5 2 6 1 7
REMARK H PARENT
REMARK Flexibility Score: inf
ROOT
ATOM      1  C   UNL     1     133.127 131.818 132.872  1.00  0.00     0.053 C 
ENDROOT
BRANCH   1   2
ATOM      2  C   UNL     1     132.560 132.939 133.684  1.00  0.00     0.041 C 
ATOM      3  O   UNL     1     131.318 133.148 133.695  1.00  0.00    -0.550 OA
ATOM      4  O   UNL     1     133.397 133.722 134.468  1.00  0.00    -0.550 OA
ENDBRANCH   1   2
BRANCH   1   5
ATOM      5  C   UNL     1     134.166 131.038 133.684  1.00  0.00     0.006 C 
BRANCH   5   6
ATOM      6  C   UNL     1     135.518 131.008 132.963  1.00  0.00    -0.003 C 
ATOM      7  C   UNL     1     136.114 129.603 132.969  1.00  0.00     0.004 C 
ENDBRANCH   5   6
ENDBRANCH   1   5
TORSDOF 3
ENDMDL
MODEL 7
REMARK VINA RESULT:    -3.479      2.518      3.115
REMARK INTER + INTRA:          -4.107
REMARK INTER:                  -4.088
REMARK INTRA:                  -0.019
REMARK UNBOUND:                -0.018
REMARK SMILES CCCCC(=O)[O-]
REMARK SMILES IDX 4 1 5 2 6 3 7 4 3 5 2 6 1 7
REMARK H PARENT
REMARK Flexibility Score: inf
ROOT
ATOM      1  C   UNL     1     133.647 133.719 134.459  1.00  0.00     0.053 C 
ENDROOT
BRANCH   1   2
ATOM      2  C   UNL     1     134.883 134.085 133.701  1.00  0.00     0.041 C 
ATOM      3  O   UNL     1     135.128 135.291 133.434  1.00  0.00    -0.550 OA
ATOM      4  O   UNL     1     135.790 133.100 133.332  1.00  0.00    -0.550 OA
ENDBRANCH   1   2
BRANCH   1   5
ATOM      5  C   UNL     1     132.837 132.669 133.692  1.00  0.00     0.006 C 
BRANCH   5   6
ATOM      6  C   UNL     1     131.367 133.086 133.575  1.00  0.00    -0.003 C 
ATOM      7  C   UNL     1     130.499 131.922 133.108  1.00  0.00     0.004 C 
ENDBRANCH   5   6
ENDBRANCH   1   5
TORSDOF 3
ENDMDL
MODEL 8
REMARK VINA RESULT:    -3.468      2.356      3.929
REMARK INTER + INTRA:          -4.093
REMARK INTER:                  -4.048
REMARK INTRA:                  -0.045
REMARK UNBOUND:                -0.018
REMARK SMILES CCCCC(=O)[O-]
REMARK SMILES IDX 4 1 5 2 6 3 7 4 3 5 2 6 1 7
REMARK H PARENT
REMARK Flexibility Score: inf
ROOT
ATOM      1  C   UNL     1     135.519 133.138 133.004  1.00  0.00     0.053 C 
ENDROOT
BRANCH   1   2
ATOM      2  C   UNL     1     134.285 132.686 133.717  1.00  0.00     0.041 C 
ATOM      3  O   UNL     1     133.703 133.456 134.526  1.00  0.00    -0.550 OA
ATOM      4  O   UNL     1     133.748 131.434 133.451  1.00  0.00    -0.550 OA
ENDBRANCH   1   2
BRANCH   1   5
ATOM      5  C   UNL     1     136.170 134.310 133.746  1.00  0.00     0.006 C 
BRANCH   5   6
ATOM      6  C   UNL     1     136.362 135.512 132.814  1.00  0.00    -0.003 C 
ATOM      7  C   UNL     1     137.758 136.110 132.967  1.00  0.00     0.004 C 
ENDBRANCH   5   6
ENDBRANCH   1   5
TORSDOF 3
ENDMDL
MODEL 9
REMARK VINA RESULT:    -3.461      3.021      4.855
REMARK INTER + INTRA:          -4.086
REMARK INTER:                  -4.038
REMARK INTRA:                  -0.048
REMARK UNBOUND:                -0.018
REMARK SMILES CCCCC(=O)[O-]
REMARK SMILES IDX 4 1 5 2 6 3 7 4 3 5 2 6 1 7
REMARK H PARENT
REMARK Flexibility Score: inf
ROOT
ATOM      1  C   UNL     1     134.203 135.409 132.969  1.00  0.00     0.053 C 
ENDROOT
BRANCH   1   2
ATOM      2  C   UNL     1     134.546 134.193 133.768  1.00  0.00     0.041 C 
ATOM      3  O   UNL     1     133.781 133.804 134.690  1.00  0.00    -0.550 OA
ATOM      4  O   UNL     1     135.685 133.459 133.464  1.00  0.00    -0.550 OA
ENDBRANCH   1   2
BRANCH   1   5
ATOM      5  C   UNL     1     133.185 136.275 133.718  1.00  0.00     0.006 C 
BRANCH   5   6
ATOM      6  C   UNL     1     131.858 136.348 132.954  1.00  0.00    -0.003 C 
ATOM      7  C   UNL     1     131.271 137.756 133.003  1.00  0.00     0.004 C 
ENDBRANCH   5   6
ENDBRANCH   1   5
TORSDOF 3
ENDMDL
