MODEL 1
REMARK VINA RESULT:    -3.002      0.000      0.000
REMARK INTER + INTRA:          -3.574
REMARK INTER:                  -3.529
REMARK INTRA:                  -0.045
REMARK UNBOUND:                -0.045
REMARK SMILES CCCCC(=O)[O-]
REMARK SMILES IDX 4 1 5 2 6 3 7 4 3 5 2 6 1 7
REMARK H PARENT
REMARK Flexibility Score: inf
ROOT
ATOM      1  C   UNL     1     -11.341 -73.148   5.276  1.00  0.00     0.053 C 
ENDROOT
BRANCH   1   2
ATOM      2  C   UNL     1     -12.600 -72.780   5.995  1.00  0.00     0.041 C 
ATOM      3  O   UNL     1     -13.458 -73.662   6.263  1.00  0.00    -0.550 OA
ATOM      4  O   UNL     1     -12.803 -71.471   6.413  1.00  0.00    -0.550 OA
ENDBRANCH   1   2
BRANCH   1   5
ATOM      5  C   UNL     1     -10.173 -72.286   5.762  1.00  0.00     0.006 C 
BRANCH   5   6
ATOM      6  C   UNL     1      -8.856 -73.069   5.718  1.00  0.00    -0.003 C 
ATOM      7  C   UNL     1      -8.986 -74.408   6.439  1.00  0.00     0.004 C 
ENDBRANCH   5   6
ENDBRANCH   1   5
TORSDOF 3
ENDMDL
MODEL 2
REMARK VINA RESULT:    -2.925      2.938      4.082
REMARK INTER + INTRA:          -3.483
REMARK INTER:                  -3.430
REMARK INTRA:                  -0.053
REMARK UNBOUND:                -0.045
REMARK SMILES CCCCC(=O)[O-]
REMARK SMILES IDX 4 1 5 2 6 3 7 4 3 5 2 6 1 7
REMARK H PARENT
REMARK Flexibility Score: inf
ROOT
ATOM      1  C   UNL     1      -9.337 -73.262   5.765  1.00  0.00     0.053 C 
ENDROOT
BRANCH   1   2
ATOM      2  C   UNL     1      -8.849 -73.318   4.352  1.00  0.00     0.041 C 
ATOM      3  O   UNL     1      -8.989 -72.322   3.594  1.00  0.00    -0.550 OA
ATOM      4  O   UNL     1      -8.194 -74.452   3.887  1.00  0.00    -0.550 OA
ENDBRANCH   1   2
BRANCH   1   5
ATOM      5  C   UNL     1     -10.552 -72.338   5.877  1.00  0.00     0.006 C 
BRANCH   5   6
ATOM      6  C   UNL     1     -11.856 -73.119   5.676  1.00  0.00    -0.003 C 
ATOM      7  C   UNL     1     -13.048 -72.360   6.252  1.00  0.00     0.004 C 
ENDBRANCH   5   6
ENDBRANCH   1   5
TORSDOF 3
ENDMDL
MODEL 3
REMARK VINA RESULT:    -2.847     10.187     11.085
REMARK INTER + INTRA:          -3.392
REMARK INTER:                  -3.356
REMARK INTRA:                  -0.036
REMARK UNBOUND:                -0.045
REMARK SMILES CCCCC(=O)[O-]
REMARK SMILES IDX 4 1 5 2 6 3 7 4 3 5 2 6 1 7
REMARK H PARENT
REMARK Flexibility Score: inf
ROOT
ATOM      1  C   UNL     1      -6.667 -65.466  -0.913  1.00  0.00     0.053 C 
ENDROOT
BRANCH   1   2
ATOM      2  C   UNL     1      -5.325 -66.086  -1.140  1.00  0.00     0.041 C 
ATOM      3  O   UNL     1      -4.349 -65.770  -0.410  1.00  0.00    -0.550 OA
ATOM      4  O   UNL     1      -5.163 -67.051  -2.126  1.00  0.00    -0.550 OA
ENDBRANCH   1   2
BRANCH   1   5
ATOM      5  C   UNL     1      -7.556 -66.399  -0.086  1.00  0.00     0.006 C 
BRANCH   5   6
ATOM      6  C   UNL     1      -8.911 -66.615  -0.769  1.00  0.00    -0.003 C 
ATOM      7  C   UNL     1      -9.289 -68.093  -0.789  1.00  0.00     0.004 C 
ENDBRANCH   5   6
ENDBRANCH   1   5
TORSDOF 3
ENDMDL
MODEL 4
REMARK VINA RESULT:    -2.845      9.577     10.441
REMARK INTER + INTRA:          -3.389
REMARK INTER:                  -3.314
REMARK INTRA:                  -0.075
REMARK UNBOUND:                -0.045
REMARK SMILES CCCCC(=O)[O-]
REMARK SMILES IDX 4 1 5 2 6 3 7 4 3 5 2 6 1 7
REMARK H PARENT
REMARK Flexibility Score: inf
ROOT
ATOM      1  C   UNL     1      -7.228 -65.717   0.142  1.00  0.00     0.053 C 
ENDROOT
BRANCH   1   2
ATOM      2  C   UNL     1      -7.968 -64.450  -0.151  1.00  0.00     0.041 C 
ATOM      3  O   UNL     1      -8.449 -63.765   0.790  1.00  0.00    -0.550 OA
ATOM      4  O   UNL     1      -8.085 -64.001  -1.461  1.00  0.00    -0.550 OA
ENDBRANCH   1   2
BRANCH   1   5
ATOM      5  C   UNL     1      -7.640 -66.818  -0.839  1.00  0.00     0.006 C 
BRANCH   5   6
ATOM      6  C   UNL     1      -9.073 -67.290  -0.563  1.00  0.00    -0.003 C 
ATOM      7  C   UNL     1      -9.313 -68.685  -1.134  1.00  0.00     0.004 C 
ENDBRANCH   5   6
ENDBRANCH   1   5
TORSDOF 3
ENDMDL
MODEL 5
REMARK VINA RESULT:    -2.783      9.303      9.933
REMARK INTER + INTRA:          -3.316
REMARK INTER:                  -3.277
REMARK INTRA:                  -0.039
REMARK UNBOUND:                -0.045
REMARK SMILES CCCCC(=O)[O-]
REMARK SMILES IDX 4 1 5 2 6 3 7 4 3 5 2 6 1 7
REMARK H PARENT
REMARK Flexibility Score: inf
ROOT
ATOM      1  C   UNL     1      -7.535 -66.964  -1.021  1.00  0.00     0.053 C 
ENDROOT
BRANCH   1   2
ATOM      2  C   UNL     1      -8.899 -67.110  -0.423  1.00  0.00     0.041 C 
ATOM      3  O   UNL     1      -9.657 -68.045  -0.794  1.00  0.00    -0.550 OA
ATOM      4  O   UNL     1      -9.313 -66.245   0.582  1.00  0.00    -0.550 OA
ENDBRANCH   1   2
BRANCH   1   5
ATOM      5  C   UNL     1      -6.740 -65.882  -0.285  1.00  0.00     0.006 C 
BRANCH   5   6
ATOM      6  C   UNL     1      -5.327 -65.749  -0.866  1.00  0.00    -0.003 C 
ATOM      7  C   UNL     1      -5.067 -66.809  -1.932  1.00  0.00     0.004 C 
ENDBRANCH   5   6
ENDBRANCH   1   5
TORSDOF 3
ENDMDL
MODEL 6
REMARK VINA RESULT:    -2.736      8.303      9.088
REMARK INTER + INTRA:          -3.262
REMARK INTER:                  -3.137
REMARK INTRA:                  -0.125
REMARK UNBOUND:                -0.045
REMARK SMILES CCCCC(=O)[O-]
REMARK SMILES IDX 4 1 5 2 6 3 7 4 3 5 2 6 1 7
REMARK H PARENT
REMARK Flexibility Score: inf
ROOT
ATOM      1  C   UNL     1      -9.226 -65.838   1.070  1.00  0.00     0.053 C 
ENDROOT
BRANCH   1   2
ATOM      2  C   UNL     1      -8.146 -66.176   2.049  1.00  0.00     0.041 C 
ATOM      3  O   UNL     1      -8.277 -67.162   2.821  1.00  0.00    -0.550 OA
ATOM      4  O   UNL     1      -6.974 -65.431   2.074  1.00  0.00    -0.550 OA
ENDBRANCH   1   2
BRANCH   1   5
ATOM      5  C   UNL     1      -8.660 -65.765  -0.350  1.00  0.00     0.006 C 
BRANCH   5   6
ATOM      6  C   UNL     1      -8.222 -67.151  -0.838  1.00  0.00    -0.003 C 
ATOM      7  C   UNL     1      -9.394 -68.129  -0.846  1.00  0.00     0.004 C 
ENDBRANCH   5   6
ENDBRANCH   1   5
TORSDOF 3
ENDMDL
MODEL 7
REMARK VINA RESULT:    -2.711      2.457      3.341
REMARK INTER + INTRA:          -3.232
REMARK INTER:                  -3.213
REMARK INTRA:                  -0.020
REMARK UNBOUND:                -0.045
REMARK SMILES CCCCC(=O)[O-]
REMARK SMILES IDX 4 1 5 2 6 3 7 4 3 5 2 6 1 7
REMARK H PARENT
REMARK Flexibility Score: inf
ROOT
ATOM      1  C   UNL     1     -12.804 -71.304   6.327  1.00  0.00     0.053 C 
ENDROOT
BRANCH   1   2
ATOM      2  C   UNL     1     -12.612 -72.732   5.924  1.00  0.00     0.041 C 
ATOM      3  O   UNL     1     -13.471 -73.599   6.233  1.00  0.00    -0.550 OA
ATOM      4  O   UNL     1     -11.508 -73.096   5.163  1.00  0.00    -0.550 OA
ENDBRANCH   1   2
BRANCH   1   5
ATOM      5  C   UNL     1     -11.469 -70.680   6.741  1.00  0.00     0.006 C 
BRANCH   5   6
ATOM      6  C   UNL     1     -11.574 -69.151   6.805  1.00  0.00    -0.003 C 
ATOM      7  C   UNL     1     -10.202 -68.498   6.659  1.00  0.00     0.004 C 
ENDBRANCH   5   6
ENDBRANCH   1   5
TORSDOF 3
ENDMDL
MODEL 8
REMARK VINA RESULT:    -2.710     12.299     13.062
REMARK INTER + INTRA:          -3.230
REMARK INTER:                  -3.208
REMARK INTRA:                  -0.022
REMARK UNBOUND:                -0.045
REMARK SMILES CCCCC(=O)[O-]
REMARK SMILES IDX 4 1 5 2 6 3 7 4 3 5 2 6 1 7
REMARK H PARENT
REMARK Flexibility Score: inf
ROOT
ATOM      1  C   UNL     1      -4.281 -66.539  -3.425  1.00  0.00     0.053 C 
ENDROOT
BRANCH   1   2
ATOM      2  C   UNL     1      -4.197 -67.565  -4.511  1.00  0.00     0.041 C 
ATOM      3  O   UNL     1      -4.829 -68.649  -4.410  1.00  0.00    -0.550 OA
ATOM      4  O   UNL     1      -3.458 -67.302  -5.659  1.00  0.00    -0.550 OA
ENDBRANCH   1   2
BRANCH   1   5
ATOM      5  C   UNL     1      -5.078 -67.082  -2.236  1.00  0.00     0.006 C 
BRANCH   5   6
ATOM      6  C   UNL     1      -5.262 -66.005  -1.161  1.00  0.00    -0.003 C 
ATOM      7  C   UNL     1      -6.690 -66.000  -0.624  1.00  0.00     0.004 C 
ENDBRANCH   5   6
ENDBRANCH   1   5
TORSDOF 3
ENDMDL
MODEL 9
REMARK VINA RESULT:    -2.676      1.890      2.574
REMARK INTER + INTRA:          -3.191
REMARK INTER:                  -3.063
REMARK INTRA:                  -0.128
REMARK UNBOUND:                -0.045
REMARK SMILES CCCCC(=O)[O-]
REMARK SMILES IDX 4 1 5 2 6 3 7 4 3 5 2 6 1 7
REMARK H PARENT
REMARK Flexibility Score: inf
ROOT
ATOM      1  C   UNL     1      -9.210 -73.489   5.794  1.00  0.00     0.053 C 
ENDROOT
BRANCH   1   2
ATOM      2  C   UNL     1     -10.456 -72.674   5.643  1.00  0.00     0.041 C 
ATOM      3  O   UNL     1     -11.466 -73.161   5.072  1.00  0.00    -0.550 OA
ATOM      4  O   UNL     1     -10.517 -71.393   6.179  1.00  0.00    -0.550 OA
ENDBRANCH   1   2
BRANCH   1   5
ATOM      5  C   UNL     1      -8.604 -73.800   4.423  1.00  0.00     0.006 C 
BRANCH   5   6
ATOM      6  C   UNL     1      -8.187 -72.513   3.702  1.00  0.00    -0.003 C 
ATOM      7  C   UNL     1      -7.064 -71.801   4.450  1.00  0.00     0.004 C 
ENDBRANCH   5   6
ENDBRANCH   1   5
TORSDOF 3
ENDMDL
