MODEL 1
REMARK VINA RESULT:    -4.199      0.000      0.000
REMARK INTER + INTRA:          -4.886
REMARK INTER:                  -4.812
REMARK INTRA:                  -0.074
REMARK UNBOUND:                -0.074
REMARK SMILES COc1cc(C(C)=O)ccc1O
REMARK SMILES IDX 5 1 4 2 3 3 11 4 10 5 9 6 6 7 7 8 8 9 2 10 1 11 12 12
REMARK H PARENT 12 13
REMARK Flexibility Score: inf
ROOT
ATOM      1  C   UNL     1      29.017  30.234  25.049  1.00  0.00     0.021 A 
ATOM      2  C   UNL     1      28.963  31.641  25.024  1.00  0.00     0.062 A 
ATOM      3  C   UNL     1      28.988  32.344  23.803  1.00  0.00     0.161 A 
ATOM      4  C   UNL     1      29.069  31.631  22.601  1.00  0.00     0.157 A 
ATOM      5  C   UNL     1      29.123  30.233  22.617  1.00  0.00     0.051 A 
ATOM      6  C   UNL     1      29.098  29.539  23.828  1.00  0.00     0.016 A 
ENDROOT
BRANCH   1   7
ATOM      7  C   UNL     1      28.989  29.510  26.349  1.00  0.00     0.159 C 
ATOM      8  C   UNL     1      29.114  30.228  27.660  1.00  0.00     0.093 C 
ATOM      9  O   UNL     1      28.858  28.255  26.364  1.00  0.00    -0.295 OA
ENDBRANCH   1   7
BRANCH   3  10
ATOM     10  O   UNL     1      28.935  33.746  23.744  1.00  0.00    -0.493 OA
ATOM     11  C   UNL     1      27.737  34.503  23.603  1.00  0.00     0.278 C 
ENDBRANCH   3  10
BRANCH   4  12
ATOM     12  O   UNL     1      29.093  32.321  21.389  1.00  0.00    -0.504 OA
ATOM     13  H   UNL     1      29.877  32.244  20.750  1.00  0.00     0.293 HD
ENDBRANCH   4  12
TORSDOF 3
ENDMDL
MODEL 2
REMARK VINA RESULT:    -4.124      1.038      4.326
REMARK INTER + INTRA:          -4.801
REMARK INTER:                  -4.705
REMARK INTRA:                  -0.096
REMARK UNBOUND:                -0.074
REMARK SMILES COc1cc(C(C)=O)ccc1O
REMARK SMILES IDX 5 1 4 2 3 3 11 4 10 5 9 6 6 7 7 8 8 9 2 10 1 11 12 12
REMARK H PARENT 12 13
REMARK Flexibility Score: inf
ROOT
ATOM      1  C   UNL     1      28.770  31.292  23.620  1.00  0.00     0.021 A 
ATOM      2  C   UNL     1      28.681  31.034  25.002  1.00  0.00     0.062 A 
ATOM      3  C   UNL     1      28.659  29.713  25.490  1.00  0.00     0.161 A 
ATOM      4  C   UNL     1      28.726  28.645  24.588  1.00  0.00     0.157 A 
ATOM      5  C   UNL     1      28.815  28.892  23.213  1.00  0.00     0.051 A 
ATOM      6  C   UNL     1      28.836  30.203  22.732  1.00  0.00     0.016 A 
ENDROOT
BRANCH   1   7
ATOM      7  C   UNL     1      28.792  32.695  23.123  1.00  0.00     0.159 C 
ATOM      8  C   UNL     1      28.732  33.868  24.056  1.00  0.00     0.093 C 
ATOM      9  O   UNL     1      28.863  32.920  21.884  1.00  0.00    -0.295 OA
ENDBRANCH   1   7
BRANCH   3  10
ATOM     10  O   UNL     1      28.572  29.422  26.862  1.00  0.00    -0.493 OA
ATOM     11  C   UNL     1      29.070  30.263  27.898  1.00  0.00     0.278 C 
ENDBRANCH   3  10
BRANCH   4  12
ATOM     12  O   UNL     1      28.706  27.335  25.065  1.00  0.00    -0.504 OA
ATOM     13  H   UNL     1      29.508  26.928  25.533  1.00  0.00     0.293 HD
ENDBRANCH   4  12
TORSDOF 3
ENDMDL
MODEL 3
REMARK VINA RESULT:    -4.120      9.470     11.645
REMARK INTER + INTRA:          -4.797
REMARK INTER:                  -4.697
REMARK INTRA:                  -0.100
REMARK UNBOUND:                -0.074
REMARK SMILES COc1cc(C(C)=O)ccc1O
REMARK SMILES IDX 5 1 4 2 3 3 11 4 10 5 9 6 6 7 7 8 8 9 2 10 1 11 12 12
REMARK H PARENT 12 13
REMARK Flexibility Score: inf
ROOT
ATOM      1  C   UNL     1      26.917  41.680  19.825  1.00  0.00     0.021 A 
ATOM      2  C   UNL     1      27.362  40.807  18.813  1.00  0.00     0.062 A 
ATOM      3  C   UNL     1      27.014  39.442  18.831  1.00  0.00     0.161 A 
ATOM      4  C   UNL     1      26.216  38.950  19.871  1.00  0.00     0.157 A 
ATOM      5  C   UNL     1      25.770  39.810  20.880  1.00  0.00     0.051 A 
ATOM      6  C   UNL     1      26.117  41.162  20.861  1.00  0.00     0.016 A 
ENDROOT
BRANCH   1   7
ATOM      7  C   UNL     1      27.296  43.119  19.788  1.00  0.00     0.159 C 
ATOM      8  C   UNL     1      26.515  44.125  18.996  1.00  0.00     0.093 C 
ATOM      9  O   UNL     1      28.300  43.519  20.438  1.00  0.00    -0.295 OA
ENDBRANCH   1   7
BRANCH   3  10
ATOM     10  O   UNL     1      27.440  38.547  17.836  1.00  0.00    -0.493 OA
ATOM     11  C   UNL     1      28.748  38.529  17.273  1.00  0.00     0.278 C 
ENDBRANCH   3  10
BRANCH   4  12
ATOM     12  O   UNL     1      25.868  37.600  19.894  1.00  0.00    -0.504 OA
ATOM     13  H   UNL     1      25.719  37.075  19.039  1.00  0.00     0.293 HD
ENDBRANCH   4  12
TORSDOF 3
ENDMDL
MODEL 4
REMARK VINA RESULT:    -4.030      5.544      7.923
REMARK INTER + INTRA:          -4.694
REMARK INTER:                  -4.574
REMARK INTRA:                  -0.120
REMARK UNBOUND:                -0.074
REMARK SMILES COc1cc(C(C)=O)ccc1O
REMARK SMILES IDX 5 1 4 2 3 3 11 4 10 5 9 6 6 7 7 8 8 9 2 10 1 11 12 12
REMARK H PARENT 12 13
REMARK Flexibility Score: inf
ROOT
ATOM      1  C   UNL     1      28.216  36.272  20.058  1.00  0.00     0.021 A 
ATOM      2  C   UNL     1      27.150  37.153  20.327  1.00  0.00     0.062 A 
ATOM      3  C   UNL     1      26.992  38.342  19.589  1.00  0.00     0.161 A 
ATOM      4  C   UNL     1      27.908  38.649  18.575  1.00  0.00     0.157 A 
ATOM      5  C   UNL     1      28.969  37.779  18.301  1.00  0.00     0.051 A 
ATOM      6  C   UNL     1      29.124  36.602  19.035  1.00  0.00     0.016 A 
ENDROOT
BRANCH   1   7
ATOM      7  C   UNL     1      28.366  35.020  20.849  1.00  0.00     0.159 C 
ATOM      8  C   UNL     1      29.006  33.791  20.276  1.00  0.00     0.093 C 
ATOM      9  O   UNL     1      27.949  34.977  22.039  1.00  0.00    -0.295 OA
ENDBRANCH   1   7
BRANCH   3  10
ATOM     10  O   UNL     1      25.940  39.241  19.831  1.00  0.00    -0.493 OA
ATOM     11  C   UNL     1      25.980  40.288  20.796  1.00  0.00     0.278 C 
ENDBRANCH   3  10
BRANCH   4  12
ATOM     12  O   UNL     1      27.756  39.825  17.840  1.00  0.00    -0.504 OA
ATOM     13  H   UNL     1      27.438  40.684  18.273  1.00  0.00     0.293 HD
ENDBRANCH   4  12
TORSDOF 3
ENDMDL
MODEL 5
REMARK VINA RESULT:    -3.931      1.476      4.742
REMARK INTER + INTRA:          -4.580
REMARK INTER:                  -4.477
REMARK INTRA:                  -0.104
REMARK UNBOUND:                -0.074
REMARK SMILES COc1cc(C(C)=O)ccc1O
REMARK SMILES IDX 5 1 4 2 3 3 11 4 10 5 9 6 6 7 7 8 8 9 2 10 1 11 12 12
REMARK H PARENT 12 13
REMARK Flexibility Score: inf
ROOT
ATOM      1  C   UNL     1      28.468  32.227  24.098  1.00  0.00     0.021 A 
ATOM      2  C   UNL     1      27.960  30.975  23.704  1.00  0.00     0.062 A 
ATOM      3  C   UNL     1      28.032  29.862  24.564  1.00  0.00     0.161 A 
ATOM      4  C   UNL     1      28.617  30.006  25.828  1.00  0.00     0.157 A 
ATOM      5  C   UNL     1      29.125  31.247  26.228  1.00  0.00     0.051 A 
ATOM      6  C   UNL     1      29.053  32.349  25.372  1.00  0.00     0.016 A 
ENDROOT
BRANCH   1   7
ATOM      7  C   UNL     1      28.384  33.391  23.174  1.00  0.00     0.159 C 
ATOM      8  C   UNL     1      27.648  34.645  23.544  1.00  0.00     0.093 C 
ATOM      9  O   UNL     1      28.942  33.337  22.044  1.00  0.00    -0.295 OA
ENDBRANCH   1   7
BRANCH   3  10
ATOM     10  O   UNL     1      27.533  28.600  24.201  1.00  0.00    -0.493 OA
ATOM     11  C   UNL     1      26.566  28.378  23.180  1.00  0.00     0.278 C 
ENDBRANCH   3  10
BRANCH   4  12
ATOM     12  O   UNL     1      28.691  28.908  26.685  1.00  0.00    -0.504 OA
ATOM     13  H   UNL     1      29.331  28.890  27.470  1.00  0.00     0.293 HD
ENDBRANCH   4  12
TORSDOF 3
ENDMDL
MODEL 6
REMARK VINA RESULT:    -3.930      7.514     10.191
REMARK INTER + INTRA:          -4.579
REMARK INTER:                  -4.465
REMARK INTRA:                  -0.114
REMARK UNBOUND:                -0.074
REMARK SMILES COc1cc(C(C)=O)ccc1O
REMARK SMILES IDX 5 1 4 2 3 3 11 4 10 5 9 6 6 7 7 8 8 9 2 10 1 11 12 12
REMARK H PARENT 12 13
REMARK Flexibility Score: inf
ROOT
ATOM      1  C   UNL     1      26.150  38.860  20.221  1.00  0.00     0.021 A 
ATOM      2  C   UNL     1      25.902  39.995  21.016  1.00  0.00     0.062 A 
ATOM      3  C   UNL     1      26.351  41.270  20.617  1.00  0.00     0.161 A 
ATOM      4  C   UNL     1      27.053  41.405  19.413  1.00  0.00     0.157 A 
ATOM      5  C   UNL     1      27.303  40.282  18.617  1.00  0.00     0.051 A 
ATOM      6  C   UNL     1      26.858  39.020  19.015  1.00  0.00     0.016 A 
ENDROOT
BRANCH   1   7
ATOM      7  C   UNL     1      25.668  37.522  20.660  1.00  0.00     0.159 C 
ATOM      8  C   UNL     1      26.382  36.728  21.714  1.00  0.00     0.093 C 
ATOM      9  O   UNL     1      24.630  37.028  20.140  1.00  0.00    -0.295 OA
ENDBRANCH   1   7
BRANCH   3  10
ATOM     10  O   UNL     1      26.119  42.421  21.387  1.00  0.00    -0.493 OA
ATOM     11  C   UNL     1      26.841  42.762  22.566  1.00  0.00     0.278 C 
ENDBRANCH   3  10
BRANCH   4  12
ATOM     12  O   UNL     1      27.499  42.664  19.012  1.00  0.00    -0.504 OA
ATOM     13  H   UNL     1      26.921  43.277  18.447  1.00  0.00     0.293 HD
ENDBRANCH   4  12
TORSDOF 3
ENDMDL
MODEL 7
REMARK VINA RESULT:    -3.918      9.424     10.941
REMARK INTER + INTRA:          -4.565
REMARK INTER:                  -4.449
REMARK INTRA:                  -0.116
REMARK UNBOUND:                -0.074
REMARK SMILES COc1cc(C(C)=O)ccc1O
REMARK SMILES IDX 5 1 4 2 3 3 11 4 10 5 9 6 6 7 7 8 8 9 2 10 1 11 12 12
REMARK H PARENT 12 13
REMARK Flexibility Score: inf
ROOT
ATOM      1  C   UNL     1      27.610  39.248  18.935  1.00  0.00     0.021 A 
ATOM      2  C   UNL     1      27.658  40.656  18.925  1.00  0.00     0.062 A 
ATOM      3  C   UNL     1      26.915  41.411  19.854  1.00  0.00     0.161 A 
ATOM      4  C   UNL     1      26.120  40.750  20.798  1.00  0.00     0.157 A 
ATOM      5  C   UNL     1      26.067  39.352  20.815  1.00  0.00     0.051 A 
ATOM      6  C   UNL     1      26.803  38.606  19.893  1.00  0.00     0.016 A 
ENDROOT
BRANCH   1   7
ATOM      7  C   UNL     1      28.401  38.468  17.945  1.00  0.00     0.159 C 
ATOM      8  C   UNL     1      29.125  37.210  18.322  1.00  0.00     0.093 C 
ATOM      9  O   UNL     1      28.475  38.865  16.749  1.00  0.00    -0.295 OA
ENDBRANCH   1   7
BRANCH   3  10
ATOM     10  O   UNL     1      26.942  42.815  19.871  1.00  0.00    -0.493 OA
ATOM     11  C   UNL     1      26.860  43.638  18.712  1.00  0.00     0.278 C 
ENDBRANCH   3  10
BRANCH   4  12
ATOM     12  O   UNL     1      25.383  41.492  21.721  1.00  0.00    -0.504 OA
ATOM     13  H   UNL     1      25.836  42.093  22.401  1.00  0.00     0.293 HD
ENDBRANCH   4  12
TORSDOF 3
ENDMDL
MODEL 8
REMARK VINA RESULT:    -3.906      7.701     10.158
REMARK INTER + INTRA:          -4.551
REMARK INTER:                  -4.442
REMARK INTRA:                  -0.109
REMARK UNBOUND:                -0.074
REMARK SMILES COc1cc(C(C)=O)ccc1O
REMARK SMILES IDX 5 1 4 2 3 3 11 4 10 5 9 6 6 7 7 8 8 9 2 10 1 11 12 12
REMARK H PARENT 12 13
REMARK Flexibility Score: inf
ROOT
ATOM      1  C   UNL     1      26.781  40.269  20.378  1.00  0.00     0.021 A 
ATOM      2  C   UNL     1      25.730  39.406  20.745  1.00  0.00     0.062 A 
ATOM      3  C   UNL     1      25.934  38.015  20.833  1.00  0.00     0.161 A 
ATOM      4  C   UNL     1      27.199  37.486  20.550  1.00  0.00     0.157 A 
ATOM      5  C   UNL     1      28.249  38.336  20.184  1.00  0.00     0.051 A 
ATOM      6  C   UNL     1      28.044  39.715  20.097  1.00  0.00     0.016 A 
ENDROOT
BRANCH   1   7
ATOM      7  C   UNL     1      26.546  41.736  20.291  1.00  0.00     0.159 C 
ATOM      8  C   UNL     1      27.076  42.559  19.155  1.00  0.00     0.093 C 
ATOM      9  O   UNL     1      25.883  42.319  21.192  1.00  0.00    -0.295 OA
ENDBRANCH   1   7
BRANCH   3  10
ATOM     10  O   UNL     1      24.907  37.129  21.197  1.00  0.00    -0.493 OA
ATOM     11  C   UNL     1      23.518  37.444  21.161  1.00  0.00     0.278 C 
ENDBRANCH   3  10
BRANCH   4  12
ATOM     12  O   UNL     1      27.407  36.110  20.635  1.00  0.00    -0.504 OA
ATOM     13  H   UNL     1      28.292  35.725  20.945  1.00  0.00     0.293 HD
ENDBRANCH   4  12
TORSDOF 3
ENDMDL
MODEL 9
REMARK VINA RESULT:    -3.891      8.633     10.309
REMARK INTER + INTRA:          -4.534
REMARK INTER:                  -4.412
REMARK INTRA:                  -0.123
REMARK UNBOUND:                -0.074
REMARK SMILES COc1cc(C(C)=O)ccc1O
REMARK SMILES IDX 5 1 4 2 3 3 11 4 10 5 9 6 6 7 7 8 8 9 2 10 1 11 12 12
REMARK H PARENT 12 13
REMARK Flexibility Score: inf
ROOT
ATOM      1  C   UNL     1      27.632  40.760  21.076  1.00  0.00     0.021 A 
ATOM      2  C   UNL     1      27.008  39.508  21.237  1.00  0.00     0.062 A 
ATOM      3  C   UNL     1      26.537  38.786  20.123  1.00  0.00     0.161 A 
ATOM      4  C   UNL     1      26.692  39.323  18.839  1.00  0.00     0.157 A 
ATOM      5  C   UNL     1      27.311  40.567  18.670  1.00  0.00     0.051 A 
ATOM      6  C   UNL     1      27.776  41.281  19.776  1.00  0.00     0.016 A 
ENDROOT
BRANCH   1   7
ATOM      7  C   UNL     1      28.123  41.507  22.265  1.00  0.00     0.159 C 
ATOM      8  C   UNL     1      27.563  42.845  22.648  1.00  0.00     0.093 C 
ATOM      9  O   UNL     1      29.036  41.014  22.982  1.00  0.00    -0.295 OA
ENDBRANCH   1   7
BRANCH   3  10
ATOM     10  O   UNL     1      25.912  37.534  20.250  1.00  0.00    -0.493 OA
ATOM     11  C   UNL     1      24.600  37.337  20.768  1.00  0.00     0.278 C 
ENDBRANCH   3  10
BRANCH   4  12
ATOM     12  O   UNL     1      26.229  38.613  17.732  1.00  0.00    -0.504 OA
ATOM     13  H   UNL     1      25.243  38.419  17.601  1.00  0.00     0.293 HD
ENDBRANCH   4  12
TORSDOF 3
ENDMDL
