MODEL 1
REMARK VINA RESULT:    -5.640      0.000      0.000
REMARK INTER + INTRA:          -6.336
REMARK INTER:                  -6.134
REMARK INTRA:                  -0.202
REMARK UNBOUND:                -0.202
REMARK SMILES CC(C)(C)[C@@H]1C=C[C@H](O)CC1
REMARK SMILES IDX 5 1 11 2 10 3 8 4 7 5 6 6 2 7 1 8 3 9 4 10 9 11
REMARK H PARENT 9 12
REMARK Flexibility Score: inf
ROOT
ATOM      1  C   UNL     1     135.803 124.459 140.637  1.00  0.00     0.017 C 
ATOM      2  C   UNL     1     134.439 124.068 141.285  1.00  0.00     0.011 C 
ATOM      3  C   UNL     1     134.430 124.096 142.838  1.00  0.00     0.037 C 
ATOM      4  C   UNL     1     135.708 124.701 143.450  1.00  0.00     0.137 C 
ATOM      5  C   UNL     1     136.910 124.066 142.811  1.00  0.00     0.000 C 
ATOM      6  C   UNL     1     136.951 123.928 141.480  1.00  0.00    -0.025 C 
ENDROOT
BRANCH   1   7
ATOM      7  C   UNL     1     135.923 124.098 139.107  1.00  0.00    -0.032 C 
ATOM      8  C   UNL     1     135.704 122.582 138.899  1.00  0.00     0.011 C 
ATOM      9  C   UNL     1     134.822 124.838 138.310  1.00  0.00     0.011 C 
ATOM     10  C   UNL     1     137.302 124.480 138.518  1.00  0.00     0.011 C 
ENDBRANCH   1   7
BRANCH   4  11
ATOM     11  O   UNL     1     135.739 124.477 144.834  1.00  0.00    -0.389 OA
ATOM     12  H   UNL     1     136.065 125.318 145.251  1.00  0.00     0.211 HD
ENDBRANCH   4  11
TORSDOF 2
ENDMDL
MODEL 2
REMARK VINA RESULT:    -5.470      0.527      2.003
REMARK INTER + INTRA:          -6.151
REMARK INTER:                  -5.950
REMARK INTRA:                  -0.202
REMARK UNBOUND:                -0.202
REMARK SMILES CC(C)(C)[C@@H]1C=C[C@H](O)CC1
REMARK SMILES IDX 5 1 11 2 10 3 8 4 7 5 6 6 2 7 1 8 3 9 4 10 9 11
REMARK H PARENT 9 12
REMARK Flexibility Score: inf
ROOT
ATOM      1  C   UNL     1     135.741 123.815 140.647  1.00  0.00     0.017 C 
ATOM      2  C   UNL     1     137.095 123.837 141.424  1.00  0.00     0.011 C 
ATOM      3  C   UNL     1     136.964 124.132 142.943  1.00  0.00     0.037 C 
ATOM      4  C   UNL     1     135.506 124.149 143.443  1.00  0.00     0.137 C 
ATOM      5  C   UNL     1     134.681 125.012 142.532  1.00  0.00     0.000 C 
ATOM      6  C   UNL     1     134.805 124.875 141.206  1.00  0.00    -0.025 C 
ENDROOT
BRANCH   1   7
ATOM      7  C   UNL     1     135.890 123.867 139.079  1.00  0.00    -0.032 C 
ATOM      8  C   UNL     1     137.321 124.313 138.695  1.00  0.00     0.011 C 
ATOM      9  C   UNL     1     135.672 122.454 138.488  1.00  0.00     0.011 C 
ATOM     10  C   UNL     1     134.881 124.840 138.423  1.00  0.00     0.011 C 
ENDBRANCH   1   7
BRANCH   4  11
ATOM     11  O   UNL     1     135.445 124.654 144.750  1.00  0.00    -0.389 OA
ATOM     12  H   UNL     1     135.114 123.916 145.325  1.00  0.00     0.211 HD
ENDBRANCH   4  11
TORSDOF 2
ENDMDL
MODEL 3
REMARK VINA RESULT:    -5.407      2.555      4.306
REMARK INTER + INTRA:          -6.083
REMARK INTER:                  -5.882
REMARK INTRA:                  -0.201
REMARK UNBOUND:                -0.202
REMARK SMILES CC(C)(C)[C@@H]1C=C[C@H](O)CC1
REMARK SMILES IDX 5 1 11 2 10 3 8 4 7 5 6 6 2 7 1 8 3 9 4 10 9 11
REMARK H PARENT 9 12
REMARK Flexibility Score: inf
ROOT
ATOM      1  C   UNL     1     135.260 123.868 140.745  1.00  0.00     0.017 C 
ATOM      2  C   UNL     1     134.956 124.857 139.576  1.00  0.00     0.011 C 
ATOM      3  C   UNL     1     135.943 124.766 138.380  1.00  0.00     0.037 C 
ATOM      4  C   UNL     1     136.919 123.578 138.477  1.00  0.00     0.137 C 
ATOM      5  C   UNL     1     137.540 123.559 139.844  1.00  0.00     0.000 C 
ATOM      6  C   UNL     1     136.762 123.719 140.922  1.00  0.00    -0.025 C 
ENDROOT
BRANCH   1   7
ATOM      7  C   UNL     1     134.494 124.191 142.084  1.00  0.00    -0.032 C 
ATOM      8  C   UNL     1     133.458 125.314 141.848  1.00  0.00     0.011 C 
ATOM      9  C   UNL     1     133.719 122.938 142.556  1.00  0.00     0.011 C 
ATOM     10  C   UNL     1     135.451 124.637 143.216  1.00  0.00     0.011 C 
ENDBRANCH   1   7
BRANCH   4  11
ATOM     11  O   UNL     1     137.925 123.693 137.506  1.00  0.00    -0.389 OA
ATOM     12  H   UNL     1     138.116 124.662 137.407  1.00  0.00     0.211 HD
ENDBRANCH   4  11
TORSDOF 2
ENDMDL
MODEL 4
REMARK VINA RESULT:    -5.381      2.547      4.312
REMARK INTER + INTRA:          -6.054
REMARK INTER:                  -5.850
REMARK INTRA:                  -0.204
REMARK UNBOUND:                -0.202
REMARK SMILES CC(C)(C)[C@@H]1C=C[C@H](O)CC1
REMARK SMILES IDX 5 1 11 2 10 3 8 4 7 5 6 6 2 7 1 8 3 9 4 10 9 11
REMARK H PARENT 9 12
REMARK Flexibility Score: inf
ROOT
ATOM      1  C   UNL     1     135.182 123.912 140.827  1.00  0.00     0.017 C 
ATOM      2  C   UNL     1     134.869 124.879 139.643  1.00  0.00     0.011 C 
ATOM      3  C   UNL     1     135.817 124.732 138.421  1.00  0.00     0.037 C 
ATOM      4  C   UNL     1     136.765 123.521 138.521  1.00  0.00     0.137 C 
ATOM      5  C   UNL     1     137.426 123.520 139.870  1.00  0.00     0.000 C 
ATOM      6  C   UNL     1     136.685 123.728 140.965  1.00  0.00    -0.025 C 
ENDROOT
BRANCH   1   7
ATOM      7  C   UNL     1     134.465 124.289 142.180  1.00  0.00    -0.032 C 
ATOM      8  C   UNL     1     135.489 124.870 143.182  1.00  0.00     0.011 C 
ATOM      9  C   UNL     1     133.402 125.383 141.919  1.00  0.00     0.011 C 
ATOM     10  C   UNL     1     133.772 123.072 142.838  1.00  0.00     0.011 C 
ENDBRANCH   1   7
BRANCH   4  11
ATOM     11  O   UNL     1     137.744 123.585 137.519  1.00  0.00    -0.389 OA
ATOM     12  H   UNL     1     138.581 123.892 137.957  1.00  0.00     0.211 HD
ENDBRANCH   4  11
TORSDOF 2
ENDMDL
MODEL 5
REMARK VINA RESULT:    -5.039      1.725      2.103
REMARK INTER + INTRA:          -5.683
REMARK INTER:                  -5.478
REMARK INTRA:                  -0.205
REMARK UNBOUND:                -0.202
REMARK SMILES CC(C)(C)[C@@H]1C=C[C@H](O)CC1
REMARK SMILES IDX 5 1 11 2 10 3 8 4 7 5 6 6 2 7 1 8 3 9 4 10 9 11
REMARK H PARENT 9 12
REMARK Flexibility Score: inf
ROOT
ATOM      1  C   UNL     1     135.620 123.865 140.980  1.00  0.00     0.017 C 
ATOM      2  C   UNL     1     134.882 125.219 141.220  1.00  0.00     0.011 C 
ATOM      3  C   UNL     1     133.731 125.152 142.261  1.00  0.00     0.037 C 
ATOM      4  C   UNL     1     133.660 123.810 143.014  1.00  0.00     0.137 C 
ATOM      5  C   UNL     1     133.717 122.683 142.022  1.00  0.00     0.000 C 
ATOM      6  C   UNL     1     134.628 122.715 141.042  1.00  0.00    -0.025 C 
ENDROOT
BRANCH   1   7
ATOM      7  C   UNL     1     136.534 123.842 139.696  1.00  0.00    -0.032 C 
ATOM      8  C   UNL     1     136.115 122.681 138.764  1.00  0.00     0.011 C 
ATOM      9  C   UNL     1     136.352 125.159 138.904  1.00  0.00     0.011 C 
ATOM     10  C   UNL     1     138.033 123.676 140.043  1.00  0.00     0.011 C 
ENDBRANCH   1   7
BRANCH   4  11
ATOM     11  O   UNL     1     132.470 123.727 143.752  1.00  0.00    -0.389 OA
ATOM     12  H   UNL     1     131.780 124.221 143.236  1.00  0.00     0.211 HD
ENDBRANCH   4  11
TORSDOF 2
ENDMDL
MODEL 6
REMARK VINA RESULT:    -4.978      1.472      1.818
REMARK INTER + INTRA:          -5.616
REMARK INTER:                  -5.418
REMARK INTRA:                  -0.198
REMARK UNBOUND:                -0.202
REMARK SMILES CC(C)(C)[C@@H]1C=C[C@H](O)CC1
REMARK SMILES IDX 5 1 11 2 10 3 8 4 7 5 6 6 2 7 1 8 3 9 4 10 9 11
REMARK H PARENT 9 12
REMARK Flexibility Score: inf
ROOT
ATOM      1  C   UNL     1     135.748 124.124 140.606  1.00  0.00     0.017 C 
ATOM      2  C   UNL     1     134.821 122.871 140.690  1.00  0.00     0.011 C 
ATOM      3  C   UNL     1     133.827 122.881 141.883  1.00  0.00     0.037 C 
ATOM      4  C   UNL     1     133.796 124.219 142.647  1.00  0.00     0.137 C 
ATOM      5  C   UNL     1     135.203 124.641 142.960  1.00  0.00     0.000 C 
ATOM      6  C   UNL     1     136.138 124.577 142.004  1.00  0.00    -0.025 C 
ENDROOT
BRANCH   1   7
ATOM      7  C   UNL     1     136.974 123.962 139.629  1.00  0.00    -0.032 C 
ATOM      8  C   UNL     1     136.663 122.893 138.556  1.00  0.00     0.011 C 
ATOM      9  C   UNL     1     137.232 125.297 138.890  1.00  0.00     0.011 C 
ATOM     10  C   UNL     1     138.268 123.549 140.372  1.00  0.00     0.011 C 
ENDBRANCH   1   7
BRANCH   4  11
ATOM     11  O   UNL     1     133.070 124.083 143.839  1.00  0.00    -0.389 OA
ATOM     12  H   UNL     1     132.881 125.002 144.164  1.00  0.00     0.211 HD
ENDBRANCH   4  11
TORSDOF 2
ENDMDL
MODEL 7
REMARK VINA RESULT:    -4.203      2.302      3.166
REMARK INTER + INTRA:          -4.774
REMARK INTER:                  -4.568
REMARK INTRA:                  -0.205
REMARK UNBOUND:                -0.202
REMARK SMILES CC(C)(C)[C@@H]1C=C[C@H](O)CC1
REMARK SMILES IDX 5 1 11 2 10 3 8 4 7 5 6 6 2 7 1 8 3 9 4 10 9 11
REMARK H PARENT 9 12
REMARK Flexibility Score: inf
ROOT
ATOM      1  C   UNL     1     137.172 124.146 139.754  1.00  0.00     0.017 C 
ATOM      2  C   UNL     1     136.875 123.777 141.241  1.00  0.00     0.011 C 
ATOM      3  C   UNL     1     138.131 123.698 142.151  1.00  0.00     0.037 C 
ATOM      4  C   UNL     1     139.418 124.196 141.467  1.00  0.00     0.137 C 
ATOM      5  C   UNL     1     139.543 123.550 140.116  1.00  0.00     0.000 C 
ATOM      6  C   UNL     1     138.476 123.502 139.310  1.00  0.00    -0.025 C 
ENDROOT
BRANCH   1   7
ATOM      7  C   UNL     1     135.971 123.887 138.767  1.00  0.00    -0.032 C 
ATOM      8  C   UNL     1     136.479 123.849 137.307  1.00  0.00     0.011 C 
ATOM      9  C   UNL     1     135.335 122.509 139.071  1.00  0.00     0.011 C 
ATOM     10  C   UNL     1     134.874 124.974 138.877  1.00  0.00     0.011 C 
ENDBRANCH   1   7
BRANCH   4  11
ATOM     11  O   UNL     1     140.540 123.876 142.246  1.00  0.00    -0.389 OA
ATOM     12  H   UNL     1     140.990 124.734 142.463  1.00  0.00     0.211 HD
ENDBRANCH   4  11
TORSDOF 2
ENDMDL
MODEL 8
REMARK VINA RESULT:    -3.803      2.191      3.487
REMARK INTER + INTRA:          -4.338
REMARK INTER:                  -4.136
REMARK INTRA:                  -0.202
REMARK UNBOUND:                -0.202
REMARK SMILES CC(C)(C)[C@@H]1C=C[C@H](O)CC1
REMARK SMILES IDX 5 1 11 2 10 3 8 4 7 5 6 6 2 7 1 8 3 9 4 10 9 11
REMARK H PARENT 9 12
REMARK Flexibility Score: inf
ROOT
ATOM      1  C   UNL     1     136.710 123.238 140.145  1.00  0.00     0.017 C 
ATOM      2  C   UNL     1     137.764 123.892 139.198  1.00  0.00     0.011 C 
ATOM      3  C   UNL     1     139.172 124.076 139.827  1.00  0.00     0.037 C 
ATOM      4  C   UNL     1     139.327 123.395 141.200  1.00  0.00     0.137 C 
ATOM      5  C   UNL     1     138.163 123.771 142.072  1.00  0.00     0.000 C 
ATOM      6  C   UNL     1     136.923 123.721 141.571  1.00  0.00    -0.025 C 
ENDROOT
BRANCH   1   7
ATOM      7  C   UNL     1     135.220 123.369 139.649  1.00  0.00    -0.032 C 
ATOM      8  C   UNL     1     134.988 124.763 139.021  1.00  0.00     0.011 C 
ATOM      9  C   UNL     1     134.942 122.315 138.550  1.00  0.00     0.011 C 
ATOM     10  C   UNL     1     134.198 123.170 140.795  1.00  0.00     0.011 C 
ENDBRANCH   1   7
BRANCH   4  11
ATOM     11  O   UNL     1     140.522 123.798 141.812  1.00  0.00    -0.389 OA
ATOM     12  H   UNL     1     140.387 123.702 142.791  1.00  0.00     0.211 HD
ENDBRANCH   4  11
TORSDOF 2
ENDMDL
MODEL 9
REMARK VINA RESULT:    -3.299      2.590      4.177
REMARK INTER + INTRA:          -3.790
REMARK INTER:                  -3.589
REMARK INTRA:                  -0.201
REMARK UNBOUND:                -0.202
REMARK SMILES CC(C)(C)[C@@H]1C=C[C@H](O)CC1
REMARK SMILES IDX 5 1 11 2 10 3 8 4 7 5 6 6 2 7 1 8 3 9 4 10 9 11
REMARK H PARENT 9 12
REMARK Flexibility Score: inf
ROOT
ATOM      1  C   UNL     1     136.980 123.652 140.434  1.00  0.00     0.017 C 
ATOM      2  C   UNL     1     135.717 124.291 141.091  1.00  0.00     0.011 C 
ATOM      3  C   UNL     1     134.666 124.829 140.081  1.00  0.00     0.037 C 
ATOM      4  C   UNL     1     134.969 124.451 138.618  1.00  0.00     0.137 C 
ATOM      5  C   UNL     1     136.403 124.775 138.310  1.00  0.00     0.000 C 
ATOM      6  C   UNL     1     137.358 124.420 139.178  1.00  0.00    -0.025 C 
ENDROOT
BRANCH   1   7
ATOM      7  C   UNL     1     138.185 123.429 141.425  1.00  0.00    -0.032 C 
ATOM      8  C   UNL     1     137.805 123.914 142.844  1.00  0.00     0.011 C 
ATOM      9  C   UNL     1     138.506 121.918 141.524  1.00  0.00     0.011 C 
ATOM     10  C   UNL     1     139.463 124.178 140.977  1.00  0.00     0.011 C 
ENDBRANCH   1   7
BRANCH   4  11
ATOM     11  O   UNL     1     134.130 125.161 137.747  1.00  0.00    -0.389 OA
ATOM     12  H   UNL     1     134.555 125.128 136.851  1.00  0.00     0.211 HD
ENDBRANCH   4  11
TORSDOF 2
ENDMDL
