MODEL 1
REMARK VINA RESULT:    -7.508      0.000      0.000
REMARK INTER + INTRA:          -7.508
REMARK INTER:                  -7.508
REMARK INTRA:                   0.000
REMARK UNBOUND:                 0.000
REMARK SMILES C[C@H]1C(=O)CC[C@H]2[C@]3(C)CC[C@]4(C)[C@H]5CC(C)(C)CC[C@@]5(C)CC[C@@]4(C)[C@@H]3CC[C@@]21C
REMARK SMILES IDX 1 1 2 2 3 3 4 4 5 5 6 6 7 7 30 8 29 9 28 10 27 11 8 12 10 13
REMARK SMILES IDX 11 14 12 15 25 16 24 17 23 18 21 19 14 20 15 21 16 22 19 23
REMARK SMILES IDX 20 24 17 25 18 26 22 27 26 28 13 29 9 30 31 31
REMARK H PARENT
REMARK Flexibility Score: inf
ROOT
ATOM      1  C   UNL     1     107.572 109.779 118.637  1.00  0.00     0.016 C 
ATOM      2  C   UNL     1     109.004 109.693 118.087  1.00  0.00     0.059 C 
ATOM      3  C   UNL     1     109.074 108.968 116.748  1.00  0.00     0.136 C 
ATOM      4  O   UNL     1     108.053 108.563 116.199  1.00  0.00    -0.299 OA
ATOM      5  C   UNL     1     110.403 108.798 116.052  1.00  0.00     0.076 C 
ATOM      6  C   UNL     1     111.270 110.078 116.098  1.00  0.00     0.012 C 
ATOM      7  C   UNL     1     111.236 110.696 117.525  1.00  0.00     0.002 C 
ATOM      8  C   UNL     1     109.755 111.073 117.935  1.00  0.00    -0.020 C 
ATOM      9  C   UNL     1     109.756 111.917 119.241  1.00  0.00     0.008 C 
ATOM     10  C   UNL     1     110.940 111.608 120.146  1.00  0.00     0.005 C 
ATOM     11  C   UNL     1     112.312 111.983 119.490  1.00  0.00     0.002 C 
ATOM     12  C   UNL     1     112.369 111.731 117.919  1.00  0.00    -0.026 C 
ATOM     13  C   UNL     1     113.758 111.173 117.450  1.00  0.00     0.008 C 
ATOM     14  C   UNL     1     115.035 111.646 118.183  1.00  0.00     0.008 C 
ATOM     15  C   UNL     1     114.911 112.032 119.705  1.00  0.00    -0.024 C 
ATOM     16  C   UNL     1     113.565 111.428 120.299  1.00  0.00    -0.024 C 
ATOM     17  C   UNL     1     113.447 111.879 121.785  1.00  0.00     0.008 C 
ATOM     18  C   UNL     1     114.593 111.423 122.693  1.00  0.00     0.007 C 
ATOM     19  C   UNL     1     116.053 111.484 122.111  1.00  0.00    -0.029 C 
ATOM     20  C   UNL     1     116.143 111.454 120.532  1.00  0.00     0.002 C 
ATOM     21  C   UNL     1     117.567 111.824 119.976  1.00  0.00     0.011 C 
ATOM     22  C   UNL     1     118.520 112.783 120.789  1.00  0.00    -0.035 C 
ATOM     23  C   UNL     1     118.246 112.796 122.318  1.00  0.00     0.007 C 
ATOM     24  C   UNL     1     116.756 112.749 122.668  1.00  0.00     0.007 C 
ATOM     25  C   UNL     1     119.974 112.291 120.565  1.00  0.00     0.011 C 
ATOM     26  C   UNL     1     118.452 114.229 120.245  1.00  0.00     0.011 C 
ATOM     27  C   UNL     1     116.779 110.217 122.671  1.00  0.00     0.011 C 
ATOM     28  C   UNL     1     113.586 109.852 120.261  1.00  0.00     0.012 C 
ATOM     29  C   UNL     1     114.949 113.592 119.756  1.00  0.00     0.012 C 
ATOM     30  C   UNL     1     112.156 113.071 117.162  1.00  0.00     0.012 C 
ATOM     31  C   UNL     1     109.008 111.934 116.853  1.00  0.00     0.012 C 
ENDROOT
TORSDOF 0
ENDMDL
MODEL 2
REMARK VINA RESULT:    -7.461      8.536     10.459
REMARK INTER + INTRA:          -7.461
REMARK INTER:                  -7.461
REMARK INTRA:                   0.000
REMARK UNBOUND:                 0.000
REMARK SMILES C[C@H]1C(=O)CC[C@H]2[C@]3(C)CC[C@]4(C)[C@H]5CC(C)(C)CC[C@@]5(C)CC[C@@]4(C)[C@@H]3CC[C@@]21C
REMARK SMILES IDX 1 1 2 2 3 3 4 4 5 5 6 6 7 7 30 8 29 9 28 10 27 11 8 12 10 13
REMARK SMILES IDX 11 14 12 15 25 16 24 17 23 18 21 19 14 20 15 21 16 22 19 23
REMARK SMILES IDX 20 24 17 25 18 26 22 27 26 28 13 29 9 30 31 31
REMARK H PARENT
REMARK Flexibility Score: inf
ROOT
ATOM      1  C   UNL     1     101.326 113.749 115.996  1.00  0.00     0.016 C 
ATOM      2  C   UNL     1     101.718 112.644 115.004  1.00  0.00     0.059 C 
ATOM      3  C   UNL     1     100.791 112.585 113.796  1.00  0.00     0.136 C 
ATOM      4  O   UNL     1      99.875 113.395 113.667  1.00  0.00    -0.299 OA
ATOM      5  C   UNL     1     101.031 111.565 112.710  1.00  0.00     0.076 C 
ATOM      6  C   UNL     1     102.525 111.429 112.337  1.00  0.00     0.012 C 
ATOM      7  C   UNL     1     103.396 111.384 113.625  1.00  0.00     0.002 C 
ATOM      8  C   UNL     1     103.205 112.705 114.475  1.00  0.00    -0.020 C 
ATOM      9  C   UNL     1     104.258 112.768 115.616  1.00  0.00     0.008 C 
ATOM     10  C   UNL     1     104.702 111.392 116.092  1.00  0.00     0.005 C 
ATOM     11  C   UNL     1     105.447 110.582 114.976  1.00  0.00     0.002 C 
ATOM     12  C   UNL     1     104.871 110.819 113.511  1.00  0.00    -0.026 C 
ATOM     13  C   UNL     1     104.852 109.505 112.654  1.00  0.00     0.008 C 
ATOM     14  C   UNL     1     105.978 108.465 112.862  1.00  0.00     0.008 C 
ATOM     15  C   UNL     1     106.630 108.361 114.291  1.00  0.00    -0.024 C 
ATOM     16  C   UNL     1     105.681 109.056 115.362  1.00  0.00    -0.024 C 
ATOM     17  C   UNL     1     106.385 108.988 116.749  1.00  0.00     0.008 C 
ATOM     18  C   UNL     1     106.685 107.572 117.254  1.00  0.00     0.007 C 
ATOM     19  C   UNL     1     107.209 106.522 116.208  1.00  0.00    -0.029 C 
ATOM     20  C   UNL     1     106.841 106.838 114.702  1.00  0.00     0.002 C 
ATOM     21  C   UNL     1     107.627 105.956 113.664  1.00  0.00     0.011 C 
ATOM     22  C   UNL     1     109.061 105.399 114.010  1.00  0.00    -0.035 C 
ATOM     23  C   UNL     1     109.327 105.243 115.532  1.00  0.00     0.007 C 
ATOM     24  C   UNL     1     108.746 106.385 116.369  1.00  0.00     0.007 C 
ATOM     25  C   UNL     1     109.186 103.999 113.354  1.00  0.00     0.011 C 
ATOM     26  C   UNL     1     110.168 106.281 113.385  1.00  0.00     0.011 C 
ATOM     27  C   UNL     1     106.539 105.166 116.607  1.00  0.00     0.011 C 
ATOM     28  C   UNL     1     104.301 108.301 115.469  1.00  0.00     0.012 C 
ATOM     29  C   UNL     1     108.025 109.055 114.177  1.00  0.00     0.012 C 
ATOM     30  C   UNL     1     105.773 111.828 112.747  1.00  0.00     0.012 C 
ATOM     31  C   UNL     1     103.385 114.020 113.634  1.00  0.00     0.012 C 
ENDROOT
TORSDOF 0
ENDMDL
MODEL 3
REMARK VINA RESULT:    -7.457      3.029      9.343
REMARK INTER + INTRA:          -7.457
REMARK INTER:                  -7.457
REMARK INTRA:                   0.000
REMARK UNBOUND:                 0.000
REMARK SMILES C[C@H]1C(=O)CC[C@H]2[C@]3(C)CC[C@]4(C)[C@H]5CC(C)(C)CC[C@@]5(C)CC[C@@]4(C)[C@@H]3CC[C@@]21C
REMARK SMILES IDX 1 1 2 2 3 3 4 4 5 5 6 6 7 7 30 8 29 9 28 10 27 11 8 12 10 13
REMARK SMILES IDX 11 14 12 15 25 16 24 17 23 18 21 19 14 20 15 21 16 22 19 23
REMARK SMILES IDX 20 24 17 25 18 26 22 27 26 28 13 29 9 30 31 31
REMARK H PARENT
REMARK Flexibility Score: inf
ROOT
ATOM      1  C   UNL     1     114.815 109.949 120.043  1.00  0.00     0.016 C 
ATOM      2  C   UNL     1     113.355 110.365 120.279  1.00  0.00     0.059 C 
ATOM      3  C   UNL     1     113.191 111.257 121.504  1.00  0.00     0.136 C 
ATOM      4  O   UNL     1     114.169 111.607 122.161  1.00  0.00    -0.299 OA
ATOM      5  C   UNL     1     111.824 111.772 121.884  1.00  0.00     0.076 C 
ATOM      6  C   UNL     1     111.009 112.258 120.664  1.00  0.00     0.012 C 
ATOM      7  C   UNL     1     111.136 111.240 119.495  1.00  0.00     0.002 C 
ATOM      8  C   UNL     1     112.649 111.077 119.059  1.00  0.00    -0.020 C 
ATOM      9  C   UNL     1     112.744 110.264 117.737  1.00  0.00     0.008 C 
ATOM     10  C   UNL     1     111.597 109.280 117.562  1.00  0.00     0.005 C 
ATOM     11  C   UNL     1     110.207 109.993 117.431  1.00  0.00     0.002 C 
ATOM     12  C   UNL     1     110.063 111.299 118.331  1.00  0.00    -0.026 C 
ATOM     13  C   UNL     1     108.633 111.439 118.959  1.00  0.00     0.008 C 
ATOM     14  C   UNL     1     107.413 110.945 118.148  1.00  0.00     0.008 C 
ATOM     15  C   UNL     1     107.627 109.744 117.153  1.00  0.00    -0.024 C 
ATOM     16  C   UNL     1     108.978 108.987 117.515  1.00  0.00    -0.024 C 
ATOM     17  C   UNL     1     109.186 107.846 116.476  1.00  0.00     0.008 C 
ATOM     18  C   UNL     1     108.071 106.797 116.433  1.00  0.00     0.007 C 
ATOM     19  C   UNL     1     106.587 107.305 116.549  1.00  0.00    -0.029 C 
ATOM     20  C   UNL     1     106.417 108.713 117.250  1.00  0.00     0.002 C 
ATOM     21  C   UNL     1     104.981 109.332 117.078  1.00  0.00     0.011 C 
ATOM     22  C   UNL     1     104.106 108.986 115.812  1.00  0.00    -0.035 C 
ATOM     23  C   UNL     1     104.456 107.621 115.158  1.00  0.00     0.007 C 
ATOM     24  C   UNL     1     105.959 107.329 115.131  1.00  0.00     0.007 C 
ATOM     25  C   UNL     1     102.626 108.932 116.273  1.00  0.00     0.011 C 
ATOM     26  C   UNL     1     104.200 110.103 114.747  1.00  0.00     0.011 C 
ATOM     27  C   UNL     1     105.844 106.232 117.410  1.00  0.00     0.011 C 
ATOM     28  C   UNL     1     108.897 108.340 118.950  1.00  0.00     0.012 C 
ATOM     29  C   UNL     1     107.648 110.372 115.722  1.00  0.00     0.012 C 
ATOM     30  C   UNL     1     110.287 112.566 117.461  1.00  0.00     0.012 C 
ATOM     31  C   UNL     1     113.371 112.446 118.789  1.00  0.00     0.012 C 
ENDROOT
TORSDOF 0
ENDMDL
MODEL 4
REMARK VINA RESULT:    -7.179      2.606      8.101
REMARK INTER + INTRA:          -7.179
REMARK INTER:                  -7.179
REMARK INTRA:                   0.000
REMARK UNBOUND:                 0.000
REMARK SMILES C[C@H]1C(=O)CC[C@H]2[C@]3(C)CC[C@]4(C)[C@H]5CC(C)(C)CC[C@@]5(C)CC[C@@]4(C)[C@@H]3CC[C@@]21C
REMARK SMILES IDX 1 1 2 2 3 3 4 4 5 5 6 6 7 7 30 8 29 9 28 10 27 11 8 12 10 13
REMARK SMILES IDX 11 14 12 15 25 16 24 17 23 18 21 19 14 20 15 21 16 22 19 23
REMARK SMILES IDX 20 24 17 25 18 26 22 27 26 28 13 29 9 30 31 31
REMARK H PARENT
REMARK Flexibility Score: inf
ROOT
ATOM      1  C   UNL     1     119.076 111.814 120.192  1.00  0.00     0.016 C 
ATOM      2  C   UNL     1     117.754 111.198 120.674  1.00  0.00     0.059 C 
ATOM      3  C   UNL     1     117.886 110.514 122.029  1.00  0.00     0.136 C 
ATOM      4  O   UNL     1     118.952 110.531 122.640  1.00  0.00    -0.299 OA
ATOM      5  C   UNL     1     116.683 109.861 122.665  1.00  0.00     0.076 C 
ATOM      6  C   UNL     1     115.402 110.717 122.538  1.00  0.00     0.012 C 
ATOM      7  C   UNL     1     115.280 111.288 121.096  1.00  0.00     0.002 C 
ATOM      8  C   UNL     1     116.530 112.194 120.747  1.00  0.00    -0.020 C 
ATOM      9  C   UNL     1     116.285 112.961 119.417  1.00  0.00     0.008 C 
ATOM     10  C   UNL     1     115.359 112.218 118.465  1.00  0.00     0.005 C 
ATOM     11  C   UNL     1     113.911 112.053 119.042  1.00  0.00     0.002 C 
ATOM     12  C   UNL     1     113.865 111.814 120.615  1.00  0.00    -0.026 C 
ATOM     13  C   UNL     1     112.765 110.776 121.032  1.00  0.00     0.008 C 
ATOM     14  C   UNL     1     111.448 110.724 120.224  1.00  0.00     0.008 C 
ATOM     15  C   UNL     1     111.503 111.113 118.699  1.00  0.00    -0.024 C 
ATOM     16  C   UNL     1     113.009 111.057 118.190  1.00  0.00    -0.024 C 
ATOM     17  C   UNL     1     113.032 111.505 116.698  1.00  0.00     0.008 C 
ATOM     18  C   UNL     1     112.196 110.640 115.750  1.00  0.00     0.007 C 
ATOM     19  C   UNL     1     110.790 110.150 116.258  1.00  0.00    -0.029 C 
ATOM     20  C   UNL     1     110.629 110.104 117.831  1.00  0.00     0.002 C 
ATOM     21  C   UNL     1     109.141 109.913 118.305  1.00  0.00     0.011 C 
ATOM     22  C   UNL     1     107.945 110.432 117.418  1.00  0.00    -0.035 C 
ATOM     23  C   UNL     1     108.280 110.532 115.905  1.00  0.00     0.007 C 
ATOM     24  C   UNL     1     109.694 111.049 115.629  1.00  0.00     0.007 C 
ATOM     25  C   UNL     1     106.774 109.429 117.586  1.00  0.00     0.011 C 
ATOM     26  C   UNL     1     107.431 111.802 117.921  1.00  0.00     0.011 C 
ATOM     27  C   UNL     1     110.629 108.697 115.703  1.00  0.00     0.011 C 
ATOM     28  C   UNL     1     113.581 109.590 118.275  1.00  0.00     0.012 C 
ATOM     29  C   UNL     1     110.882 112.542 118.599  1.00  0.00     0.012 C 
ATOM     30  C   UNL     1     113.514 113.142 121.340  1.00  0.00     0.012 C 
ATOM     31  C   UNL     1     116.834 113.284 121.837  1.00  0.00     0.012 C 
ENDROOT
TORSDOF 0
ENDMDL
MODEL 5
REMARK VINA RESULT:    -7.145      1.672      3.212
REMARK INTER + INTRA:          -7.145
REMARK INTER:                  -7.145
REMARK INTRA:                   0.000
REMARK UNBOUND:                 0.000
REMARK SMILES C[C@H]1C(=O)CC[C@H]2[C@]3(C)CC[C@]4(C)[C@H]5CC(C)(C)CC[C@@]5(C)CC[C@@]4(C)[C@@H]3CC[C@@]21C
REMARK SMILES IDX 1 1 2 2 3 3 4 4 5 5 6 6 7 7 30 8 29 9 28 10 27 11 8 12 10 13
REMARK SMILES IDX 11 14 12 15 25 16 24 17 23 18 21 19 14 20 15 21 16 22 19 23
REMARK SMILES IDX 20 24 17 25 18 26 22 27 26 28 13 29 9 30 31 31
REMARK H PARENT
REMARK Flexibility Score: inf
ROOT
ATOM      1  C   UNL     1     105.123 108.493 117.505  1.00  0.00     0.016 C 
ATOM      2  C   UNL     1     106.627 108.227 117.347  1.00  0.00     0.059 C 
ATOM      3  C   UNL     1     106.917 106.925 116.610  1.00  0.00     0.136 C 
ATOM      4  O   UNL     1     106.000 106.233 116.173  1.00  0.00    -0.299 OA
ATOM      5  C   UNL     1     108.344 106.505 116.353  1.00  0.00     0.076 C 
ATOM      6  C   UNL     1     109.238 107.678 115.890  1.00  0.00     0.012 C 
ATOM      7  C   UNL     1     108.963 108.937 116.762  1.00  0.00     0.002 C 
ATOM      8  C   UNL     1     107.448 109.378 116.644  1.00  0.00    -0.020 C 
ATOM      9  C   UNL     1     107.240 110.770 117.305  1.00  0.00     0.008 C 
ATOM     10  C   UNL     1     108.220 111.043 118.437  1.00  0.00     0.005 C 
ATOM     11  C   UNL     1     109.705 111.113 117.941  1.00  0.00     0.002 C 
ATOM     12  C   UNL     1     110.043 110.096 116.764  1.00  0.00    -0.026 C 
ATOM     13  C   UNL     1     111.472 109.464 116.910  1.00  0.00     0.008 C 
ATOM     14  C   UNL     1     112.607 110.325 117.511  1.00  0.00     0.008 C 
ATOM     15  C   UNL     1     112.217 111.427 118.565  1.00  0.00    -0.024 C 
ATOM     16  C   UNL     1     110.761 111.131 119.131  1.00  0.00    -0.024 C 
ATOM     17  C   UNL     1     110.386 112.271 120.123  1.00  0.00     0.008 C 
ATOM     18  C   UNL     1     111.323 112.417 121.326  1.00  0.00     0.007 C 
ATOM     19  C   UNL     1     112.867 112.262 121.070  1.00  0.00    -0.029 C 
ATOM     20  C   UNL     1     113.249 111.433 119.778  1.00  0.00     0.002 C 
ATOM     21  C   UNL     1     114.766 111.554 119.379  1.00  0.00     0.011 C 
ATOM     22  C   UNL     1     115.588 112.851 119.739  1.00  0.00    -0.035 C 
ATOM     23  C   UNL     1     115.034 113.628 120.965  1.00  0.00     0.007 C 
ATOM     24  C   UNL     1     113.505 113.675 121.013  1.00  0.00     0.007 C 
ATOM     25  C   UNL     1     117.037 112.405 120.067  1.00  0.00     0.011 C 
ATOM     26  C   UNL     1     115.681 113.806 118.527  1.00  0.00     0.011 C 
ATOM     27  C   UNL     1     113.424 111.509 122.323  1.00  0.00     0.011 C 
ATOM     28  C   UNL     1     110.725 109.762 119.914  1.00  0.00     0.012 C 
ATOM     29  C   UNL     1     112.309 112.792 117.812  1.00  0.00     0.012 C 
ATOM     30  C   UNL     1     110.030 110.843 115.402  1.00  0.00     0.012 C 
ATOM     31  C   UNL     1     106.952 109.515 115.159  1.00  0.00     0.012 C 
ENDROOT
TORSDOF 0
ENDMDL
MODEL 6
REMARK VINA RESULT:    -6.972      1.904      3.663
REMARK INTER + INTRA:          -6.972
REMARK INTER:                  -6.972
REMARK INTRA:                   0.000
REMARK UNBOUND:                 0.000
REMARK SMILES C[C@H]1C(=O)CC[C@H]2[C@]3(C)CC[C@]4(C)[C@H]5CC(C)(C)CC[C@@]5(C)CC[C@@]4(C)[C@@H]3CC[C@@]21C
REMARK SMILES IDX 1 1 2 2 3 3 4 4 5 5 6 6 7 7 30 8 29 9 28 10 27 11 8 12 10 13
REMARK SMILES IDX 11 14 12 15 25 16 24 17 23 18 21 19 14 20 15 21 16 22 19 23
REMARK SMILES IDX 20 24 17 25 18 26 22 27 26 28 13 29 9 30 31 31
REMARK H PARENT
REMARK Flexibility Score: inf
ROOT
ATOM      1  C   UNL     1     104.457 110.016 116.380  1.00  0.00     0.016 C 
ATOM      2  C   UNL     1     105.870 109.420 116.455  1.00  0.00     0.059 C 
ATOM      3  C   UNL     1     105.967 108.057 115.779  1.00  0.00     0.136 C 
ATOM      4  O   UNL     1     104.993 107.566 115.213  1.00  0.00    -0.299 OA
ATOM      5  C   UNL     1     107.286 107.323 115.746  1.00  0.00     0.076 C 
ATOM      6  C   UNL     1     108.477 108.252 115.417  1.00  0.00     0.012 C 
ATOM      7  C   UNL     1     108.366 109.574 116.229  1.00  0.00     0.002 C 
ATOM      8  C   UNL     1     107.022 110.333 115.879  1.00  0.00    -0.020 C 
ATOM      9  C   UNL     1     107.035 111.761 116.491  1.00  0.00     0.008 C 
ATOM     10  C   UNL     1     107.874 111.858 117.757  1.00  0.00     0.005 C 
ATOM     11  C   UNL     1     109.393 111.579 117.494  1.00  0.00     0.002 C 
ATOM     12  C   UNL     1     109.665 110.466 116.389  1.00  0.00    -0.026 C 
ATOM     13  C   UNL     1     110.879 109.542 116.755  1.00  0.00     0.008 C 
ATOM     14  C   UNL     1     112.077 110.155 117.517  1.00  0.00     0.008 C 
ATOM     15  C   UNL     1     111.792 111.358 118.492  1.00  0.00    -0.024 C 
ATOM     16  C   UNL     1     110.239 111.412 118.831  1.00  0.00    -0.024 C 
ATOM     17  C   UNL     1     109.986 112.646 119.747  1.00  0.00     0.008 C 
ATOM     18  C   UNL     1     110.745 112.630 121.078  1.00  0.00     0.007 C 
ATOM     19  C   UNL     1     112.236 112.129 121.062  1.00  0.00    -0.029 C 
ATOM     20  C   UNL     1     112.609 111.185 119.848  1.00  0.00     0.002 C 
ATOM     21  C   UNL     1     114.156 110.953 119.685  1.00  0.00     0.011 C 
ATOM     22  C   UNL     1     115.185 112.051 120.158  1.00  0.00    -0.035 C 
ATOM     23  C   UNL     1     114.645 112.980 121.280  1.00  0.00     0.007 C 
ATOM     24  C   UNL     1     113.174 113.363 121.093  1.00  0.00     0.007 C 
ATOM     25  C   UNL     1     116.433 111.311 120.706  1.00  0.00     0.011 C 
ATOM     26  C   UNL     1     115.667 112.913 118.968  1.00  0.00     0.011 C 
ATOM     27  C   UNL     1     112.419 111.323 122.389  1.00  0.00     0.011 C 
ATOM     28  C   UNL     1     109.784 110.117 119.608  1.00  0.00     0.012 C 
ATOM     29  C   UNL     1     112.296 112.638 117.753  1.00  0.00     0.012 C 
ATOM     30  C   UNL     1     110.020 111.142 115.036  1.00  0.00     0.012 C 
ATOM     31  C   UNL     1     106.793 110.515 114.335  1.00  0.00     0.012 C 
ENDROOT
TORSDOF 0
ENDMDL
MODEL 7
REMARK VINA RESULT:    -6.901      2.675      8.086
REMARK INTER + INTRA:          -6.901
REMARK INTER:                  -6.901
REMARK INTRA:                   0.000
REMARK UNBOUND:                 0.000
REMARK SMILES C[C@H]1C(=O)CC[C@H]2[C@]3(C)CC[C@]4(C)[C@H]5CC(C)(C)CC[C@@]5(C)CC[C@@]4(C)[C@@H]3CC[C@@]21C
REMARK SMILES IDX 1 1 2 2 3 3 4 4 5 5 6 6 7 7 30 8 29 9 28 10 27 11 8 12 10 13
REMARK SMILES IDX 11 14 12 15 25 16 24 17 23 18 21 19 14 20 15 21 16 22 19 23
REMARK SMILES IDX 20 24 17 25 18 26 22 27 26 28 13 29 9 30 31 31
REMARK H PARENT
REMARK Flexibility Score: inf
ROOT
ATOM      1  C   UNL     1     115.598 110.938 123.039  1.00  0.00     0.016 C 
ATOM      2  C   UNL     1     115.211 111.807 121.833  1.00  0.00     0.059 C 
ATOM      3  C   UNL     1     116.166 112.976 121.623  1.00  0.00     0.136 C 
ATOM      4  O   UNL     1     117.148 113.122 122.347  1.00  0.00    -0.299 OA
ATOM      5  C   UNL     1     115.946 113.932 120.475  1.00  0.00     0.076 C 
ATOM      6  C   UNL     1     115.568 113.211 119.161  1.00  0.00     0.012 C 
ATOM      7  C   UNL     1     114.507 112.108 119.442  1.00  0.00     0.002 C 
ATOM      8  C   UNL     1     115.071 111.037 120.461  1.00  0.00    -0.020 C 
ATOM      9  C   UNL     1     114.116 109.814 120.540  1.00  0.00     0.008 C 
ATOM     10  C   UNL     1     112.666 110.172 120.250  1.00  0.00     0.005 C 
ATOM     11  C   UNL     1     112.455 110.683 118.784  1.00  0.00     0.002 C 
ATOM     12  C   UNL     1     113.664 111.553 118.221  1.00  0.00    -0.026 C 
ATOM     13  C   UNL     1     113.178 112.759 117.344  1.00  0.00     0.008 C 
ATOM     14  C   UNL     1     111.909 112.584 116.477  1.00  0.00     0.008 C 
ATOM     15  C   UNL     1     110.795 111.597 116.992  1.00  0.00    -0.024 C 
ATOM     16  C   UNL     1     111.013 111.310 118.541  1.00  0.00    -0.024 C 
ATOM     17  C   UNL     1     109.933 110.287 119.001  1.00  0.00     0.008 C 
ATOM     18  C   UNL     1     108.483 110.750 118.820  1.00  0.00     0.007 C 
ATOM     19  C   UNL     1     108.124 111.523 117.498  1.00  0.00    -0.029 C 
ATOM     20  C   UNL     1     109.348 112.227 116.784  1.00  0.00     0.002 C 
ATOM     21  C   UNL     1     109.025 112.722 115.326  1.00  0.00     0.011 C 
ATOM     22  C   UNL     1     107.937 111.986 114.453  1.00  0.00    -0.035 C 
ATOM     23  C   UNL     1     106.858 111.242 115.287  1.00  0.00     0.007 C 
ATOM     24  C   UNL     1     107.424 110.540 116.524  1.00  0.00     0.007 C 
ATOM     25  C   UNL     1     107.224 113.064 113.596  1.00  0.00     0.011 C 
ATOM     26  C   UNL     1     108.593 110.994 113.464  1.00  0.00     0.011 C 
ATOM     27  C   UNL     1     107.100 112.625 117.925  1.00  0.00     0.011 C 
ATOM     28  C   UNL     1     110.839 112.627 119.391  1.00  0.00     0.012 C 
ATOM     29  C   UNL     1     110.922 110.312 116.114  1.00  0.00     0.012 C 
ATOM     30  C   UNL     1     114.562 110.677 117.305  1.00  0.00     0.012 C 
ATOM     31  C   UNL     1     116.481 110.473 120.056  1.00  0.00     0.012 C 
ENDROOT
TORSDOF 0
ENDMDL
MODEL 8
REMARK VINA RESULT:    -6.889      2.683      8.506
REMARK INTER + INTRA:          -6.889
REMARK INTER:                  -6.889
REMARK INTRA:                   0.000
REMARK UNBOUND:                 0.000
REMARK SMILES C[C@H]1C(=O)CC[C@H]2[C@]3(C)CC[C@]4(C)[C@H]5CC(C)(C)CC[C@@]5(C)CC[C@@]4(C)[C@@H]3CC[C@@]21C
REMARK SMILES IDX 1 1 2 2 3 3 4 4 5 5 6 6 7 7 30 8 29 9 28 10 27 11 8 12 10 13
REMARK SMILES IDX 11 14 12 15 25 16 24 17 23 18 21 19 14 20 15 21 16 22 19 23
REMARK SMILES IDX 20 24 17 25 18 26 22 27 26 28 13 29 9 30 31 31
REMARK H PARENT
REMARK Flexibility Score: inf
ROOT
ATOM      1  C   UNL     1     116.660 111.832 119.970  1.00  0.00     0.016 C 
ATOM      2  C   UNL     1     115.335 111.071 120.125  1.00  0.00     0.059 C 
ATOM      3  C   UNL     1     115.358 110.084 121.286  1.00  0.00     0.136 C 
ATOM      4  O   UNL     1     116.346 109.990 122.010  1.00  0.00    -0.299 OA
ATOM      5  C   UNL     1     114.136 109.254 121.595  1.00  0.00     0.076 C 
ATOM      6  C   UNL     1     112.825 110.070 121.516  1.00  0.00     0.012 C 
ATOM      7  C   UNL     1     112.829 110.968 120.247  1.00  0.00     0.002 C 
ATOM      8  C   UNL     1     114.049 111.975 120.279  1.00  0.00    -0.020 C 
ATOM      9  C   UNL     1     113.905 113.032 119.149  1.00  0.00     0.008 C 
ATOM     10  C   UNL     1     113.141 112.510 117.941  1.00  0.00     0.005 C 
ATOM     11  C   UNL     1     111.651 112.158 118.279  1.00  0.00     0.002 C 
ATOM     12  C   UNL     1     111.445 111.544 119.733  1.00  0.00    -0.026 C 
ATOM     13  C   UNL     1     110.374 110.398 119.753  1.00  0.00     0.008 C 
ATOM     14  C   UNL     1     109.162 110.497 118.799  1.00  0.00     0.008 C 
ATOM     15  C   UNL     1     109.362 111.245 117.428  1.00  0.00    -0.024 C 
ATOM     16  C   UNL     1     110.915 111.368 117.110  1.00  0.00    -0.024 C 
ATOM     17  C   UNL     1     111.076 112.164 115.781  1.00  0.00     0.008 C 
ATOM     18  C   UNL     1     110.408 111.526 114.559  1.00  0.00     0.007 C 
ATOM     19  C   UNL     1     108.989 110.878 114.760  1.00  0.00    -0.029 C 
ATOM     20  C   UNL     1     108.657 110.447 116.245  1.00  0.00     0.002 C 
ATOM     21  C   UNL     1     107.140 110.093 116.472  1.00  0.00     0.011 C 
ATOM     22  C   UNL     1     106.020 110.769 115.592  1.00  0.00    -0.035 C 
ATOM     23  C   UNL     1     106.515 111.245 114.198  1.00  0.00     0.007 C 
ATOM     24  C   UNL     1     107.915 111.863 114.230  1.00  0.00     0.007 C 
ATOM     25  C   UNL     1     104.904 109.714 115.371  1.00  0.00     0.011 C 
ATOM     26  C   UNL     1     105.367 111.957 116.336  1.00  0.00     0.011 C 
ATOM     27  C   UNL     1     108.985 109.598 113.861  1.00  0.00     0.011 C 
ATOM     28  C   UNL     1     111.568 109.945 116.917  1.00  0.00     0.012 C 
ATOM     29  C   UNL     1     108.665 112.633 117.592  1.00  0.00     0.012 C 
ATOM     30  C   UNL     1     110.931 112.644 120.701  1.00  0.00     0.012 C 
ATOM     31  C   UNL     1     114.159 112.779 121.625  1.00  0.00     0.012 C 
ENDROOT
TORSDOF 0
ENDMDL
MODEL 9
REMARK VINA RESULT:    -6.875      7.609     10.525
REMARK INTER + INTRA:          -6.875
REMARK INTER:                  -6.875
REMARK INTRA:                   0.000
REMARK UNBOUND:                 0.000
REMARK SMILES C[C@H]1C(=O)CC[C@H]2[C@]3(C)CC[C@]4(C)[C@H]5CC(C)(C)CC[C@@]5(C)CC[C@@]4(C)[C@@H]3CC[C@@]21C
REMARK SMILES IDX 1 1 2 2 3 3 4 4 5 5 6 6 7 7 30 8 29 9 28 10 27 11 8 12 10 13
REMARK SMILES IDX 11 14 12 15 25 16 24 17 23 18 21 19 14 20 15 21 16 22 19 23
REMARK SMILES IDX 20 24 17 25 18 26 22 27 26 28 13 29 9 30 31 31
REMARK H PARENT
REMARK Flexibility Score: inf
ROOT
ATOM      1  C   UNL     1     100.173 113.236 114.060  1.00  0.00     0.016 C 
ATOM      2  C   UNL     1     101.651 113.105 113.664  1.00  0.00     0.059 C 
ATOM      3  C   UNL     1     102.139 114.282 112.828  1.00  0.00     0.136 C 
ATOM      4  O   UNL     1     101.394 115.224 112.574  1.00  0.00    -0.299 OA
ATOM      5  C   UNL     1     103.573 114.327 112.356  1.00  0.00     0.076 C 
ATOM      6  C   UNL     1     104.576 113.901 113.451  1.00  0.00     0.012 C 
ATOM      7  C   UNL     1     104.061 112.629 114.184  1.00  0.00     0.002 C 
ATOM      8  C   UNL     1     102.658 112.906 114.863  1.00  0.00    -0.020 C 
ATOM      9  C   UNL     1     102.271 111.727 115.799  1.00  0.00     0.008 C 
ATOM     10  C   UNL     1     102.861 110.397 115.354  1.00  0.00     0.005 C 
ATOM     11  C   UNL     1     104.427 110.385 115.410  1.00  0.00     0.002 C 
ATOM     12  C   UNL     1     105.099 111.774 115.020  1.00  0.00    -0.026 C 
ATOM     13  C   UNL     1     106.409 111.590 114.176  1.00  0.00     0.008 C 
ATOM     14  C   UNL     1     107.314 110.371 114.465  1.00  0.00     0.008 C 
ATOM     15  C   UNL     1     106.631 109.055 114.995  1.00  0.00    -0.024 C 
ATOM     16  C   UNL     1     105.068 109.112 114.704  1.00  0.00    -0.024 C 
ATOM     17  C   UNL     1     104.419 107.825 115.293  1.00  0.00     0.008 C 
ATOM     18  C   UNL     1     104.945 106.509 114.711  1.00  0.00     0.007 C 
ATOM     19  C   UNL     1     106.492 106.394 114.451  1.00  0.00    -0.029 C 
ATOM     20  C   UNL     1     107.242 107.775 114.271  1.00  0.00     0.002 C 
ATOM     21  C   UNL     1     108.810 107.650 114.321  1.00  0.00     0.011 C 
ATOM     22  C   UNL     1     109.495 106.497 115.152  1.00  0.00    -0.035 C 
ATOM     23  C   UNL     1     108.600 105.242 115.345  1.00  0.00     0.007 C 
ATOM     24  C   UNL     1     107.130 105.579 115.606  1.00  0.00     0.007 C 
ATOM     25  C   UNL     1     110.770 106.065 114.381  1.00  0.00     0.011 C 
ATOM     26  C   UNL     1     109.964 107.009 116.534  1.00  0.00     0.011 C 
ATOM     27  C   UNL     1     106.631 105.579 113.123  1.00  0.00     0.011 C 
ATOM     28  C   UNL     1     104.782 109.144 113.153  1.00  0.00     0.012 C 
ATOM     29  C   UNL     1     106.962 108.984 116.519  1.00  0.00     0.012 C 
ATOM     30  C   UNL     1     105.510 112.541 116.307  1.00  0.00     0.012 C 
ATOM     31  C   UNL     1     102.642 114.201 115.753  1.00  0.00     0.012 C 
ENDROOT
TORSDOF 0
ENDMDL
