MODEL 1
REMARK VINA RESULT:    -4.927      0.000      0.000
REMARK INTER + INTRA:          -7.740
REMARK INTER:                  -6.799
REMARK INTRA:                  -0.942
REMARK UNBOUND:                -0.942
REMARK SMILES CCCCc1cccc(O)c1CCCC
REMARK SMILES IDX 5 1 11 2 9 3 8 4 7 5 6 6 4 7 3 8 2 9 1 10 12 11 13 12 14 13
REMARK SMILES IDX 15 14 10 15
REMARK H PARENT 10 16
REMARK Flexibility Score: inf
ROOT
ATOM      1  C   UNL     1     -40.608  74.345 -11.059  1.00  0.00    -0.041 A 
ATOM      2  C   UNL     1     -39.484  74.187 -10.195  1.00  0.00    -0.003 A 
ATOM      3  C   UNL     1     -38.227  74.709 -10.607  1.00  0.00     0.119 A 
ATOM      4  C   UNL     1     -38.123  75.423 -11.803  1.00  0.00     0.046 A 
ATOM      5  C   UNL     1     -39.235  75.612 -12.616  1.00  0.00     0.004 A 
ATOM      6  C   UNL     1     -40.466  75.075 -12.251  1.00  0.00     0.004 A 
ENDROOT
BRANCH   1   7
ATOM      7  C   UNL     1     -41.982  73.798 -10.732  1.00  0.00     0.036 C 
BRANCH   7   8
ATOM      8  C   UNL     1     -42.341  72.634 -11.668  1.00  0.00     0.004 C 
BRANCH   8   9
ATOM      9  C   UNL     1     -43.484  72.982 -12.632  1.00  0.00    -0.003 C 
ATOM     10  C   UNL     1     -43.368  72.256 -13.972  1.00  0.00     0.004 C 
ENDBRANCH   8   9
ENDBRANCH   7   8
ENDBRANCH   1   7
BRANCH   2  11
ATOM     11  C   UNL     1     -39.607  73.444  -8.875  1.00  0.00     0.040 C 
BRANCH  11  12
ATOM     12  C   UNL     1     -38.881  72.095  -8.939  1.00  0.00     0.005 C 
BRANCH  12  13
ATOM     13  C   UNL     1     -39.751  71.034  -9.622  1.00  0.00    -0.003 C 
ATOM     14  C   UNL     1     -39.246  70.729 -11.029  1.00  0.00     0.004 C 
ENDBRANCH  12  13
ENDBRANCH  11  12
ENDBRANCH   2  11
BRANCH   3  15
ATOM     15  O   UNL     1     -37.057  74.535  -9.862  1.00  0.00    -0.508 OA
ATOM     16  H   UNL     1     -36.175  74.983 -10.075  1.00  0.00     0.293 HD
ENDBRANCH   3  15
TORSDOF 7
ENDMDL
MODEL 2
REMARK VINA RESULT:    -4.791      2.177      5.078
REMARK INTER + INTRA:          -7.553
REMARK INTER:                  -6.209
REMARK INTRA:                  -1.344
REMARK UNBOUND:                -0.942
REMARK SMILES CCCCc1cccc(O)c1CCCC
REMARK SMILES IDX 5 1 11 2 9 3 8 4 7 5 6 6 4 7 3 8 2 9 1 10 12 11 13 12 14 13
REMARK SMILES IDX 15 14 10 15
REMARK H PARENT 10 16
REMARK Flexibility Score: inf
ROOT
ATOM      1  C   UNL     1     -39.661  73.470  -9.734  1.00  0.00    -0.041 A 
ATOM      2  C   UNL     1     -40.944  73.180 -10.285  1.00  0.00    -0.003 A 
ATOM      3  C   UNL     1     -41.337  71.820 -10.423  1.00  0.00     0.119 A 
ATOM      4  C   UNL     1     -40.504  70.800  -9.958  1.00  0.00     0.046 A 
ATOM      5  C   UNL     1     -39.275  71.096  -9.379  1.00  0.00     0.004 A 
ATOM      6  C   UNL     1     -38.854  72.418  -9.271  1.00  0.00     0.004 A 
ENDROOT
BRANCH   1   7
ATOM      7  C   UNL     1     -39.133  74.881  -9.575  1.00  0.00     0.036 C 
BRANCH   7   8
ATOM      8  C   UNL     1     -37.860  75.082 -10.411  1.00  0.00     0.004 C 
BRANCH   8   9
ATOM      9  C   UNL     1     -38.159  75.290 -11.903  1.00  0.00    -0.003 C 
ATOM     10  C   UNL     1     -37.944  76.736 -12.352  1.00  0.00     0.004 C 
ENDBRANCH   8   9
ENDBRANCH   7   8
ENDBRANCH   1   7
BRANCH   2  11
ATOM     11  C   UNL     1     -41.868  74.292 -10.754  1.00  0.00     0.040 C 
BRANCH  11  12
ATOM     12  C   UNL     1     -41.743  74.502 -12.268  1.00  0.00     0.005 C 
BRANCH  12  13
ATOM     13  C   UNL     1     -42.005  75.965 -12.644  1.00  0.00    -0.003 C 
ATOM     14  C   UNL     1     -41.553  76.910 -11.534  1.00  0.00     0.004 C 
ENDBRANCH  12  13
ENDBRANCH  11  12
ENDBRANCH   2  11
BRANCH   3  15
ATOM     15  O   UNL     1     -42.542  71.439 -11.021  1.00  0.00    -0.508 OA
ATOM     16  H   UNL     1     -43.296  72.077 -11.238  1.00  0.00     0.293 HD
ENDBRANCH   3  15
TORSDOF 7
ENDMDL
MODEL 3
REMARK VINA RESULT:    -4.732      1.282      3.634
REMARK INTER + INTRA:          -7.472
REMARK INTER:                  -6.325
REMARK INTRA:                  -1.146
REMARK UNBOUND:                -0.942
REMARK SMILES CCCCc1cccc(O)c1CCCC
REMARK SMILES IDX 5 1 11 2 9 3 8 4 7 5 6 6 4 7 3 8 2 9 1 10 12 11 13 12 14 13
REMARK SMILES IDX 15 14 10 15
REMARK H PARENT 10 16
REMARK Flexibility Score: inf
ROOT
ATOM      1  C   UNL     1     -40.892  72.552 -10.354  1.00  0.00    -0.041 A 
ATOM      2  C   UNL     1     -39.644  73.241 -10.306  1.00  0.00    -0.003 A 
ATOM      3  C   UNL     1     -38.450  72.483 -10.154  1.00  0.00     0.119 A 
ATOM      4  C   UNL     1     -38.506  71.088 -10.125  1.00  0.00     0.046 A 
ATOM      5  C   UNL     1     -39.724  70.423 -10.219  1.00  0.00     0.004 A 
ATOM      6  C   UNL     1     -40.907  71.147 -10.329  1.00  0.00     0.004 A 
ENDROOT
BRANCH   1   7
ATOM      7  C   UNL     1     -42.222  73.265 -10.480  1.00  0.00     0.036 C 
BRANCH   7   8
ATOM      8  C   UNL     1     -42.773  73.140 -11.909  1.00  0.00     0.004 C 
BRANCH   8   9
ATOM      9  C   UNL     1     -43.110  74.502 -12.533  1.00  0.00    -0.003 C 
ATOM     10  C   UNL     1     -43.155  75.630 -11.501  1.00  0.00     0.004 C 
ENDBRANCH   8   9
ENDBRANCH   7   8
ENDBRANCH   1   7
BRANCH   2  11
ATOM     11  C   UNL     1     -39.581  74.757 -10.378  1.00  0.00     0.040 C 
BRANCH  11  12
ATOM     12  C   UNL     1     -39.431  75.229 -11.830  1.00  0.00     0.005 C 
BRANCH  12  13
ATOM     13  C   UNL     1     -38.075  75.908 -12.051  1.00  0.00    -0.003 C 
ATOM     14  C   UNL     1     -37.531  76.490 -10.750  1.00  0.00     0.004 C 
ENDBRANCH  12  13
ENDBRANCH  11  12
ENDBRANCH   2  11
BRANCH   3  15
ATOM     15  O   UNL     1     -37.191  73.076 -10.021  1.00  0.00    -0.508 OA
ATOM     16  H   UNL     1     -36.520  72.832  -9.305  1.00  0.00     0.293 HD
ENDBRANCH   3  15
TORSDOF 7
ENDMDL
MODEL 4
REMARK VINA RESULT:    -4.642      1.369      3.762
REMARK INTER + INTRA:          -7.348
REMARK INTER:                  -6.257
REMARK INTRA:                  -1.091
REMARK UNBOUND:                -0.942
REMARK SMILES CCCCc1cccc(O)c1CCCC
REMARK SMILES IDX 5 1 11 2 9 3 8 4 7 5 6 6 4 7 3 8 2 9 1 10 12 11 13 12 14 13
REMARK SMILES IDX 15 14 10 15
REMARK H PARENT 10 16
REMARK Flexibility Score: inf
ROOT
ATOM      1  C   UNL     1     -39.444  74.137  -9.916  1.00  0.00    -0.041 A 
ATOM      2  C   UNL     1     -40.148  74.664 -11.039  1.00  0.00    -0.003 A 
ATOM      3  C   UNL     1     -39.488  75.599 -11.882  1.00  0.00     0.119 A 
ATOM      4  C   UNL     1     -38.151  75.932 -11.647  1.00  0.00     0.046 A 
ATOM      5  C   UNL     1     -37.459  75.376 -10.577  1.00  0.00     0.004 A 
ATOM      6  C   UNL     1     -38.099  74.490  -9.716  1.00  0.00     0.004 A 
ENDROOT
BRANCH   1   7
ATOM      7  C   UNL     1     -40.066  73.162  -8.937  1.00  0.00     0.036 C 
BRANCH   7   8
ATOM      8  C   UNL     1     -39.252  71.861  -8.875  1.00  0.00     0.004 C 
BRANCH   8   9
ATOM      9  C   UNL     1     -39.750  70.804  -9.872  1.00  0.00    -0.003 C 
ATOM     10  C   UNL     1     -38.899  70.742 -11.140  1.00  0.00     0.004 C 
ENDBRANCH   8   9
ENDBRANCH   7   8
ENDBRANCH   1   7
BRANCH   2  11
ATOM     11  C   UNL     1     -41.589  74.270 -11.317  1.00  0.00     0.040 C 
BRANCH  11  12
ATOM     12  C   UNL     1     -41.652  73.052 -12.247  1.00  0.00     0.005 C 
BRANCH  12  13
ATOM     13  C   UNL     1     -43.102  72.612 -12.479  1.00  0.00    -0.003 C 
ATOM     14  C   UNL     1     -43.383  72.397 -13.963  1.00  0.00     0.004 C 
ENDBRANCH  12  13
ENDBRANCH  11  12
ENDBRANCH   2  11
BRANCH   3  15
ATOM     15  O   UNL     1     -40.122  76.225 -12.960  1.00  0.00    -0.508 OA
ATOM     16  H   UNL     1     -41.103  76.471 -12.977  1.00  0.00     0.293 HD
ENDBRANCH   3  15
TORSDOF 7
ENDMDL
MODEL 5
REMARK VINA RESULT:    -4.641     14.608     16.445
REMARK INTER + INTRA:          -7.346
REMARK INTER:                  -6.073
REMARK INTRA:                  -1.273
REMARK UNBOUND:                -0.942
REMARK SMILES CCCCc1cccc(O)c1CCCC
REMARK SMILES IDX 5 1 11 2 9 3 8 4 7 5 6 6 4 7 3 8 2 9 1 10 12 11 13 12 14 13
REMARK SMILES IDX 15 14 10 15
REMARK H PARENT 10 16
REMARK Flexibility Score: inf
ROOT
ATOM      1  C   UNL     1     -37.923  75.936 -25.269  1.00  0.00    -0.041 A 
ATOM      2  C   UNL     1     -38.317  75.067 -26.329  1.00  0.00    -0.003 A 
ATOM      3  C   UNL     1     -39.672  75.086 -26.761  1.00  0.00     0.119 A 
ATOM      4  C   UNL     1     -40.573  75.993 -26.198  1.00  0.00     0.046 A 
ATOM      5  C   UNL     1     -40.167  76.869 -25.197  1.00  0.00     0.004 A 
ATOM      6  C   UNL     1     -38.855  76.839 -24.733  1.00  0.00     0.004 A 
ENDROOT
BRANCH   1   7
ATOM      7  C   UNL     1     -36.514  75.970 -24.713  1.00  0.00     0.036 C 
BRANCH   7   8
ATOM      8  C   UNL     1     -35.639  76.949 -25.509  1.00  0.00     0.004 C 
BRANCH   8   9
ATOM      9  C   UNL     1     -34.252  76.374 -25.832  1.00  0.00    -0.003 C 
ATOM     10  C   UNL     1     -33.735  76.813 -27.203  1.00  0.00     0.004 C 
ENDBRANCH   8   9
ENDBRANCH   7   8
ENDBRANCH   1   7
BRANCH   2  11
ATOM     11  C   UNL     1     -37.326  74.108 -26.968  1.00  0.00     0.040 C 
BRANCH  11  12
ATOM     12  C   UNL     1     -36.772  74.688 -28.276  1.00  0.00     0.005 C 
BRANCH  12  13
ATOM     13  C   UNL     1     -35.541  73.904 -28.747  1.00  0.00    -0.003 C 
ATOM     14  C   UNL     1     -34.845  73.215 -27.578  1.00  0.00     0.004 C 
ENDBRANCH  12  13
ENDBRANCH  11  12
ENDBRANCH   2  11
BRANCH   3  15
ATOM     15  O   UNL     1     -40.165  74.218 -27.739  1.00  0.00    -0.508 OA
ATOM     16  H   UNL     1     -41.147  74.091 -27.944  1.00  0.00     0.293 HD
ENDBRANCH   3  15
TORSDOF 7
ENDMDL
MODEL 6
REMARK VINA RESULT:    -4.484      2.238      4.366
REMARK INTER + INTRA:          -7.130
REMARK INTER:                  -5.905
REMARK INTRA:                  -1.225
REMARK UNBOUND:                -0.942
REMARK SMILES CCCCc1cccc(O)c1CCCC
REMARK SMILES IDX 5 1 11 2 9 3 8 4 7 5 6 6 4 7 3 8 2 9 1 10 12 11 13 12 14 13
REMARK SMILES IDX 15 14 10 15
REMARK H PARENT 10 16
REMARK Flexibility Score: inf
ROOT
ATOM      1  C   UNL     1     -41.552  74.648 -11.695  1.00  0.00    -0.041 A 
ATOM      2  C   UNL     1     -41.955  73.307 -11.425  1.00  0.00    -0.003 A 
ATOM      3  C   UNL     1     -43.144  72.816 -12.030  1.00  0.00     0.119 A 
ATOM      4  C   UNL     1     -43.857  73.617 -12.926  1.00  0.00     0.046 A 
ATOM      5  C   UNL     1     -43.429  74.908 -13.219  1.00  0.00     0.004 A 
ATOM      6  C   UNL     1     -42.289  75.421 -12.607  1.00  0.00     0.004 A 
ENDROOT
BRANCH   1   7
ATOM      7  C   UNL     1     -40.321  75.278 -11.076  1.00  0.00     0.036 C 
BRANCH   7   8
ATOM      8  C   UNL     1     -39.105  75.119 -12.001  1.00  0.00     0.004 C 
BRANCH   8   9
ATOM      9  C   UNL     1     -37.819  74.782 -11.233  1.00  0.00    -0.003 C 
ATOM     10  C   UNL     1     -38.037  74.706  -9.721  1.00  0.00     0.004 C 
ENDBRANCH   8   9
ENDBRANCH   7   8
ENDBRANCH   1   7
BRANCH   2  11
ATOM     11  C   UNL     1     -41.157  72.422 -10.482  1.00  0.00     0.040 C 
BRANCH  11  12
ATOM     12  C   UNL     1     -40.169  71.546 -11.262  1.00  0.00     0.005 C 
BRANCH  12  13
ATOM     13  C   UNL     1     -39.215  70.814 -10.310  1.00  0.00    -0.003 C 
ATOM     14  C   UNL     1     -39.195  71.471  -8.934  1.00  0.00     0.004 C 
ENDBRANCH  12  13
ENDBRANCH  11  12
ENDBRANCH   2  11
BRANCH   3  15
ATOM     15  O   UNL     1     -43.657  71.542 -11.765  1.00  0.00    -0.508 OA
ATOM     16  H   UNL     1     -43.551  71.059 -10.884  1.00  0.00     0.293 HD
ENDBRANCH   3  15
TORSDOF 7
ENDMDL
MODEL 7
REMARK VINA RESULT:    -4.393     14.853     16.926
REMARK INTER + INTRA:          -7.004
REMARK INTER:                  -6.128
REMARK INTRA:                  -0.876
REMARK UNBOUND:                -0.942
REMARK SMILES CCCCc1cccc(O)c1CCCC
REMARK SMILES IDX 5 1 11 2 9 3 8 4 7 5 6 6 4 7 3 8 2 9 1 10 12 11 13 12 14 13
REMARK SMILES IDX 15 14 10 15
REMARK H PARENT 10 16
REMARK Flexibility Score: inf
ROOT
ATOM      1  C   UNL     1     -35.108  75.589 -27.244  1.00  0.00    -0.041 A 
ATOM      2  C   UNL     1     -36.516  75.369 -27.255  1.00  0.00    -0.003 A 
ATOM      3  C   UNL     1     -37.002  74.063 -27.542  1.00  0.00     0.119 A 
ATOM      4  C   UNL     1     -36.106  73.009 -27.735  1.00  0.00     0.046 A 
ATOM      5  C   UNL     1     -34.733  73.225 -27.676  1.00  0.00     0.004 A 
ATOM      6  C   UNL     1     -34.237  74.503 -27.436  1.00  0.00     0.004 A 
ENDROOT
BRANCH   1   7
ATOM      7  C   UNL     1     -34.488  76.946 -26.984  1.00  0.00     0.036 C 
BRANCH   7   8
ATOM      8  C   UNL     1     -33.300  76.826 -26.017  1.00  0.00     0.004 C 
BRANCH   8   9
ATOM      9  C   UNL     1     -33.698  77.087 -24.558  1.00  0.00    -0.003 C 
ATOM     10  C   UNL     1     -32.494  77.125 -23.615  1.00  0.00     0.004 C 
ENDBRANCH   8   9
ENDBRANCH   7   8
ENDBRANCH   1   7
BRANCH   2  11
ATOM     11  C   UNL     1     -37.491  76.507 -27.005  1.00  0.00     0.040 C 
BRANCH  11  12
ATOM     12  C   UNL     1     -37.815  76.629 -25.511  1.00  0.00     0.005 C 
BRANCH  12  13
ATOM     13  C   UNL     1     -39.285  76.287 -25.237  1.00  0.00    -0.003 C 
ATOM     14  C   UNL     1     -40.138  76.481 -26.487  1.00  0.00     0.004 C 
ENDBRANCH  12  13
ENDBRANCH  11  12
ENDBRANCH   2  11
BRANCH   3  15
ATOM     15  O   UNL     1     -38.365  73.771 -27.649  1.00  0.00    -0.508 OA
ATOM     16  H   UNL     1     -38.824  73.507 -28.510  1.00  0.00     0.293 HD
ENDBRANCH   3  15
TORSDOF 7
ENDMDL
MODEL 8
REMARK VINA RESULT:    -4.232      1.991      4.149
REMARK INTER + INTRA:          -6.782
REMARK INTER:                  -5.604
REMARK INTRA:                  -1.178
REMARK UNBOUND:                -0.942
REMARK SMILES CCCCc1cccc(O)c1CCCC
REMARK SMILES IDX 5 1 11 2 9 3 8 4 7 5 6 6 4 7 3 8 2 9 1 10 12 11 13 12 14 13
REMARK SMILES IDX 15 14 10 15
REMARK H PARENT 10 16
REMARK Flexibility Score: inf
ROOT
ATOM      1  C   UNL     1     -41.733  73.419 -11.946  1.00  0.00    -0.041 A 
ATOM      2  C   UNL     1     -41.461  74.713 -11.412  1.00  0.00    -0.003 A 
ATOM      3  C   UNL     1     -42.399  75.757 -11.637  1.00  0.00     0.119 A 
ATOM      4  C   UNL     1     -43.595  75.491 -12.308  1.00  0.00     0.046 A 
ATOM      5  C   UNL     1     -43.873  74.214 -12.785  1.00  0.00     0.004 A 
ATOM      6  C   UNL     1     -42.950  73.188 -12.609  1.00  0.00     0.004 A 
ENDROOT
BRANCH   1   7
ATOM      7  C   UNL     1     -40.785  72.248 -11.793  1.00  0.00     0.036 C 
BRANCH   7   8
ATOM      8  C   UNL     1     -41.117  71.442 -10.527  1.00  0.00     0.004 C 
BRANCH   8   9
ATOM      9  C   UNL     1     -39.911  71.290  -9.590  1.00  0.00    -0.003 C 
ATOM     10  C   UNL     1     -38.645  70.845 -10.324  1.00  0.00     0.004 C 
ENDBRANCH   8   9
ENDBRANCH   7   8
ENDBRANCH   1   7
BRANCH   2  11
ATOM     11  C   UNL     1     -40.178  74.992 -10.647  1.00  0.00     0.040 C 
BRANCH  11  12
ATOM     12  C   UNL     1     -39.038  75.353 -11.607  1.00  0.00     0.005 C 
BRANCH  12  13
ATOM     13  C   UNL     1     -37.723  74.694 -11.172  1.00  0.00    -0.003 C 
ATOM     14  C   UNL     1     -37.760  74.310  -9.696  1.00  0.00     0.004 C 
ENDBRANCH  12  13
ENDBRANCH  11  12
ENDBRANCH   2  11
BRANCH   3  15
ATOM     15  O   UNL     1     -42.181  77.073 -11.217  1.00  0.00    -0.508 OA
ATOM     16  H   UNL     1     -42.157  77.364 -10.250  1.00  0.00     0.293 HD
ENDBRANCH   3  15
TORSDOF 7
ENDMDL
