MODEL 1
REMARK VINA RESULT:    -2.359      0.000      0.000
REMARK INTER + INTRA:          -2.359
REMARK INTER:                  -2.359
REMARK INTRA:                   0.000
REMARK UNBOUND:                 0.000
REMARK SMILES CC(=O)[O-]
REMARK SMILES IDX 1 1 2 2 3 3 4 4
REMARK H PARENT
REMARK Flexibility Score: inf
ROOT
ATOM      1  C   UNL     1      -0.804 -22.164   0.727  1.00  0.00     0.063 C 
ATOM      2  C   UNL     1      -1.713 -23.240   0.236  1.00  0.00     0.038 C 
ATOM      3  O   UNL     1      -1.294 -24.091  -0.591  1.00  0.00    -0.550 OA
ATOM      4  O   UNL     1      -3.006 -23.337   0.731  1.00  0.00    -0.550 OA
ENDROOT
TORSDOF 0
ENDMDL
MODEL 2
REMARK VINA RESULT:    -2.353      9.785     10.194
REMARK INTER + INTRA:          -2.353
REMARK INTER:                  -2.353
REMARK INTRA:                   0.000
REMARK UNBOUND:                 0.000
REMARK SMILES CC(=O)[O-]
REMARK SMILES IDX 1 1 2 2 3 3 4 4
REMARK H PARENT
REMARK Flexibility Score: inf
ROOT
ATOM      1  C   UNL     1       4.976 -19.400  -8.086  1.00  0.00     0.063 C 
ATOM      2  C   UNL     1       3.664 -19.952  -7.641  1.00  0.00     0.038 C 
ATOM      3  O   UNL     1       3.601 -21.105  -7.141  1.00  0.00    -0.550 OA
ATOM      4  O   UNL     1       2.517 -19.174  -7.728  1.00  0.00    -0.550 OA
ENDROOT
TORSDOF 0
ENDMDL
MODEL 3
REMARK VINA RESULT:    -2.351      9.760     10.205
REMARK INTER + INTRA:          -2.351
REMARK INTER:                  -2.351
REMARK INTRA:                   0.000
REMARK UNBOUND:                 0.000
REMARK SMILES CC(=O)[O-]
REMARK SMILES IDX 1 1 2 2 3 3 4 4
REMARK H PARENT
REMARK Flexibility Score: inf
ROOT
ATOM      1  C   UNL     1       4.978 -19.442  -8.040  1.00  0.00     0.063 C 
ATOM      2  C   UNL     1       3.674 -20.007  -7.587  1.00  0.00     0.038 C 
ATOM      3  O   UNL     1       2.647 -19.280  -7.559  1.00  0.00    -0.550 OA
ATOM      4  O   UNL     1       3.579 -21.350  -7.248  1.00  0.00    -0.550 OA
ENDROOT
TORSDOF 0
ENDMDL
MODEL 4
REMARK VINA RESULT:    -2.351     10.039     10.618
REMARK INTER + INTRA:          -2.351
REMARK INTER:                  -2.351
REMARK INTRA:                   0.000
REMARK UNBOUND:                 0.000
REMARK SMILES CC(=O)[O-]
REMARK SMILES IDX 1 1 2 2 3 3 4 4
REMARK H PARENT
REMARK Flexibility Score: inf
ROOT
ATOM      1  C   UNL     1       2.226 -19.171  -8.260  1.00  0.00     0.063 C 
ATOM      2  C   UNL     1       3.617 -19.490  -7.826  1.00  0.00     0.038 C 
ATOM      3  O   UNL     1       3.846 -19.815  -6.631  1.00  0.00    -0.550 OA
ATOM      4  O   UNL     1       4.653 -19.483  -8.750  1.00  0.00    -0.550 OA
ENDROOT
TORSDOF 0
ENDMDL
MODEL 5
REMARK VINA RESULT:    -2.345      7.751      8.305
REMARK INTER + INTRA:          -2.345
REMARK INTER:                  -2.345
REMARK INTRA:                   0.000
REMARK UNBOUND:                 0.000
REMARK SMILES CC(=O)[O-]
REMARK SMILES IDX 1 1 2 2 3 3 4 4
REMARK H PARENT
REMARK Flexibility Score: inf
ROOT
ATOM      1  C   UNL     1      -7.667 -19.485   5.828  1.00  0.00     0.063 C 
ATOM      2  C   UNL     1      -7.644 -19.425   4.339  1.00  0.00     0.038 C 
ATOM      3  O   UNL     1      -7.610 -18.312   3.752  1.00  0.00    -0.550 OA
ATOM      4  O   UNL     1      -7.605 -20.598   3.596  1.00  0.00    -0.550 OA
ENDROOT
TORSDOF 0
ENDMDL
MODEL 6
REMARK VINA RESULT:    -2.343      3.153      3.697
REMARK INTER + INTRA:          -2.343
REMARK INTER:                  -2.343
REMARK INTRA:                   0.000
REMARK UNBOUND:                 0.000
REMARK SMILES CC(=O)[O-]
REMARK SMILES IDX 1 1 2 2 3 3 4 4
REMARK H PARENT
REMARK Flexibility Score: inf
ROOT
ATOM      1  C   UNL     1      -4.914 -24.725   0.714  1.00  0.00     0.063 C 
ATOM      2  C   UNL     1      -4.639 -23.547   1.586  1.00  0.00     0.038 C 
ATOM      3  O   UNL     1      -3.615 -22.843   1.390  1.00  0.00    -0.550 OA
ATOM      4  O   UNL     1      -5.541 -23.193   2.581  1.00  0.00    -0.550 OA
ENDROOT
TORSDOF 0
ENDMDL
MODEL 7
REMARK VINA RESULT:    -2.208      2.818      3.417
REMARK INTER + INTRA:          -2.208
REMARK INTER:                  -2.208
REMARK INTRA:                   0.000
REMARK UNBOUND:                 0.000
REMARK SMILES CC(=O)[O-]
REMARK SMILES IDX 1 1 2 2 3 3 4 4
REMARK H PARENT
REMARK Flexibility Score: inf
ROOT
ATOM      1  C   UNL     1      -4.872 -23.242   1.858  1.00  0.00     0.063 C 
ATOM      2  C   UNL     1      -4.484 -24.188   0.773  1.00  0.00     0.038 C 
ATOM      3  O   UNL     1      -5.328 -24.999   0.311  1.00  0.00    -0.550 OA
ATOM      4  O   UNL     1      -3.205 -24.140   0.233  1.00  0.00    -0.550 OA
ENDROOT
TORSDOF 0
ENDMDL
MODEL 8
REMARK VINA RESULT:    -2.205     10.060     10.237
REMARK INTER + INTRA:          -2.205
REMARK INTER:                  -2.205
REMARK INTRA:                   0.000
REMARK UNBOUND:                 0.000
REMARK SMILES CC(=O)[O-]
REMARK SMILES IDX 1 1 2 2 3 3 4 4
REMARK H PARENT
REMARK Flexibility Score: inf
ROOT
ATOM      1  C   UNL     1       3.004 -29.581   5.673  1.00  0.00     0.063 C 
ATOM      2  C   UNL     1       2.014 -30.629   6.054  1.00  0.00     0.038 C 
ATOM      3  O   UNL     1       0.883 -30.299   6.497  1.00  0.00    -0.550 OA
ATOM      4  O   UNL     1       2.318 -31.972   5.871  1.00  0.00    -0.550 OA
ENDROOT
TORSDOF 0
ENDMDL
MODEL 9
REMARK VINA RESULT:    -2.177     10.163     10.231
REMARK INTER + INTRA:          -2.177
REMARK INTER:                  -2.177
REMARK INTRA:                   0.000
REMARK UNBOUND:                 0.000
REMARK SMILES CC(=O)[O-]
REMARK SMILES IDX 1 1 2 2 3 3 4 4
REMARK H PARENT
REMARK Flexibility Score: inf
ROOT
ATOM      1  C   UNL     1       3.094 -29.619   5.608  1.00  0.00     0.063 C 
ATOM      2  C   UNL     1       2.192 -30.729   6.030  1.00  0.00     0.038 C 
ATOM      3  O   UNL     1       2.600 -31.919   6.003  1.00  0.00    -0.550 OA
ATOM      4  O   UNL     1       0.918 -30.446   6.506  1.00  0.00    -0.550 OA
ENDROOT
TORSDOF 0
ENDMDL
