MODEL 1
REMARK VINA RESULT:    -3.100      0.000      0.000
REMARK INTER + INTRA:          -3.911
REMARK INTER:                  -3.824
REMARK INTRA:                  -0.087
REMARK UNBOUND:                -0.087
REMARK SMILES CCCCCC(=O)[O-]
REMARK SMILES IDX 4 1 5 2 6 3 7 4 8 5 3 6 2 7 1 8
REMARK H PARENT
REMARK Flexibility Score: inf
ROOT
ATOM      1  C   UNL     1      -2.901   8.503  -0.361  1.00  0.00     0.006 C 
ENDROOT
BRANCH   1   2
ATOM      2  C   UNL     1      -3.028   8.161  -1.851  1.00  0.00     0.053 C 
BRANCH   2   3
ATOM      3  C   UNL     1      -4.467   8.099  -2.254  1.00  0.00     0.041 C 
ATOM      4  O   UNL     1      -5.372   8.345  -1.413  1.00  0.00    -0.550 OA
ATOM      5  O   UNL     1      -4.812   7.720  -3.545  1.00  0.00    -0.550 OA
ENDBRANCH   2   3
ENDBRANCH   1   2
BRANCH   1   6
ATOM      6  C   UNL     1      -1.498   8.178   0.195  1.00  0.00     0.000 C 
BRANCH   6   7
ATOM      7  C   UNL     1      -1.159   8.932   1.492  1.00  0.00    -0.003 C 
ATOM      8  C   UNL     1      -2.213   9.971   1.872  1.00  0.00     0.004 C 
ENDBRANCH   6   7
ENDBRANCH   1   6
TORSDOF 4
ENDMDL
MODEL 2
REMARK VINA RESULT:    -3.073      0.089      1.147
REMARK INTER + INTRA:          -3.879
REMARK INTER:                  -3.794
REMARK INTRA:                  -0.085
REMARK UNBOUND:                -0.087
REMARK SMILES CCCCCC(=O)[O-]
REMARK SMILES IDX 4 1 5 2 6 3 7 4 8 5 3 6 2 7 1 8
REMARK H PARENT
REMARK Flexibility Score: inf
ROOT
ATOM      1  C   UNL     1      -2.853   8.487  -0.363  1.00  0.00     0.006 C 
ENDROOT
BRANCH   1   2
ATOM      2  C   UNL     1      -2.940   8.145  -1.856  1.00  0.00     0.053 C 
BRANCH   2   3
ATOM      3  C   UNL     1      -4.369   8.046  -2.288  1.00  0.00     0.041 C 
ATOM      4  O   UNL     1      -4.653   7.700  -3.465  1.00  0.00    -0.550 OA
ATOM      5  O   UNL     1      -5.387   8.385  -1.405  1.00  0.00    -0.550 OA
ENDBRANCH   2   3
ENDBRANCH   1   2
BRANCH   1   6
ATOM      6  C   UNL     1      -1.472   8.142   0.235  1.00  0.00     0.000 C 
BRANCH   6   7
ATOM      7  C   UNL     1      -1.126   8.954   1.495  1.00  0.00    -0.003 C 
ATOM      8  C   UNL     1      -2.217   9.951   1.881  1.00  0.00     0.004 C 
ENDBRANCH   6   7
ENDBRANCH   1   6
TORSDOF 4
ENDMDL
MODEL 3
REMARK VINA RESULT:    -3.043      2.567      4.640
REMARK INTER + INTRA:          -3.841
REMARK INTER:                  -3.709
REMARK INTRA:                  -0.132
REMARK UNBOUND:                -0.087
REMARK SMILES CCCCCC(=O)[O-]
REMARK SMILES IDX 4 1 5 2 6 3 7 4 8 5 3 6 2 7 1 8
REMARK H PARENT
REMARK Flexibility Score: inf
ROOT
ATOM      1  C   UNL     1      -4.948   8.675  -2.875  1.00  0.00     0.006 C 
ENDROOT
BRANCH   1   2
ATOM      2  C   UNL     1      -5.000   8.098  -1.453  1.00  0.00     0.053 C 
BRANCH   2   3
ATOM      3  C   UNL     1      -3.905   8.677  -0.614  1.00  0.00     0.041 C 
ATOM      4  O   UNL     1      -2.724   8.258  -0.736  1.00  0.00    -0.550 OA
ATOM      5  O   UNL     1      -4.199   9.643   0.341  1.00  0.00    -0.550 OA
ENDBRANCH   2   3
ENDBRANCH   1   2
BRANCH   1   6
ATOM      6  C   UNL     1      -4.517   7.621  -3.917  1.00  0.00     0.000 C 
BRANCH   6   7
ATOM      7  C   UNL     1      -3.137   7.899  -4.538  1.00  0.00    -0.003 C 
ATOM      8  C   UNL     1      -2.480   6.648  -5.118  1.00  0.00     0.004 C 
ENDBRANCH   6   7
ENDBRANCH   1   6
TORSDOF 4
ENDMDL
MODEL 4
REMARK VINA RESULT:    -3.041      1.261      1.903
REMARK INTER + INTRA:          -3.839
REMARK INTER:                  -3.734
REMARK INTRA:                  -0.105
REMARK UNBOUND:                -0.087
REMARK SMILES CCCCCC(=O)[O-]
REMARK SMILES IDX 4 1 5 2 6 3 7 4 8 5 3 6 2 7 1 8
REMARK H PARENT
REMARK Flexibility Score: inf
ROOT
ATOM      1  C   UNL     1      -3.574   8.558  -0.609  1.00  0.00     0.006 C 
ENDROOT
BRANCH   1   2
ATOM      2  C   UNL     1      -4.757   8.168  -1.505  1.00  0.00     0.053 C 
BRANCH   2   3
ATOM      3  C   UNL     1      -4.405   8.354  -2.947  1.00  0.00     0.041 C 
ATOM      4  O   UNL     1      -4.793   7.520  -3.807  1.00  0.00    -0.550 OA
ATOM      5  O   UNL     1      -3.604   9.421  -3.335  1.00  0.00    -0.550 OA
ENDBRANCH   2   3
ENDBRANCH   1   2
BRANCH   1   6
ATOM      6  C   UNL     1      -3.948   9.659   0.406  1.00  0.00     0.000 C 
BRANCH   6   7
ATOM      7  C   UNL     1      -2.872   9.899   1.479  1.00  0.00    -0.003 C 
ATOM      8  C   UNL     1      -1.604   9.078   1.249  1.00  0.00     0.004 C 
ENDBRANCH   6   7
ENDBRANCH   1   6
TORSDOF 4
ENDMDL
MODEL 5
REMARK VINA RESULT:    -3.015      3.629      5.498
REMARK INTER + INTRA:          -3.806
REMARK INTER:                  -3.699
REMARK INTRA:                  -0.108
REMARK UNBOUND:                -0.087
REMARK SMILES CCCCCC(=O)[O-]
REMARK SMILES IDX 4 1 5 2 6 3 7 4 8 5 3 6 2 7 1 8
REMARK H PARENT
REMARK Flexibility Score: inf
ROOT
ATOM      1  C   UNL     1      -2.330   7.600  -4.928  1.00  0.00     0.006 C 
ENDROOT
BRANCH   1   2
ATOM      2  C   UNL     1      -3.802   7.402  -4.546  1.00  0.00     0.053 C 
BRANCH   2   3
ATOM      3  C   UNL     1      -4.079   7.991  -3.199  1.00  0.00     0.041 C 
ATOM      4  O   UNL     1      -5.161   8.595  -2.981  1.00  0.00    -0.550 OA
ATOM      5  O   UNL     1      -3.118   7.918  -2.198  1.00  0.00    -0.550 OA
ENDBRANCH   2   3
ENDBRANCH   1   2
BRANCH   1   6
ATOM      6  C   UNL     1      -1.547   6.270  -4.947  1.00  0.00     0.000 C 
BRANCH   6   7
ATOM      7  C   UNL     1      -1.567   5.563  -6.312  1.00  0.00    -0.003 C 
ATOM      8  C   UNL     1      -1.636   4.041  -6.196  1.00  0.00     0.004 C 
ENDBRANCH   6   7
ENDBRANCH   1   6
TORSDOF 4
ENDMDL
MODEL 6
REMARK VINA RESULT:    -2.950      2.762      3.993
REMARK INTER + INTRA:          -3.727
REMARK INTER:                  -3.548
REMARK INTRA:                  -0.179
REMARK UNBOUND:                -0.087
REMARK SMILES CCCCCC(=O)[O-]
REMARK SMILES IDX 4 1 5 2 6 3 7 4 8 5 3 6 2 7 1 8
REMARK H PARENT
REMARK Flexibility Score: inf
ROOT
ATOM      1  C   UNL     1      -4.621   7.748  -3.804  1.00  0.00     0.006 C 
ENDROOT
BRANCH   1   2
ATOM      2  C   UNL     1      -3.404   8.198  -4.623  1.00  0.00     0.053 C 
BRANCH   2   3
ATOM      3  C   UNL     1      -2.314   7.176  -4.546  1.00  0.00     0.041 C 
ATOM      4  O   UNL     1      -2.297   6.206  -5.348  1.00  0.00    -0.550 OA
ATOM      5  O   UNL     1      -1.345   7.268  -3.555  1.00  0.00    -0.550 OA
ENDBRANCH   2   3
ENDBRANCH   1   2
BRANCH   1   6
ATOM      6  C   UNL     1      -4.979   8.755  -2.689  1.00  0.00     0.000 C 
BRANCH   6   7
ATOM      7  C   UNL     1      -4.751   8.208  -1.270  1.00  0.00    -0.003 C 
ATOM      8  C   UNL     1      -3.369   8.548  -0.713  1.00  0.00     0.004 C 
ENDBRANCH   6   7
ENDBRANCH   1   6
TORSDOF 4
ENDMDL
MODEL 7
REMARK VINA RESULT:    -2.938      4.567      6.268
REMARK INTER + INTRA:          -3.712
REMARK INTER:                  -3.652
REMARK INTRA:                  -0.060
REMARK UNBOUND:                -0.087
REMARK SMILES CCCCCC(=O)[O-]
REMARK SMILES IDX 4 1 5 2 6 3 7 4 8 5 3 6 2 7 1 8
REMARK H PARENT
REMARK Flexibility Score: inf
ROOT
ATOM      1  C   UNL     1      -2.290   5.758  -5.611  1.00  0.00     0.006 C 
ENDROOT
BRANCH   1   2
ATOM      2  C   UNL     1      -1.839   7.048  -4.912  1.00  0.00     0.053 C 
BRANCH   2   3
ATOM      3  C   UNL     1      -3.023   7.828  -4.436  1.00  0.00     0.041 C 
ATOM      4  O   UNL     1      -4.190   7.411  -4.661  1.00  0.00    -0.550 OA
ATOM      5  O   UNL     1      -2.840   9.044  -3.789  1.00  0.00    -0.550 OA
ENDBRANCH   2   3
ENDBRANCH   1   2
BRANCH   1   6
ATOM      6  C   UNL     1      -1.119   4.781  -5.845  1.00  0.00     0.000 C 
BRANCH   6   7
ATOM      7  C   UNL     1      -1.567   3.329  -6.083  1.00  0.00    -0.003 C 
ATOM      8  C   UNL     1      -1.240   2.402  -4.914  1.00  0.00     0.004 C 
ENDBRANCH   6   7
ENDBRANCH   1   6
TORSDOF 4
ENDMDL
MODEL 8
REMARK VINA RESULT:    -2.814      5.471      6.445
REMARK INTER + INTRA:          -3.559
REMARK INTER:                  -3.470
REMARK INTRA:                  -0.089
REMARK UNBOUND:                -0.087
REMARK SMILES CCCCCC(=O)[O-]
REMARK SMILES IDX 4 1 5 2 6 3 7 4 8 5 3 6 2 7 1 8
REMARK H PARENT
REMARK Flexibility Score: inf
ROOT
ATOM      1  C   UNL     1      -2.068   5.850  -5.546  1.00  0.00     0.006 C 
ENDROOT
BRANCH   1   2
ATOM      2  C   UNL     1      -0.958   4.861  -5.166  1.00  0.00     0.053 C 
BRANCH   2   3
ATOM      3  C   UNL     1      -1.349   3.466  -5.540  1.00  0.00     0.041 C 
ATOM      4  O   UNL     1      -1.783   3.217  -6.695  1.00  0.00    -0.550 OA
ATOM      5  O   UNL     1      -1.283   2.449  -4.595  1.00  0.00    -0.550 OA
ENDBRANCH   2   3
ENDBRANCH   1   2
BRANCH   1   6
ATOM      6  C   UNL     1      -1.689   7.309  -5.213  1.00  0.00     0.000 C 
BRANCH   6   7
ATOM      7  C   UNL     1      -2.813   8.093  -4.515  1.00  0.00    -0.003 C 
ATOM      8  C   UNL     1      -4.152   7.358  -4.528  1.00  0.00     0.004 C 
ENDBRANCH   6   7
ENDBRANCH   1   6
TORSDOF 4
ENDMDL
MODEL 9
REMARK VINA RESULT:    -2.798      2.104      3.982
REMARK INTER + INTRA:          -3.539
REMARK INTER:                  -3.372
REMARK INTRA:                  -0.167
REMARK UNBOUND:                -0.087
REMARK SMILES CCCCCC(=O)[O-]
REMARK SMILES IDX 4 1 5 2 6 3 7 4 8 5 3 6 2 7 1 8
REMARK H PARENT
REMARK Flexibility Score: inf
ROOT
ATOM      1  C   UNL     1      -2.390   8.805  -2.426  1.00  0.00     0.006 C 
ENDROOT
BRANCH   1   2
ATOM      2  C   UNL     1      -2.882   8.197  -1.106  1.00  0.00     0.053 C 
BRANCH   2   3
ATOM      3  C   UNL     1      -4.216   8.762  -0.734  1.00  0.00     0.041 C 
ATOM      4  O   UNL     1      -4.315   9.579   0.219  1.00  0.00    -0.550 OA
ATOM      5  O   UNL     1      -5.358   8.348  -1.407  1.00  0.00    -0.550 OA
ENDBRANCH   2   3
ENDBRANCH   1   2
BRANCH   1   6
ATOM      6  C   UNL     1      -1.923   7.727  -3.427  1.00  0.00     0.000 C 
BRANCH   6   7
ATOM      7  C   UNL     1      -2.714   7.728  -4.747  1.00  0.00    -0.003 C 
ATOM      8  C   UNL     1      -4.189   7.377  -4.560  1.00  0.00     0.004 C 
ENDBRANCH   6   7
ENDBRANCH   1   6
TORSDOF 4
ENDMDL
