MODEL 1
REMARK VINA RESULT:    -6.370      0.000      0.000
REMARK INTER + INTRA:         -11.929
REMARK INTER:                 -10.466
REMARK INTRA:                  -1.463
REMARK UNBOUND:                -1.463
REMARK SMILES OC[C@@H]1O[C@@H](O[C@@H]2[C@@H](O)[C@@H](O)[C@H](O[C@H]3[C@@H](O)[C@H](O)[C@H](O)O[C@H]3CO)O[C@H]2CO)[C@@H](O)[C@@H](O)[C@@H]1O
REMARK SMILES IDX 7 1 26 2 25 3 12 4 10 5 8 6 6 7 5 8 3 9 33 10 4 11 31 12
REMARK SMILES IDX 29 13 2 14 1 15 34 17 32 19 30 21 27 23 28 24 9 26 11 28
REMARK SMILES IDX 13 30 14 31 22 32 15 33 21 34 17 35 19 36 23 37 24 38 16 40
REMARK SMILES IDX 18 42 20 44
REMARK H PARENT 1 16 34 18 32 20 30 22 28 25 9 27 11 29 24 39 16 41 18 43
REMARK H PARENT 20 45
REMARK Flexibility Score: inf
ROOT
ATOM      1  C   UNL     1       7.804  -8.363  35.650  1.00  0.00     0.184 C 
ATOM      2  C   UNL     1       7.263  -6.713  36.134  1.00  0.00     0.178 C 
ATOM      3  O   UNL     1       8.122  -5.762  35.719  1.00  0.00    -0.341 OA
ATOM      4  C   UNL     1       9.371  -6.041  35.186  1.00  0.00     0.282 C 
ATOM      5  C   UNL     1       9.054  -6.862  33.800  1.00  0.00     0.202 C 
ATOM      6  C   UNL     1       8.179  -8.252  34.087  1.00  0.00     0.180 C 
ENDROOT
BRANCH   1   7
ATOM      7  O   UNL     1       8.637  -9.552  36.236  1.00  0.00    -0.341 OA
BRANCH   7   8
ATOM      8  C   UNL     1       9.697 -10.696  36.532  1.00  0.00     0.282 C 
ATOM      9  C   UNL     1      12.002 -10.699  37.744  1.00  0.00     0.178 C 
ATOM     10  C   UNL     1      12.483 -12.031  37.106  1.00  0.00     0.177 C 
ATOM     11  O   UNL     1      10.590 -10.505  37.756  1.00  0.00    -0.341 OA
ATOM     12  C   UNL     1      11.621 -12.363  35.839  1.00  0.00     0.179 C 
ATOM     13  C   UNL     1      10.481 -11.401  35.296  1.00  0.00     0.202 C 
BRANCH   9  14
ATOM     14  C   UNL     1      12.814 -10.700  39.125  1.00  0.00     0.191 C 
BRANCH  14  15
ATOM     15  O   UNL     1      14.186 -10.770  38.929  1.00  0.00    -0.394 OA
ATOM     16  H   UNL     1      14.384 -11.756  39.121  1.00  0.00     0.210 HD
ENDBRANCH  14  15
ENDBRANCH   9  14
BRANCH  10  17
ATOM     17  O   UNL     1      12.278 -13.094  38.043  1.00  0.00    -0.387 OA
ATOM     18  H   UNL     1      12.634 -12.912  38.931  1.00  0.00     0.211 HD
ENDBRANCH  10  17
BRANCH  12  19
ATOM     19  O   UNL     1      12.262 -13.125  34.876  1.00  0.00    -0.387 OA
ATOM     20  H   UNL     1      11.701 -14.000  34.791  1.00  0.00     0.211 HD
ENDBRANCH  12  19
BRANCH  13  21
ATOM     21  O   UNL     1      11.044 -10.488  34.343  1.00  0.00    -0.385 OA
ATOM     22  H   UNL     1      10.592  -9.585  34.428  1.00  0.00     0.211 HD
ENDBRANCH  13  21
ENDBRANCH   7   8
ENDBRANCH   1   7
BRANCH   2  23
ATOM     23  C   UNL     1       5.878  -5.645  35.916  1.00  0.00     0.191 C 
BRANCH  23  24
ATOM     24  O   UNL     1       4.471  -5.091  35.724  1.00  0.00    -0.394 OA
ATOM     25  H   UNL     1       3.705  -5.650  36.177  1.00  0.00     0.210 HD
ENDBRANCH  23  24
ENDBRANCH   2  23
BRANCH   6  26
ATOM     26  O   UNL     1       6.942  -8.461  33.362  1.00  0.00    -0.387 OA
ATOM     27  H   UNL     1       6.196  -7.988  33.752  1.00  0.00     0.211 HD
ENDBRANCH   6  26
BRANCH   5  28
ATOM     28  O   UNL     1       8.349  -6.095  32.761  1.00  0.00    -0.385 OA
ATOM     29  H   UNL     1       8.874  -6.014  31.908  1.00  0.00     0.211 HD
ENDBRANCH   5  28
BRANCH   4  30
ATOM     30  O   UNL     1      10.210  -5.977  36.559  1.00  0.00    -0.341 OA
BRANCH  30  31
ATOM     31  C   UNL     1      10.491  -5.129  37.861  1.00  0.00     0.184 C 
ATOM     32  C   UNL     1      10.283  -3.466  37.719  1.00  0.00     0.178 C 
ATOM     33  C   UNL     1      12.146  -5.212  38.048  1.00  0.00     0.180 C 
ATOM     34  O   UNL     1      11.231  -2.713  36.971  1.00  0.00    -0.342 OA
ATOM     35  C   UNL     1      12.898  -4.377  36.852  1.00  0.00     0.201 C 
ATOM     36  C   UNL     1      11.940  -3.422  35.992  1.00  0.00     0.279 C 
BRANCH  32  37
ATOM     37  C   UNL     1       8.997  -2.996  37.239  1.00  0.00     0.191 C 
BRANCH  37  38
ATOM     38  O   UNL     1       8.452  -2.048  38.126  1.00  0.00    -0.394 OA
ATOM     39  H   UNL     1       7.487  -1.935  37.928  1.00  0.00     0.210 HD
ENDBRANCH  37  38
ENDBRANCH  32  37
BRANCH  33  40
ATOM     40  O   UNL     1      12.524  -6.576  37.867  1.00  0.00    -0.387 OA
ATOM     41  H   UNL     1      13.092  -6.609  37.080  1.00  0.00     0.211 HD
ENDBRANCH  33  40
BRANCH  35  42
ATOM     42  O   UNL     1      14.175  -3.816  37.137  1.00  0.00    -0.385 OA
ATOM     43  H   UNL     1      14.728  -4.308  36.336  1.00  0.00     0.211 HD
ENDBRANCH  35  42
BRANCH  36  44
ATOM     44  O   UNL     1      12.689  -2.530  35.265  1.00  0.00    -0.366 OA
ATOM     45  H   UNL     1      12.780  -1.659  35.704  1.00  0.00     0.213 HD
ENDBRANCH  36  44
ENDBRANCH  30  31
ENDBRANCH   4  30
TORSDOF 18
ENDMDL
MODEL 2
REMARK VINA RESULT:    -6.233      2.397      6.355
REMARK INTER + INTRA:         -11.704
REMARK INTER:                  -9.359
REMARK INTRA:                  -2.345
REMARK UNBOUND:                -1.463
REMARK SMILES OC[C@@H]1O[C@@H](O[C@@H]2[C@@H](O)[C@@H](O)[C@H](O[C@H]3[C@@H](O)[C@H](O)[C@H](O)O[C@H]3CO)O[C@H]2CO)[C@@H](O)[C@@H](O)[C@@H]1O
REMARK SMILES IDX 7 1 26 2 25 3 12 4 10 5 8 6 6 7 5 8 3 9 33 10 4 11 31 12
REMARK SMILES IDX 29 13 2 14 1 15 34 17 32 19 30 21 27 23 28 24 9 26 11 28
REMARK SMILES IDX 13 30 14 31 22 32 15 33 21 34 17 35 19 36 23 37 24 38 16 40
REMARK SMILES IDX 18 42 20 44
REMARK H PARENT 1 16 34 18 32 20 30 22 28 25 9 27 11 29 24 39 16 41 18 43
REMARK H PARENT 20 45
REMARK Flexibility Score: inf
ROOT
ATOM      1  C   UNL     1       8.161  -4.959  35.656  1.00  0.00     0.184 C 
ATOM      2  C   UNL     1       9.272  -4.316  36.923  1.00  0.00     0.178 C 
ATOM      3  O   UNL     1      10.539  -4.729  36.735  1.00  0.00    -0.341 OA
ATOM      4  C   UNL     1      10.897  -5.705  35.817  1.00  0.00     0.282 C 
ATOM      5  C   UNL     1      10.516  -5.057  34.357  1.00  0.00     0.202 C 
ATOM      6  C   UNL     1       8.898  -4.670  34.252  1.00  0.00     0.180 C 
ENDROOT
BRANCH   1   7
ATOM      7  O   UNL     1       7.210  -6.181  35.429  1.00  0.00    -0.341 OA
BRANCH   7   8
ATOM      8  C   UNL     1       5.990  -7.191  35.338  1.00  0.00     0.282 C 
ATOM      9  C   UNL     1       4.612  -8.467  37.142  1.00  0.00     0.178 C 
ATOM     10  C   UNL     1       4.052  -9.527  36.154  1.00  0.00     0.177 C 
ATOM     11  O   UNL     1       5.056  -7.251  36.544  1.00  0.00    -0.341 OA
ATOM     12  C   UNL     1       4.915  -9.550  34.845  1.00  0.00     0.179 C 
ATOM     13  C   UNL     1       6.205  -8.646  34.647  1.00  0.00     0.202 C 
BRANCH   9  14
ATOM     14  C   UNL     1       3.456  -8.429  38.251  1.00  0.00     0.191 C 
BRANCH  14  15
ATOM     15  O   UNL     1       2.545  -7.406  38.027  1.00  0.00    -0.394 OA
ATOM     16  H   UNL     1       2.197  -7.213  38.970  1.00  0.00     0.210 HD
ENDBRANCH  14  15
ENDBRANCH   9  14
BRANCH  10  17
ATOM     17  O   UNL     1       2.724  -9.151  35.774  1.00  0.00    -0.387 OA
ATOM     18  H   UNL     1       2.063  -9.853  35.904  1.00  0.00     0.211 HD
ENDBRANCH  10  17
BRANCH  12  19
ATOM     19  O   UNL     1       4.932 -10.762  34.175  1.00  0.00    -0.387 OA
ATOM     20  H   UNL     1       5.100 -10.527  33.173  1.00  0.00     0.211 HD
ENDBRANCH  12  19
BRANCH  13  21
ATOM     21  O   UNL     1       7.362  -9.363  35.102  1.00  0.00    -0.385 OA
ATOM     22  H   UNL     1       8.145  -8.725  35.187  1.00  0.00     0.211 HD
ENDBRANCH  13  21
ENDBRANCH   7   8
ENDBRANCH   1   7
BRANCH   2  23
ATOM     23  C   UNL     1       9.807  -2.764  37.565  1.00  0.00     0.191 C 
BRANCH  23  24
ATOM     24  O   UNL     1      10.487  -1.674  38.385  1.00  0.00    -0.394 OA
ATOM     25  H   UNL     1      11.446  -1.914  38.742  1.00  0.00     0.210 HD
ENDBRANCH  23  24
ENDBRANCH   2  23
BRANCH   6  26
ATOM     26  O   UNL     1       8.524  -3.322  33.873  1.00  0.00    -0.387 OA
ATOM     27  H   UNL     1       8.907  -2.652  34.454  1.00  0.00     0.211 HD
ENDBRANCH   6  26
BRANCH   5  28
ATOM     28  O   UNL     1      11.288  -3.862  33.979  1.00  0.00    -0.385 OA
ATOM     29  H   UNL     1      11.527  -3.284  34.765  1.00  0.00     0.211 HD
ENDBRANCH   5  28
BRANCH   4  30
ATOM     30  O   UNL     1      10.794  -6.974  36.801  1.00  0.00    -0.341 OA
BRANCH  30  31
ATOM     31  C   UNL     1      10.723  -7.435  38.311  1.00  0.00     0.184 C 
ATOM     32  C   UNL     1      11.943  -8.472  38.826  1.00  0.00     0.178 C 
ATOM     33  C   UNL     1       9.411  -8.464  38.357  1.00  0.00     0.180 C 
ATOM     34  O   UNL     1      11.942  -9.820  38.369  1.00  0.00    -0.342 OA
ATOM     35  C   UNL     1       9.738  -9.843  37.530  1.00  0.00     0.201 C 
ATOM     36  C   UNL     1      11.283 -10.054  37.155  1.00  0.00     0.279 C 
BRANCH  32  37
ATOM     37  C   UNL     1      13.312  -8.032  38.634  1.00  0.00     0.191 C 
BRANCH  37  38
ATOM     38  O   UNL     1      13.344  -6.728  38.104  1.00  0.00    -0.394 OA
ATOM     39  H   UNL     1      13.386  -6.780  37.114  1.00  0.00     0.210 HD
ENDBRANCH  37  38
ENDBRANCH  32  37
BRANCH  33  40
ATOM     40  O   UNL     1       8.349  -7.828  37.649  1.00  0.00    -0.387 OA
ATOM     41  H   UNL     1       7.546  -8.345  37.822  1.00  0.00     0.211 HD
ENDBRANCH  33  40
BRANCH  35  42
ATOM     42  O   UNL     1       9.070 -11.033  37.935  1.00  0.00    -0.385 OA
ATOM     43  H   UNL     1       8.459 -10.591  38.722  1.00  0.00     0.211 HD
ENDBRANCH  35  42
BRANCH  36  44
ATOM     44  O   UNL     1      11.506 -11.356  36.782  1.00  0.00    -0.366 OA
ATOM     45  H   UNL     1      12.144 -11.818  37.366  1.00  0.00     0.213 HD
ENDBRANCH  36  44
ENDBRANCH  30  31
ENDBRANCH   4  30
TORSDOF 18
ENDMDL
MODEL 3
REMARK VINA RESULT:    -6.019      2.341      7.107
REMARK INTER + INTRA:         -11.353
REMARK INTER:                  -8.843
REMARK INTRA:                  -2.509
REMARK UNBOUND:                -1.463
REMARK SMILES OC[C@@H]1O[C@@H](O[C@@H]2[C@@H](O)[C@@H](O)[C@H](O[C@H]3[C@@H](O)[C@H](O)[C@H](O)O[C@H]3CO)O[C@H]2CO)[C@@H](O)[C@@H](O)[C@@H]1O
REMARK SMILES IDX 7 1 26 2 25 3 12 4 10 5 8 6 6 7 5 8 3 9 33 10 4 11 31 12
REMARK SMILES IDX 29 13 2 14 1 15 34 17 32 19 30 21 27 23 28 24 9 26 11 28
REMARK SMILES IDX 13 30 14 31 22 32 15 33 21 34 17 35 19 36 23 37 24 38 16 40
REMARK SMILES IDX 18 42 20 44
REMARK H PARENT 1 16 34 18 32 20 30 22 28 25 9 27 11 29 24 39 16 41 18 43
REMARK H PARENT 20 45
REMARK Flexibility Score: inf
ROOT
ATOM      1  C   UNL     1       8.322  -5.845  36.695  1.00  0.00     0.184 C 
ATOM      2  C   UNL     1      10.080  -5.714  37.069  1.00  0.00     0.178 C 
ATOM      3  O   UNL     1      10.840  -6.292  36.119  1.00  0.00    -0.341 OA
ATOM      4  C   UNL     1      10.323  -7.080  35.102  1.00  0.00     0.282 C 
ATOM      5  C   UNL     1       9.378  -6.061  34.229  1.00  0.00     0.202 C 
ATOM      6  C   UNL     1       8.172  -5.380  35.158  1.00  0.00     0.180 C 
ENDROOT
BRANCH   1   7
ATOM      7  O   UNL     1       7.116  -6.796  37.002  1.00  0.00    -0.341 OA
BRANCH   7   8
ATOM      8  C   UNL     1       5.767  -7.630  36.990  1.00  0.00     0.282 C 
ATOM      9  C   UNL     1       4.696  -9.234  35.240  1.00  0.00     0.178 C 
ATOM     10  C   UNL     1       3.263  -9.135  35.831  1.00  0.00     0.177 C 
ATOM     11  O   UNL     1       5.751  -8.898  36.139  1.00  0.00    -0.341 OA
ATOM     12  C   UNL     1       3.150  -7.876  36.758  1.00  0.00     0.179 C 
ATOM     13  C   UNL     1       4.342  -6.849  36.966  1.00  0.00     0.202 C 
BRANCH   9  14
ATOM     14  C   UNL     1       4.660 -10.690  34.570  1.00  0.00     0.191 C 
BRANCH  14  15
ATOM     15  O   UNL     1       5.542 -11.571  35.178  1.00  0.00    -0.394 OA
ATOM     16  H   UNL     1       4.932 -12.079  35.825  1.00  0.00     0.210 HD
ENDBRANCH  14  15
ENDBRANCH   9  14
BRANCH  10  17
ATOM     17  O   UNL     1       3.020 -10.283  36.652  1.00  0.00    -0.387 OA
ATOM     18  H   UNL     1       3.697 -10.429  37.337  1.00  0.00     0.211 HD
ENDBRANCH  10  17
BRANCH  12  19
ATOM     19  O   UNL     1       1.878  -7.336  36.863  1.00  0.00    -0.387 OA
ATOM     20  H   UNL     1       2.016  -6.304  36.924  1.00  0.00     0.211 HD
ENDBRANCH  12  19
BRANCH  13  21
ATOM     21  O   UNL     1       4.246  -5.804  35.987  1.00  0.00    -0.385 OA
ATOM     22  H   UNL     1       3.651  -5.063  36.337  1.00  0.00     0.211 HD
ENDBRANCH  13  21
ENDBRANCH   7   8
ENDBRANCH   1   7
BRANCH   2  23
ATOM     23  C   UNL     1      11.292  -4.468  37.367  1.00  0.00     0.191 C 
BRANCH  23  24
ATOM     24  O   UNL     1      12.463  -3.502  37.235  1.00  0.00    -0.394 OA
ATOM     25  H   UNL     1      13.415  -3.939  37.320  1.00  0.00     0.210 HD
ENDBRANCH  23  24
ENDBRANCH   2  23
BRANCH   6  26
ATOM     26  O   UNL     1       8.043  -3.937  35.188  1.00  0.00    -0.387 OA
ATOM     27  H   UNL     1       7.633  -3.616  36.001  1.00  0.00     0.211 HD
ENDBRANCH   6  26
BRANCH   5  28
ATOM     28  O   UNL     1      10.092  -4.967  33.550  1.00  0.00    -0.385 OA
ATOM     29  H   UNL     1      10.502  -5.250  32.677  1.00  0.00     0.211 HD
ENDBRANCH   5  28
BRANCH   4  30
ATOM     30  O   UNL     1      10.450  -8.502  35.848  1.00  0.00    -0.341 OA
BRANCH  30  31
ATOM     31  C   UNL     1       9.885  -9.401  37.018  1.00  0.00     0.184 C 
ATOM     32  C   UNL     1      10.991 -10.425  37.763  1.00  0.00     0.178 C 
ATOM     33  C   UNL     1       8.918 -10.514  36.239  1.00  0.00     0.180 C 
ATOM     34  O   UNL     1      11.461 -11.566  37.055  1.00  0.00    -0.342 OA
ATOM     35  C   UNL     1       9.835 -11.542  35.347  1.00  0.00     0.201 C 
ATOM     36  C   UNL     1      11.407 -11.484  35.657  1.00  0.00     0.279 C 
BRANCH  32  37
ATOM     37  C   UNL     1      12.194  -9.821  38.305  1.00  0.00     0.191 C 
BRANCH  37  38
ATOM     38  O   UNL     1      12.283  -8.468  37.925  1.00  0.00    -0.394 OA
ATOM     39  H   UNL     1      11.921  -8.363  37.007  1.00  0.00     0.210 HD
ENDBRANCH  37  38
ENDBRANCH  32  37
BRANCH  33  40
ATOM     40  O   UNL     1       8.116  -9.797  35.303  1.00  0.00    -0.387 OA
ATOM     41  H   UNL     1       7.629 -10.458  34.784  1.00  0.00     0.211 HD
ENDBRANCH  33  40
BRANCH  35  42
ATOM     42  O   UNL     1       9.334 -12.856  35.127  1.00  0.00    -0.385 OA
ATOM     43  H   UNL     1       8.278 -12.633  35.280  1.00  0.00     0.211 HD
ENDBRANCH  35  42
BRANCH  36  44
ATOM     44  O   UNL     1      12.034 -12.585  35.131  1.00  0.00    -0.366 OA
ATOM     45  H   UNL     1      11.480 -13.394  35.161  1.00  0.00     0.213 HD
ENDBRANCH  36  44
ENDBRANCH  30  31
ENDBRANCH   4  30
TORSDOF 18
ENDMDL
MODEL 4
REMARK VINA RESULT:    -5.880      2.190      6.588
REMARK INTER + INTRA:         -11.124
REMARK INTER:                  -8.498
REMARK INTRA:                  -2.626
REMARK UNBOUND:                -1.463
REMARK SMILES OC[C@@H]1O[C@@H](O[C@@H]2[C@@H](O)[C@@H](O)[C@H](O[C@H]3[C@@H](O)[C@H](O)[C@H](O)O[C@H]3CO)O[C@H]2CO)[C@@H](O)[C@@H](O)[C@@H]1O
REMARK SMILES IDX 7 1 26 2 25 3 12 4 10 5 8 6 6 7 5 8 3 9 33 10 4 11 31 12
REMARK SMILES IDX 29 13 2 14 1 15 34 17 32 19 30 21 27 23 28 24 9 26 11 28
REMARK SMILES IDX 13 30 14 31 22 32 15 33 21 34 17 35 19 36 23 37 24 38 16 40
REMARK SMILES IDX 18 42 20 44
REMARK H PARENT 1 16 34 18 32 20 30 22 28 25 9 27 11 29 24 39 16 41 18 43
REMARK H PARENT 20 45
REMARK Flexibility Score: inf
ROOT
ATOM      1  C   UNL     1       6.401  -7.576  35.092  1.00  0.00     0.184 C 
ATOM      2  C   UNL     1       5.695  -9.223  35.298  1.00  0.00     0.178 C 
ATOM      3  O   UNL     1       5.604  -9.571  36.595  1.00  0.00    -0.341 OA
ATOM      4  C   UNL     1       6.187  -8.846  37.624  1.00  0.00     0.282 C 
ATOM      5  C   UNL     1       5.421  -7.395  37.592  1.00  0.00     0.202 C 
ATOM      6  C   UNL     1       5.596  -6.631  36.120  1.00  0.00     0.180 C 
ENDROOT
BRANCH   1   7
ATOM      7  O   UNL     1       7.800  -6.911  34.863  1.00  0.00    -0.341 OA
BRANCH   7   8
ATOM      8  C   UNL     1       9.228  -6.234  35.000  1.00  0.00     0.282 C 
ATOM      9  C   UNL     1      10.339  -4.817  36.882  1.00  0.00     0.178 C 
ATOM     10  C   UNL     1      11.429  -4.205  35.960  1.00  0.00     0.177 C 
ATOM     11  O   UNL     1       9.760  -6.034  36.418  1.00  0.00    -0.341 OA
ATOM     12  C   UNL     1      11.015  -4.370  34.457  1.00  0.00     0.179 C 
ATOM     13  C   UNL     1       9.635  -5.013  34.008  1.00  0.00     0.202 C 
BRANCH   9  14
ATOM     14  C   UNL     1      11.074  -4.781  38.305  1.00  0.00     0.191 C 
BRANCH  14  15
ATOM     15  O   UNL     1      11.697  -5.984  38.606  1.00  0.00    -0.394 OA
ATOM     16  H   UNL     1      10.964  -6.667  38.400  1.00  0.00     0.210 HD
ENDBRANCH  14  15
ENDBRANCH   9  14
BRANCH  10  17
ATOM     17  O   UNL     1      12.649  -4.932  36.140  1.00  0.00    -0.387 OA
ATOM     18  H   UNL     1      13.419  -4.524  35.706  1.00  0.00     0.211 HD
ENDBRANCH  10  17
BRANCH  12  19
ATOM     19  O   UNL     1      11.528  -3.411  33.598  1.00  0.00    -0.387 OA
ATOM     20  H   UNL     1      11.240  -2.493  33.999  1.00  0.00     0.211 HD
ENDBRANCH  12  19
BRANCH  13  21
ATOM     21  O   UNL     1       8.645  -3.981  33.889  1.00  0.00    -0.385 OA
ATOM     22  H   UNL     1       8.937  -3.167  34.417  1.00  0.00     0.211 HD
ENDBRANCH  13  21
ENDBRANCH   7   8
ENDBRANCH   1   7
BRANCH   2  23
ATOM     23  C   UNL     1       4.222 -10.102  34.893  1.00  0.00     0.191 C 
BRANCH  23  24
ATOM     24  O   UNL     1       2.811 -10.677  34.899  1.00  0.00    -0.394 OA
ATOM     25  H   UNL     1       2.091 -10.091  35.392  1.00  0.00     0.210 HD
ENDBRANCH  23  24
ENDBRANCH   2  23
BRANCH   6  26
ATOM     26  O   UNL     1       4.408  -6.193  35.414  1.00  0.00    -0.387 OA
ATOM     27  H   UNL     1       4.066  -6.863  34.807  1.00  0.00     0.211 HD
ENDBRANCH   6  26
BRANCH   5  28
ATOM     28  O   UNL     1       3.983  -7.435  37.908  1.00  0.00    -0.385 OA
ATOM     29  H   UNL     1       3.800  -7.667  38.868  1.00  0.00     0.211 HD
ENDBRANCH   5  28
BRANCH   4  30
ATOM     30  O   UNL     1       7.590  -9.634  37.673  1.00  0.00    -0.341 OA
BRANCH  30  31
ATOM     31  C   UNL     1       8.411 -10.763  38.413  1.00  0.00     0.184 C 
ATOM     32  C   UNL     1      10.086 -10.618  38.353  1.00  0.00     0.178 C 
ATOM     33  C   UNL     1       8.189 -12.113  37.460  1.00  0.00     0.180 C 
ATOM     34  O   UNL     1      10.757 -10.874  37.124  1.00  0.00    -0.342 OA
ATOM     35  C   UNL     1       8.960 -11.930  36.022  1.00  0.00     0.201 C 
ATOM     36  C   UNL     1       9.992 -10.706  35.962  1.00  0.00     0.279 C 
BRANCH  32  37
ATOM     37  C   UNL     1      10.662  -9.371  38.820  1.00  0.00     0.191 C 
BRANCH  37  38
ATOM     38  O   UNL     1       9.886  -8.277  38.392  1.00  0.00    -0.394 OA
ATOM     39  H   UNL     1       9.102  -8.612  37.886  1.00  0.00     0.210 HD
ENDBRANCH  37  38
ENDBRANCH  32  37
BRANCH  33  40
ATOM     40  O   UNL     1       6.799 -12.189  37.149  1.00  0.00    -0.387 OA
ATOM     41  H   UNL     1       6.580 -13.130  37.063  1.00  0.00     0.211 HD
ENDBRANCH  33  40
BRANCH  35  42
ATOM     42  O   UNL     1       9.412 -13.106  35.358  1.00  0.00    -0.385 OA
ATOM     43  H   UNL     1       8.998 -12.881  34.375  1.00  0.00     0.211 HD
ENDBRANCH  35  42
BRANCH  36  44
ATOM     44  O   UNL     1      10.819 -10.836  34.874  1.00  0.00    -0.366 OA
ATOM     45  H   UNL     1      11.587 -11.421  35.043  1.00  0.00     0.213 HD
ENDBRANCH  36  44
ENDBRANCH  30  31
ENDBRANCH   4  30
TORSDOF 18
ENDMDL
MODEL 5
REMARK VINA RESULT:    -5.824      1.747      6.505
REMARK INTER + INTRA:         -11.032
REMARK INTER:                  -8.564
REMARK INTRA:                  -2.469
REMARK UNBOUND:                -1.463
REMARK SMILES OC[C@@H]1O[C@@H](O[C@@H]2[C@@H](O)[C@@H](O)[C@H](O[C@H]3[C@@H](O)[C@H](O)[C@H](O)O[C@H]3CO)O[C@H]2CO)[C@@H](O)[C@@H](O)[C@@H]1O
REMARK SMILES IDX 7 1 26 2 25 3 12 4 10 5 8 6 6 7 5 8 3 9 33 10 4 11 31 12
REMARK SMILES IDX 29 13 2 14 1 15 34 17 32 19 30 21 27 23 28 24 9 26 11 28
REMARK SMILES IDX 13 30 14 31 22 32 15 33 21 34 17 35 19 36 23 37 24 38 16 40
REMARK SMILES IDX 18 42 20 44
REMARK H PARENT 1 16 34 18 32 20 30 22 28 25 9 27 11 29 24 39 16 41 18 43
REMARK H PARENT 20 45
REMARK Flexibility Score: inf
ROOT
ATOM      1  C   UNL     1       8.193  -6.805  35.259  1.00  0.00     0.184 C 
ATOM      2  C   UNL     1       7.210  -8.295  35.003  1.00  0.00     0.178 C 
ATOM      3  O   UNL     1       6.783  -8.820  36.168  1.00  0.00    -0.341 OA
ATOM      4  C   UNL     1       7.232  -8.394  37.409  1.00  0.00     0.282 C 
ATOM      5  C   UNL     1       6.729  -6.835  37.517  1.00  0.00     0.202 C 
ATOM      6  C   UNL     1       7.340  -5.896  36.281  1.00  0.00     0.180 C 
ENDROOT
BRANCH   1   7
ATOM      7  O   UNL     1       9.694  -6.395  35.429  1.00  0.00    -0.341 OA
BRANCH   7   8
ATOM      8  C   UNL     1      11.076  -5.731  35.838  1.00  0.00     0.282 C 
ATOM      9  C   UNL     1      12.460  -5.744  38.044  1.00  0.00     0.178 C 
ATOM     10  C   UNL     1      13.298  -4.487  37.681  1.00  0.00     0.177 C 
ATOM     11  O   UNL     1      11.875  -6.427  36.937  1.00  0.00    -0.341 OA
ATOM     12  C   UNL     1      12.594  -3.687  36.531  1.00  0.00     0.179 C 
ATOM     13  C   UNL     1      11.193  -4.112  35.917  1.00  0.00     0.202 C 
BRANCH   9  14
ATOM     14  C   UNL     1      13.470  -6.525  39.013  1.00  0.00     0.191 C 
BRANCH  14  15
ATOM     15  O   UNL     1      14.008  -7.655  38.413  1.00  0.00    -0.394 OA
ATOM     16  H   UNL     1      14.501  -7.260  37.607  1.00  0.00     0.210 HD
ENDBRANCH  14  15
ENDBRANCH   9  14
BRANCH  10  17
ATOM     17  O   UNL     1      14.571  -4.908  37.180  1.00  0.00    -0.387 OA
ATOM     18  H   UNL     1      15.022  -5.559  37.746  1.00  0.00     0.211 HD
ENDBRANCH  10  17
BRANCH  12  19
ATOM     19  O   UNL     1      12.860  -2.327  36.515  1.00  0.00    -0.387 OA
ATOM     20  H   UNL     1      12.370  -1.936  37.348  1.00  0.00     0.211 HD
ENDBRANCH  12  19
BRANCH  13  21
ATOM     21  O   UNL     1      10.139  -3.468  36.646  1.00  0.00    -0.385 OA
ATOM     22  H   UNL     1       9.255  -3.622  36.175  1.00  0.00     0.211 HD
ENDBRANCH  13  21
ENDBRANCH   7   8
ENDBRANCH   1   7
BRANCH   2  23
ATOM     23  C   UNL     1       5.742  -8.798  34.167  1.00  0.00     0.191 C 
BRANCH  23  24
ATOM     24  O   UNL     1       4.633  -8.984  33.139  1.00  0.00    -0.394 OA
ATOM     25  H   UNL     1       3.795  -8.362  33.267  1.00  0.00     0.210 HD
ENDBRANCH  23  24
ENDBRANCH   2  23
BRANCH   6  26
ATOM     26  O   UNL     1       6.420  -5.131  35.464  1.00  0.00    -0.387 OA
ATOM     27  H   UNL     1       6.859  -4.676  34.734  1.00  0.00     0.211 HD
ENDBRANCH   6  26
BRANCH   5  28
ATOM     28  O   UNL     1       5.269  -6.645  37.544  1.00  0.00    -0.385 OA
ATOM     29  H   UNL     1       4.895  -6.359  36.657  1.00  0.00     0.211 HD
ENDBRANCH   5  28
BRANCH   4  30
ATOM     30  O   UNL     1       8.449  -9.436  37.565  1.00  0.00    -0.341 OA
BRANCH  30  31
ATOM     31  C   UNL     1       8.906 -10.797  38.224  1.00  0.00     0.184 C 
ATOM     32  C   UNL     1      10.554 -11.131  38.164  1.00  0.00     0.178 C 
ATOM     33  C   UNL     1       8.322 -11.964  37.186  1.00  0.00     0.180 C 
ATOM     34  O   UNL     1      11.141 -11.487  36.918  1.00  0.00    -0.342 OA
ATOM     35  C   UNL     1       9.132 -11.915  35.759  1.00  0.00     0.201 C 
ATOM     36  C   UNL     1      10.470 -11.034  35.774  1.00  0.00     0.279 C 
BRANCH  32  37
ATOM     37  C   UNL     1      11.454 -10.132  38.710  1.00  0.00     0.191 C 
BRANCH  37  38
ATOM     38  O   UNL     1      11.079  -8.843  38.285  1.00  0.00    -0.394 OA
ATOM     39  H   UNL     1      10.427  -8.923  37.541  1.00  0.00     0.210 HD
ENDBRANCH  37  38
ENDBRANCH  32  37
BRANCH  33  40
ATOM     40  O   UNL     1       6.972 -11.621  36.879  1.00  0.00    -0.387 OA
ATOM     41  H   UNL     1       6.986 -11.156  36.027  1.00  0.00     0.211 HD
ENDBRANCH  33  40
BRANCH  35  42
ATOM     42  O   UNL     1       9.240 -13.125  35.017  1.00  0.00    -0.385 OA
ATOM     43  H   UNL     1       9.032 -12.706  34.032  1.00  0.00     0.211 HD
ENDBRANCH  35  42
BRANCH  36  44
ATOM     44  O   UNL     1      11.240 -11.322  34.675  1.00  0.00    -0.366 OA
ATOM     45  H   UNL     1      12.191 -11.127  34.810  1.00  0.00     0.213 HD
ENDBRANCH  36  44
ENDBRANCH  30  31
ENDBRANCH   4  30
TORSDOF 18
ENDMDL
MODEL 6
REMARK VINA RESULT:    -5.725      2.149      2.892
REMARK INTER + INTRA:         -10.869
REMARK INTER:                  -8.300
REMARK INTRA:                  -2.570
REMARK UNBOUND:                -1.463
REMARK SMILES OC[C@@H]1O[C@@H](O[C@@H]2[C@@H](O)[C@@H](O)[C@H](O[C@H]3[C@@H](O)[C@H](O)[C@H](O)O[C@H]3CO)O[C@H]2CO)[C@@H](O)[C@@H](O)[C@@H]1O
REMARK SMILES IDX 7 1 26 2 25 3 12 4 10 5 8 6 6 7 5 8 3 9 33 10 4 11 31 12
REMARK SMILES IDX 29 13 2 14 1 15 34 17 32 19 30 21 27 23 28 24 9 26 11 28
REMARK SMILES IDX 13 30 14 31 22 32 15 33 21 34 17 35 19 36 23 37 24 38 16 40
REMARK SMILES IDX 18 42 20 44
REMARK H PARENT 1 16 34 18 32 20 30 22 28 25 9 27 11 29 24 39 16 41 18 43
REMARK H PARENT 20 45
REMARK Flexibility Score: inf
ROOT
ATOM      1  C   UNL     1       6.129  -9.882  37.309  1.00  0.00     0.184 C 
ATOM      2  C   UNL     1       5.307  -8.307  37.616  1.00  0.00     0.178 C 
ATOM      3  O   UNL     1       5.415  -7.472  36.566  1.00  0.00    -0.341 OA
ATOM      4  C   UNL     1       6.243  -7.712  35.480  1.00  0.00     0.282 C 
ATOM      5  C   UNL     1       5.635  -9.072  34.790  1.00  0.00     0.202 C 
ATOM      6  C   UNL     1       5.621 -10.356  35.855  1.00  0.00     0.180 C 
ENDROOT
BRANCH   1   7
ATOM      7  O   UNL     1       7.525 -10.552  37.545  1.00  0.00    -0.341 OA
BRANCH   7   8
ATOM      8  C   UNL     1       8.955 -11.226  37.413  1.00  0.00     0.282 C 
ATOM      9  C   UNL     1      11.357 -10.408  37.999  1.00  0.00     0.178 C 
ATOM     10  C   UNL     1      12.074 -11.443  37.091  1.00  0.00     0.177 C 
ATOM     11  O   UNL     1      10.030 -10.755  38.389  1.00  0.00    -0.341 OA
ATOM     12  C   UNL     1      11.063 -12.032  36.046  1.00  0.00     0.179 C 
ATOM     13  C   UNL     1       9.556 -11.548  35.937  1.00  0.00     0.202 C 
BRANCH   9  14
ATOM     14  C   UNL     1      12.471 -10.149  39.122  1.00  0.00     0.191 C 
BRANCH  14  15
ATOM     15  O   UNL     1      13.245  -9.031  38.848  1.00  0.00    -0.394 OA
ATOM     16  H   UNL     1      12.774  -8.634  38.031  1.00  0.00     0.210 HD
ENDBRANCH  14  15
ENDBRANCH   9  14
BRANCH  10  17
ATOM     17  O   UNL     1      12.525 -12.535  37.899  1.00  0.00    -0.387 OA
ATOM     18  H   UNL     1      12.645 -12.308  38.838  1.00  0.00     0.211 HD
ENDBRANCH  10  17
BRANCH  12  19
ATOM     19  O   UNL     1      11.632 -12.469  34.861  1.00  0.00    -0.387 OA
ATOM     20  H   UNL     1      11.304 -11.802  34.130  1.00  0.00     0.211 HD
ENDBRANCH  12  19
BRANCH  13  21
ATOM     21  O   UNL     1       9.471 -10.461  35.004  1.00  0.00    -0.385 OA
ATOM     22  H   UNL     1       8.681 -10.603  34.387  1.00  0.00     0.211 HD
ENDBRANCH  13  21
ENDBRANCH   7   8
ENDBRANCH   1   7
BRANCH   2  23
ATOM     23  C   UNL     1       3.704  -7.695  38.019  1.00  0.00     0.191 C 
BRANCH  23  24
ATOM     24  O   UNL     1       2.197  -7.510  38.148  1.00  0.00    -0.394 OA
ATOM     25  H   UNL     1       1.879  -6.519  38.296  1.00  0.00     0.210 HD
ENDBRANCH  23  24
ENDBRANCH   2  23
BRANCH   6  26
ATOM     26  O   UNL     1       4.377 -11.066  36.077  1.00  0.00    -0.387 OA
ATOM     27  H   UNL     1       3.615 -10.611  35.696  1.00  0.00     0.211 HD
ENDBRANCH   6  26
BRANCH   5  28
ATOM     28  O   UNL     1       4.282  -8.942  34.227  1.00  0.00    -0.385 OA
ATOM     29  H   UNL     1       3.560  -9.182  34.883  1.00  0.00     0.211 HD
ENDBRANCH   5  28
BRANCH   4  30
ATOM     30  O   UNL     1       7.545  -6.939  36.028  1.00  0.00    -0.341 OA
BRANCH  30  31
ATOM     31  C   UNL     1       8.068  -5.866  37.064  1.00  0.00     0.184 C 
ATOM     32  C   UNL     1       8.825  -4.514  36.409  1.00  0.00     0.178 C 
ATOM     33  C   UNL     1       9.366  -6.614  37.797  1.00  0.00     0.180 C 
ATOM     34  O   UNL     1      10.119  -4.657  35.836  1.00  0.00    -0.342 OA
ATOM     35  C   UNL     1      10.603  -6.785  36.732  1.00  0.00     0.201 C 
ATOM     36  C   UNL     1      10.448  -5.940  35.378  1.00  0.00     0.279 C 
BRANCH  32  37
ATOM     37  C   UNL     1       8.082  -3.750  35.424  1.00  0.00     0.191 C 
BRANCH  37  38
ATOM     38  O   UNL     1       6.740  -4.172  35.379  1.00  0.00    -0.394 OA
ATOM     39  H   UNL     1       6.153  -3.380  35.271  1.00  0.00     0.210 HD
ENDBRANCH  37  38
ENDBRANCH  32  37
BRANCH  33  40
ATOM     40  O   UNL     1       8.957  -7.939  38.133  1.00  0.00    -0.387 OA
ATOM     41  H   UNL     1       9.006  -8.012  39.099  1.00  0.00     0.211 HD
ENDBRANCH  33  40
BRANCH  35  42
ATOM     42  O   UNL     1      11.928  -6.809  37.253  1.00  0.00    -0.385 OA
ATOM     43  H   UNL     1      11.830  -5.959  37.928  1.00  0.00     0.211 HD
ENDBRANCH  35  42
BRANCH  36  44
ATOM     44  O   UNL     1      11.650  -5.874  34.720  1.00  0.00    -0.366 OA
ATOM     45  H   UNL     1      11.576  -5.489  33.822  1.00  0.00     0.213 HD
ENDBRANCH  36  44
ENDBRANCH  30  31
ENDBRANCH   4  30
TORSDOF 18
ENDMDL
MODEL 7
REMARK VINA RESULT:    -5.723      1.845      6.953
REMARK INTER + INTRA:         -10.866
REMARK INTER:                  -8.178
REMARK INTRA:                  -2.688
REMARK UNBOUND:                -1.463
REMARK SMILES OC[C@@H]1O[C@@H](O[C@@H]2[C@@H](O)[C@@H](O)[C@H](O[C@H]3[C@@H](O)[C@H](O)[C@H](O)O[C@H]3CO)O[C@H]2CO)[C@@H](O)[C@@H](O)[C@@H]1O
REMARK SMILES IDX 7 1 26 2 25 3 12 4 10 5 8 6 6 7 5 8 3 9 33 10 4 11 31 12
REMARK SMILES IDX 29 13 2 14 1 15 34 17 32 19 30 21 27 23 28 24 9 26 11 28
REMARK SMILES IDX 13 30 14 31 22 32 15 33 21 34 17 35 19 36 23 37 24 38 16 40
REMARK SMILES IDX 18 42 20 44
REMARK H PARENT 1 16 34 18 32 20 30 22 28 25 9 27 11 29 24 39 16 41 18 43
REMARK H PARENT 20 45
REMARK Flexibility Score: inf
ROOT
ATOM      1  C   UNL     1       9.651  -9.241  38.607  1.00  0.00     0.184 C 
ATOM      2  C   UNL     1       8.321 -10.325  38.054  1.00  0.00     0.178 C 
ATOM      3  O   UNL     1       8.454 -10.660  36.756  1.00  0.00    -0.341 OA
ATOM      4  C   UNL     1       9.370 -10.064  35.903  1.00  0.00     0.282 C 
ATOM      5  C   UNL     1      10.835 -10.468  36.525  1.00  0.00     0.202 C 
ATOM      6  C   UNL     1      11.013  -9.935  38.095  1.00  0.00     0.180 C 
ENDROOT
BRANCH   1   7
ATOM      7  O   UNL     1       9.946  -7.710  38.749  1.00  0.00    -0.341 OA
BRANCH   7   8
ATOM      8  C   UNL     1      10.404  -6.203  38.560  1.00  0.00     0.282 C 
ATOM      9  C   UNL     1       9.362  -4.184  37.287  1.00  0.00     0.178 C 
ATOM     10  C   UNL     1      10.683  -3.370  37.228  1.00  0.00     0.177 C 
ATOM     11  O   UNL     1       9.302  -5.176  38.310  1.00  0.00    -0.341 OA
ATOM     12  C   UNL     1      11.907  -4.311  37.499  1.00  0.00     0.179 C 
ATOM     13  C   UNL     1      11.758  -5.876  37.724  1.00  0.00     0.202 C 
BRANCH   9  14
ATOM     14  C   UNL     1       8.268  -3.013  37.254  1.00  0.00     0.191 C 
BRANCH  14  15
ATOM     15  O   UNL     1       7.553  -2.993  36.066  1.00  0.00    -0.394 OA
ATOM     16  H   UNL     1       6.600  -3.190  36.381  1.00  0.00     0.210 HD
ENDBRANCH  14  15
ENDBRANCH   9  14
BRANCH  10  17
ATOM     17  O   UNL     1      10.670  -2.389  38.272  1.00  0.00    -0.387 OA
ATOM     18  H   UNL     1      11.314  -1.671  38.146  1.00  0.00     0.211 HD
ENDBRANCH  10  17
BRANCH  12  19
ATOM     19  O   UNL     1      13.098  -3.907  36.919  1.00  0.00    -0.387 OA
ATOM     20  H   UNL     1      13.029  -4.183  35.916  1.00  0.00     0.211 HD
ENDBRANCH  12  19
BRANCH  13  21
ATOM     21  O   UNL     1      11.862  -6.550  36.461  1.00  0.00    -0.385 OA
ATOM     22  H   UNL     1      12.480  -6.032  35.848  1.00  0.00     0.211 HD
ENDBRANCH  13  21
ENDBRANCH   7   8
ENDBRANCH   1   7
BRANCH   2  23
ATOM     23  C   UNL     1       7.626 -11.896  38.452  1.00  0.00     0.191 C 
BRANCH  23  24
ATOM     24  O   UNL     1       6.723 -13.009  38.967  1.00  0.00    -0.394 OA
ATOM     25  H   UNL     1       5.736 -12.721  39.184  1.00  0.00     0.210 HD
ENDBRANCH  23  24
ENDBRANCH   2  23
BRANCH   6  26
ATOM     26  O   UNL     1      11.386 -10.890  39.119  1.00  0.00    -0.387 OA
ATOM     27  H   UNL     1      11.809 -11.679  38.757  1.00  0.00     0.211 HD
ENDBRANCH   6  26
BRANCH   5  28
ATOM     28  O   UNL     1      11.155 -11.905  36.500  1.00  0.00    -0.385 OA
ATOM     29  H   UNL     1      10.757 -12.381  35.710  1.00  0.00     0.211 HD
ENDBRANCH   5  28
BRANCH   4  30
ATOM     30  O   UNL     1       8.415  -8.896  35.342  1.00  0.00    -0.341 OA
BRANCH  30  31
ATOM     31  C   UNL     1       7.846  -8.208  34.039  1.00  0.00     0.184 C 
ATOM     32  C   UNL     1       7.976  -6.533  33.970  1.00  0.00     0.178 C 
ATOM     33  C   UNL     1       6.193  -8.378  34.182  1.00  0.00     0.180 C 
ATOM     34  O   UNL     1       7.141  -5.740  34.806  1.00  0.00    -0.342 OA
ATOM     35  C   UNL     1       5.628  -7.446  35.409  1.00  0.00     0.201 C 
ATOM     36  C   UNL     1       6.670  -6.364  35.969  1.00  0.00     0.279 C 
BRANCH  32  37
ATOM     37  C   UNL     1       9.299  -5.963  34.146  1.00  0.00     0.191 C 
BRANCH  37  38
ATOM     38  O   UNL     1      10.256  -6.979  34.327  1.00  0.00    -0.394 OA
ATOM     39  H   UNL     1      10.685  -7.182  33.455  1.00  0.00     0.210 HD
ENDBRANCH  37  38
ENDBRANCH  32  37
BRANCH  33  40
ATOM     40  O   UNL     1       5.937  -9.726  34.568  1.00  0.00    -0.387 OA
ATOM     41  H   UNL     1       6.729 -10.042  35.031  1.00  0.00     0.211 HD
ENDBRANCH  33  40
BRANCH  35  42
ATOM     42  O   UNL     1       4.289  -6.971  35.318  1.00  0.00    -0.385 OA
ATOM     43  H   UNL     1       4.463  -6.199  34.569  1.00  0.00     0.211 HD
ENDBRANCH  35  42
BRANCH  36  44
ATOM     44  O   UNL     1       6.018  -5.429  36.732  1.00  0.00    -0.366 OA
ATOM     45  H   UNL     1       5.448  -5.827  37.423  1.00  0.00     0.213 HD
ENDBRANCH  36  44
ENDBRANCH  30  31
ENDBRANCH   4  30
TORSDOF 18
ENDMDL
MODEL 8
REMARK VINA RESULT:    -5.675      2.548      6.682
REMARK INTER + INTRA:         -10.787
REMARK INTER:                  -8.524
REMARK INTRA:                  -2.263
REMARK UNBOUND:                -1.463
REMARK SMILES OC[C@@H]1O[C@@H](O[C@@H]2[C@@H](O)[C@@H](O)[C@H](O[C@H]3[C@@H](O)[C@H](O)[C@H](O)O[C@H]3CO)O[C@H]2CO)[C@@H](O)[C@@H](O)[C@@H]1O
REMARK SMILES IDX 7 1 26 2 25 3 12 4 10 5 8 6 6 7 5 8 3 9 33 10 4 11 31 12
REMARK SMILES IDX 29 13 2 14 1 15 34 17 32 19 30 21 27 23 28 24 9 26 11 28
REMARK SMILES IDX 13 30 14 31 22 32 15 33 21 34 17 35 19 36 23 37 24 38 16 40
REMARK SMILES IDX 18 42 20 44
REMARK H PARENT 1 16 34 18 32 20 30 22 28 25 9 27 11 29 24 39 16 41 18 43
REMARK H PARENT 20 45
REMARK Flexibility Score: inf
ROOT
ATOM      1  C   UNL     1       8.312  -6.273  35.120  1.00  0.00     0.184 C 
ATOM      2  C   UNL     1       9.957  -5.650  35.515  1.00  0.00     0.178 C 
ATOM      3  O   UNL     1      10.819  -6.648  35.785  1.00  0.00    -0.341 OA
ATOM      4  C   UNL     1      10.432  -7.969  35.956  1.00  0.00     0.282 C 
ATOM      5  C   UNL     1       9.822  -8.411  34.497  1.00  0.00     0.202 C 
ATOM      6  C   UNL     1       8.544  -7.445  34.037  1.00  0.00     0.180 C 
ENDROOT
BRANCH   1   7
ATOM      7  O   UNL     1       6.961  -6.586  35.846  1.00  0.00    -0.341 OA
BRANCH   7   8
ATOM      8  C   UNL     1       5.763  -7.219  36.673  1.00  0.00     0.282 C 
ATOM      9  C   UNL     1       4.905  -9.662  36.952  1.00  0.00     0.178 C 
ATOM     10  C   UNL     1       3.496  -9.249  37.458  1.00  0.00     0.177 C 
ATOM     11  O   UNL     1       5.922  -8.674  37.107  1.00  0.00    -0.341 OA
ATOM     12  C   UNL     1       3.213  -7.750  37.096  1.00  0.00     0.179 C 
ATOM     13  C   UNL     1       4.231  -6.856  36.269  1.00  0.00     0.202 C 
BRANCH   9  14
ATOM     14  C   UNL     1       5.081 -11.096  37.646  1.00  0.00     0.191 C 
BRANCH  14  15
ATOM     15  O   UNL     1       5.832 -11.028  38.811  1.00  0.00    -0.394 OA
ATOM     16  H   UNL     1       6.590 -10.394  38.545  1.00  0.00     0.210 HD
ENDBRANCH  14  15
ENDBRANCH   9  14
BRANCH  10  17
ATOM     17  O   UNL     1       3.468  -9.348  38.886  1.00  0.00    -0.387 OA
ATOM     18  H   UNL     1       2.571  -9.399  39.261  1.00  0.00     0.211 HD
ENDBRANCH  10  17
BRANCH  12  19
ATOM     19  O   UNL     1       1.876  -7.427  36.935  1.00  0.00    -0.387 OA
ATOM     20  H   UNL     1       1.509  -8.095  36.224  1.00  0.00     0.211 HD
ENDBRANCH  12  19
BRANCH  13  21
ATOM     21  O   UNL     1       3.936  -6.970  34.869  1.00  0.00    -0.385 OA
ATOM     22  H   UNL     1       2.935  -6.909  34.727  1.00  0.00     0.211 HD
ENDBRANCH  13  21
ENDBRANCH   7   8
ENDBRANCH   1   7
BRANCH   2  23
ATOM     23  C   UNL     1      11.224  -4.669  34.781  1.00  0.00     0.191 C 
BRANCH  23  24
ATOM     24  O   UNL     1      12.030  -3.784  33.839  1.00  0.00    -0.394 OA
ATOM     25  H   UNL     1      11.465  -3.259  33.125  1.00  0.00     0.210 HD
ENDBRANCH  23  24
ENDBRANCH   2  23
BRANCH   6  26
ATOM     26  O   UNL     1       8.591  -6.791  32.744  1.00  0.00    -0.387 OA
ATOM     27  H   UNL     1       8.230  -7.340  32.036  1.00  0.00     0.211 HD
ENDBRANCH   6  26
BRANCH   5  28
ATOM     28  O   UNL     1      10.792  -8.429  33.389  1.00  0.00    -0.385 OA
ATOM     29  H   UNL     1      11.746  -8.406  33.703  1.00  0.00     0.211 HD
ENDBRANCH   5  28
BRANCH   4  30
ATOM     30  O   UNL     1      10.224  -7.927  37.552  1.00  0.00    -0.341 OA
BRANCH  30  31
ATOM     31  C   UNL     1      10.627  -8.599  38.924  1.00  0.00     0.184 C 
ATOM     32  C   UNL     1      12.086  -9.436  38.937  1.00  0.00     0.178 C 
ATOM     33  C   UNL     1       9.551  -9.863  39.086  1.00  0.00     0.180 C 
ATOM     34  O   UNL     1      12.174 -10.680  38.252  1.00  0.00    -0.342 OA
ATOM     35  C   UNL     1       9.858 -11.021  37.964  1.00  0.00     0.201 C 
ATOM     36  C   UNL     1      11.262 -10.868  37.205  1.00  0.00     0.279 C 
BRANCH  32  37
ATOM     37  C   UNL     1      13.270  -8.712  38.514  1.00  0.00     0.191 C 
BRANCH  37  38
ATOM     38  O   UNL     1      12.922  -7.443  38.012  1.00  0.00    -0.394 OA
ATOM     39  H   UNL     1      12.404  -6.952  38.700  1.00  0.00     0.210 HD
ENDBRANCH  37  38
ENDBRANCH  32  37
BRANCH  33  40
ATOM     40  O   UNL     1       8.254  -9.357  38.777  1.00  0.00    -0.387 OA
ATOM     41  H   UNL     1       7.666  -9.630  39.499  1.00  0.00     0.211 HD
ENDBRANCH  33  40
BRANCH  35  42
ATOM     42  O   UNL     1       9.515 -12.364  38.287  1.00  0.00    -0.385 OA
ATOM     43  H   UNL     1       9.006 -12.609  37.354  1.00  0.00     0.211 HD
ENDBRANCH  35  42
BRANCH  36  44
ATOM     44  O   UNL     1      11.578 -12.035  36.555  1.00  0.00    -0.366 OA
ATOM     45  H   UNL     1      11.732 -11.910  35.595  1.00  0.00     0.213 HD
ENDBRANCH  36  44
ENDBRANCH  30  31
ENDBRANCH   4  30
TORSDOF 18
ENDMDL
MODEL 9
REMARK VINA RESULT:    -5.651      2.477      6.561
REMARK INTER + INTRA:         -10.748
REMARK INTER:                  -9.157
REMARK INTRA:                  -1.591
REMARK UNBOUND:                -1.463
REMARK SMILES OC[C@@H]1O[C@@H](O[C@@H]2[C@@H](O)[C@@H](O)[C@H](O[C@H]3[C@@H](O)[C@H](O)[C@H](O)O[C@H]3CO)O[C@H]2CO)[C@@H](O)[C@@H](O)[C@@H]1O
REMARK SMILES IDX 7 1 26 2 25 3 12 4 10 5 8 6 6 7 5 8 3 9 33 10 4 11 31 12
REMARK SMILES IDX 29 13 2 14 1 15 34 17 32 19 30 21 27 23 28 24 9 26 11 28
REMARK SMILES IDX 13 30 14 31 22 32 15 33 21 34 17 35 19 36 23 37 24 38 16 40
REMARK SMILES IDX 18 42 20 44
REMARK H PARENT 1 16 34 18 32 20 30 22 28 25 9 27 11 29 24 39 16 41 18 43
REMARK H PARENT 20 45
REMARK Flexibility Score: inf
ROOT
ATOM      1  C   UNL     1       8.613 -10.329  37.211  1.00  0.00     0.184 C 
ATOM      2  C   UNL     1       9.939 -10.394  35.991  1.00  0.00     0.178 C 
ATOM      3  O   UNL     1      10.907  -9.495  36.253  1.00  0.00    -0.341 OA
ATOM      4  C   UNL     1      10.785  -8.498  37.209  1.00  0.00     0.282 C 
ATOM      5  C   UNL     1      10.656  -9.305  38.633  1.00  0.00     0.202 C 
ATOM      6  C   UNL     1       9.348 -10.339  38.646  1.00  0.00     0.180 C 
ENDROOT
BRANCH   1   7
ATOM      7  O   UNL     1       7.228  -9.628  37.413  1.00  0.00    -0.341 OA
BRANCH   7   8
ATOM      8  C   UNL     1       5.887  -8.791  37.276  1.00  0.00     0.282 C 
ATOM      9  C   UNL     1       3.560  -9.336  36.241  1.00  0.00     0.178 C 
ATOM     10  C   UNL     1       3.127  -7.850  36.104  1.00  0.00     0.177 C 
ATOM     11  O   UNL     1       4.586  -9.585  37.200  1.00  0.00    -0.341 OA
ATOM     12  C   UNL     1       4.382  -6.914  36.192  1.00  0.00     0.179 C 
ATOM     13  C   UNL     1       5.862  -7.468  36.332  1.00  0.00     0.202 C 
BRANCH   9  14
ATOM     14  C   UNL     1       2.141 -10.065  36.391  1.00  0.00     0.191 C 
BRANCH  14  15
ATOM     15  O   UNL     1       1.977 -11.090  35.471  1.00  0.00    -0.394 OA
ATOM     16  H   UNL     1       2.932 -11.442  35.363  1.00  0.00     0.210 HD
ENDBRANCH  14  15
ENDBRANCH   9  14
BRANCH  10  17
ATOM     17  O   UNL     1       2.274  -7.513  37.203  1.00  0.00    -0.387 OA
ATOM     18  H   UNL     1       1.971  -8.282  37.718  1.00  0.00     0.211 HD
ENDBRANCH  10  17
BRANCH  12  19
ATOM     19  O   UNL     1       4.261  -5.707  35.523  1.00  0.00    -0.387 OA
ATOM     20  H   UNL     1       5.157  -5.201  35.695  1.00  0.00     0.211 HD
ENDBRANCH  12  19
BRANCH  13  21
ATOM     21  O   UNL     1       6.426  -7.653  35.025  1.00  0.00    -0.385 OA
ATOM     22  H   UNL     1       7.270  -8.209  35.094  1.00  0.00     0.211 HD
ENDBRANCH  13  21
ENDBRANCH   7   8
ENDBRANCH   1   7
BRANCH   2  23
ATOM     23  C   UNL     1      11.103 -11.551  35.346  1.00  0.00     0.191 C 
BRANCH  23  24
ATOM     24  O   UNL     1      11.763 -12.699  34.592  1.00  0.00    -0.394 OA
ATOM     25  H   UNL     1      11.815 -12.578  33.549  1.00  0.00     0.210 HD
ENDBRANCH  23  24
ENDBRANCH   2  23
BRANCH   6  26
ATOM     26  O   UNL     1       9.562 -11.734  38.976  1.00  0.00    -0.387 OA
ATOM     27  H   UNL     1       8.751 -12.256  38.934  1.00  0.00     0.211 HD
ENDBRANCH   6  26
BRANCH   5  28
ATOM     28  O   UNL     1      11.844 -10.080  39.027  1.00  0.00    -0.385 OA
ATOM     29  H   UNL     1      12.370  -9.643  39.763  1.00  0.00     0.211 HD
ENDBRANCH   5  28
BRANCH   4  30
ATOM     30  O   UNL     1      10.195  -7.349  36.248  1.00  0.00    -0.341 OA
BRANCH  30  31
ATOM     31  C   UNL     1       9.229  -6.102  36.169  1.00  0.00     0.184 C 
ATOM     32  C   UNL     1       9.266  -5.226  34.734  1.00  0.00     0.178 C 
ATOM     33  C   UNL     1       9.911  -4.997  37.216  1.00  0.00     0.180 C 
ATOM     34  O   UNL     1      10.403  -4.419  34.447  1.00  0.00    -0.342 OA
ATOM     35  C   UNL     1      11.334  -4.444  36.614  1.00  0.00     0.201 C 
ATOM     36  C   UNL     1      11.597  -4.799  35.074  1.00  0.00     0.279 C 
BRANCH  32  37
ATOM     37  C   UNL     1       9.030  -5.959  33.504  1.00  0.00     0.191 C 
BRANCH  37  38
ATOM     38  O   UNL     1       9.056  -7.346  33.741  1.00  0.00    -0.394 OA
ATOM     39  H   UNL     1       8.541  -7.807  33.028  1.00  0.00     0.210 HD
ENDBRANCH  37  38
ENDBRANCH  32  37
BRANCH  33  40
ATOM     40  O   UNL     1      10.241  -5.697  38.414  1.00  0.00    -0.387 OA
ATOM     41  H   UNL     1      11.210  -5.711  38.474  1.00  0.00     0.211 HD
ENDBRANCH  33  40
BRANCH  35  42
ATOM     42  O   UNL     1      11.746  -3.133  36.987  1.00  0.00    -0.385 OA
ATOM     43  H   UNL     1      11.256  -2.594  36.177  1.00  0.00     0.211 HD
ENDBRANCH  35  42
BRANCH  36  44
ATOM     44  O   UNL     1      12.616  -4.026  34.576  1.00  0.00    -0.366 OA
ATOM     45  H   UNL     1      13.249  -4.532  34.026  1.00  0.00     0.213 HD
ENDBRANCH  36  44
ENDBRANCH  30  31
ENDBRANCH   4  30
TORSDOF 18
ENDMDL
