MODEL 1
REMARK VINA RESULT:    -3.151      0.000      0.000
REMARK INTER + INTRA:          -8.781
REMARK INTER:                  -6.098
REMARK INTRA:                  -2.682
REMARK UNBOUND:                -2.682
REMARK SMILES CCCCCCCCCCCCCCCCCC(=O)[O-]
REMARK SMILES IDX 10 1 11 2 12 3 13 4 14 5 15 6 16 7 17 8 18 9 19 10 20 11
REMARK SMILES IDX 9 12 8 13 7 14 6 15 5 16 4 17 3 18 2 19 1 20
REMARK H PARENT
REMARK Flexibility Score: inf
ROOT
ATOM      1  C   UNL     1       5.149  10.658   7.918  1.00  0.00     0.000 C 
ENDROOT
BRANCH   1   2
ATOM      2  C   UNL     1       4.605  12.098   7.809  1.00  0.00     0.000 C 
BRANCH   2   3
ATOM      3  C   UNL     1       5.700  13.154   7.580  1.00  0.00     0.000 C 
BRANCH   3   4
ATOM      4  C   UNL     1       5.887  14.092   8.780  1.00  0.00     0.000 C 
BRANCH   4   5
ATOM      5  C   UNL     1       6.950  13.549   9.745  1.00  0.00     0.000 C 
BRANCH   5   6
ATOM      6  C   UNL     1       6.340  12.964  11.030  1.00  0.00     0.000 C 
BRANCH   6   7
ATOM      7  C   UNL     1       7.324  12.062  11.796  1.00  0.00     0.006 C 
BRANCH   7   8
ATOM      8  C   UNL     1       8.772  12.257  11.326  1.00  0.00     0.053 C 
BRANCH   8   9
ATOM      9  C   UNL     1       9.579  13.038  12.318  1.00  0.00     0.041 C 
ATOM     10  O   UNL     1       9.023  13.551  13.324  1.00  0.00    -0.550 OA
ATOM     11  O   UNL     1      10.951  13.173  12.145  1.00  0.00    -0.550 OA
ENDBRANCH   8   9
ENDBRANCH   7   8
ENDBRANCH   6   7
ENDBRANCH   5   6
ENDBRANCH   4   5
ENDBRANCH   3   4
ENDBRANCH   2   3
ENDBRANCH   1   2
BRANCH   1  12
ATOM     12  C   UNL     1       6.630  10.565   7.509  1.00  0.00     0.000 C 
BRANCH  12  13
ATOM     13  C   UNL     1       7.521  10.016   8.633  1.00  0.00    -0.000 C 
BRANCH  13  14
ATOM     14  C   UNL     1       9.016  10.037   8.266  1.00  0.00    -0.000 C 
BRANCH  14  15
ATOM     15  C   UNL     1       9.298  10.843   6.989  1.00  0.00    -0.000 C 
BRANCH  15  16
ATOM     16  C   UNL     1       9.891   9.981   5.865  1.00  0.00    -0.000 C 
BRANCH  16  17
ATOM     17  C   UNL     1      10.329   8.611   6.395  1.00  0.00    -0.000 C 
BRANCH  17  18
ATOM     18  C   UNL     1       9.597   7.478   5.660  1.00  0.00    -0.000 C 
BRANCH  18  19
ATOM     19  C   UNL     1       8.206   7.899   5.163  1.00  0.00    -0.003 C 
ATOM     20  C   UNL     1       7.072   7.276   5.980  1.00  0.00     0.004 C 
ENDBRANCH  18  19
ENDBRANCH  17  18
ENDBRANCH  16  17
ENDBRANCH  15  16
ENDBRANCH  14  15
ENDBRANCH  13  14
ENDBRANCH  12  13
ENDBRANCH   1  12
TORSDOF 16
ENDMDL
MODEL 2
REMARK VINA RESULT:    -3.042      3.874      7.010
REMARK INTER + INTRA:          -8.570
REMARK INTER:                  -6.184
REMARK INTRA:                  -2.386
REMARK UNBOUND:                -2.682
REMARK SMILES CCCCCCCCCCCCCCCCCC(=O)[O-]
REMARK SMILES IDX 10 1 11 2 12 3 13 4 14 5 15 6 16 7 17 8 18 9 19 10 20 11
REMARK SMILES IDX 9 12 8 13 7 14 6 15 5 16 4 17 3 18 2 19 1 20
REMARK H PARENT
REMARK Flexibility Score: inf
ROOT
ATOM      1  C   UNL     1       7.358   7.349   7.828  1.00  0.00     0.000 C 
ENDROOT
BRANCH   1   2
ATOM      2  C   UNL     1       7.164   7.819   6.370  1.00  0.00     0.000 C 
BRANCH   2   3
ATOM      3  C   UNL     1       7.941   6.976   5.345  1.00  0.00     0.000 C 
BRANCH   3   4
ATOM      4  C   UNL     1       8.829   7.824   4.423  1.00  0.00     0.000 C 
BRANCH   4   5
ATOM      5  C   UNL     1       9.243   9.134   5.110  1.00  0.00     0.000 C 
BRANCH   5   6
ATOM      6  C   UNL     1      10.735   9.162   5.479  1.00  0.00     0.000 C 
BRANCH   6   7
ATOM      7  C   UNL     1      11.364   7.758   5.514  1.00  0.00     0.006 C 
BRANCH   7   8
ATOM      8  C   UNL     1      12.800   7.754   4.974  1.00  0.00     0.053 C 
BRANCH   8   9
ATOM      9  C   UNL     1      12.899   8.453   3.652  1.00  0.00     0.041 C 
ATOM     10  O   UNL     1      13.567   9.515   3.544  1.00  0.00    -0.550 OA
ATOM     11  O   UNL     1      12.277   7.915   2.532  1.00  0.00    -0.550 OA
ENDBRANCH   8   9
ENDBRANCH   7   8
ENDBRANCH   6   7
ENDBRANCH   5   6
ENDBRANCH   4   5
ENDBRANCH   3   4
ENDBRANCH   2   3
ENDBRANCH   1   2
BRANCH   1  12
ATOM     12  C   UNL     1       8.840   7.117   8.171  1.00  0.00     0.000 C 
BRANCH  12  13
ATOM     13  C   UNL     1       9.510   8.363   8.770  1.00  0.00    -0.000 C 
BRANCH  13  14
ATOM     14  C   UNL     1       8.519   9.520   8.988  1.00  0.00    -0.000 C 
BRANCH  14  15
ATOM     15  C   UNL     1       9.046  10.858   8.445  1.00  0.00    -0.000 C 
BRANCH  15  16
ATOM     16  C   UNL     1       7.926  11.764   7.914  1.00  0.00    -0.000 C 
BRANCH  16  17
ATOM     17  C   UNL     1       6.630  10.970   7.704  1.00  0.00    -0.000 C 
BRANCH  17  18
ATOM     18  C   UNL     1       5.401  11.884   7.822  1.00  0.00    -0.000 C 
BRANCH  18  19
ATOM     19  C   UNL     1       5.776  13.344   8.116  1.00  0.00    -0.003 C 
ATOM     20  C   UNL     1       4.948  14.342   7.306  1.00  0.00     0.004 C 
ENDBRANCH  18  19
ENDBRANCH  17  18
ENDBRANCH  16  17
ENDBRANCH  15  16
ENDBRANCH  14  15
ENDBRANCH  13  14
ENDBRANCH  12  13
ENDBRANCH   1  12
TORSDOF 16
ENDMDL
MODEL 3
REMARK VINA RESULT:    -3.038      2.393      3.988
REMARK INTER + INTRA:          -8.562
REMARK INTER:                  -5.706
REMARK INTRA:                  -2.855
REMARK UNBOUND:                -2.682
REMARK SMILES CCCCCCCCCCCCCCCCCC(=O)[O-]
REMARK SMILES IDX 10 1 11 2 12 3 13 4 14 5 15 6 16 7 17 8 18 9 19 10 20 11
REMARK SMILES IDX 9 12 8 13 7 14 6 15 5 16 4 17 3 18 2 19 1 20
REMARK H PARENT
REMARK Flexibility Score: inf
ROOT
ATOM      1  C   UNL     1       6.910   6.187   7.198  1.00  0.00     0.000 C 
ENDROOT
BRANCH   1   2
ATOM      2  C   UNL     1       6.392   7.531   6.645  1.00  0.00     0.000 C 
BRANCH   2   3
ATOM      3  C   UNL     1       4.953   7.861   7.079  1.00  0.00     0.000 C 
BRANCH   3   4
ATOM      4  C   UNL     1       4.892   8.652   8.392  1.00  0.00     0.000 C 
BRANCH   4   5
ATOM      5  C   UNL     1       5.909   9.803   8.391  1.00  0.00     0.000 C 
BRANCH   5   6
ATOM      6  C   UNL     1       5.483  10.969   7.485  1.00  0.00     0.000 C 
BRANCH   6   7
ATOM      7  C   UNL     1       5.387  12.305   8.243  1.00  0.00     0.006 C 
BRANCH   7   8
ATOM      8  C   UNL     1       6.272  13.390   7.615  1.00  0.00     0.053 C 
BRANCH   8   9
ATOM      9  C   UNL     1       7.700  13.266   8.053  1.00  0.00     0.041 C 
ATOM     10  O   UNL     1       7.974  12.910   9.230  1.00  0.00    -0.550 OA
ATOM     11  O   UNL     1       8.728  13.515   7.152  1.00  0.00    -0.550 OA
ENDBRANCH   8   9
ENDBRANCH   7   8
ENDBRANCH   6   7
ENDBRANCH   5   6
ENDBRANCH   4   5
ENDBRANCH   3   4
ENDBRANCH   2   3
ENDBRANCH   1   2
BRANCH   1  12
ATOM     12  C   UNL     1       8.269   6.335   7.905  1.00  0.00     0.000 C 
BRANCH  12  13
ATOM     13  C   UNL     1       8.131   6.820   9.356  1.00  0.00    -0.000 C 
BRANCH  13  14
ATOM     14  C   UNL     1       8.808   8.182   9.591  1.00  0.00    -0.000 C 
BRANCH  14  15
ATOM     15  C   UNL     1       9.741   8.583   8.438  1.00  0.00    -0.000 C 
BRANCH  15  16
ATOM     16  C   UNL     1       9.400   9.962   7.853  1.00  0.00    -0.000 C 
BRANCH  16  17
ATOM     17  C   UNL     1       9.059   9.857   6.361  1.00  0.00    -0.000 C 
BRANCH  17  18
ATOM     18  C   UNL     1      10.266   9.349   5.556  1.00  0.00    -0.000 C 
BRANCH  18  19
ATOM     19  C   UNL     1       9.945   8.083   4.748  1.00  0.00    -0.003 C 
ATOM     20  C   UNL     1       8.744   8.262   3.819  1.00  0.00     0.004 C 
ENDBRANCH  18  19
ENDBRANCH  17  18
ENDBRANCH  16  17
ENDBRANCH  15  16
ENDBRANCH  14  15
ENDBRANCH  13  14
ENDBRANCH  12  13
ENDBRANCH   1  12
TORSDOF 16
ENDMDL
MODEL 4
REMARK VINA RESULT:    -3.024      1.381      2.229
REMARK INTER + INTRA:          -8.535
REMARK INTER:                  -5.946
REMARK INTRA:                  -2.589
REMARK UNBOUND:                -2.682
REMARK SMILES CCCCCCCCCCCCCCCCCC(=O)[O-]
REMARK SMILES IDX 10 1 11 2 12 3 13 4 14 5 15 6 16 7 17 8 18 9 19 10 20 11
REMARK SMILES IDX 9 12 8 13 7 14 6 15 5 16 4 17 3 18 2 19 1 20
REMARK H PARENT
REMARK Flexibility Score: inf
ROOT
ATOM      1  C   UNL     1       4.220  10.834   8.883  1.00  0.00     0.000 C 
ENDROOT
BRANCH   1   2
ATOM      2  C   UNL     1       4.434  11.762   7.669  1.00  0.00     0.000 C 
BRANCH   2   3
ATOM      3  C   UNL     1       4.885  13.182   8.054  1.00  0.00     0.000 C 
BRANCH   3   4
ATOM      4  C   UNL     1       6.278  13.534   7.515  1.00  0.00     0.000 C 
BRANCH   4   5
ATOM      5  C   UNL     1       7.378  12.840   8.332  1.00  0.00     0.000 C 
BRANCH   5   6
ATOM      6  C   UNL     1       7.362  13.249   9.813  1.00  0.00     0.000 C 
BRANCH   6   7
ATOM      7  C   UNL     1       7.150  12.052  10.757  1.00  0.00     0.006 C 
BRANCH   7   8
ATOM      8  C   UNL     1       8.089  12.099  11.970  1.00  0.00     0.053 C 
BRANCH   8   9
ATOM      9  C   UNL     1       9.432  11.513  11.657  1.00  0.00     0.041 C 
ATOM     10  O   UNL     1       9.570  10.267  11.543  1.00  0.00    -0.550 OA
ATOM     11  O   UNL     1      10.526  12.348  11.463  1.00  0.00    -0.550 OA
ENDBRANCH   8   9
ENDBRANCH   7   8
ENDBRANCH   6   7
ENDBRANCH   5   6
ENDBRANCH   4   5
ENDBRANCH   3   4
ENDBRANCH   2   3
ENDBRANCH   1   2
BRANCH   1  12
ATOM     12  C   UNL     1       5.157   9.613   8.852  1.00  0.00     0.000 C 
BRANCH  12  13
ATOM     13  C   UNL     1       5.663   9.291   7.438  1.00  0.00    -0.000 C 
BRANCH  13  14
ATOM     14  C   UNL     1       7.038   8.598   7.446  1.00  0.00    -0.000 C 
BRANCH  14  15
ATOM     15  C   UNL     1       7.960   9.131   8.554  1.00  0.00    -0.000 C 
BRANCH  15  16
ATOM     16  C   UNL     1       9.269   9.716   8.002  1.00  0.00    -0.000 C 
BRANCH  16  17
ATOM     17  C   UNL     1       9.128  10.076   6.518  1.00  0.00    -0.000 C 
BRANCH  17  18
ATOM     18  C   UNL     1      10.309   9.524   5.705  1.00  0.00    -0.000 C 
BRANCH  18  19
ATOM     19  C   UNL     1      10.865   8.215   6.285  1.00  0.00    -0.003 C 
ATOM     20  C   UNL     1      11.810   7.496   5.321  1.00  0.00     0.004 C 
ENDBRANCH  18  19
ENDBRANCH  17  18
ENDBRANCH  16  17
ENDBRANCH  15  16
ENDBRANCH  14  15
ENDBRANCH  13  14
ENDBRANCH  12  13
ENDBRANCH   1  12
TORSDOF 16
ENDMDL
MODEL 5
REMARK VINA RESULT:    -3.020      3.425      6.212
REMARK INTER + INTRA:          -8.528
REMARK INTER:                  -5.915
REMARK INTRA:                  -2.613
REMARK UNBOUND:                -2.682
REMARK SMILES CCCCCCCCCCCCCCCCCC(=O)[O-]
REMARK SMILES IDX 10 1 11 2 12 3 13 4 14 5 15 6 16 7 17 8 18 9 19 10 20 11
REMARK SMILES IDX 9 12 8 13 7 14 6 15 5 16 4 17 3 18 2 19 1 20
REMARK H PARENT
REMARK Flexibility Score: inf
ROOT
ATOM      1  C   UNL     1       6.538   8.653  10.394  1.00  0.00     0.000 C 
ENDROOT
BRANCH   1   2
ATOM      2  C   UNL     1       7.524   8.134   9.326  1.00  0.00     0.000 C 
BRANCH   2   3
ATOM      3  C   UNL     1       6.866   7.871   7.960  1.00  0.00     0.000 C 
BRANCH   3   4
ATOM      4  C   UNL     1       7.532   8.647   6.816  1.00  0.00     0.000 C 
BRANCH   4   5
ATOM      5  C   UNL     1       8.720   9.474   7.329  1.00  0.00     0.000 C 
BRANCH   5   6
ATOM      6  C   UNL     1       9.494  10.165   6.195  1.00  0.00     0.000 C 
BRANCH   6   7
ATOM      7  C   UNL     1      10.060   9.167   5.169  1.00  0.00     0.006 C 
BRANCH   7   8
ATOM      8  C   UNL     1      11.145   8.268   5.776  1.00  0.00     0.053 C 
BRANCH   8   9
ATOM      9  C   UNL     1      12.336   8.146   4.874  1.00  0.00     0.041 C 
ATOM     10  O   UNL     1      12.837   9.172   4.343  1.00  0.00    -0.550 OA
ATOM     11  O   UNL     1      12.909   6.902   4.644  1.00  0.00    -0.550 OA
ENDBRANCH   8   9
ENDBRANCH   7   8
ENDBRANCH   6   7
ENDBRANCH   5   6
ENDBRANCH   4   5
ENDBRANCH   3   4
ENDBRANCH   2   3
ENDBRANCH   1   2
BRANCH   1  12
ATOM     12  C   UNL     1       6.912  10.060  10.894  1.00  0.00     0.000 C 
BRANCH  12  13
ATOM     13  C   UNL     1       8.430  10.296  10.916  1.00  0.00    -0.000 C 
BRANCH  13  14
ATOM     14  C   UNL     1       8.825  11.654  10.308  1.00  0.00    -0.000 C 
BRANCH  14  15
ATOM     15  C   UNL     1       7.606  12.491   9.892  1.00  0.00    -0.000 C 
BRANCH  15  16
ATOM     16  C   UNL     1       7.608  12.838   8.396  1.00  0.00    -0.000 C 
BRANCH  16  17
ATOM     17  C   UNL     1       6.188  12.801   7.820  1.00  0.00    -0.000 C 
BRANCH  17  18
ATOM     18  C   UNL     1       5.637  11.367   7.806  1.00  0.00    -0.000 C 
BRANCH  18  19
ATOM     19  C   UNL     1       4.102  11.323   7.794  1.00  0.00    -0.003 C 
ATOM     20  C   UNL     1       3.552   9.915   7.568  1.00  0.00     0.004 C 
ENDBRANCH  18  19
ENDBRANCH  17  18
ENDBRANCH  16  17
ENDBRANCH  15  16
ENDBRANCH  14  15
ENDBRANCH  13  14
ENDBRANCH  12  13
ENDBRANCH   1  12
TORSDOF 16
ENDMDL
MODEL 6
REMARK VINA RESULT:    -3.017      2.363      4.780
REMARK INTER + INTRA:          -8.521
REMARK INTER:                  -5.956
REMARK INTRA:                  -2.565
REMARK UNBOUND:                -2.682
REMARK SMILES CCCCCCCCCCCCCCCCCC(=O)[O-]
REMARK SMILES IDX 10 1 11 2 12 3 13 4 14 5 15 6 16 7 17 8 18 9 19 10 20 11
REMARK SMILES IDX 9 12 8 13 7 14 6 15 5 16 4 17 3 18 2 19 1 20
REMARK H PARENT
REMARK Flexibility Score: inf
ROOT
ATOM      1  C   UNL     1      11.002   9.149   5.580  1.00  0.00     0.000 C 
ENDROOT
BRANCH   1   2
ATOM      2  C   UNL     1       9.685   9.935   5.744  1.00  0.00     0.000 C 
BRANCH   2   3
ATOM      3  C   UNL     1       9.028   9.752   7.123  1.00  0.00     0.000 C 
BRANCH   3   4
ATOM      4  C   UNL     1       7.578   9.257   7.034  1.00  0.00     0.000 C 
BRANCH   4   5
ATOM      5  C   UNL     1       6.720   9.858   8.157  1.00  0.00     0.000 C 
BRANCH   5   6
ATOM      6  C   UNL     1       5.590  10.754   7.624  1.00  0.00     0.000 C 
BRANCH   6   7
ATOM      7  C   UNL     1       5.505  12.103   8.360  1.00  0.00     0.006 C 
BRANCH   7   8
ATOM      8  C   UNL     1       6.283  13.208   7.633  1.00  0.00     0.053 C 
BRANCH   8   9
ATOM      9  C   UNL     1       7.730  13.220   8.022  1.00  0.00     0.041 C 
ATOM     10  O   UNL     1       8.613  13.506   7.172  1.00  0.00    -0.550 OA
ATOM     11  O   UNL     1       8.099  12.944   9.333  1.00  0.00    -0.550 OA
ENDBRANCH   8   9
ENDBRANCH   7   8
ENDBRANCH   6   7
ENDBRANCH   5   6
ENDBRANCH   4   5
ENDBRANCH   3   4
ENDBRANCH   2   3
ENDBRANCH   1   2
BRANCH   1  12
ATOM     12  C   UNL     1      10.904   7.725   6.155  1.00  0.00     0.000 C 
BRANCH  12  13
ATOM     13  C   UNL     1      11.224   6.642   5.113  1.00  0.00    -0.000 C 
BRANCH  13  14
ATOM     14  C   UNL     1      11.246   7.193   3.676  1.00  0.00    -0.000 C 
BRANCH  14  15
ATOM     15  C   UNL     1      10.071   6.679   2.830  1.00  0.00    -0.000 C 
BRANCH  15  16
ATOM     16  C   UNL     1       9.012   7.761   2.569  1.00  0.00    -0.000 C 
BRANCH  16  17
ATOM     17  C   UNL     1       7.860   7.656   3.576  1.00  0.00    -0.000 C 
BRANCH  17  18
ATOM     18  C   UNL     1       7.670   6.206   4.045  1.00  0.00    -0.000 C 
BRANCH  18  19
ATOM     19  C   UNL     1       6.904   6.110   5.373  1.00  0.00    -0.003 C 
ATOM     20  C   UNL     1       7.778   5.615   6.526  1.00  0.00     0.004 C 
ENDBRANCH  18  19
ENDBRANCH  17  18
ENDBRANCH  16  17
ENDBRANCH  15  16
ENDBRANCH  14  15
ENDBRANCH  13  14
ENDBRANCH  12  13
ENDBRANCH   1  12
TORSDOF 16
ENDMDL
MODEL 7
REMARK VINA RESULT:    -3.002      1.187      2.172
REMARK INTER + INTRA:          -8.492
REMARK INTER:                  -5.950
REMARK INTRA:                  -2.543
REMARK UNBOUND:                -2.682
REMARK SMILES CCCCCCCCCCCCCCCCCC(=O)[O-]
REMARK SMILES IDX 10 1 11 2 12 3 13 4 14 5 15 6 16 7 17 8 18 9 19 10 20 11
REMARK SMILES IDX 9 12 8 13 7 14 6 15 5 16 4 17 3 18 2 19 1 20
REMARK H PARENT
REMARK Flexibility Score: inf
ROOT
ATOM      1  C   UNL     1       5.465   9.037   8.904  1.00  0.00     0.000 C 
ENDROOT
BRANCH   1   2
ATOM      2  C   UNL     1       4.214   9.822   8.458  1.00  0.00     0.000 C 
BRANCH   2   3
ATOM      3  C   UNL     1       4.528  10.990   7.507  1.00  0.00     0.000 C 
BRANCH   3   4
ATOM      4  C   UNL     1       3.811  12.290   7.899  1.00  0.00     0.000 C 
BRANCH   4   5
ATOM      5  C   UNL     1       4.795  13.468   7.952  1.00  0.00     0.000 C 
BRANCH   5   6
ATOM      6  C   UNL     1       6.219  13.069   7.533  1.00  0.00     0.000 C 
BRANCH   6   7
ATOM      7  C   UNL     1       7.270  13.411   8.605  1.00  0.00     0.006 C 
BRANCH   7   8
ATOM      8  C   UNL     1       6.854  12.921   9.999  1.00  0.00     0.053 C 
BRANCH   8   9
ATOM      9  C   UNL     1       7.990  12.986  10.973  1.00  0.00     0.041 C 
ATOM     10  O   UNL     1       9.070  12.386  10.730  1.00  0.00    -0.550 OA
ATOM     11  O   UNL     1       7.865  13.734  12.138  1.00  0.00    -0.550 OA
ENDBRANCH   8   9
ENDBRANCH   7   8
ENDBRANCH   6   7
ENDBRANCH   5   6
ENDBRANCH   4   5
ENDBRANCH   3   4
ENDBRANCH   2   3
ENDBRANCH   1   2
BRANCH   1  12
ATOM     12  C   UNL     1       6.730   9.481   8.146  1.00  0.00     0.000 C 
BRANCH  12  13
ATOM     13  C   UNL     1       7.967   9.559   9.054  1.00  0.00    -0.000 C 
BRANCH  13  14
ATOM     14  C   UNL     1       9.276   9.698   8.258  1.00  0.00    -0.000 C 
BRANCH  14  15
ATOM     15  C   UNL     1       9.135  10.636   7.049  1.00  0.00    -0.000 C 
BRANCH  15  16
ATOM     16  C   UNL     1       9.946  10.163   5.834  1.00  0.00    -0.000 C 
BRANCH  16  17
ATOM     17  C   UNL     1       9.787   8.652   5.622  1.00  0.00    -0.000 C 
BRANCH  17  18
ATOM     18  C   UNL     1       8.572   8.347   4.732  1.00  0.00    -0.000 C 
BRANCH  18  19
ATOM     19  C   UNL     1       7.624   7.315   5.361  1.00  0.00    -0.003 C 
ATOM     20  C   UNL     1       6.967   6.405   4.323  1.00  0.00     0.004 C 
ENDBRANCH  18  19
ENDBRANCH  17  18
ENDBRANCH  16  17
ENDBRANCH  15  16
ENDBRANCH  14  15
ENDBRANCH  13  14
ENDBRANCH  12  13
ENDBRANCH   1  12
TORSDOF 16
ENDMDL
MODEL 8
REMARK VINA RESULT:    -2.999      1.737      3.111
REMARK INTER + INTRA:          -8.487
REMARK INTER:                  -5.510
REMARK INTRA:                  -2.977
REMARK UNBOUND:                -2.682
REMARK SMILES CCCCCCCCCCCCCCCCCC(=O)[O-]
REMARK SMILES IDX 10 1 11 2 12 3 13 4 14 5 15 6 16 7 17 8 18 9 19 10 20 11
REMARK SMILES IDX 9 12 8 13 7 14 6 15 5 16 4 17 3 18 2 19 1 20
REMARK H PARENT
REMARK Flexibility Score: inf
ROOT
ATOM      1  C   UNL     1       9.149  10.465   7.356  1.00  0.00     0.000 C 
ENDROOT
BRANCH   1   2
ATOM      2  C   UNL     1       8.618  11.904   7.528  1.00  0.00     0.000 C 
BRANCH   2   3
ATOM      3  C   UNL     1       7.103  11.973   7.786  1.00  0.00     0.000 C 
BRANCH   3   4
ATOM      4  C   UNL     1       6.436  10.591   7.811  1.00  0.00     0.000 C 
BRANCH   4   5
ATOM      5  C   UNL     1       5.659  10.377   9.118  1.00  0.00     0.000 C 
BRANCH   5   6
ATOM      6  C   UNL     1       6.480   9.625  10.178  1.00  0.00     0.000 C 
BRANCH   6   7
ATOM      7  C   UNL     1       7.142  10.569  11.196  1.00  0.00     0.006 C 
BRANCH   7   8
ATOM      8  C   UNL     1       8.671  10.580  11.064  1.00  0.00     0.053 C 
BRANCH   8   9
ATOM      9  C   UNL     1       9.229  11.967  11.164  1.00  0.00     0.041 C 
ATOM     10  O   UNL     1       8.493  12.964  10.943  1.00  0.00    -0.550 OA
ATOM     11  O   UNL     1      10.555  12.158  11.531  1.00  0.00    -0.550 OA
ENDBRANCH   8   9
ENDBRANCH   7   8
ENDBRANCH   6   7
ENDBRANCH   5   6
ENDBRANCH   4   5
ENDBRANCH   3   4
ENDBRANCH   2   3
ENDBRANCH   1   2
BRANCH   1  12
ATOM     12  C   UNL     1       9.777  10.239   5.969  1.00  0.00     0.000 C 
BRANCH  12  13
ATOM     13  C   UNL     1       9.098   9.102   5.191  1.00  0.00    -0.000 C 
BRANCH  13  14
ATOM     14  C   UNL     1      10.092   8.013   4.749  1.00  0.00    -0.000 C 
BRANCH  14  15
ATOM     15  C   UNL     1      11.370   8.000   5.601  1.00  0.00    -0.000 C 
BRANCH  15  16
ATOM     16  C   UNL     1      11.471   6.757   6.497  1.00  0.00    -0.000 C 
BRANCH  16  17
ATOM     17  C   UNL     1      11.170   7.107   7.959  1.00  0.00    -0.000 C 
BRANCH  17  18
ATOM     18  C   UNL     1       9.956   6.318   8.474  1.00  0.00    -0.000 C 
BRANCH  18  19
ATOM     19  C   UNL     1       8.720   7.206   8.681  1.00  0.00    -0.003 C 
ATOM     20  C   UNL     1       7.584   6.873   7.713  1.00  0.00     0.004 C 
ENDBRANCH  18  19
ENDBRANCH  17  18
ENDBRANCH  16  17
ENDBRANCH  15  16
ENDBRANCH  14  15
ENDBRANCH  13  14
ENDBRANCH  12  13
ENDBRANCH   1  12
TORSDOF 16
ENDMDL
MODEL 9
REMARK VINA RESULT:    -2.989      2.890      5.735
REMARK INTER + INTRA:          -8.466
REMARK INTER:                  -5.681
REMARK INTRA:                  -2.785
REMARK UNBOUND:                -2.682
REMARK SMILES CCCCCCCCCCCCCCCCCC(=O)[O-]
REMARK SMILES IDX 10 1 11 2 12 3 13 4 14 5 15 6 16 7 17 8 18 9 19 10 20 11
REMARK SMILES IDX 9 12 8 13 7 14 6 15 5 16 4 17 3 18 2 19 1 20
REMARK H PARENT
REMARK Flexibility Score: inf
ROOT
ATOM      1  C   UNL     1       5.078  11.755   8.544  1.00  0.00     0.000 C 
ENDROOT
BRANCH   1   2
ATOM      2  C   UNL     1       5.310  10.640   7.503  1.00  0.00     0.000 C 
BRANCH   2   3
ATOM      3  C   UNL     1       4.861   9.249   7.984  1.00  0.00     0.000 C 
BRANCH   3   4
ATOM      4  C   UNL     1       5.915   8.161   7.734  1.00  0.00     0.000 C 
BRANCH   4   5
ATOM      5  C   UNL     1       6.979   8.643   6.736  1.00  0.00     0.000 C 
BRANCH   5   6
ATOM      6  C   UNL     1       7.652   7.484   5.984  1.00  0.00     0.000 C 
BRANCH   6   7
ATOM      7  C   UNL     1       8.570   7.968   4.847  1.00  0.00     0.006 C 
BRANCH   7   8
ATOM      8  C   UNL     1       9.388   9.202   5.252  1.00  0.00     0.053 C 
BRANCH   8   9
ATOM      9  C   UNL     1      10.779   8.834   5.671  1.00  0.00     0.041 C 
ATOM     10  O   UNL     1      11.769   9.222   4.996  1.00  0.00    -0.550 OA
ATOM     11  O   UNL     1      10.983   8.086   6.824  1.00  0.00    -0.550 OA
ENDBRANCH   8   9
ENDBRANCH   7   8
ENDBRANCH   6   7
ENDBRANCH   5   6
ENDBRANCH   4   5
ENDBRANCH   3   4
ENDBRANCH   2   3
ENDBRANCH   1   2
BRANCH   1  12
ATOM     12  C   UNL     1       5.620  13.115   8.068  1.00  0.00     0.000 C 
BRANCH  12  13
ATOM     13  C   UNL     1       7.051  13.386   8.559  1.00  0.00    -0.000 C 
BRANCH  13  14
ATOM     14  C   UNL     1       8.104  13.166   7.458  1.00  0.00    -0.000 C 
BRANCH  14  15
ATOM     15  C   UNL     1       8.822  11.814   7.590  1.00  0.00    -0.000 C 
BRANCH  15  16
ATOM     16  C   UNL     1       9.062  11.412   9.053  1.00  0.00    -0.000 C 
BRANCH  16  17
ATOM     17  C   UNL     1       9.030   9.887   9.216  1.00  0.00    -0.000 C 
BRANCH  17  18
ATOM     18  C   UNL     1       8.067   9.475  10.340  1.00  0.00    -0.000 C 
BRANCH  18  19
ATOM     19  C   UNL     1       7.517  10.680  11.118  1.00  0.00    -0.003 C 
ATOM     20  C   UNL     1       7.975  10.702  12.577  1.00  0.00     0.004 C 
ENDBRANCH  18  19
ENDBRANCH  17  18
ENDBRANCH  16  17
ENDBRANCH  15  16
ENDBRANCH  14  15
ENDBRANCH  13  14
ENDBRANCH  12  13
ENDBRANCH   1  12
TORSDOF 16
ENDMDL
