MODEL 1
REMARK VINA RESULT:    -5.131      0.000      0.000
REMARK INTER + INTRA:          -5.590
REMARK INTER:                  -5.431
REMARK INTRA:                  -0.159
REMARK UNBOUND:                -0.159
REMARK SMILES C=C(C)[C@@H]1CC=C(C)CC1
REMARK SMILES IDX 8 1 7 2 6 3 5 4 4 5 10 6 9 7 2 8 1 9 3 10
REMARK H PARENT
REMARK Flexibility Score: inf
ROOT
ATOM      1  C   UNL     1      24.822   7.367  17.639  1.00  0.00     0.039 C 
ATOM      2  C   UNL     1      25.344   6.368  18.634  1.00  0.00    -0.077 C 
ATOM      3  C   UNL     1      24.510   5.480  19.201  1.00  0.00    -0.027 C 
ATOM      4  C   UNL     1      25.040   4.524  20.232  1.00  0.00     0.035 C 
ATOM      5  C   UNL     1      25.932   5.275  21.250  1.00  0.00     0.018 C 
ATOM      6  C   UNL     1      26.918   6.291  20.586  1.00  0.00     0.013 C 
ATOM      7  C   UNL     1      26.796   6.362  19.052  1.00  0.00     0.031 C 
ENDROOT
BRANCH   5   8
ATOM      8  C   UNL     1      26.652   4.296  22.164  1.00  0.00    -0.077 C 
ATOM      9  C   UNL     1      26.233   3.024  22.283  1.00  0.00     0.008 C 
ATOM     10  C   UNL     1      27.857   4.770  22.934  1.00  0.00     0.039 C 
ENDBRANCH   5   8
TORSDOF 1
ENDMDL
MODEL 2
REMARK VINA RESULT:    -5.119      3.049      3.771
REMARK INTER + INTRA:          -5.577
REMARK INTER:                  -5.418
REMARK INTRA:                  -0.159
REMARK UNBOUND:                -0.159
REMARK SMILES C=C(C)[C@@H]1CC=C(C)CC1
REMARK SMILES IDX 8 1 7 2 6 3 5 4 4 5 10 6 9 7 2 8 1 9 3 10
REMARK H PARENT
REMARK Flexibility Score: inf
ROOT
ATOM      1  C   UNL     1      22.887  10.163  22.240  1.00  0.00     0.039 C 
ATOM      2  C   UNL     1      23.972   9.411  21.522  1.00  0.00    -0.077 C 
ATOM      3  C   UNL     1      23.658   8.519  20.568  1.00  0.00    -0.027 C 
ATOM      4  C   UNL     1      24.754   7.738  19.897  1.00  0.00     0.035 C 
ATOM      5  C   UNL     1      25.744   7.193  20.954  1.00  0.00     0.018 C 
ATOM      6  C   UNL     1      26.127   8.239  22.052  1.00  0.00     0.013 C 
ATOM      7  C   UNL     1      25.428   9.601  21.880  1.00  0.00     0.031 C 
ENDROOT
BRANCH   5   8
ATOM      8  C   UNL     1      26.972   6.594  20.286  1.00  0.00    -0.077 C 
ATOM      9  C   UNL     1      26.961   6.270  18.981  1.00  0.00     0.008 C 
ATOM     10  C   UNL     1      28.215   6.373  21.109  1.00  0.00     0.039 C 
ENDBRANCH   5   8
TORSDOF 1
ENDMDL
MODEL 3
REMARK VINA RESULT:    -5.075      3.072      3.885
REMARK INTER + INTRA:          -5.531
REMARK INTER:                  -5.372
REMARK INTRA:                  -0.158
REMARK UNBOUND:                -0.159
REMARK SMILES C=C(C)[C@@H]1CC=C(C)CC1
REMARK SMILES IDX 8 1 7 2 6 3 5 4 4 5 10 6 9 7 2 8 1 9 3 10
REMARK H PARENT
REMARK Flexibility Score: inf
ROOT
ATOM      1  C   UNL     1      24.762   2.241  20.350  1.00  0.00     0.039 C 
ATOM      2  C   UNL     1      24.840   3.093  21.585  1.00  0.00    -0.077 C 
ATOM      3  C   UNL     1      23.737   3.691  22.064  1.00  0.00    -0.027 C 
ATOM      4  C   UNL     1      23.844   4.581  23.271  1.00  0.00     0.035 C 
ATOM      5  C   UNL     1      25.054   5.536  23.124  1.00  0.00     0.018 C 
ATOM      6  C   UNL     1      26.344   4.833  22.588  1.00  0.00     0.013 C 
ATOM      7  C   UNL     1      26.155   3.334  22.291  1.00  0.00     0.031 C 
ENDROOT
BRANCH   5   8
ATOM      8  C   UNL     1      25.311   6.286  24.422  1.00  0.00    -0.077 C 
ATOM      9  C   UNL     1      24.378   6.335  25.389  1.00  0.00     0.008 C 
ATOM     10  C   UNL     1      26.638   6.972  24.616  1.00  0.00     0.039 C 
ENDBRANCH   5   8
TORSDOF 1
ENDMDL
MODEL 4
REMARK VINA RESULT:    -5.055      4.020      5.578
REMARK INTER + INTRA:          -5.509
REMARK INTER:                  -5.349
REMARK INTRA:                  -0.160
REMARK UNBOUND:                -0.159
REMARK SMILES C=C(C)[C@@H]1CC=C(C)CC1
REMARK SMILES IDX 8 1 7 2 6 3 5 4 4 5 10 6 9 7 2 8 1 9 3 10
REMARK H PARENT
REMARK Flexibility Score: inf
ROOT
ATOM      1  C   UNL     1      22.476   4.680  24.903  1.00  0.00     0.039 C 
ATOM      2  C   UNL     1      23.042   5.969  24.377  1.00  0.00    -0.077 C 
ATOM      3  C   UNL     1      22.361   6.685  23.468  1.00  0.00    -0.027 C 
ATOM      4  C   UNL     1      22.966   7.945  22.915  1.00  0.00     0.035 C 
ATOM      5  C   UNL     1      24.446   7.703  22.532  1.00  0.00     0.018 C 
ATOM      6  C   UNL     1      25.244   6.889  23.603  1.00  0.00     0.013 C 
ATOM      7  C   UNL     1      24.398   6.470  24.820  1.00  0.00     0.031 C 
ENDROOT
BRANCH   5   8
ATOM      8  C   UNL     1      25.135   9.013  22.182  1.00  0.00    -0.077 C 
ATOM      9  C   UNL     1      24.422  10.096  21.823  1.00  0.00     0.008 C 
ATOM     10  C   UNL     1      26.638   9.087  22.251  1.00  0.00     0.039 C 
ENDBRANCH   5   8
TORSDOF 1
ENDMDL
MODEL 5
REMARK VINA RESULT:    -5.036      1.236      2.177
REMARK INTER + INTRA:          -5.489
REMARK INTER:                  -5.325
REMARK INTRA:                  -0.164
REMARK UNBOUND:                -0.159
REMARK SMILES C=C(C)[C@@H]1CC=C(C)CC1
REMARK SMILES IDX 8 1 7 2 6 3 5 4 4 5 10 6 9 7 2 8 1 9 3 10
REMARK H PARENT
REMARK Flexibility Score: inf
ROOT
ATOM      1  C   UNL     1      23.743   7.791  17.419  1.00  0.00     0.039 C 
ATOM      2  C   UNL     1      24.802   7.435  18.424  1.00  0.00    -0.077 C 
ATOM      3  C   UNL     1      25.868   6.707  18.053  1.00  0.00    -0.027 C 
ATOM      4  C   UNL     1      26.890   6.316  19.084  1.00  0.00     0.035 C 
ATOM      5  C   UNL     1      26.189   5.785  20.357  1.00  0.00     0.018 C 
ATOM      6  C   UNL     1      24.961   6.646  20.801  1.00  0.00     0.013 C 
ATOM      7  C   UNL     1      24.677   7.843  19.874  1.00  0.00     0.031 C 
ENDROOT
BRANCH   5   8
ATOM      8  C   UNL     1      27.190   5.595  21.486  1.00  0.00    -0.077 C 
ATOM      9  C   UNL     1      28.295   6.356  21.566  1.00  0.00     0.008 C 
ATOM     10  C   UNL     1      26.921   4.540  22.528  1.00  0.00     0.039 C 
ENDBRANCH   5   8
TORSDOF 1
ENDMDL
MODEL 6
REMARK VINA RESULT:    -4.954      3.773      4.665
REMARK INTER + INTRA:          -5.403
REMARK INTER:                  -5.240
REMARK INTRA:                  -0.163
REMARK UNBOUND:                -0.159
REMARK SMILES C=C(C)[C@@H]1CC=C(C)CC1
REMARK SMILES IDX 8 1 7 2 6 3 5 4 4 5 10 6 9 7 2 8 1 9 3 10
REMARK H PARENT
REMARK Flexibility Score: inf
ROOT
ATOM      1  C   UNL     1      21.745   9.753  22.246  1.00  0.00     0.039 C 
ATOM      2  C   UNL     1      23.188   9.350  22.367  1.00  0.00    -0.077 C 
ATOM      3  C   UNL     1      24.153  10.135  21.860  1.00  0.00    -0.027 C 
ATOM      4  C   UNL     1      25.587   9.691  21.945  1.00  0.00     0.035 C 
ATOM      5  C   UNL     1      25.711   8.205  21.527  1.00  0.00     0.018 C 
ATOM      6  C   UNL     1      24.600   7.289  22.137  1.00  0.00     0.013 C 
ATOM      7  C   UNL     1      23.587   8.045  23.017  1.00  0.00     0.031 C 
ENDROOT
BRANCH   5   8
ATOM      8  C   UNL     1      27.108   7.678  21.818  1.00  0.00    -0.077 C 
ATOM      9  C   UNL     1      27.872   8.233  22.774  1.00  0.00     0.008 C 
ATOM     10  C   UNL     1      27.625   6.510  21.019  1.00  0.00     0.039 C 
ENDBRANCH   5   8
TORSDOF 1
ENDMDL
MODEL 7
REMARK VINA RESULT:    -4.934      3.574      5.177
REMARK INTER + INTRA:          -5.381
REMARK INTER:                  -5.217
REMARK INTRA:                  -0.164
REMARK UNBOUND:                -0.159
REMARK SMILES C=C(C)[C@@H]1CC=C(C)CC1
REMARK SMILES IDX 8 1 7 2 6 3 5 4 4 5 10 6 9 7 2 8 1 9 3 10
REMARK H PARENT
REMARK Flexibility Score: inf
ROOT
ATOM      1  C   UNL     1      21.914   4.398  24.505  1.00  0.00     0.039 C 
ATOM      2  C   UNL     1      23.271   5.038  24.414  1.00  0.00    -0.077 C 
ATOM      3  C   UNL     1      23.658   5.935  25.336  1.00  0.00    -0.027 C 
ATOM      4  C   UNL     1      24.997   6.604  25.199  1.00  0.00     0.035 C 
ATOM      5  C   UNL     1      25.209   7.081  23.741  1.00  0.00     0.018 C 
ATOM      6  C   UNL     1      24.779   6.027  22.669  1.00  0.00     0.013 C 
ATOM      7  C   UNL     1      24.210   4.728  23.270  1.00  0.00     0.031 C 
ENDROOT
BRANCH   5   8
ATOM      8  C   UNL     1      26.639   7.557  23.531  1.00  0.00    -0.077 C 
ATOM      9  C   UNL     1      27.651   7.048  24.255  1.00  0.00     0.008 C 
ATOM     10  C   UNL     1      26.909   8.610  22.488  1.00  0.00     0.039 C 
ENDBRANCH   5   8
TORSDOF 1
ENDMDL
MODEL 8
REMARK VINA RESULT:    -4.861      1.886      3.154
REMARK INTER + INTRA:          -5.304
REMARK INTER:                  -5.138
REMARK INTRA:                  -0.166
REMARK UNBOUND:                -0.159
REMARK SMILES C=C(C)[C@@H]1CC=C(C)CC1
REMARK SMILES IDX 8 1 7 2 6 3 5 4 4 5 10 6 9 7 2 8 1 9 3 10
REMARK H PARENT
REMARK Flexibility Score: inf
ROOT
ATOM      1  C   UNL     1      23.712   2.355  19.616  1.00  0.00     0.039 C 
ATOM      2  C   UNL     1      24.760   3.092  20.402  1.00  0.00    -0.077 C 
ATOM      3  C   UNL     1      25.336   2.513  21.469  1.00  0.00    -0.027 C 
ATOM      4  C   UNL     1      26.344   3.285  22.273  1.00  0.00     0.035 C 
ATOM      5  C   UNL     1      25.823   4.716  22.551  1.00  0.00     0.018 C 
ATOM      6  C   UNL     1      25.173   5.398  21.302  1.00  0.00     0.013 C 
ATOM      7  C   UNL     1      25.159   4.506  20.046  1.00  0.00     0.031 C 
ENDROOT
BRANCH   5   8
ATOM      8  C   UNL     1      26.914   5.579  23.167  1.00  0.00    -0.077 C 
ATOM      9  C   UNL     1      28.186   5.497  22.737  1.00  0.00     0.008 C 
ATOM     10  C   UNL     1      26.548   6.539  24.268  1.00  0.00     0.039 C 
ENDBRANCH   5   8
TORSDOF 1
ENDMDL
MODEL 9
REMARK VINA RESULT:    -4.756      2.543      3.343
REMARK INTER + INTRA:          -5.193
REMARK INTER:                  -5.029
REMARK INTRA:                  -0.164
REMARK UNBOUND:                -0.159
REMARK SMILES C=C(C)[C@@H]1CC=C(C)CC1
REMARK SMILES IDX 8 1 7 2 6 3 5 4 4 5 10 6 9 7 2 8 1 9 3 10
REMARK H PARENT
REMARK Flexibility Score: inf
ROOT
ATOM      1  C   UNL     1      26.924   6.362  19.225  1.00  0.00     0.039 C 
ATOM      2  C   UNL     1      26.712   6.516  20.705  1.00  0.00    -0.077 C 
ATOM      3  C   UNL     1      27.242   5.626  21.560  1.00  0.00    -0.027 C 
ATOM      4  C   UNL     1      26.975   5.768  23.033  1.00  0.00     0.035 C 
ATOM      5  C   UNL     1      25.472   6.046  23.279  1.00  0.00     0.018 C 
ATOM      6  C   UNL     1      24.862   7.100  22.297  1.00  0.00     0.013 C 
ATOM      7  C   UNL     1      25.869   7.640  21.264  1.00  0.00     0.031 C 
ENDROOT
BRANCH   5   8
ATOM      8  C   UNL     1      25.221   6.411  24.734  1.00  0.00    -0.077 C 
ATOM      9  C   UNL     1      24.017   6.214  25.300  1.00  0.00     0.008 C 
ATOM     10  C   UNL     1      26.350   6.994  25.544  1.00  0.00     0.039 C 
ENDBRANCH   5   8
TORSDOF 1
ENDMDL
