MODEL 1
REMARK VINA RESULT:    -5.736      0.000      0.000
REMARK INTER + INTRA:         -11.469
REMARK INTER:                 -10.431
REMARK INTRA:                  -1.038
REMARK UNBOUND:                -1.038
REMARK SMILES CCCCCCCCCCCCCCCC(=O)[O-]
REMARK SMILES IDX 9 1 10 2 11 3 12 4 13 5 14 6 15 7 16 8 17 9 18 10 8 11 7 12
REMARK SMILES IDX 6 13 5 14 4 15 3 16 2 17 1 18
REMARK H PARENT
REMARK Flexibility Score: inf
ROOT
ATOM      1  C   UNL     1     -16.528  28.704   0.434  1.00  0.00     0.000 C 
ENDROOT
BRANCH   1   2
ATOM      2  C   UNL     1     -16.424  27.327  -0.239  1.00  0.00     0.000 C 
BRANCH   2   3
ATOM      3  C   UNL     1     -16.413  26.171   0.776  1.00  0.00     0.000 C 
BRANCH   3   4
ATOM      4  C   UNL     1     -17.747  25.408   0.815  1.00  0.00     0.000 C 
BRANCH   4   5
ATOM      5  C   UNL     1     -18.155  24.864  -0.566  1.00  0.00     0.000 C 
BRANCH   5   6
ATOM      6  C   UNL     1     -18.609  23.397  -0.511  1.00  0.00     0.006 C 
BRANCH   6   7
ATOM      7  C   UNL     1     -19.809  23.117  -1.424  1.00  0.00     0.053 C 
BRANCH   7   8
ATOM      8  C   UNL     1     -21.081  23.149  -0.639  1.00  0.00     0.041 C 
ATOM      9  O   UNL     1     -22.175  22.856  -1.191  1.00  0.00    -0.550 OA
ATOM     10  O   UNL     1     -21.067  23.550   0.692  1.00  0.00    -0.550 OA
ENDBRANCH   7   8
ENDBRANCH   6   7
ENDBRANCH   5   6
ENDBRANCH   4   5
ENDBRANCH   3   4
ENDBRANCH   2   3
ENDBRANCH   1   2
BRANCH   1  11
ATOM     11  C   UNL     1     -16.282  28.641   1.949  1.00  0.00     0.000 C 
BRANCH  11  12
ATOM     12  C   UNL     1     -15.726  29.972   2.471  1.00  0.00    -0.000 C 
BRANCH  12  13
ATOM     13  C   UNL     1     -15.563  30.986   1.333  1.00  0.00    -0.000 C 
BRANCH  13  14
ATOM     14  C   UNL     1     -16.569  32.138   1.477  1.00  0.00    -0.000 C 
BRANCH  14  15
ATOM     15  C   UNL     1     -16.233  33.337   0.575  1.00  0.00    -0.000 C 
BRANCH  15  16
ATOM     16  C   UNL     1     -16.983  33.294  -0.769  1.00  0.00    -0.000 C 
BRANCH  16  17
ATOM     17  C   UNL     1     -18.210  32.370  -0.728  1.00  0.00    -0.003 C 
ATOM     18  C   UNL     1     -18.178  31.291  -1.810  1.00  0.00     0.004 C 
ENDBRANCH  16  17
ENDBRANCH  15  16
ENDBRANCH  14  15
ENDBRANCH  13  14
ENDBRANCH  12  13
ENDBRANCH  11  12
ENDBRANCH   1  11
TORSDOF 14
ENDMDL
MODEL 2
REMARK VINA RESULT:    -5.633      2.855      7.573
REMARK INTER + INTRA:         -11.282
REMARK INTER:                 -10.480
REMARK INTRA:                  -0.801
REMARK UNBOUND:                -1.038
REMARK SMILES CCCCCCCCCCCCCCCC(=O)[O-]
REMARK SMILES IDX 9 1 10 2 11 3 12 4 13 5 14 6 15 7 16 8 17 9 18 10 8 11 7 12
REMARK SMILES IDX 6 13 5 14 4 15 3 16 2 17 1 18
REMARK H PARENT
REMARK Flexibility Score: inf
ROOT
ATOM      1  C   UNL     1     -16.206  28.323   1.695  1.00  0.00     0.000 C 
ENDROOT
BRANCH   1   2
ATOM      2  C   UNL     1     -16.227  29.121   3.008  1.00  0.00     0.000 C 
BRANCH   2   3
ATOM      3  C   UNL     1     -15.823  30.592   2.812  1.00  0.00     0.000 C 
BRANCH   3   4
ATOM      4  C   UNL     1     -15.881  31.028   1.340  1.00  0.00     0.000 C 
BRANCH   4   5
ATOM      5  C   UNL     1     -16.895  32.161   1.100  1.00  0.00     0.000 C 
BRANCH   5   6
ATOM      6  C   UNL     1     -16.884  32.664  -0.353  1.00  0.00     0.006 C 
BRANCH   6   7
ATOM      7  C   UNL     1     -18.221  32.429  -1.067  1.00  0.00     0.053 C 
BRANCH   7   8
ATOM      8  C   UNL     1     -18.197  31.129  -1.806  1.00  0.00     0.041 C 
ATOM      9  O   UNL     1     -18.222  31.115  -3.065  1.00  0.00    -0.550 OA
ATOM     10  O   UNL     1     -18.193  29.930  -1.104  1.00  0.00    -0.550 OA
ENDBRANCH   7   8
ENDBRANCH   6   7
ENDBRANCH   5   6
ENDBRANCH   4   5
ENDBRANCH   3   4
ENDBRANCH   2   3
ENDBRANCH   1   2
BRANCH   1  11
ATOM     11  C   UNL     1     -16.573  26.844   1.896  1.00  0.00     0.000 C 
BRANCH  11  12
ATOM     12  C   UNL     1     -16.373  26.048   0.601  1.00  0.00    -0.000 C 
BRANCH  12  13
ATOM     13  C   UNL     1     -17.630  26.099  -0.277  1.00  0.00    -0.000 C 
BRANCH  13  14
ATOM     14  C   UNL     1     -18.781  25.310   0.364  1.00  0.00    -0.000 C 
BRANCH  14  15
ATOM     15  C   UNL     1     -18.735  23.811   0.024  1.00  0.00    -0.000 C 
BRANCH  15  16
ATOM     16  C   UNL     1     -18.771  23.547  -1.492  1.00  0.00    -0.000 C 
BRANCH  16  17
ATOM     17  C   UNL     1     -19.761  22.435  -1.871  1.00  0.00    -0.003 C 
ATOM     18  C   UNL     1     -19.067  21.141  -2.296  1.00  0.00     0.004 C 
ENDBRANCH  16  17
ENDBRANCH  15  16
ENDBRANCH  14  15
ENDBRANCH  13  14
ENDBRANCH  12  13
ENDBRANCH  11  12
ENDBRANCH   1  11
TORSDOF 14
ENDMDL
MODEL 3
REMARK VINA RESULT:    -5.588      1.178      1.431
REMARK INTER + INTRA:         -11.200
REMARK INTER:                 -10.280
REMARK INTRA:                  -0.921
REMARK UNBOUND:                -1.038
REMARK SMILES CCCCCCCCCCCCCCCC(=O)[O-]
REMARK SMILES IDX 9 1 10 2 11 3 12 4 13 5 14 6 15 7 16 8 17 9 18 10 8 11 7 12
REMARK SMILES IDX 6 13 5 14 4 15 3 16 2 17 1 18
REMARK H PARENT
REMARK Flexibility Score: inf
ROOT
ATOM      1  C   UNL     1     -16.215  28.809   0.363  1.00  0.00     0.000 C 
ENDROOT
BRANCH   1   2
ATOM      2  C   UNL     1     -16.324  27.421  -0.287  1.00  0.00     0.000 C 
BRANCH   2   3
ATOM      3  C   UNL     1     -16.936  26.372   0.657  1.00  0.00     0.000 C 
BRANCH   3   4
ATOM      4  C   UNL     1     -17.660  25.248  -0.101  1.00  0.00     0.000 C 
BRANCH   4   5
ATOM      5  C   UNL     1     -18.871  24.699   0.674  1.00  0.00     0.000 C 
BRANCH   5   6
ATOM      6  C   UNL     1     -19.702  23.707  -0.155  1.00  0.00     0.006 C 
BRANCH   6   7
ATOM      7  C   UNL     1     -18.843  22.603  -0.786  1.00  0.00     0.053 C 
BRANCH   7   8
ATOM      8  C   UNL     1     -19.588  21.935  -1.898  1.00  0.00     0.041 C 
ATOM      9  O   UNL     1     -19.003  21.104  -2.642  1.00  0.00    -0.550 OA
ATOM     10  O   UNL     1     -20.914  22.266  -2.145  1.00  0.00    -0.550 OA
ENDBRANCH   7   8
ENDBRANCH   6   7
ENDBRANCH   5   6
ENDBRANCH   4   5
ENDBRANCH   3   4
ENDBRANCH   2   3
ENDBRANCH   1   2
BRANCH   1  11
ATOM     11  C   UNL     1     -16.312  28.753   1.895  1.00  0.00     0.000 C 
BRANCH  11  12
ATOM     12  C   UNL     1     -15.752  30.033   2.528  1.00  0.00    -0.000 C 
BRANCH  12  13
ATOM     13  C   UNL     1     -15.491  31.106   1.464  1.00  0.00    -0.000 C 
BRANCH  13  14
ATOM     14  C   UNL     1     -16.630  32.135   1.430  1.00  0.00    -0.000 C 
BRANCH  14  15
ATOM     15  C   UNL     1     -16.332  33.323   0.501  1.00  0.00    -0.000 C 
BRANCH  15  16
ATOM     16  C   UNL     1     -17.087  33.231  -0.837  1.00  0.00    -0.000 C 
BRANCH  16  17
ATOM     17  C   UNL     1     -18.240  32.217  -0.792  1.00  0.00    -0.003 C 
ATOM     18  C   UNL     1     -18.276  31.304  -2.017  1.00  0.00     0.004 C 
ENDBRANCH  16  17
ENDBRANCH  15  16
ENDBRANCH  14  15
ENDBRANCH  13  14
ENDBRANCH  12  13
ENDBRANCH  11  12
ENDBRANCH   1  11
TORSDOF 14
ENDMDL
MODEL 4
REMARK VINA RESULT:    -5.580      1.007      3.343
REMARK INTER + INTRA:         -11.185
REMARK INTER:                 -10.063
REMARK INTRA:                  -1.122
REMARK UNBOUND:                -1.038
REMARK SMILES CCCCCCCCCCCCCCCC(=O)[O-]
REMARK SMILES IDX 9 1 10 2 11 3 12 4 13 5 14 6 15 7 16 8 17 9 18 10 8 11 7 12
REMARK SMILES IDX 6 13 5 14 4 15 3 16 2 17 1 18
REMARK H PARENT
REMARK Flexibility Score: inf
ROOT
ATOM      1  C   UNL     1     -18.584  30.032  -1.674  1.00  0.00     0.000 C 
ENDROOT
BRANCH   1   2
ATOM      2  C   UNL     1     -17.617  29.425  -0.645  1.00  0.00     0.000 C 
BRANCH   2   3
ATOM      3  C   UNL     1     -17.652  27.887  -0.636  1.00  0.00     0.000 C 
BRANCH   3   4
ATOM      4  C   UNL     1     -16.376  27.272  -0.039  1.00  0.00     0.000 C 
BRANCH   4   5
ATOM      5  C   UNL     1     -16.678  26.145   0.964  1.00  0.00     0.000 C 
BRANCH   5   6
ATOM      6  C   UNL     1     -18.111  25.606   0.831  1.00  0.00     0.006 C 
BRANCH   6   7
ATOM      7  C   UNL     1     -18.202  24.398  -0.111  1.00  0.00     0.053 C 
BRANCH   7   8
ATOM      8  C   UNL     1     -19.620  23.941  -0.237  1.00  0.00     0.041 C 
ATOM      9  O   UNL     1     -20.470  24.265   0.634  1.00  0.00    -0.550 OA
ATOM     10  O   UNL     1     -19.994  23.116  -1.290  1.00  0.00    -0.550 OA
ENDBRANCH   7   8
ENDBRANCH   6   7
ENDBRANCH   5   6
ENDBRANCH   4   5
ENDBRANCH   3   4
ENDBRANCH   2   3
ENDBRANCH   1   2
BRANCH   1  11
ATOM     11  C   UNL     1     -18.273  31.504  -1.981  1.00  0.00     0.000 C 
BRANCH  11  12
ATOM     12  C   UNL     1     -18.192  32.329  -0.690  1.00  0.00    -0.000 C 
BRANCH  12  13
ATOM     13  C   UNL     1     -17.001  33.295  -0.726  1.00  0.00    -0.000 C 
BRANCH  13  14
ATOM     14  C   UNL     1     -16.270  33.316   0.624  1.00  0.00    -0.000 C 
BRANCH  14  15
ATOM     15  C   UNL     1     -16.600  32.095   1.498  1.00  0.00    -0.000 C 
BRANCH  15  16
ATOM     16  C   UNL     1     -15.541  30.983   1.383  1.00  0.00    -0.000 C 
BRANCH  16  17
ATOM     17  C   UNL     1     -15.538  30.047   2.601  1.00  0.00    -0.003 C 
ATOM     18  C   UNL     1     -16.288  30.628   3.800  1.00  0.00     0.004 C 
ENDBRANCH  16  17
ENDBRANCH  15  16
ENDBRANCH  14  15
ENDBRANCH  13  14
ENDBRANCH  12  13
ENDBRANCH  11  12
ENDBRANCH   1  11
TORSDOF 14
ENDMDL
MODEL 5
REMARK VINA RESULT:    -5.525      0.792      1.990
REMARK INTER + INTRA:         -11.085
REMARK INTER:                 -10.208
REMARK INTRA:                  -0.877
REMARK UNBOUND:                -1.038
REMARK SMILES CCCCCCCCCCCCCCCC(=O)[O-]
REMARK SMILES IDX 9 1 10 2 11 3 12 4 13 5 14 6 15 7 16 8 17 9 18 10 8 11 7 12
REMARK SMILES IDX 6 13 5 14 4 15 3 16 2 17 1 18
REMARK H PARENT
REMARK Flexibility Score: inf
ROOT
ATOM      1  C   UNL     1     -16.484  26.711   0.365  1.00  0.00     0.000 C 
ENDROOT
BRANCH   1   2
ATOM      2  C   UNL     1     -17.313  25.762   1.245  1.00  0.00     0.000 C 
BRANCH   2   3
ATOM      3  C   UNL     1     -18.545  25.203   0.514  1.00  0.00     0.000 C 
BRANCH   3   4
ATOM      4  C   UNL     1     -18.188  24.559  -0.835  1.00  0.00     0.000 C 
BRANCH   4   5
ATOM      5  C   UNL     1     -18.563  23.067  -0.893  1.00  0.00     0.000 C 
BRANCH   5   6
ATOM      6  C   UNL     1     -19.834  22.810  -1.718  1.00  0.00     0.006 C 
BRANCH   6   7
ATOM      7  C   UNL     1     -20.830  21.894  -0.996  1.00  0.00     0.053 C 
BRANCH   7   8
ATOM      8  C   UNL     1     -21.843  22.706  -0.254  1.00  0.00     0.041 C 
ATOM      9  O   UNL     1     -21.734  22.871   0.990  1.00  0.00    -0.550 OA
ATOM     10  O   UNL     1     -22.933  23.243  -0.927  1.00  0.00    -0.550 OA
ENDBRANCH   7   8
ENDBRANCH   6   7
ENDBRANCH   5   6
ENDBRANCH   4   5
ENDBRANCH   3   4
ENDBRANCH   2   3
ENDBRANCH   1   2
BRANCH   1  11
ATOM     11  C   UNL     1     -17.332  27.828  -0.262  1.00  0.00     0.000 C 
BRANCH  11  12
ATOM     12  C   UNL     1     -16.606  29.177  -0.186  1.00  0.00    -0.000 C 
BRANCH  12  13
ATOM     13  C   UNL     1     -16.137  29.472   1.244  1.00  0.00    -0.000 C 
BRANCH  13  14
ATOM     14  C   UNL     1     -15.539  30.882   1.346  1.00  0.00    -0.000 C 
BRANCH  14  15
ATOM     15  C   UNL     1     -16.612  31.980   1.412  1.00  0.00    -0.000 C 
BRANCH  15  16
ATOM     16  C   UNL     1     -16.182  33.271   0.692  1.00  0.00    -0.000 C 
BRANCH  16  17
ATOM     17  C   UNL     1     -16.927  33.479  -0.636  1.00  0.00    -0.003 C 
ATOM     18  C   UNL     1     -18.062  32.478  -0.844  1.00  0.00     0.004 C 
ENDBRANCH  16  17
ENDBRANCH  15  16
ENDBRANCH  14  15
ENDBRANCH  13  14
ENDBRANCH  12  13
ENDBRANCH  11  12
ENDBRANCH   1  11
TORSDOF 14
ENDMDL
MODEL 6
REMARK VINA RESULT:    -5.423      3.402      7.524
REMARK INTER + INTRA:         -10.900
REMARK INTER:                  -9.703
REMARK INTRA:                  -1.197
REMARK UNBOUND:                -1.038
REMARK SMILES CCCCCCCCCCCCCCCC(=O)[O-]
REMARK SMILES IDX 9 1 10 2 11 3 12 4 13 5 14 6 15 7 16 8 17 9 18 10 8 11 7 12
REMARK SMILES IDX 6 13 5 14 4 15 3 16 2 17 1 18
REMARK H PARENT
REMARK Flexibility Score: inf
ROOT
ATOM      1  C   UNL     1     -18.234  31.570  -2.058  1.00  0.00     0.000 C 
ENDROOT
BRANCH   1   2
ATOM      2  C   UNL     1     -18.215  32.449  -0.799  1.00  0.00     0.000 C 
BRANCH   2   3
ATOM      3  C   UNL     1     -17.003  33.395  -0.755  1.00  0.00     0.000 C 
BRANCH   3   4
ATOM      4  C   UNL     1     -16.189  33.250   0.541  1.00  0.00     0.000 C 
BRANCH   4   5
ATOM      5  C   UNL     1     -16.606  32.019   1.365  1.00  0.00     0.000 C 
BRANCH   5   6
ATOM      6  C   UNL     1     -15.483  30.976   1.477  1.00  0.00     0.006 C 
BRANCH   6   7
ATOM      7  C   UNL     1     -15.846  29.818   2.414  1.00  0.00     0.053 C 
BRANCH   7   8
ATOM      8  C   UNL     1     -15.830  30.275   3.838  1.00  0.00     0.041 C 
ATOM      9  O   UNL     1     -14.736  30.522   4.412  1.00  0.00    -0.550 OA
ATOM     10  O   UNL     1     -17.020  30.382   4.548  1.00  0.00    -0.550 OA
ENDBRANCH   7   8
ENDBRANCH   6   7
ENDBRANCH   5   6
ENDBRANCH   4   5
ENDBRANCH   3   4
ENDBRANCH   2   3
ENDBRANCH   1   2
BRANCH   1  11
ATOM     11  C   UNL     1     -18.586  30.106  -1.752  1.00  0.00     0.000 C 
BRANCH  11  12
ATOM     12  C   UNL     1     -17.601  29.503  -0.743  1.00  0.00    -0.000 C 
BRANCH  12  13
ATOM     13  C   UNL     1     -17.761  27.981  -0.657  1.00  0.00    -0.000 C 
BRANCH  13  14
ATOM     14  C   UNL     1     -16.477  27.321  -0.134  1.00  0.00    -0.000 C 
BRANCH  14  15
ATOM     15  C   UNL     1     -16.731  25.944   0.500  1.00  0.00    -0.000 C 
BRANCH  15  16
ATOM     16  C   UNL     1     -17.904  25.197  -0.160  1.00  0.00    -0.000 C 
BRANCH  16  17
ATOM     17  C   UNL     1     -18.961  24.746   0.859  1.00  0.00    -0.003 C 
ATOM     18  C   UNL     1     -19.882  23.654   0.317  1.00  0.00     0.004 C 
ENDBRANCH  16  17
ENDBRANCH  15  16
ENDBRANCH  14  15
ENDBRANCH  13  14
ENDBRANCH  12  13
ENDBRANCH  11  12
ENDBRANCH   1  11
TORSDOF 14
ENDMDL
MODEL 7
REMARK VINA RESULT:    -5.282      0.995      2.073
REMARK INTER + INTRA:         -10.644
REMARK INTER:                  -9.415
REMARK INTRA:                  -1.228
REMARK UNBOUND:                -1.038
REMARK SMILES CCCCCCCCCCCCCCCC(=O)[O-]
REMARK SMILES IDX 9 1 10 2 11 3 12 4 13 5 14 6 15 7 16 8 17 9 18 10 8 11 7 12
REMARK SMILES IDX 6 13 5 14 4 15 3 16 2 17 1 18
REMARK H PARENT
REMARK Flexibility Score: inf
ROOT
ATOM      1  C   UNL     1     -15.638  29.829   1.033  1.00  0.00     0.000 C 
ENDROOT
BRANCH   1   2
ATOM      2  C   UNL     1     -16.440  28.603   1.496  1.00  0.00     0.000 C 
BRANCH   2   3
ATOM      3  C   UNL     1     -16.333  27.421   0.518  1.00  0.00     0.000 C 
BRANCH   3   4
ATOM      4  C   UNL     1     -16.955  26.133   1.080  1.00  0.00     0.000 C 
BRANCH   4   5
ATOM      5  C   UNL     1     -18.191  25.679   0.284  1.00  0.00     0.000 C 
BRANCH   5   6
ATOM      6  C   UNL     1     -17.947  24.375  -0.491  1.00  0.00     0.006 C 
BRANCH   6   7
ATOM      7  C   UNL     1     -19.252  23.664  -0.874  1.00  0.00     0.053 C 
BRANCH   7   8
ATOM      8  C   UNL     1     -20.043  23.331   0.351  1.00  0.00     0.041 C 
ATOM      9  O   UNL     1     -19.572  22.545   1.216  1.00  0.00    -0.550 OA
ATOM     10  O   UNL     1     -21.320  23.851   0.517  1.00  0.00    -0.550 OA
ENDBRANCH   7   8
ENDBRANCH   6   7
ENDBRANCH   5   6
ENDBRANCH   4   5
ENDBRANCH   3   4
ENDBRANCH   2   3
ENDBRANCH   1   2
BRANCH   1  11
ATOM     11  C   UNL     1     -15.811  31.036   1.966  1.00  0.00     0.000 C 
BRANCH  11  12
ATOM     12  C   UNL     1     -16.840  32.024   1.403  1.00  0.00    -0.000 C 
BRANCH  12  13
ATOM     13  C   UNL     1     -16.162  33.090   0.532  1.00  0.00    -0.000 C 
BRANCH  13  14
ATOM     14  C   UNL     1     -17.030  33.437  -0.686  1.00  0.00    -0.000 C 
BRANCH  14  15
ATOM     15  C   UNL     1     -18.213  32.473  -0.868  1.00  0.00    -0.000 C 
BRANCH  15  16
ATOM     16  C   UNL     1     -17.960  31.428  -1.969  1.00  0.00    -0.000 C 
BRANCH  16  17
ATOM     17  C   UNL     1     -18.377  30.012  -1.543  1.00  0.00    -0.003 C 
ATOM     18  C   UNL     1     -19.720  29.584  -2.134  1.00  0.00     0.004 C 
ENDBRANCH  16  17
ENDBRANCH  15  16
ENDBRANCH  14  15
ENDBRANCH  13  14
ENDBRANCH  12  13
ENDBRANCH  11  12
ENDBRANCH   1  11
TORSDOF 14
ENDMDL
MODEL 8
REMARK VINA RESULT:    -5.200      1.391      2.740
REMARK INTER + INTRA:         -10.494
REMARK INTER:                  -9.420
REMARK INTRA:                  -1.074
REMARK UNBOUND:                -1.038
REMARK SMILES CCCCCCCCCCCCCCCC(=O)[O-]
REMARK SMILES IDX 9 1 10 2 11 3 12 4 13 5 14 6 15 7 16 8 17 9 18 10 8 11 7 12
REMARK SMILES IDX 6 13 5 14 4 15 3 16 2 17 1 18
REMARK H PARENT
REMARK Flexibility Score: inf
ROOT
ATOM      1  C   UNL     1     -17.344  29.111  -0.541  1.00  0.00     0.000 C 
ENDROOT
BRANCH   1   2
ATOM      2  C   UNL     1     -16.631  27.787  -0.225  1.00  0.00     0.000 C 
BRANCH   2   3
ATOM      3  C   UNL     1     -16.673  27.435   1.272  1.00  0.00     0.000 C 
BRANCH   3   4
ATOM      4  C   UNL     1     -17.185  26.009   1.528  1.00  0.00     0.000 C 
BRANCH   4   5
ATOM      5  C   UNL     1     -17.320  25.190   0.233  1.00  0.00     0.000 C 
BRANCH   5   6
ATOM      6  C   UNL     1     -18.728  24.600   0.052  1.00  0.00     0.006 C 
BRANCH   6   7
ATOM      7  C   UNL     1     -18.826  23.670  -1.164  1.00  0.00     0.053 C 
BRANCH   7   8
ATOM      8  C   UNL     1     -19.037  22.256  -0.724  1.00  0.00     0.041 C 
ATOM      9  O   UNL     1     -19.085  21.328  -1.574  1.00  0.00    -0.550 OA
ATOM     10  O   UNL     1     -19.229  21.967   0.622  1.00  0.00    -0.550 OA
ENDBRANCH   7   8
ENDBRANCH   6   7
ENDBRANCH   5   6
ENDBRANCH   4   5
ENDBRANCH   3   4
ENDBRANCH   2   3
ENDBRANCH   1   2
BRANCH   1  11
ATOM     11  C   UNL     1     -18.636  28.909  -1.348  1.00  0.00     0.000 C 
BRANCH  11  12
ATOM     12  C   UNL     1     -19.151  30.241  -1.905  1.00  0.00    -0.000 C 
BRANCH  12  13
ATOM     13  C   UNL     1     -18.029  31.286  -1.960  1.00  0.00    -0.000 C 
BRANCH  13  14
ATOM     14  C   UNL     1     -18.226  32.361  -0.880  1.00  0.00    -0.000 C 
BRANCH  14  15
ATOM     15  C   UNL     1     -17.054  33.353  -0.808  1.00  0.00    -0.000 C 
BRANCH  15  16
ATOM     16  C   UNL     1     -16.307  33.286   0.536  1.00  0.00    -0.000 C 
BRANCH  16  17
ATOM     17  C   UNL     1     -16.715  32.066   1.376  1.00  0.00    -0.003 C 
ATOM     18  C   UNL     1     -15.573  31.068   1.567  1.00  0.00     0.004 C 
ENDBRANCH  16  17
ENDBRANCH  15  16
ENDBRANCH  14  15
ENDBRANCH  13  14
ENDBRANCH  12  13
ENDBRANCH  11  12
ENDBRANCH   1  11
TORSDOF 14
ENDMDL
MODEL 9
REMARK VINA RESULT:    -5.124      3.473      8.407
REMARK INTER + INTRA:         -10.356
REMARK INTER:                  -9.397
REMARK INTRA:                  -0.959
REMARK UNBOUND:                -1.038
REMARK SMILES CCCCCCCCCCCCCCCC(=O)[O-]
REMARK SMILES IDX 9 1 10 2 11 3 12 4 13 5 14 6 15 7 16 8 17 9 18 10 8 11 7 12
REMARK SMILES IDX 6 13 5 14 4 15 3 16 2 17 1 18
REMARK H PARENT
REMARK Flexibility Score: inf
ROOT
ATOM      1  C   UNL     1     -16.259  26.378   0.933  1.00  0.00     0.000 C 
ENDROOT
BRANCH   1   2
ATOM      2  C   UNL     1     -16.648  27.415  -0.132  1.00  0.00     0.000 C 
BRANCH   2   3
ATOM      3  C   UNL     1     -16.381  28.859   0.324  1.00  0.00     0.000 C 
BRANCH   3   4
ATOM      4  C   UNL     1     -16.086  28.957   1.829  1.00  0.00     0.000 C 
BRANCH   4   5
ATOM      5  C   UNL     1     -15.834  30.404   2.288  1.00  0.00     0.000 C 
BRANCH   5   6
ATOM      6  C   UNL     1     -15.797  31.397   1.115  1.00  0.00     0.006 C 
BRANCH   6   7
ATOM      7  C   UNL     1     -16.930  32.429   1.180  1.00  0.00     0.053 C 
BRANCH   7   8
ATOM      8  C   UNL     1     -17.460  32.710  -0.190  1.00  0.00     0.041 C 
ATOM      9  O   UNL     1     -18.460  32.079  -0.623  1.00  0.00    -0.550 OA
ATOM     10  O   UNL     1     -16.821  33.633  -1.008  1.00  0.00    -0.550 OA
ENDBRANCH   7   8
ENDBRANCH   6   7
ENDBRANCH   5   6
ENDBRANCH   4   5
ENDBRANCH   3   4
ENDBRANCH   2   3
ENDBRANCH   1   2
BRANCH   1  11
ATOM     11  C   UNL     1     -17.452  25.525   1.392  1.00  0.00     0.000 C 
BRANCH  11  12
ATOM     12  C   UNL     1     -18.488  25.382   0.271  1.00  0.00    -0.000 C 
BRANCH  12  13
ATOM     13  C   UNL     1     -18.978  23.933   0.154  1.00  0.00    -0.000 C 
BRANCH  13  14
ATOM     14  C   UNL     1     -18.874  23.434  -1.294  1.00  0.00    -0.000 C 
BRANCH  14  15
ATOM     15  C   UNL     1     -20.119  22.654  -1.745  1.00  0.00    -0.000 C 
BRANCH  15  16
ATOM     16  C   UNL     1     -20.549  21.585  -0.724  1.00  0.00    -0.000 C 
BRANCH  16  17
ATOM     17  C   UNL     1     -22.019  21.732  -0.304  1.00  0.00    -0.003 C 
ATOM     18  C   UNL     1     -22.502  23.182  -0.324  1.00  0.00     0.004 C 
ENDBRANCH  16  17
ENDBRANCH  15  16
ENDBRANCH  14  15
ENDBRANCH  13  14
ENDBRANCH  12  13
ENDBRANCH  11  12
ENDBRANCH   1  11
TORSDOF 14
ENDMDL
