MODEL 1
REMARK VINA RESULT:    -2.729      0.000      0.000
REMARK INTER + INTRA:          -8.212
REMARK INTER:                  -5.122
REMARK INTRA:                  -3.090
REMARK UNBOUND:                -3.090
REMARK SMILES CCCCCCCCCCCCCC=CC=CC(=O)OC
REMARK SMILES IDX 9 1 8 2 7 3 6 4 5 5 4 6 3 7 2 8 1 9 10 10 11 11 12 12 13 13
REMARK SMILES IDX 14 14 15 15 16 16 17 17 18 18 19 19 20 20 21 21
REMARK H PARENT
REMARK Flexibility Score: inf
ROOT
ATOM      1  C   UNL     1      -3.833   3.992  -3.548  1.00  0.00     0.000 C 
ENDROOT
BRANCH   1   2
ATOM      2  C   UNL     1      -2.434   4.060  -2.910  1.00  0.00     0.000 C 
BRANCH   2   3
ATOM      3  C   UNL     1      -2.388   3.744  -1.401  1.00  0.00     0.000 C 
BRANCH   3   4
ATOM      4  C   UNL     1      -1.303   2.738  -0.976  1.00  0.00    -0.000 C 
BRANCH   4   5
ATOM      5  C   UNL     1      -0.648   2.029  -2.170  1.00  0.00    -0.000 C 
BRANCH   5   6
ATOM      6  C   UNL     1       0.877   2.182  -2.131  1.00  0.00    -0.000 C 
BRANCH   6   7
ATOM      7  C   UNL     1       1.381   2.976  -3.344  1.00  0.00    -0.000 C 
BRANCH   7   8
ATOM      8  C   UNL     1       1.189   4.492  -3.179  1.00  0.00    -0.003 C 
ATOM      9  C   UNL     1       1.617   4.995  -1.801  1.00  0.00     0.004 C 
ENDBRANCH   7   8
ENDBRANCH   6   7
ENDBRANCH   5   6
ENDBRANCH   4   5
ENDBRANCH   3   4
ENDBRANCH   2   3
ENDBRANCH   1   2
BRANCH   1  10
ATOM     10  C   UNL     1      -4.903   3.460  -2.584  1.00  0.00     0.000 C 
BRANCH  10  11
ATOM     11  C   UNL     1      -5.418   2.089  -3.037  1.00  0.00     0.000 C 
BRANCH  11  12
ATOM     12  C   UNL     1      -4.661   0.955  -2.331  1.00  0.00     0.004 C 
BRANCH  12  13
ATOM     13  C   UNL     1      -3.575   0.327  -3.216  1.00  0.00     0.027 C 
BRANCH  13  14
ATOM     14  C   UNL     1      -3.937   0.382  -4.680  1.00  0.00    -0.027 C 
ATOM     15  C   UNL     1      -3.159   0.884  -5.648  1.00  0.00    -0.004 C 
BRANCH  15  16
ATOM     16  C   UNL     1      -1.772   1.355  -5.437  1.00  0.00     0.007 C 
ATOM     17  C   UNL     1      -0.688   0.751  -5.942  1.00  0.00     0.093 C 
BRANCH  17  18
ATOM     18  C   UNL     1      -0.698  -0.352  -6.923  1.00  0.00     0.330 C 
ATOM     19  O   UNL     1      -0.435  -0.092  -8.129  1.00  0.00    -0.247 OA
BRANCH  18  20
ATOM     20  O   UNL     1      -1.051  -1.652  -6.546  1.00  0.00    -0.466 OA
ATOM     21  C   UNL     1      -0.195  -2.770  -6.750  1.00  0.00     0.282 C 
ENDBRANCH  18  20
ENDBRANCH  17  18
ENDBRANCH  15  16
ENDBRANCH  13  14
ENDBRANCH  12  13
ENDBRANCH  11  12
ENDBRANCH  10  11
ENDBRANCH   1  10
TORSDOF 15
ENDMDL
MODEL 2
REMARK VINA RESULT:    -2.669      2.097      4.370
REMARK INTER + INTRA:          -8.099
REMARK INTER:                  -5.086
REMARK INTRA:                  -3.014
REMARK UNBOUND:                -3.090
REMARK SMILES CCCCCCCCCCCCCC=CC=CC(=O)OC
REMARK SMILES IDX 9 1 8 2 7 3 6 4 5 5 4 6 3 7 2 8 1 9 10 10 11 11 12 12 13 13
REMARK SMILES IDX 14 14 15 15 16 16 17 17 18 18 19 19 20 20 21 21
REMARK H PARENT
REMARK Flexibility Score: inf
ROOT
ATOM      1  C   UNL     1       0.628   3.316  -1.106  1.00  0.00     0.000 C 
ENDROOT
BRANCH   1   2
ATOM      2  C   UNL     1       1.054   2.368  -2.240  1.00  0.00     0.000 C 
BRANCH   2   3
ATOM      3  C   UNL     1      -0.073   1.958  -3.209  1.00  0.00     0.000 C 
BRANCH   3   4
ATOM      4  C   UNL     1       0.163   2.331  -4.684  1.00  0.00    -0.000 C 
BRANCH   4   5
ATOM      5  C   UNL     1      -0.057   3.825  -4.963  1.00  0.00    -0.000 C 
BRANCH   5   6
ATOM      6  C   UNL     1       1.255   4.508  -5.368  1.00  0.00    -0.000 C 
BRANCH   6   7
ATOM      7  C   UNL     1       2.373   3.474  -5.568  1.00  0.00    -0.000 C 
BRANCH   7   8
ATOM      8  C   UNL     1       3.630   3.798  -4.746  1.00  0.00    -0.003 C 
ATOM      9  C   UNL     1       3.418   4.958  -3.775  1.00  0.00     0.004 C 
ENDBRANCH   7   8
ENDBRANCH   6   7
ENDBRANCH   5   6
ENDBRANCH   4   5
ENDBRANCH   3   4
ENDBRANCH   2   3
ENDBRANCH   1   2
BRANCH   1  10
ATOM     10  C   UNL     1       0.626   4.792  -1.533  1.00  0.00     0.000 C 
BRANCH  10  11
ATOM     11  C   UNL     1      -0.801   5.348  -1.576  1.00  0.00     0.000 C 
BRANCH  11  12
ATOM     12  C   UNL     1      -1.710   4.617  -0.577  1.00  0.00     0.004 C 
BRANCH  12  13
ATOM     13  C   UNL     1      -2.887   3.904  -1.260  1.00  0.00     0.027 C 
BRANCH  13  14
ATOM     14  C   UNL     1      -2.925   4.172  -2.744  1.00  0.00    -0.027 C 
ATOM     15  C   UNL     1      -3.816   3.649  -3.598  1.00  0.00    -0.004 C 
BRANCH  15  16
ATOM     16  C   UNL     1      -4.971   2.822  -3.188  1.00  0.00     0.007 C 
ATOM     17  C   UNL     1      -4.951   1.483  -3.118  1.00  0.00     0.093 C 
BRANCH  17  18
ATOM     18  C   UNL     1      -3.751   0.635  -3.258  1.00  0.00     0.330 C 
ATOM     19  O   UNL     1      -3.170   0.231  -2.214  1.00  0.00    -0.247 OA
BRANCH  18  20
ATOM     20  O   UNL     1      -3.225   0.328  -4.517  1.00  0.00    -0.466 OA
ATOM     21  C   UNL     1      -3.568  -0.856  -5.226  1.00  0.00     0.282 C 
ENDBRANCH  18  20
ENDBRANCH  17  18
ENDBRANCH  15  16
ENDBRANCH  13  14
ENDBRANCH  12  13
ENDBRANCH  11  12
ENDBRANCH  10  11
ENDBRANCH   1  10
TORSDOF 15
ENDMDL
MODEL 3
REMARK VINA RESULT:    -2.634      2.464      5.180
REMARK INTER + INTRA:          -8.034
REMARK INTER:                  -5.273
REMARK INTRA:                  -2.761
REMARK UNBOUND:                -3.090
REMARK SMILES CCCCCCCCCCCCCC=CC=CC(=O)OC
REMARK SMILES IDX 9 1 8 2 7 3 6 4 5 5 4 6 3 7 2 8 1 9 10 10 11 11 12 12 13 13
REMARK SMILES IDX 14 14 15 15 16 16 17 17 18 18 19 19 20 20 21 21
REMARK H PARENT
REMARK Flexibility Score: inf
ROOT
ATOM      1  C   UNL     1      -4.404   4.864  -2.892  1.00  0.00     0.000 C 
ENDROOT
BRANCH   1   2
ATOM      2  C   UNL     1      -5.373   3.760  -2.437  1.00  0.00     0.000 C 
BRANCH   2   3
ATOM      3  C   UNL     1      -5.205   2.405  -3.154  1.00  0.00     0.000 C 
BRANCH   3   4
ATOM      4  C   UNL     1      -4.821   1.225  -2.243  1.00  0.00    -0.000 C 
BRANCH   4   5
ATOM      5  C   UNL     1      -3.451   0.626  -2.590  1.00  0.00    -0.000 C 
BRANCH   5   6
ATOM      6  C   UNL     1      -3.159   0.752  -4.090  1.00  0.00    -0.000 C 
BRANCH   6   7
ATOM      7  C   UNL     1      -3.544  -0.535  -4.834  1.00  0.00    -0.000 C 
BRANCH   7   8
ATOM      8  C   UNL     1      -3.905  -0.280  -6.306  1.00  0.00    -0.003 C 
ATOM      9  C   UNL     1      -4.832   0.921  -6.488  1.00  0.00     0.004 C 
ENDBRANCH   7   8
ENDBRANCH   6   7
ENDBRANCH   5   6
ENDBRANCH   4   5
ENDBRANCH   3   4
ENDBRANCH   2   3
ENDBRANCH   1   2
BRANCH   1  10
ATOM     10  C   UNL     1      -2.964   4.359  -3.066  1.00  0.00     0.000 C 
BRANCH  10  11
ATOM     11  C   UNL     1      -2.035   4.980  -2.018  1.00  0.00     0.000 C 
BRANCH  11  12
ATOM     12  C   UNL     1      -2.202   4.292  -0.655  1.00  0.00     0.004 C 
BRANCH  12  13
ATOM     13  C   UNL     1      -1.282   3.073  -0.491  1.00  0.00     0.027 C 
BRANCH  13  14
ATOM     14  C   UNL     1       0.162   3.415  -0.763  1.00  0.00    -0.027 C 
ATOM     15  C   UNL     1       0.917   2.863  -1.722  1.00  0.00    -0.004 C 
BRANCH  15  16
ATOM     16  C   UNL     1       0.406   1.915  -2.737  1.00  0.00     0.007 C 
ATOM     17  C   UNL     1       0.292   2.199  -4.042  1.00  0.00     0.093 C 
BRANCH  17  18
ATOM     18  C   UNL     1       0.816   3.408  -4.706  1.00  0.00     0.330 C 
ATOM     19  O   UNL     1       0.040   4.386  -4.884  1.00  0.00    -0.247 OA
BRANCH  18  20
ATOM     20  O   UNL     1       2.129   3.458  -5.186  1.00  0.00    -0.466 OA
ATOM     21  C   UNL     1       3.218   3.924  -4.399  1.00  0.00     0.282 C 
ENDBRANCH  18  20
ENDBRANCH  17  18
ENDBRANCH  15  16
ENDBRANCH  13  14
ENDBRANCH  12  13
ENDBRANCH  11  12
ENDBRANCH  10  11
ENDBRANCH   1  10
TORSDOF 15
ENDMDL
MODEL 4
REMARK VINA RESULT:    -2.632      3.495      6.678
REMARK INTER + INTRA:          -8.031
REMARK INTER:                  -4.726
REMARK INTRA:                  -3.305
REMARK UNBOUND:                -3.090
REMARK SMILES CCCCCCCCCCCCCC=CC=CC(=O)OC
REMARK SMILES IDX 9 1 8 2 7 3 6 4 5 5 4 6 3 7 2 8 1 9 10 10 11 11 12 12 13 13
REMARK SMILES IDX 14 14 15 15 16 16 17 17 18 18 19 19 20 20 21 21
REMARK H PARENT
REMARK Flexibility Score: inf
ROOT
ATOM      1  C   UNL     1      -1.310   3.898  -4.963  1.00  0.00     0.000 C 
ENDROOT
BRANCH   1   2
ATOM      2  C   UNL     1      -2.810   3.624  -5.175  1.00  0.00     0.000 C 
BRANCH   2   3
ATOM      3  C   UNL     1      -3.762   4.593  -4.445  1.00  0.00     0.000 C 
BRANCH   3   4
ATOM      4  C   UNL     1      -4.922   3.922  -3.687  1.00  0.00    -0.000 C 
BRANCH   4   5
ATOM      5  C   UNL     1      -4.443   2.867  -2.679  1.00  0.00    -0.000 C 
BRANCH   5   6
ATOM      6  C   UNL     1      -4.979   1.477  -3.043  1.00  0.00    -0.000 C 
BRANCH   6   7
ATOM      7  C   UNL     1      -3.855   0.431  -3.011  1.00  0.00    -0.000 C 
BRANCH   7   8
ATOM      8  C   UNL     1      -3.391   0.019  -4.417  1.00  0.00    -0.003 C 
ATOM      9  C   UNL     1      -4.405   0.379  -5.503  1.00  0.00     0.004 C 
ENDBRANCH   7   8
ENDBRANCH   6   7
ENDBRANCH   5   6
ENDBRANCH   4   5
ENDBRANCH   3   4
ENDBRANCH   2   3
ENDBRANCH   1   2
BRANCH   1  10
ATOM     10  C   UNL     1      -0.523   2.638  -4.577  1.00  0.00     0.000 C 
BRANCH  10  11
ATOM     11  C   UNL     1       0.645   2.984  -3.647  1.00  0.00     0.000 C 
BRANCH  11  12
ATOM     12  C   UNL     1       0.547   2.206  -2.327  1.00  0.00     0.004 C 
BRANCH  12  13
ATOM     13  C   UNL     1      -0.903   1.883  -1.936  1.00  0.00     0.027 C 
BRANCH  13  14
ATOM     14  C   UNL     1      -1.273   2.478  -0.599  1.00  0.00    -0.027 C 
ATOM     15  C   UNL     1      -1.572   3.767  -0.385  1.00  0.00    -0.004 C 
BRANCH  15  16
ATOM     16  C   UNL     1      -1.696   4.777  -1.458  1.00  0.00     0.007 C 
ATOM     17  C   UNL     1      -0.891   5.842  -1.586  1.00  0.00     0.093 C 
BRANCH  17  18
ATOM     18  C   UNL     1       0.340   6.085  -0.810  1.00  0.00     0.330 C 
ATOM     19  O   UNL     1       1.381   5.437  -1.107  1.00  0.00    -0.247 OA
BRANCH  18  20
ATOM     20  O   UNL     1       0.349   6.968   0.274  1.00  0.00    -0.466 OA
ATOM     21  C   UNL     1      -0.842   7.492   0.848  1.00  0.00     0.282 C 
ENDBRANCH  18  20
ENDBRANCH  17  18
ENDBRANCH  15  16
ENDBRANCH  13  14
ENDBRANCH  12  13
ENDBRANCH  11  12
ENDBRANCH  10  11
ENDBRANCH   1  10
TORSDOF 15
ENDMDL
MODEL 5
REMARK VINA RESULT:    -2.625      2.739      5.524
REMARK INTER + INTRA:          -8.017
REMARK INTER:                  -4.752
REMARK INTRA:                  -3.265
REMARK UNBOUND:                -3.090
REMARK SMILES CCCCCCCCCCCCCC=CC=CC(=O)OC
REMARK SMILES IDX 9 1 8 2 7 3 6 4 5 5 4 6 3 7 2 8 1 9 10 10 11 11 12 12 13 13
REMARK SMILES IDX 14 14 15 15 16 16 17 17 18 18 19 19 20 20 21 21
REMARK H PARENT
REMARK Flexibility Score: inf
ROOT
ATOM      1  C   UNL     1      -5.686   2.888  -4.354  1.00  0.00     0.000 C 
ENDROOT
BRANCH   1   2
ATOM      2  C   UNL     1      -4.494   3.795  -4.708  1.00  0.00     0.000 C 
BRANCH   2   3
ATOM      3  C   UNL     1      -4.107   3.813  -6.202  1.00  0.00     0.000 C 
BRANCH   3   4
ATOM      4  C   UNL     1      -2.698   3.281  -6.518  1.00  0.00    -0.000 C 
BRANCH   4   5
ATOM      5  C   UNL     1      -1.821   3.133  -5.266  1.00  0.00    -0.000 C 
BRANCH   5   6
ATOM      6  C   UNL     1      -1.326   1.690  -5.109  1.00  0.00    -0.000 C 
BRANCH   6   7
ATOM      7  C   UNL     1      -1.955   0.775  -6.170  1.00  0.00    -0.000 C 
BRANCH   7   8
ATOM      8  C   UNL     1      -2.929  -0.248  -5.564  1.00  0.00    -0.003 C 
ATOM      9  C   UNL     1      -4.268  -0.293  -6.298  1.00  0.00     0.004 C 
ENDBRANCH   7   8
ENDBRANCH   6   7
ENDBRANCH   5   6
ENDBRANCH   4   5
ENDBRANCH   3   4
ENDBRANCH   2   3
ENDBRANCH   1   2
BRANCH   1  10
ATOM     10  C   UNL     1      -5.288   1.704  -3.461  1.00  0.00     0.000 C 
BRANCH  10  11
ATOM     11  C   UNL     1      -4.042   2.036  -2.632  1.00  0.00     0.000 C 
BRANCH  11  12
ATOM     12  C   UNL     1      -3.395   0.760  -2.074  1.00  0.00     0.004 C 
BRANCH  12  13
ATOM     13  C   UNL     1      -1.975   1.002  -1.539  1.00  0.00     0.027 C 
BRANCH  13  14
ATOM     14  C   UNL     1      -1.701   2.468  -1.307  1.00  0.00    -0.027 C 
ATOM     15  C   UNL     1      -0.524   3.074  -1.514  1.00  0.00    -0.004 C 
BRANCH  15  16
ATOM     16  C   UNL     1       0.655   2.411  -2.115  1.00  0.00     0.007 C 
ATOM     17  C   UNL     1       1.590   3.048  -2.834  1.00  0.00     0.093 C 
BRANCH  17  18
ATOM     18  C   UNL     1       1.703   4.510  -2.992  1.00  0.00     0.330 C 
ATOM     19  O   UNL     1       1.133   5.059  -3.975  1.00  0.00    -0.247 OA
BRANCH  18  20
ATOM     20  O   UNL     1       2.474   5.276  -2.111  1.00  0.00    -0.466 OA
ATOM     21  C   UNL     1       2.159   6.625  -1.787  1.00  0.00     0.282 C 
ENDBRANCH  18  20
ENDBRANCH  17  18
ENDBRANCH  15  16
ENDBRANCH  13  14
ENDBRANCH  12  13
ENDBRANCH  11  12
ENDBRANCH  10  11
ENDBRANCH   1  10
TORSDOF 15
ENDMDL
MODEL 6
REMARK VINA RESULT:    -2.616      1.986      4.151
REMARK INTER + INTRA:          -8.001
REMARK INTER:                  -4.869
REMARK INTRA:                  -3.132
REMARK UNBOUND:                -3.090
REMARK SMILES CCCCCCCCCCCCCC=CC=CC(=O)OC
REMARK SMILES IDX 9 1 8 2 7 3 6 4 5 5 4 6 3 7 2 8 1 9 10 10 11 11 12 12 13 13
REMARK SMILES IDX 14 14 15 15 16 16 17 17 18 18 19 19 20 20 21 21
REMARK H PARENT
REMARK Flexibility Score: inf
ROOT
ATOM      1  C   UNL     1       0.687   2.613  -1.861  1.00  0.00     0.000 C 
ENDROOT
BRANCH   1   2
ATOM      2  C   UNL     1       1.653   3.106  -2.952  1.00  0.00     0.000 C 
BRANCH   2   3
ATOM      3  C   UNL     1       2.145   4.558  -2.784  1.00  0.00     0.000 C 
BRANCH   3   4
ATOM      4  C   UNL     1       1.443   5.362  -1.674  1.00  0.00    -0.000 C 
BRANCH   4   5
ATOM      5  C   UNL     1       0.331   6.274  -2.212  1.00  0.00    -0.000 C 
BRANCH   5   6
ATOM      6  C   UNL     1      -0.899   6.239  -1.297  1.00  0.00    -0.000 C 
BRANCH   6   7
ATOM      7  C   UNL     1      -0.565   5.577   0.048  1.00  0.00    -0.000 C 
BRANCH   7   8
ATOM      8  C   UNL     1      -1.704   4.686   0.567  1.00  0.00    -0.003 C 
ATOM      9  C   UNL     1      -1.197   3.437   1.286  1.00  0.00     0.004 C 
ENDBRANCH   7   8
ENDBRANCH   6   7
ENDBRANCH   5   6
ENDBRANCH   4   5
ENDBRANCH   3   4
ENDBRANCH   2   3
ENDBRANCH   1   2
BRANCH   1  10
ATOM     10  C   UNL     1      -0.687   2.213  -2.417  1.00  0.00     0.000 C 
BRANCH  10  11
ATOM     11  C   UNL     1      -1.087   3.114  -3.591  1.00  0.00     0.000 C 
BRANCH  11  12
ATOM     12  C   UNL     1      -2.472   3.735  -3.363  1.00  0.00     0.004 C 
BRANCH  12  13
ATOM     13  C   UNL     1      -3.200   3.130  -2.153  1.00  0.00     0.027 C 
BRANCH  13  14
ATOM     14  C   UNL     1      -4.582   2.642  -2.511  1.00  0.00    -0.027 C 
ATOM     15  C   UNL     1      -4.861   1.445  -3.047  1.00  0.00    -0.004 C 
BRANCH  15  16
ATOM     16  C   UNL     1      -3.859   0.377  -3.257  1.00  0.00     0.007 C 
ATOM     17  C   UNL     1      -3.382   0.019  -4.457  1.00  0.00     0.093 C 
BRANCH  17  18
ATOM     18  C   UNL     1      -3.628   0.731  -5.726  1.00  0.00     0.330 C 
ATOM     19  O   UNL     1      -2.724   1.481  -6.184  1.00  0.00    -0.247 OA
BRANCH  18  20
ATOM     20  O   UNL     1      -4.857   0.631  -6.385  1.00  0.00    -0.466 OA
ATOM     21  C   UNL     1      -4.976   0.166  -7.724  1.00  0.00     0.282 C 
ENDBRANCH  18  20
ENDBRANCH  17  18
ENDBRANCH  15  16
ENDBRANCH  13  14
ENDBRANCH  12  13
ENDBRANCH  11  12
ENDBRANCH  10  11
ENDBRANCH   1  10
TORSDOF 15
ENDMDL
MODEL 7
REMARK VINA RESULT:    -2.609      1.648      2.150
REMARK INTER + INTRA:          -7.988
REMARK INTER:                  -4.614
REMARK INTRA:                  -3.373
REMARK UNBOUND:                -3.090
REMARK SMILES CCCCCCCCCCCCCC=CC=CC(=O)OC
REMARK SMILES IDX 9 1 8 2 7 3 6 4 5 5 4 6 3 7 2 8 1 9 10 10 11 11 12 12 13 13
REMARK SMILES IDX 14 14 15 15 16 16 17 17 18 18 19 19 20 20 21 21
REMARK H PARENT
REMARK Flexibility Score: inf
ROOT
ATOM      1  C   UNL     1      -3.792   4.003  -3.651  1.00  0.00     0.000 C 
ENDROOT
BRANCH   1   2
ATOM      2  C   UNL     1      -2.393   3.899  -3.019  1.00  0.00     0.000 C 
BRANCH   2   3
ATOM      3  C   UNL     1      -2.379   3.696  -1.489  1.00  0.00     0.000 C 
BRANCH   3   4
ATOM      4  C   UNL     1      -1.317   2.711  -0.969  1.00  0.00    -0.000 C 
BRANCH   4   5
ATOM      5  C   UNL     1      -0.602   1.955  -2.099  1.00  0.00    -0.000 C 
BRANCH   5   6
ATOM      6  C   UNL     1       0.904   2.244  -2.086  1.00  0.00    -0.000 C 
BRANCH   6   7
ATOM      7  C   UNL     1       1.338   2.954  -3.377  1.00  0.00    -0.000 C 
BRANCH   7   8
ATOM      8  C   UNL     1       1.142   4.477  -3.308  1.00  0.00    -0.003 C 
ATOM      9  C   UNL     1       1.498   5.057  -1.940  1.00  0.00     0.004 C 
ENDBRANCH   7   8
ENDBRANCH   6   7
ENDBRANCH   5   6
ENDBRANCH   4   5
ENDBRANCH   3   4
ENDBRANCH   2   3
ENDBRANCH   1   2
BRANCH   1  10
ATOM     10  C   UNL     1      -4.905   3.501  -2.720  1.00  0.00     0.000 C 
BRANCH  10  11
ATOM     11  C   UNL     1      -5.407   2.121  -3.159  1.00  0.00     0.000 C 
BRANCH  11  12
ATOM     12  C   UNL     1      -4.735   1.006  -2.344  1.00  0.00     0.004 C 
BRANCH  12  13
ATOM     13  C   UNL     1      -3.620   0.293  -3.124  1.00  0.00     0.027 C 
BRANCH  13  14
ATOM     14  C   UNL     1      -3.912   0.239  -4.604  1.00  0.00    -0.027 C 
ATOM     15  C   UNL     1      -3.081   0.658  -5.569  1.00  0.00    -0.004 C 
BRANCH  15  16
ATOM     16  C   UNL     1      -1.700   1.129  -5.326  1.00  0.00     0.007 C 
ATOM     17  C   UNL     1      -1.090   2.078  -6.051  1.00  0.00     0.093 C 
BRANCH  17  18
ATOM     18  C   UNL     1      -1.736   2.925  -7.071  1.00  0.00     0.330 C 
ATOM     19  O   UNL     1      -2.149   4.069  -6.736  1.00  0.00    -0.247 OA
BRANCH  18  20
ATOM     20  O   UNL     1      -1.946   2.457  -8.373  1.00  0.00    -0.466 OA
ATOM     21  C   UNL     1      -3.245   2.299  -8.932  1.00  0.00     0.282 C 
ENDBRANCH  18  20
ENDBRANCH  17  18
ENDBRANCH  15  16
ENDBRANCH  13  14
ENDBRANCH  12  13
ENDBRANCH  11  12
ENDBRANCH  10  11
ENDBRANCH   1  10
TORSDOF 15
ENDMDL
MODEL 8
REMARK VINA RESULT:    -2.608      1.664      3.164
REMARK INTER + INTRA:          -7.986
REMARK INTER:                  -5.179
REMARK INTRA:                  -2.807
REMARK UNBOUND:                -3.090
REMARK SMILES CCCCCCCCCCCCCC=CC=CC(=O)OC
REMARK SMILES IDX 9 1 8 2 7 3 6 4 5 5 4 6 3 7 2 8 1 9 10 10 11 11 12 12 13 13
REMARK SMILES IDX 14 14 15 15 16 16 17 17 18 18 19 19 20 20 21 21
REMARK H PARENT
REMARK Flexibility Score: inf
ROOT
ATOM      1  C   UNL     1      -1.498   3.103  -5.056  1.00  0.00     0.000 C 
ENDROOT
BRANCH   1   2
ATOM      2  C   UNL     1      -0.342   2.195  -4.602  1.00  0.00     0.000 C 
BRANCH   2   3
ATOM      3  C   UNL     1      -0.358   1.812  -3.108  1.00  0.00     0.000 C 
BRANCH   3   4
ATOM      4  C   UNL     1       0.945   2.106  -2.343  1.00  0.00    -0.000 C 
BRANCH   4   5
ATOM      5  C   UNL     1       1.030   3.556  -1.845  1.00  0.00    -0.000 C 
BRANCH   5   6
ATOM      6  C   UNL     1       0.349   3.708  -0.479  1.00  0.00    -0.000 C 
BRANCH   6   7
ATOM      7  C   UNL     1      -0.644   4.879  -0.489  1.00  0.00    -0.000 C 
BRANCH   7   8
ATOM      8  C   UNL     1      -1.884   4.609   0.377  1.00  0.00    -0.003 C 
ATOM      9  C   UNL     1      -2.874   5.773   0.373  1.00  0.00     0.004 C 
ENDBRANCH   7   8
ENDBRANCH   6   7
ENDBRANCH   5   6
ENDBRANCH   4   5
ENDBRANCH   3   4
ENDBRANCH   2   3
ENDBRANCH   1   2
BRANCH   1  10
ATOM     10  C   UNL     1      -1.967   4.066  -3.956  1.00  0.00     0.000 C 
BRANCH  10  11
ATOM     11  C   UNL     1      -3.475   3.935  -3.719  1.00  0.00     0.000 C 
BRANCH  11  12
ATOM     12  C   UNL     1      -3.765   3.271  -2.364  1.00  0.00     0.004 C 
BRANCH  12  13
ATOM     13  C   UNL     1      -4.638   2.014  -2.496  1.00  0.00     0.027 C 
BRANCH  13  14
ATOM     14  C   UNL     1      -3.808   0.763  -2.641  1.00  0.00    -0.027 C 
ATOM     15  C   UNL     1      -3.659   0.064  -3.775  1.00  0.00    -0.004 C 
BRANCH  15  16
ATOM     16  C   UNL     1      -4.197   0.488  -5.086  1.00  0.00     0.007 C 
ATOM     17  C   UNL     1      -4.066  -0.219  -6.217  1.00  0.00     0.093 C 
BRANCH  17  18
ATOM     18  C   UNL     1      -3.537  -1.593  -6.314  1.00  0.00     0.330 C 
ATOM     19  O   UNL     1      -4.277  -2.553  -5.963  1.00  0.00    -0.247 OA
BRANCH  18  20
ATOM     20  O   UNL     1      -2.223  -1.835  -6.727  1.00  0.00    -0.466 OA
ATOM     21  C   UNL     1      -1.217  -0.830  -6.716  1.00  0.00     0.282 C 
ENDBRANCH  18  20
ENDBRANCH  17  18
ENDBRANCH  15  16
ENDBRANCH  13  14
ENDBRANCH  12  13
ENDBRANCH  11  12
ENDBRANCH  10  11
ENDBRANCH   1  10
TORSDOF 15
ENDMDL
MODEL 9
REMARK VINA RESULT:    -2.606      1.280      2.152
REMARK INTER + INTRA:          -7.981
REMARK INTER:                  -4.855
REMARK INTRA:                  -3.126
REMARK UNBOUND:                -3.090
REMARK SMILES CCCCCCCCCCCCCC=CC=CC(=O)OC
REMARK SMILES IDX 9 1 8 2 7 3 6 4 5 5 4 6 3 7 2 8 1 9 10 10 11 11 12 12 13 13
REMARK SMILES IDX 14 14 15 15 16 16 17 17 18 18 19 19 20 20 21 21
REMARK H PARENT
REMARK Flexibility Score: inf
ROOT
ATOM      1  C   UNL     1      -2.976   4.971  -2.490  1.00  0.00     0.000 C 
ENDROOT
BRANCH   1   2
ATOM      2  C   UNL     1      -3.176   4.847  -0.970  1.00  0.00     0.000 C 
BRANCH   2   3
ATOM      3  C   UNL     1      -1.880   4.667  -0.152  1.00  0.00     0.000 C 
BRANCH   3   4
ATOM      4  C   UNL     1      -0.623   5.306  -0.769  1.00  0.00    -0.000 C 
BRANCH   4   5
ATOM      5  C   UNL     1       0.555   4.325  -0.870  1.00  0.00    -0.000 C 
BRANCH   5   6
ATOM      6  C   UNL     1       0.660   3.735  -2.281  1.00  0.00    -0.000 C 
BRANCH   6   7
ATOM      7  C   UNL     1       0.468   2.212  -2.254  1.00  0.00    -0.000 C 
BRANCH   7   8
ATOM      8  C   UNL     1      -0.974   1.792  -2.584  1.00  0.00    -0.003 C 
ATOM      9  C   UNL     1      -1.720   1.237  -1.372  1.00  0.00     0.004 C 
ENDBRANCH   7   8
ENDBRANCH   6   7
ENDBRANCH   5   6
ENDBRANCH   4   5
ENDBRANCH   3   4
ENDBRANCH   2   3
ENDBRANCH   1   2
BRANCH   1  10
ATOM     10  C   UNL     1      -3.872   4.014  -3.289  1.00  0.00     0.000 C 
BRANCH  10  11
ATOM     11  C   UNL     1      -4.932   3.373  -2.386  1.00  0.00     0.000 C 
BRANCH  11  12
ATOM     12  C   UNL     1      -5.051   1.867  -2.658  1.00  0.00     0.004 C 
BRANCH  12  13
ATOM     13  C   UNL     1      -4.957   1.526  -4.153  1.00  0.00     0.027 C 
BRANCH  13  14
ATOM     14  C   UNL     1      -4.056   0.343  -4.407  1.00  0.00    -0.027 C 
ATOM     15  C   UNL     1      -3.008   0.338  -5.242  1.00  0.00    -0.004 C 
BRANCH  15  16
ATOM     16  C   UNL     1      -2.508   1.536  -5.951  1.00  0.00     0.007 C 
ATOM     17  C   UNL     1      -1.273   1.649  -6.460  1.00  0.00     0.093 C 
BRANCH  17  18
ATOM     18  C   UNL     1      -0.284   0.559  -6.561  1.00  0.00     0.330 C 
ATOM     19  O   UNL     1       0.563   0.421  -5.636  1.00  0.00    -0.247 OA
BRANCH  18  20
ATOM     20  O   UNL     1      -0.237  -0.274  -7.684  1.00  0.00    -0.466 OA
ATOM     21  C   UNL     1      -1.056  -1.429  -7.818  1.00  0.00     0.282 C 
ENDBRANCH  18  20
ENDBRANCH  17  18
ENDBRANCH  15  16
ENDBRANCH  13  14
ENDBRANCH  12  13
ENDBRANCH  11  12
ENDBRANCH  10  11
ENDBRANCH   1  10
TORSDOF 15
ENDMDL
