MODEL 1
REMARK VINA RESULT:    -7.391      0.000      0.000
REMARK INTER + INTRA:         -12.358
REMARK INTER:                 -10.848
REMARK INTRA:                  -1.510
REMARK UNBOUND:                -1.510
REMARK SMILES Cc1cc2c(C(C)C)c(O)c(O)c(C=O)c2c(O)c1-c1c(C)cc2c(C(C)C)c(O)c(O)c(C=O)c2c1O
REMARK SMILES IDX 1 1 2 2 3 3 4 4 16 5 13 6 11 7 9 8 5 9 17 10 19 11 20 12
REMARK SMILES IDX 37 13 21 14 36 15 23 16 22 17 24 18 33 19 25 20 31 21 29 22
REMARK SMILES IDX 38 23 34 25 35 26 26 27 27 28 28 29 32 30 30 32 18 34 6 36
REMARK SMILES IDX 7 37 8 38 14 39 15 40 10 41 12 43
REMARK H PARENT 38 24 32 31 30 33 18 35 10 42 12 44
REMARK Flexibility Score: inf
ROOT
ATOM      1  C   UNL     1      21.739  -6.959 129.910  1.00  0.00     0.045 C 
ATOM      2  C   UNL     1      20.444  -6.675 129.190  1.00  0.00    -0.039 A 
ATOM      3  C   UNL     1      19.242  -6.675 129.906  1.00  0.00     0.013 A 
ATOM      4  C   UNL     1      18.007  -6.372 129.294  1.00  0.00    -0.006 A 
ATOM      5  C   UNL     1      18.014  -6.008 127.915  1.00  0.00     0.039 A 
ATOM      6  C   UNL     1      16.841  -5.445 127.347  1.00  0.00     0.072 A 
ATOM      7  C   UNL     1      15.622  -5.528 128.037  1.00  0.00     0.169 A 
ATOM      8  C   UNL     1      15.572  -6.092 129.325  1.00  0.00     0.162 A 
ATOM      9  C   UNL     1      16.768  -6.425 130.011  1.00  0.00     0.008 A 
ATOM     10  C   UNL     1      19.198  -6.222 127.154  1.00  0.00     0.132 A 
ATOM     11  C   UNL     1      20.414  -6.490 127.798  1.00  0.00     0.031 A 
ENDROOT
BRANCH  11  12
ATOM     12  C   UNL     1      21.650  -6.626 126.989  1.00  0.00     0.031 A 
ATOM     13  C   UNL     1      22.410  -5.480 126.702  1.00  0.00     0.132 A 
ATOM     14  C   UNL     1      22.081  -7.886 126.541  1.00  0.00    -0.039 A 
ATOM     15  C   UNL     1      23.565  -5.576 125.875  1.00  0.00     0.039 A 
ATOM     16  C   UNL     1      23.325  -8.000 125.913  1.00  0.00     0.013 A 
ATOM     17  C   UNL     1      21.258  -9.125 126.793  1.00  0.00     0.045 C 
ATOM     18  C   UNL     1      24.118  -6.865 125.632  1.00  0.00    -0.006 A 
ATOM     19  C   UNL     1      24.175  -4.440 125.270  1.00  0.00     0.072 A 
ATOM     20  C   UNL     1      25.429  -6.984 125.082  1.00  0.00     0.008 A 
ATOM     21  C   UNL     1      25.409  -4.583 124.602  1.00  0.00     0.169 A 
ATOM     22  C   UNL     1      26.035  -5.835 124.528  1.00  0.00     0.162 A 
BRANCH  13  23
ATOM     23  O   UNL     1      22.029  -4.284 127.319  1.00  0.00    -0.507 OA
ATOM     24  H   UNL     1      21.066  -3.972 127.363  1.00  0.00     0.293 HD
ENDBRANCH  13  23
BRANCH  19  25
ATOM     25  C   UNL     1      23.463  -3.148 125.155  1.00  0.00     0.264 C 
ATOM     26  O   UNL     1      23.815  -2.159 125.852  1.00  0.00    -0.298 OA
ENDBRANCH  19  25
BRANCH  20  27
ATOM     27  C   UNL     1      26.183  -8.325 125.085  1.00  0.00     0.017 C 
ATOM     28  C   UNL     1      26.376  -8.849 123.659  1.00  0.00     0.012 C 
ATOM     29  C   UNL     1      27.516  -8.278 125.853  1.00  0.00     0.012 C 
ENDBRANCH  20  27
BRANCH  21  30
ATOM     30  O   UNL     1      26.034  -3.501 123.972  1.00  0.00    -0.504 OA
ATOM     31  H   UNL     1      26.267  -2.631 124.430  1.00  0.00     0.293 HD
ENDBRANCH  21  30
BRANCH  22  32
ATOM     32  O   UNL     1      27.257  -5.949 123.860  1.00  0.00    -0.504 OA
ATOM     33  H   UNL     1      27.823  -5.149 123.605  1.00  0.00     0.293 HD
ENDBRANCH  22  32
ENDBRANCH  11  12
BRANCH  10  34
ATOM     34  O   UNL     1      19.188  -6.261 125.755  1.00  0.00    -0.507 OA
ATOM     35  H   UNL     1      18.350  -6.437 125.217  1.00  0.00     0.293 HD
ENDBRANCH  10  34
BRANCH   9  36
ATOM     36  C   UNL     1      16.651  -6.888 131.478  1.00  0.00     0.017 C 
ATOM     37  C   UNL     1      17.391  -8.209 131.732  1.00  0.00     0.012 C 
ATOM     38  C   UNL     1      16.998  -5.789 132.506  1.00  0.00     0.012 C 
ENDBRANCH   9  36
BRANCH   6  39
ATOM     39  C   UNL     1      16.872  -4.604 126.125  1.00  0.00     0.264 C 
ATOM     40  O   UNL     1      16.405  -5.029 125.035  1.00  0.00    -0.298 OA
ENDBRANCH   6  39
BRANCH   8  41
ATOM     41  O   UNL     1      14.340  -6.323 129.947  1.00  0.00    -0.504 OA
ATOM     42  H   UNL     1      14.198  -6.311 130.947  1.00  0.00     0.293 HD
ENDBRANCH   8  41
BRANCH   7  43
ATOM     43  O   UNL     1      14.476  -4.999 127.432  1.00  0.00    -0.504 OA
ATOM     44  H   UNL     1      14.243  -4.016 127.422  1.00  0.00     0.293 HD
ENDBRANCH   7  43
TORSDOF 11
ENDMDL
MODEL 2
REMARK VINA RESULT:    -7.369      0.275      8.808
REMARK INTER + INTRA:         -12.326
REMARK INTER:                 -11.058
REMARK INTRA:                  -1.268
REMARK UNBOUND:                -1.510
REMARK SMILES Cc1cc2c(C(C)C)c(O)c(O)c(C=O)c2c(O)c1-c1c(C)cc2c(C(C)C)c(O)c(O)c(C=O)c2c1O
REMARK SMILES IDX 1 1 2 2 3 3 4 4 16 5 13 6 11 7 9 8 5 9 17 10 19 11 20 12
REMARK SMILES IDX 37 13 21 14 36 15 23 16 22 17 24 18 33 19 25 20 31 21 29 22
REMARK SMILES IDX 38 23 34 25 35 26 26 27 27 28 28 29 32 30 30 32 18 34 6 36
REMARK SMILES IDX 7 37 8 38 14 39 15 40 10 41 12 43
REMARK H PARENT 38 24 32 31 30 33 18 35 10 42 12 44
REMARK Flexibility Score: inf
ROOT
ATOM      1  C   UNL     1      21.229  -9.125 127.153  1.00  0.00     0.045 C 
ATOM      2  C   UNL     1      22.026  -7.915 126.732  1.00  0.00    -0.039 A 
ATOM      3  C   UNL     1      23.265  -8.088 126.106  1.00  0.00     0.013 A 
ATOM      4  C   UNL     1      24.033  -6.994 125.651  1.00  0.00    -0.006 A 
ATOM      5  C   UNL     1      23.487  -5.685 125.798  1.00  0.00     0.039 A 
ATOM      6  C   UNL     1      24.103  -4.602 125.118  1.00  0.00     0.072 A 
ATOM      7  C   UNL     1      25.384  -4.763 124.569  1.00  0.00     0.169 A 
ATOM      8  C   UNL     1      26.026  -6.014 124.615  1.00  0.00     0.162 A 
ATOM      9  C   UNL     1      25.326  -7.165 125.060  1.00  0.00     0.008 A 
ATOM     10  C   UNL     1      22.339  -5.508 126.622  1.00  0.00     0.132 A 
ATOM     11  C   UNL     1      21.583  -6.616 127.029  1.00  0.00     0.031 A 
ENDROOT
BRANCH  11  12
ATOM     12  C   UNL     1      20.345  -6.400 127.818  1.00  0.00     0.031 A 
ATOM     13  C   UNL     1      19.132  -6.189 127.144  1.00  0.00     0.132 A 
ATOM     14  C   UNL     1      20.371  -6.440 129.223  1.00  0.00    -0.039 A 
ATOM     15  C   UNL     1      17.942  -5.916 127.878  1.00  0.00     0.039 A 
ATOM     16  C   UNL     1      19.167  -6.385 129.931  1.00  0.00     0.013 A 
ATOM     17  C   UNL     1      21.669  -6.615 129.972  1.00  0.00     0.045 C 
ATOM     18  C   UNL     1      17.930  -6.193 129.274  1.00  0.00    -0.006 A 
ATOM     19  C   UNL     1      16.776  -5.364 127.276  1.00  0.00     0.072 A 
ATOM     20  C   UNL     1      16.692  -6.235 129.980  1.00  0.00     0.008 A 
ATOM     21  C   UNL     1      15.581  -5.276 128.021  1.00  0.00     0.169 A 
ATOM     22  C   UNL     1      15.537  -5.724 129.349  1.00  0.00     0.162 A 
BRANCH  13  23
ATOM     23  O   UNL     1      19.135  -6.333 125.753  1.00  0.00    -0.507 OA
ATOM     24  H   UNL     1      18.463  -6.908 125.259  1.00  0.00     0.293 HD
ENDBRANCH  13  23
BRANCH  19  25
ATOM     25  C   UNL     1      16.825  -4.704 125.953  1.00  0.00     0.264 C 
ATOM     26  O   UNL     1      16.148  -5.152 124.988  1.00  0.00    -0.298 OA
ENDBRANCH  19  25
BRANCH  20  27
ATOM     27  C   UNL     1      16.596  -6.822 131.400  1.00  0.00     0.017 C 
ATOM     28  C   UNL     1      17.394  -8.125 131.510  1.00  0.00     0.012 C 
ATOM     29  C   UNL     1      16.991  -5.824 132.504  1.00  0.00     0.012 C 
ENDBRANCH  20  27
BRANCH  21  30
ATOM     30  O   UNL     1      14.417  -4.718 127.480  1.00  0.00    -0.504 OA
ATOM     31  H   UNL     1      13.575  -4.532 128.008  1.00  0.00     0.293 HD
ENDBRANCH  21  30
BRANCH  22  32
ATOM     32  O   UNL     1      14.341  -5.624 130.063  1.00  0.00    -0.504 OA
ATOM     33  H   UNL     1      14.307  -5.468 131.064  1.00  0.00     0.293 HD
ENDBRANCH  22  32
ENDBRANCH  11  12
BRANCH  10  34
ATOM     34  O   UNL     1      21.970  -4.255 127.128  1.00  0.00    -0.507 OA
ATOM     35  H   UNL     1      21.516  -3.549 126.564  1.00  0.00     0.293 HD
ENDBRANCH  10  34
BRANCH   9  36
ATOM     36  C   UNL     1      26.034  -8.530 124.936  1.00  0.00     0.017 C 
ATOM     37  C   UNL     1      26.343  -8.894 123.477  1.00  0.00     0.012 C 
ATOM     38  C   UNL     1      27.251  -8.686 125.872  1.00  0.00     0.012 C 
ENDBRANCH   9  36
BRANCH   6  39
ATOM     39  C   UNL     1      23.381  -3.347 124.797  1.00  0.00     0.264 C 
ATOM     40  O   UNL     1      23.612  -2.286 125.435  1.00  0.00    -0.298 OA
ENDBRANCH   6  39
BRANCH   8  41
ATOM     41  O   UNL     1      27.362  -6.137 124.216  1.00  0.00    -0.504 OA
ATOM     42  H   UNL     1      27.938  -5.364 123.917  1.00  0.00     0.293 HD
ENDBRANCH   8  41
BRANCH   7  43
ATOM     43  O   UNL     1      25.982  -3.664 123.939  1.00  0.00    -0.504 OA
ATOM     44  H   UNL     1      25.495  -2.812 123.702  1.00  0.00     0.293 HD
ENDBRANCH   7  43
TORSDOF 11
ENDMDL
MODEL 3
REMARK VINA RESULT:    -6.562      1.765      3.390
REMARK INTER + INTRA:         -11.141
REMARK INTER:                 -10.321
REMARK INTRA:                  -0.819
REMARK UNBOUND:                -1.510
REMARK SMILES Cc1cc2c(C(C)C)c(O)c(O)c(C=O)c2c(O)c1-c1c(C)cc2c(C(C)C)c(O)c(O)c(C=O)c2c1O
REMARK SMILES IDX 1 1 2 2 3 3 4 4 16 5 13 6 11 7 9 8 5 9 17 10 19 11 20 12
REMARK SMILES IDX 37 13 21 14 36 15 23 16 22 17 24 18 33 19 25 20 31 21 29 22
REMARK SMILES IDX 38 23 34 25 35 26 26 27 27 28 28 29 32 30 30 32 18 34 6 36
REMARK SMILES IDX 7 37 8 38 14 39 15 40 10 41 12 43
REMARK H PARENT 38 24 32 31 30 33 18 35 10 42 12 44
REMARK Flexibility Score: inf
ROOT
ATOM      1  C   UNL     1      23.198  -6.596 129.125  1.00  0.00     0.045 C 
ATOM      2  C   UNL     1      21.893  -6.319 128.421  1.00  0.00    -0.039 A 
ATOM      3  C   UNL     1      20.688  -6.668 129.040  1.00  0.00     0.013 A 
ATOM      4  C   UNL     1      19.436  -6.391 128.448  1.00  0.00    -0.006 A 
ATOM      5  C   UNL     1      19.422  -5.691 127.206  1.00  0.00     0.039 A 
ATOM      6  C   UNL     1      18.193  -5.169 126.726  1.00  0.00     0.072 A 
ATOM      7  C   UNL     1      16.984  -5.592 127.298  1.00  0.00     0.169 A 
ATOM      8  C   UNL     1      16.987  -6.466 128.400  1.00  0.00     0.162 A 
ATOM      9  C   UNL     1      18.202  -6.795 129.053  1.00  0.00     0.008 A 
ATOM     10  C   UNL     1      20.643  -5.538 126.490  1.00  0.00     0.132 A 
ATOM     11  C   UNL     1      21.869  -5.791 127.120  1.00  0.00     0.031 A 
ENDROOT
BRANCH  11  12
ATOM     12  C   UNL     1      23.131  -5.545 126.379  1.00  0.00     0.031 A 
ATOM     13  C   UNL     1      23.834  -6.636 125.843  1.00  0.00     0.132 A 
ATOM     14  C   UNL     1      23.605  -4.237 126.181  1.00  0.00    -0.039 A 
ATOM     15  C   UNL     1      25.080  -6.431 125.184  1.00  0.00     0.039 A 
ATOM     16  C   UNL     1      24.712  -4.029 125.353  1.00  0.00     0.013 A 
ATOM     17  C   UNL     1      22.896  -3.052 126.789  1.00  0.00     0.045 C 
ATOM     18  C   UNL     1      25.424  -5.109 124.785  1.00  0.00    -0.006 A 
ATOM     19  C   UNL     1      25.997  -7.489 124.925  1.00  0.00     0.072 A 
ATOM     20  C   UNL     1      26.490  -4.900 123.861  1.00  0.00     0.008 A 
ATOM     21  C   UNL     1      27.132  -7.248 124.122  1.00  0.00     0.169 A 
ATOM     22  C   UNL     1      27.363  -5.975 123.583  1.00  0.00     0.162 A 
BRANCH  13  23
ATOM     23  O   UNL     1      23.227  -7.894 125.919  1.00  0.00    -0.507 OA
ATOM     24  H   UNL     1      23.751  -8.759 125.886  1.00  0.00     0.293 HD
ENDBRANCH  13  23
BRANCH  19  25
ATOM     25  C   UNL     1      25.900  -8.788 125.627  1.00  0.00     0.264 C 
ATOM     26  O   UNL     1      26.767  -9.122 126.478  1.00  0.00    -0.298 OA
ENDBRANCH  19  25
BRANCH  20  27
ATOM     27  C   UNL     1      26.702  -3.541 123.171  1.00  0.00     0.017 C 
ATOM     28  C   UNL     1      27.953  -2.840 123.711  1.00  0.00     0.012 C 
ATOM     29  C   UNL     1      26.726  -3.629 121.635  1.00  0.00     0.012 C 
ENDBRANCH  20  27
BRANCH  21  30
ATOM     30  O   UNL     1      28.074  -8.250 123.861  1.00  0.00    -0.504 OA
ATOM     31  H   UNL     1      28.084  -9.155 124.312  1.00  0.00     0.293 HD
ENDBRANCH  21  30
BRANCH  22  32
ATOM     32  O   UNL     1      28.495  -5.764 122.792  1.00  0.00    -0.504 OA
ATOM     33  H   UNL     1      29.424  -6.057 123.069  1.00  0.00     0.293 HD
ENDBRANCH  22  32
ENDBRANCH  11  12
BRANCH  10  34
ATOM     34  O   UNL     1      20.672  -5.220 125.127  1.00  0.00    -0.507 OA
ATOM     35  H   UNL     1      21.437  -4.716 124.698  1.00  0.00     0.293 HD
ENDBRANCH  10  34
BRANCH   9  36
ATOM     36  C   UNL     1      18.120  -7.628 130.349  1.00  0.00     0.017 C 
ATOM     37  C   UNL     1      17.710  -6.780 131.561  1.00  0.00     0.012 C 
ATOM     38  C   UNL     1      17.290  -8.922 130.204  1.00  0.00     0.012 C 
ENDBRANCH   9  36
BRANCH   6  39
ATOM     39  C   UNL     1      18.127  -4.048 125.756  1.00  0.00     0.264 C 
ATOM     40  O   UNL     1      17.963  -4.265 124.526  1.00  0.00    -0.298 OA
ENDBRANCH   6  39
BRANCH   8  41
ATOM     41  O   UNL     1      15.788  -7.015 128.869  1.00  0.00    -0.504 OA
ATOM     42  H   UNL     1      15.530  -7.986 128.765  1.00  0.00     0.293 HD
ENDBRANCH   8  41
BRANCH   7  43
ATOM     43  O   UNL     1      15.786  -5.088 126.775  1.00  0.00    -0.504 OA
ATOM     44  H   UNL     1      15.439  -5.298 125.850  1.00  0.00     0.293 HD
ENDBRANCH   7  43
TORSDOF 11
ENDMDL
MODEL 4
REMARK VINA RESULT:    -6.558      2.912      9.385
REMARK INTER + INTRA:         -11.135
REMARK INTER:                 -10.074
REMARK INTRA:                  -1.061
REMARK UNBOUND:                -1.510
REMARK SMILES Cc1cc2c(C(C)C)c(O)c(O)c(C=O)c2c(O)c1-c1c(C)cc2c(C(C)C)c(O)c(O)c(C=O)c2c1O
REMARK SMILES IDX 1 1 2 2 3 3 4 4 16 5 13 6 11 7 9 8 5 9 17 10 19 11 20 12
REMARK SMILES IDX 37 13 21 14 36 15 23 16 22 17 24 18 33 19 25 20 31 21 29 22
REMARK SMILES IDX 38 23 34 25 35 26 26 27 27 28 28 29 32 30 30 32 18 34 6 36
REMARK SMILES IDX 7 37 8 38 14 39 15 40 10 41 12 43
REMARK H PARENT 38 24 32 31 30 33 18 35 10 42 12 44
REMARK Flexibility Score: inf
ROOT
ATOM      1  C   UNL     1      24.863  -5.896 124.987  1.00  0.00     0.045 C 
ATOM      2  C   UNL     1      25.019  -4.395 124.991  1.00  0.00    -0.039 A 
ATOM      3  C   UNL     1      26.238  -3.826 124.607  1.00  0.00     0.013 A 
ATOM      4  C   UNL     1      26.425  -2.428 124.549  1.00  0.00    -0.006 A 
ATOM      5  C   UNL     1      25.311  -1.590 124.847  1.00  0.00     0.039 A 
ATOM      6  C   UNL     1      25.390  -0.206 124.541  1.00  0.00     0.072 A 
ATOM      7  C   UNL     1      26.633   0.372 124.241  1.00  0.00     0.169 A 
ATOM      8  C   UNL     1      27.787  -0.428 124.160  1.00  0.00     0.162 A 
ATOM      9  C   UNL     1      27.687  -1.842 124.209  1.00  0.00     0.008 A 
ATOM     10  C   UNL     1      24.154  -2.169 125.441  1.00  0.00     0.132 A 
ATOM     11  C   UNL     1      23.987  -3.561 125.452  1.00  0.00     0.031 A 
ENDROOT
BRANCH  11  12
ATOM     12  C   UNL     1      22.735  -4.138 126.002  1.00  0.00     0.031 A 
ATOM     13  C   UNL     1      21.586  -4.173 125.196  1.00  0.00     0.132 A 
ATOM     14  C   UNL     1      22.701  -4.678 127.299  1.00  0.00    -0.039 A 
ATOM     15  C   UNL     1      20.356  -4.664 125.723  1.00  0.00     0.039 A 
ATOM     16  C   UNL     1      21.553  -5.348 127.731  1.00  0.00     0.013 A 
ATOM     17  C   UNL     1      23.907  -4.608 128.203  1.00  0.00     0.045 C 
ATOM     18  C   UNL     1      20.390  -5.415 126.931  1.00  0.00    -0.006 A 
ATOM     19  C   UNL     1      19.100  -4.418 125.100  1.00  0.00     0.072 A 
ATOM     20  C   UNL     1      19.253  -6.181 127.324  1.00  0.00     0.008 A 
ATOM     21  C   UNL     1      17.945  -5.071 125.578  1.00  0.00     0.169 A 
ATOM     22  C   UNL     1      18.026  -5.955 126.663  1.00  0.00     0.162 A 
BRANCH  13  23
ATOM     23  O   UNL     1      21.725  -3.784 123.860  1.00  0.00    -0.507 OA
ATOM     24  H   UNL     1      21.064  -3.173 123.395  1.00  0.00     0.293 HD
ENDBRANCH  13  23
BRANCH  19  25
ATOM     25  C   UNL     1      18.933  -3.353 124.085  1.00  0.00     0.264 C 
ATOM     26  O   UNL     1      18.780  -3.646 122.869  1.00  0.00    -0.298 OA
ENDBRANCH  19  25
BRANCH  20  27
ATOM     27  C   UNL     1      19.342  -7.236 128.440  1.00  0.00     0.017 C 
ATOM     28  C   UNL     1      18.661  -6.739 129.720  1.00  0.00     0.012 C 
ATOM     29  C   UNL     1      18.811  -8.619 128.021  1.00  0.00     0.012 C 
ENDBRANCH  20  27
BRANCH  21  30
ATOM     30  O   UNL     1      16.684  -4.842 125.014  1.00  0.00    -0.504 OA
ATOM     31  H   UNL     1      15.823  -4.799 125.540  1.00  0.00     0.293 HD
ENDBRANCH  21  30
BRANCH  22  32
ATOM     32  O   UNL     1      16.866  -6.587 127.116  1.00  0.00    -0.504 OA
ATOM     33  H   UNL     1      16.480  -7.415 126.678  1.00  0.00     0.293 HD
ENDBRANCH  22  32
ENDBRANCH  11  12
BRANCH  10  34
ATOM     34  O   UNL     1      23.192  -1.400 126.106  1.00  0.00    -0.507 OA
ATOM     35  H   UNL     1      22.214  -1.399 125.846  1.00  0.00     0.293 HD
ENDBRANCH  10  34
BRANCH   9  36
ATOM     36  C   UNL     1      28.967  -2.664 123.954  1.00  0.00     0.017 C 
ATOM     37  C   UNL     1      29.463  -2.534 122.507  1.00  0.00     0.012 C 
ATOM     38  C   UNL     1      30.077  -2.425 125.001  1.00  0.00     0.012 C 
ENDBRANCH   9  36
BRANCH   6  39
ATOM     39  C   UNL     1      24.186   0.638 124.344  1.00  0.00     0.264 C 
ATOM     40  O   UNL     1      23.897   1.099 123.208  1.00  0.00    -0.298 OA
ENDBRANCH   6  39
BRANCH   8  41
ATOM     41  O   UNL     1      29.048   0.163 124.022  1.00  0.00    -0.504 OA
ATOM     42  H   UNL     1      29.667   0.004 123.240  1.00  0.00     0.293 HD
ENDBRANCH   8  41
BRANCH   7  43
ATOM     43  O   UNL     1      26.684   1.747 123.983  1.00  0.00    -0.504 OA
ATOM     44  H   UNL     1      27.541   2.273 123.880  1.00  0.00     0.293 HD
ENDBRANCH   7  43
TORSDOF 11
ENDMDL
MODEL 5
REMARK VINA RESULT:    -6.413      2.931      4.551
REMARK INTER + INTRA:         -10.923
REMARK INTER:                  -9.655
REMARK INTRA:                  -1.267
REMARK UNBOUND:                -1.510
REMARK SMILES Cc1cc2c(C(C)C)c(O)c(O)c(C=O)c2c(O)c1-c1c(C)cc2c(C(C)C)c(O)c(O)c(C=O)c2c1O
REMARK SMILES IDX 1 1 2 2 3 3 4 4 16 5 13 6 11 7 9 8 5 9 17 10 19 11 20 12
REMARK SMILES IDX 37 13 21 14 36 15 23 16 22 17 24 18 33 19 25 20 31 21 29 22
REMARK SMILES IDX 38 23 34 25 35 26 26 27 27 28 28 29 32 30 30 32 18 34 6 36
REMARK SMILES IDX 7 37 8 38 14 39 15 40 10 41 12 43
REMARK H PARENT 38 24 32 31 30 33 18 35 10 42 12 44
REMARK Flexibility Score: inf
ROOT
ATOM      1  C   UNL     1      24.000  -4.577 128.256  1.00  0.00     0.045 C 
ATOM      2  C   UNL     1      22.774  -4.619 127.377  1.00  0.00    -0.039 A 
ATOM      3  C   UNL     1      21.634  -5.302 127.814  1.00  0.00     0.013 A 
ATOM      4  C   UNL     1      20.445  -5.336 127.054  1.00  0.00    -0.006 A 
ATOM      5  C   UNL     1      20.411  -4.603 125.832  1.00  0.00     0.039 A 
ATOM      6  C   UNL     1      19.162  -4.399 125.187  1.00  0.00     0.072 A 
ATOM      7  C   UNL     1      18.045  -5.153 125.576  1.00  0.00     0.169 A 
ATOM      8  C   UNL     1      18.134  -6.050 126.657  1.00  0.00     0.162 A 
ATOM      9  C   UNL     1      19.295  -6.080 127.472  1.00  0.00     0.008 A 
ATOM     10  C   UNL     1      21.631  -4.099 125.298  1.00  0.00     0.132 A 
ATOM     11  C   UNL     1      22.784  -4.052 126.093  1.00  0.00     0.031 A 
ENDROOT
BRANCH  11  12
ATOM     12  C   UNL     1      24.022  -3.445 125.542  1.00  0.00     0.031 A 
ATOM     13  C   UNL     1      24.164  -2.049 125.555  1.00  0.00     0.132 A 
ATOM     14  C   UNL     1      25.058  -4.254 125.045  1.00  0.00    -0.039 A 
ATOM     15  C   UNL     1      25.314  -1.440 124.975  1.00  0.00     0.039 A 
ATOM     16  C   UNL     1      26.269  -3.661 124.675  1.00  0.00     0.013 A 
ATOM     17  C   UNL     1      24.911  -5.753 124.974  1.00  0.00     0.045 C 
ATOM     18  C   UNL     1      26.445  -2.259 124.698  1.00  0.00    -0.006 A 
ATOM     19  C   UNL     1      25.369  -0.056 124.647  1.00  0.00     0.072 A 
ATOM     20  C   UNL     1      27.707  -1.657 124.417  1.00  0.00     0.008 A 
ATOM     21  C   UNL     1      26.591   0.514 124.232  1.00  0.00     0.169 A 
ATOM     22  C   UNL     1      27.747  -0.273 124.139  1.00  0.00     0.162 A 
BRANCH  13  23
ATOM     23  O   UNL     1      23.181  -1.308 126.219  1.00  0.00    -0.507 OA
ATOM     24  H   UNL     1      22.897  -1.502 127.171  1.00  0.00     0.293 HD
ENDBRANCH  13  23
BRANCH  19  25
ATOM     25  C   UNL     1      24.143   0.766 124.543  1.00  0.00     0.264 C 
ATOM     26  O   UNL     1      23.822   1.302 123.449  1.00  0.00    -0.298 OA
ENDBRANCH  19  25
BRANCH  20  27
ATOM     27  C   UNL     1      29.007  -2.480 124.414  1.00  0.00     0.017 C 
ATOM     28  C   UNL     1      29.566  -2.617 122.994  1.00  0.00     0.012 C 
ATOM     29  C   UNL     1      30.073  -1.948 125.389  1.00  0.00     0.012 C 
ENDBRANCH  20  27
BRANCH  21  30
ATOM     30  O   UNL     1      26.689   1.865 123.876  1.00  0.00    -0.504 OA
ATOM     31  H   UNL     1      27.302   2.222 123.156  1.00  0.00     0.293 HD
ENDBRANCH  21  30
BRANCH  22  32
ATOM     32  O   UNL     1      28.943   0.318 123.725  1.00  0.00    -0.504 OA
ATOM     33  H   UNL     1      29.406   1.052 124.247  1.00  0.00     0.293 HD
ENDBRANCH  22  32
ENDBRANCH  11  12
BRANCH  10  34
ATOM     34  O   UNL     1      21.756  -3.716 123.957  1.00  0.00    -0.507 OA
ATOM     35  H   UNL     1      21.637  -2.761 123.645  1.00  0.00     0.293 HD
ENDBRANCH  10  34
BRANCH   9  36
ATOM     36  C   UNL     1      19.266  -6.969 128.732  1.00  0.00     0.017 C 
ATOM     37  C   UNL     1      20.442  -7.955 128.776  1.00  0.00     0.012 C 
ATOM     38  C   UNL     1      19.086  -6.178 130.046  1.00  0.00     0.012 C 
ENDBRANCH   9  36
BRANCH   6  39
ATOM     39  C   UNL     1      18.930  -3.288 124.232  1.00  0.00     0.264 C 
ATOM     40  O   UNL     1      18.875  -3.501 122.992  1.00  0.00    -0.298 OA
ENDBRANCH   6  39
BRANCH   8  41
ATOM     41  O   UNL     1      17.074  -6.918 126.943  1.00  0.00    -0.504 OA
ATOM     42  H   UNL     1      17.143  -7.925 126.917  1.00  0.00     0.293 HD
ENDBRANCH   8  41
BRANCH   7  43
ATOM     43  O   UNL     1      16.838  -4.957 124.895  1.00  0.00    -0.504 OA
ATOM     44  H   UNL     1      16.373  -4.064 124.809  1.00  0.00     0.293 HD
ENDBRANCH   7  43
TORSDOF 11
ENDMDL
MODEL 6
REMARK VINA RESULT:    -6.392      3.609      6.672
REMARK INTER + INTRA:         -10.891
REMARK INTER:                 -10.024
REMARK INTRA:                  -0.867
REMARK UNBOUND:                -1.510
REMARK SMILES Cc1cc2c(C(C)C)c(O)c(O)c(C=O)c2c(O)c1-c1c(C)cc2c(C(C)C)c(O)c(O)c(C=O)c2c1O
REMARK SMILES IDX 1 1 2 2 3 3 4 4 16 5 13 6 11 7 9 8 5 9 17 10 19 11 20 12
REMARK SMILES IDX 37 13 21 14 36 15 23 16 22 17 24 18 33 19 25 20 31 21 29 22
REMARK SMILES IDX 38 23 34 25 35 26 26 27 27 28 28 29 32 30 30 32 18 34 6 36
REMARK SMILES IDX 7 37 8 38 14 39 15 40 10 41 12 43
REMARK H PARENT 38 24 32 31 30 33 18 35 10 42 12 44
REMARK Flexibility Score: inf
ROOT
ATOM      1  C   UNL     1      22.562  -2.444 124.809  1.00  0.00     0.045 C 
ATOM      2  C   UNL     1      22.800  -3.492 125.869  1.00  0.00    -0.039 A 
ATOM      3  C   UNL     1      21.722  -4.241 126.352  1.00  0.00     0.013 A 
ATOM      4  C   UNL     1      21.892  -5.264 127.310  1.00  0.00    -0.006 A 
ATOM      5  C   UNL     1      23.217  -5.560 127.746  1.00  0.00     0.039 A 
ATOM      6  C   UNL     1      23.446  -6.745 128.494  1.00  0.00     0.072 A 
ATOM      7  C   UNL     1      22.362  -7.441 129.048  1.00  0.00     0.169 A 
ATOM      8  C   UNL     1      21.043  -7.019 128.796  1.00  0.00     0.162 A 
ATOM      9  C   UNL     1      20.784  -5.996 127.848  1.00  0.00     0.008 A 
ATOM     10  C   UNL     1      24.267  -4.657 127.415  1.00  0.00     0.132 A 
ATOM     11  C   UNL     1      24.072  -3.673 126.436  1.00  0.00     0.031 A 
ENDROOT
BRANCH  11  12
ATOM     12  C   UNL     1      25.206  -2.798 126.049  1.00  0.00     0.031 A 
ATOM     13  C   UNL     1      25.968  -3.126 124.917  1.00  0.00     0.132 A 
ATOM     14  C   UNL     1      25.497  -1.634 126.781  1.00  0.00    -0.039 A 
ATOM     15  C   UNL     1      27.100  -2.337 124.562  1.00  0.00     0.039 A 
ATOM     16  C   UNL     1      26.472  -0.753 126.303  1.00  0.00     0.013 A 
ATOM     17  C   UNL     1      24.725  -1.285 128.029  1.00  0.00     0.045 C 
ATOM     18  C   UNL     1      27.239  -1.050 125.154  1.00  0.00    -0.006 A 
ATOM     19  C   UNL     1      28.100  -2.790 123.657  1.00  0.00     0.072 A 
ATOM     20  C   UNL     1      28.164  -0.112 124.607  1.00  0.00     0.008 A 
ATOM     21  C   UNL     1      29.103  -1.898 123.220  1.00  0.00     0.169 A 
ATOM     22  C   UNL     1      29.120  -0.573 123.675  1.00  0.00     0.162 A 
BRANCH  13  23
ATOM     23  O   UNL     1      25.525  -4.194 124.130  1.00  0.00    -0.507 OA
ATOM     24  H   UNL     1      25.917  -4.404 123.220  1.00  0.00     0.293 HD
ENDBRANCH  13  23
BRANCH  19  25
ATOM     25  C   UNL     1      28.236  -4.221 123.304  1.00  0.00     0.264 C 
ATOM     26  O   UNL     1      27.753  -4.663 122.227  1.00  0.00    -0.298 OA
ENDBRANCH  19  25
BRANCH  20  27
ATOM     27  C   UNL     1      28.136   1.373 125.009  1.00  0.00     0.017 C 
ATOM     28  C   UNL     1      29.209   1.677 126.059  1.00  0.00     0.012 C 
ATOM     29  C   UNL     1      28.231   2.335 123.811  1.00  0.00     0.012 C 
ENDBRANCH  20  27
BRANCH  21  30
ATOM     30  O   UNL     1      30.121  -2.305 122.350  1.00  0.00    -0.504 OA
ATOM     31  H   UNL     1      31.059  -1.929 122.355  1.00  0.00     0.293 HD
ENDBRANCH  21  30
BRANCH  22  32
ATOM     32  O   UNL     1      30.125   0.289 123.228  1.00  0.00    -0.504 OA
ATOM     33  H   UNL     1      30.706   0.832 123.855  1.00  0.00     0.293 HD
ENDBRANCH  22  32
ENDBRANCH  11  12
BRANCH  10  34
ATOM     34  O   UNL     1      25.489  -4.652 128.099  1.00  0.00    -0.507 OA
ATOM     35  H   UNL     1      26.310  -5.134 127.758  1.00  0.00     0.293 HD
ENDBRANCH  10  34
BRANCH   9  36
ATOM     36  C   UNL     1      19.313  -5.691 127.502  1.00  0.00     0.017 C 
ATOM     37  C   UNL     1      18.691  -6.770 126.603  1.00  0.00     0.012 C 
ATOM     38  C   UNL     1      18.443  -5.348 128.731  1.00  0.00     0.012 C 
ENDBRANCH   9  36
BRANCH   6  39
ATOM     39  C   UNL     1      24.779  -7.394 128.571  1.00  0.00     0.264 C 
ATOM     40  O   UNL     1      24.915  -8.622 128.327  1.00  0.00    -0.298 OA
ENDBRANCH   6  39
BRANCH   8  41
ATOM     41  O   UNL     1      19.971  -7.609 129.474  1.00  0.00    -0.504 OA
ATOM     42  H   UNL     1      20.034  -8.000 130.404  1.00  0.00     0.293 HD
ENDBRANCH   8  41
BRANCH   7  43
ATOM     43  O   UNL     1      22.623  -8.583 129.814  1.00  0.00    -0.504 OA
ATOM     44  H   UNL     1      23.090  -8.571 130.709  1.00  0.00     0.293 HD
ENDBRANCH   7  43
TORSDOF 11
ENDMDL
MODEL 7
REMARK VINA RESULT:    -6.284      1.718      9.120
REMARK INTER + INTRA:         -10.733
REMARK INTER:                  -9.798
REMARK INTRA:                  -0.935
REMARK UNBOUND:                -1.510
REMARK SMILES Cc1cc2c(C(C)C)c(O)c(O)c(C=O)c2c(O)c1-c1c(C)cc2c(C(C)C)c(O)c(O)c(C=O)c2c1O
REMARK SMILES IDX 1 1 2 2 3 3 4 4 16 5 13 6 11 7 9 8 5 9 17 10 19 11 20 12
REMARK SMILES IDX 37 13 21 14 36 15 23 16 22 17 24 18 33 19 25 20 31 21 29 22
REMARK SMILES IDX 38 23 34 25 35 26 26 27 27 28 28 29 32 30 30 32 18 34 6 36
REMARK SMILES IDX 7 37 8 38 14 39 15 40 10 41 12 43
REMARK H PARENT 38 24 32 31 30 33 18 35 10 42 12 44
REMARK Flexibility Score: inf
ROOT
ATOM      1  C   UNL     1      22.830  -2.864 126.705  1.00  0.00     0.045 C 
ATOM      2  C   UNL     1      23.554  -4.058 126.132  1.00  0.00    -0.039 A 
ATOM      3  C   UNL     1      24.649  -3.860 125.285  1.00  0.00     0.013 A 
ATOM      4  C   UNL     1      25.391  -4.939 124.757  1.00  0.00    -0.006 A 
ATOM      5  C   UNL     1      25.027  -6.259 125.153  1.00  0.00     0.039 A 
ATOM      6  C   UNL     1      25.908  -7.333 124.857  1.00  0.00     0.072 A 
ATOM      7  C   UNL     1      26.952  -7.146 123.939  1.00  0.00     0.169 A 
ATOM      8  C   UNL     1      27.182  -5.879 123.372  1.00  0.00     0.162 A 
ATOM      9  C   UNL     1      26.479  -4.742 123.845  1.00  0.00     0.008 A 
ATOM     10  C   UNL     1      23.792  -6.457 125.832  1.00  0.00     0.132 A 
ATOM     11  C   UNL     1      23.098  -5.365 126.371  1.00  0.00     0.031 A 
ENDROOT
BRANCH  11  12
ATOM     12  C   UNL     1      21.856  -5.604 127.147  1.00  0.00     0.031 A 
ATOM     13  C   UNL     1      20.613  -5.375 126.536  1.00  0.00     0.132 A 
ATOM     14  C   UNL     1      21.914  -6.086 128.466  1.00  0.00    -0.039 A 
ATOM     15  C   UNL     1      19.409  -5.536 127.280  1.00  0.00     0.039 A 
ATOM     16  C   UNL     1      20.729  -6.443 129.115  1.00  0.00     0.013 A 
ATOM     17  C   UNL     1      23.236  -6.292 129.162  1.00  0.00     0.045 C 
ATOM     18  C   UNL     1      19.466  -6.243 128.514  1.00  0.00    -0.006 A 
ATOM     19  C   UNL     1      18.161  -5.005 126.848  1.00  0.00     0.072 A 
ATOM     20  C   UNL     1      18.262  -6.697 129.130  1.00  0.00     0.008 A 
ATOM     21  C   UNL     1      16.981  -5.343 127.543  1.00  0.00     0.169 A 
ATOM     22  C   UNL     1      17.031  -6.193 128.656  1.00  0.00     0.162 A 
BRANCH  13  23
ATOM     23  O   UNL     1      20.613  -5.066 125.172  1.00  0.00    -0.507 OA
ATOM     24  H   UNL     1      19.908  -4.480 124.742  1.00  0.00     0.293 HD
ENDBRANCH  13  23
BRANCH  19  25
ATOM     25  C   UNL     1      18.083  -3.957 125.805  1.00  0.00     0.264 C 
ATOM     26  O   UNL     1      18.018  -4.271 124.587  1.00  0.00    -0.298 OA
ENDBRANCH  19  25
BRANCH  20  27
ATOM     27  C   UNL     1      18.284  -7.713 130.285  1.00  0.00     0.017 C 
ATOM     28  C   UNL     1      18.054  -7.019 131.631  1.00  0.00     0.012 C 
ATOM     29  C   UNL     1      17.311  -8.889 130.085  1.00  0.00     0.012 C 
ENDBRANCH  20  27
BRANCH  21  30
ATOM     30  O   UNL     1      15.734  -4.826 127.170  1.00  0.00    -0.504 OA
ATOM     31  H   UNL     1      15.018  -5.353 126.690  1.00  0.00     0.293 HD
ENDBRANCH  21  30
BRANCH  22  32
ATOM     32  O   UNL     1      15.847  -6.509 129.327  1.00  0.00    -0.504 OA
ATOM     33  H   UNL     1      15.716  -7.373 129.840  1.00  0.00     0.293 HD
ENDBRANCH  22  32
ENDBRANCH  11  12
BRANCH  10  34
ATOM     34  O   UNL     1      23.180  -7.714 125.917  1.00  0.00    -0.507 OA
ATOM     35  H   UNL     1      22.176  -7.836 125.916  1.00  0.00     0.293 HD
ENDBRANCH  10  34
BRANCH   9  36
ATOM     36  C   UNL     1      26.891  -3.361 123.295  1.00  0.00     0.017 C 
ATOM     37  C   UNL     1      25.842  -2.781 122.335  1.00  0.00     0.012 C 
ATOM     38  C   UNL     1      27.332  -2.364 124.388  1.00  0.00     0.012 C 
ENDBRANCH   9  36
BRANCH   6  39
ATOM     39  C   UNL     1      25.892  -8.609 125.614  1.00  0.00     0.264 C 
ATOM     40  O   UNL     1      26.817  -8.896 126.420  1.00  0.00    -0.298 OA
ENDBRANCH   6  39
BRANCH   8  41
ATOM     41  O   UNL     1      28.114  -5.726 122.339  1.00  0.00    -0.504 OA
ATOM     42  H   UNL     1      28.192  -4.900 121.764  1.00  0.00     0.293 HD
ENDBRANCH   8  41
BRANCH   7  43
ATOM     43  O   UNL     1      27.779  -8.235 123.639  1.00  0.00    -0.504 OA
ATOM     44  H   UNL     1      28.065  -8.490 122.704  1.00  0.00     0.293 HD
ENDBRANCH   7  43
TORSDOF 11
ENDMDL
MODEL 8
REMARK VINA RESULT:    -6.187      3.507      9.847
REMARK INTER + INTRA:         -10.591
REMARK INTER:                  -9.478
REMARK INTRA:                  -1.113
REMARK UNBOUND:                -1.510
REMARK SMILES Cc1cc2c(C(C)C)c(O)c(O)c(C=O)c2c(O)c1-c1c(C)cc2c(C(C)C)c(O)c(O)c(C=O)c2c1O
REMARK SMILES IDX 1 1 2 2 3 3 4 4 16 5 13 6 11 7 9 8 5 9 17 10 19 11 20 12
REMARK SMILES IDX 37 13 21 14 36 15 23 16 22 17 24 18 33 19 25 20 31 21 29 22
REMARK SMILES IDX 38 23 34 25 35 26 26 27 27 28 28 29 32 30 30 32 18 34 6 36
REMARK SMILES IDX 7 37 8 38 14 39 15 40 10 41 12 43
REMARK H PARENT 38 24 32 31 30 33 18 35 10 42 12 44
REMARK Flexibility Score: inf
ROOT
ATOM      1  C   UNL     1      24.833  -1.824 128.402  1.00  0.00     0.045 C 
ATOM      2  C   UNL     1      25.572  -1.945 127.092  1.00  0.00    -0.039 A 
ATOM      3  C   UNL     1      26.656  -1.100 126.831  1.00  0.00     0.013 A 
ATOM      4  C   UNL     1      27.412  -1.199 125.642  1.00  0.00    -0.006 A 
ATOM      5  C   UNL     1      27.074  -2.231 124.718  1.00  0.00     0.039 A 
ATOM      6  C   UNL     1      27.970  -2.523 123.656  1.00  0.00     0.072 A 
ATOM      7  C   UNL     1      29.002  -1.625 123.347  1.00  0.00     0.169 A 
ATOM      8  C   UNL     1      29.205  -0.477 124.136  1.00  0.00     0.162 A 
ATOM      9  C   UNL     1      28.487  -0.300 125.346  1.00  0.00     0.008 A 
ATOM     10  C   UNL     1      25.848  -2.934 124.891  1.00  0.00     0.132 A 
ATOM     11  C   UNL     1      25.141  -2.837 126.097  1.00  0.00     0.031 A 
ENDROOT
BRANCH  11  12
ATOM     12  C   UNL     1      23.910  -3.644 126.285  1.00  0.00     0.031 A 
ATOM     13  C   UNL     1      23.990  -4.864 126.975  1.00  0.00     0.132 A 
ATOM     14  C   UNL     1      22.669  -3.184 125.812  1.00  0.00    -0.039 A 
ATOM     15  C   UNL     1      22.835  -5.686 127.113  1.00  0.00     0.039 A 
ATOM     16  C   UNL     1      21.508  -3.892 126.137  1.00  0.00     0.013 A 
ATOM     17  C   UNL     1      22.563  -1.901 125.024  1.00  0.00     0.045 C 
ATOM     18  C   UNL     1      21.560  -5.112 126.849  1.00  0.00    -0.006 A 
ATOM     19  C   UNL     1      22.908  -7.058 127.487  1.00  0.00     0.072 A 
ATOM     20  C   UNL     1      20.376  -5.786 127.268  1.00  0.00     0.008 A 
ATOM     21  C   UNL     1      21.722  -7.769 127.768  1.00  0.00     0.169 A 
ATOM     22  C   UNL     1      20.476  -7.134 127.678  1.00  0.00     0.162 A 
BRANCH  13  23
ATOM     23  O   UNL     1      25.213  -5.186 127.573  1.00  0.00    -0.507 OA
ATOM     24  H   UNL     1      25.961  -5.652 127.075  1.00  0.00     0.293 HD
ENDBRANCH  13  23
BRANCH  19  25
ATOM     25  C   UNL     1      24.176  -7.817 127.406  1.00  0.00     0.264 C 
ATOM     26  O   UNL     1      24.783  -8.163 128.454  1.00  0.00    -0.298 OA
ENDBRANCH  19  25
BRANCH  20  27
ATOM     27  C   UNL     1      19.010  -5.077 127.281  1.00  0.00     0.017 C 
ATOM     28  C   UNL     1      18.138  -5.545 126.112  1.00  0.00     0.012 C 
ATOM     29  C   UNL     1      18.266  -5.204 128.623  1.00  0.00     0.012 C 
ENDBRANCH  20  27
BRANCH  21  30
ATOM     30  O   UNL     1      21.742  -9.125 128.114  1.00  0.00    -0.504 OA
ATOM     31  H   UNL     1      22.582  -9.652 128.306  1.00  0.00     0.293 HD
ENDBRANCH  21  30
BRANCH  22  32
ATOM     32  O   UNL     1      19.317  -7.861 127.961  1.00  0.00    -0.504 OA
ATOM     33  H   UNL     1      18.841  -7.816 128.854  1.00  0.00     0.293 HD
ENDBRANCH  22  32
ENDBRANCH  11  12
BRANCH  10  34
ATOM     34  O   UNL     1      25.258  -3.671 123.856  1.00  0.00    -0.507 OA
ATOM     35  H   UNL     1      24.262  -3.836 123.800  1.00  0.00     0.293 HD
ENDBRANCH  10  34
BRANCH   9  36
ATOM     36  C   UNL     1      28.870   0.895 126.242  1.00  0.00     0.017 C 
ATOM     37  C   UNL     1      27.643   1.564 126.876  1.00  0.00     0.012 C 
ATOM     38  C   UNL     1      29.983   0.574 127.263  1.00  0.00     0.012 C 
ENDBRANCH   9  36
BRANCH   6  39
ATOM     39  C   UNL     1      27.982  -3.834 122.961  1.00  0.00     0.264 C 
ATOM     40  O   UNL     1      27.530  -3.951 121.792  1.00  0.00    -0.298 OA
ENDBRANCH   6  39
BRANCH   8  41
ATOM     41  O   UNL     1      30.125   0.499 123.738  1.00  0.00    -0.504 OA
ATOM     42  H   UNL     1      30.713   1.018 124.374  1.00  0.00     0.293 HD
ENDBRANCH   8  41
BRANCH   7  43
ATOM     43  O   UNL     1      29.845  -1.922 122.270  1.00  0.00    -0.504 OA
ATOM     44  H   UNL     1      29.705  -1.580 121.329  1.00  0.00     0.293 HD
ENDBRANCH   7  43
TORSDOF 11
ENDMDL
MODEL 9
REMARK VINA RESULT:    -6.023      2.850      9.578
REMARK INTER + INTRA:         -10.350
REMARK INTER:                  -9.130
REMARK INTRA:                  -1.220
REMARK UNBOUND:                -1.510
REMARK SMILES Cc1cc2c(C(C)C)c(O)c(O)c(C=O)c2c(O)c1-c1c(C)cc2c(C(C)C)c(O)c(O)c(C=O)c2c1O
REMARK SMILES IDX 1 1 2 2 3 3 4 4 16 5 13 6 11 7 9 8 5 9 17 10 19 11 20 12
REMARK SMILES IDX 37 13 21 14 36 15 23 16 22 17 24 18 33 19 25 20 31 21 29 22
REMARK SMILES IDX 38 23 34 25 35 26 26 27 27 28 28 29 32 30 30 32 18 34 6 36
REMARK SMILES IDX 7 37 8 38 14 39 15 40 10 41 12 43
REMARK H PARENT 38 24 32 31 30 33 18 35 10 42 12 44
REMARK Flexibility Score: inf
ROOT
ATOM      1  C   UNL     1      24.169  -1.522 127.165  1.00  0.00     0.045 C 
ATOM      2  C   UNL     1      25.008  -2.230 126.130  1.00  0.00    -0.039 A 
ATOM      3  C   UNL     1      26.124  -1.585 125.588  1.00  0.00     0.013 A 
ATOM      4  C   UNL     1      26.971  -2.216 124.650  1.00  0.00    -0.006 A 
ATOM      5  C   UNL     1      26.689  -3.568 124.298  1.00  0.00     0.039 A 
ATOM      6  C   UNL     1      27.662  -4.307 123.574  1.00  0.00     0.072 A 
ATOM      7  C   UNL     1      28.731  -3.638 122.961  1.00  0.00     0.169 A 
ATOM      8  C   UNL     1      28.892  -2.250 123.129  1.00  0.00     0.162 A 
ATOM      9  C   UNL     1      28.083  -1.540 124.052  1.00  0.00     0.008 A 
ATOM     10  C   UNL     1      25.441  -4.134 124.685  1.00  0.00     0.132 A 
ATOM     11  C   UNL     1      24.641  -3.495 125.642  1.00  0.00     0.031 A 
ENDROOT
BRANCH  11  12
ATOM     12  C   UNL     1      23.384  -4.145 126.091  1.00  0.00     0.031 A 
ATOM     13  C   UNL     1      22.244  -4.064 125.276  1.00  0.00     0.132 A 
ATOM     14  C   UNL     1      23.338  -4.863 127.298  1.00  0.00    -0.039 A 
ATOM     15  C   UNL     1      21.010  -4.625 125.714  1.00  0.00     0.039 A 
ATOM     16  C   UNL     1      22.187  -5.588 127.617  1.00  0.00     0.013 A 
ATOM     17  C   UNL     1      24.534  -4.923 128.215  1.00  0.00     0.045 C 
ATOM     18  C   UNL     1      21.032  -5.541 126.803  1.00  0.00    -0.006 A 
ATOM     19  C   UNL     1      19.760  -4.293 125.119  1.00  0.00     0.072 A 
ATOM     20  C   UNL     1      19.892  -6.355 127.071  1.00  0.00     0.008 A 
ATOM     21  C   UNL     1      18.600  -5.007 125.487  1.00  0.00     0.169 A 
ATOM     22  C   UNL     1      18.672  -6.037 126.435  1.00  0.00     0.162 A 
BRANCH  13  23
ATOM     23  O   UNL     1      22.396  -3.489 124.010  1.00  0.00    -0.507 OA
ATOM     24  H   UNL     1      22.306  -2.494 123.846  1.00  0.00     0.293 HD
ENDBRANCH  13  23
BRANCH  19  25
ATOM     25  C   UNL     1      19.602  -3.094 124.265  1.00  0.00     0.264 C 
ATOM     26  O   UNL     1      19.291  -3.211 123.049  1.00  0.00    -0.298 OA
ENDBRANCH  19  25
BRANCH  20  27
ATOM     27  C   UNL     1      19.971  -7.558 128.027  1.00  0.00     0.017 C 
ATOM     28  C   UNL     1      19.244  -7.262 129.342  1.00  0.00     0.012 C 
ATOM     29  C   UNL     1      19.480  -8.875 127.397  1.00  0.00     0.012 C 
ENDBRANCH  20  27
BRANCH  21  30
ATOM     30  O   UNL     1      17.346  -4.700 124.948  1.00  0.00    -0.504 OA
ATOM     31  H   UNL     1      16.963  -5.126 124.115  1.00  0.00     0.293 HD
ENDBRANCH  21  30
BRANCH  22  32
ATOM     32  O   UNL     1      17.508  -6.727 126.782  1.00  0.00    -0.504 OA
ATOM     33  H   UNL     1      17.443  -7.738 126.777  1.00  0.00     0.293 HD
ENDBRANCH  22  32
ENDBRANCH  11  12
BRANCH  10  34
ATOM     34  O   UNL     1      24.922  -5.283 124.076  1.00  0.00    -0.507 OA
ATOM     35  H   UNL     1      24.621  -5.305 123.111  1.00  0.00     0.293 HD
ENDBRANCH  10  34
BRANCH   9  36
ATOM     36  C   UNL     1      28.415  -0.055 124.306  1.00  0.00     0.017 C 
ATOM     37  C   UNL     1      27.172   0.842 124.218  1.00  0.00     0.012 C 
ATOM     38  C   UNL     1      29.250   0.185 125.582  1.00  0.00     0.012 C 
ENDBRANCH   9  36
BRANCH   6  39
ATOM     39  C   UNL     1      27.705  -5.790 123.583  1.00  0.00     0.264 C 
ATOM     40  O   UNL     1      27.216  -6.458 122.634  1.00  0.00    -0.298 OA
ENDBRANCH   6  39
BRANCH   8  41
ATOM     41  O   UNL     1      29.858  -1.557 122.392  1.00  0.00    -0.504 OA
ATOM     42  H   UNL     1      30.078  -0.580 122.522  1.00  0.00     0.293 HD
ENDBRANCH   8  41
BRANCH   7  43
ATOM     43  O   UNL     1      29.652  -4.390 122.221  1.00  0.00    -0.504 OA
ATOM     44  H   UNL     1      30.628  -4.487 122.462  1.00  0.00     0.293 HD
ENDBRANCH   7  43
TORSDOF 11
ENDMDL
