MODEL 1
REMARK VINA RESULT:    -4.152      0.000      0.000
REMARK INTER + INTRA:          -5.225
REMARK INTER:                  -5.122
REMARK INTRA:                  -0.103
REMARK UNBOUND:                -0.103
REMARK SMILES CCCCCC(=O)[O-]
REMARK SMILES IDX 4 1 5 2 6 3 7 4 8 5 3 6 2 7 1 8
REMARK H PARENT
REMARK Flexibility Score: inf
ROOT
ATOM      1  C   UNL     1      96.591 124.409 124.945  1.00  0.00     0.006 C 
ENDROOT
BRANCH   1   2
ATOM      2  C   UNL     1      96.708 123.484 126.161  1.00  0.00     0.053 C 
BRANCH   2   3
ATOM      3  C   UNL     1      98.146 123.239 126.497  1.00  0.00     0.041 C 
ATOM      4  O   UNL     1      98.936 124.208 126.645  1.00  0.00    -0.550 OA
ATOM      5  O   UNL     1      98.624 121.939 126.598  1.00  0.00    -0.550 OA
ENDBRANCH   2   3
ENDBRANCH   1   2
BRANCH   1   6
ATOM      6  C   UNL     1      95.376 124.034 124.085  1.00  0.00     0.000 C 
BRANCH   6   7
ATOM      7  C   UNL     1      94.353 123.180 124.848  1.00  0.00    -0.003 C 
ATOM      8  C   UNL     1      92.946 123.273 124.257  1.00  0.00     0.004 C 
ENDBRANCH   6   7
ENDBRANCH   1   6
TORSDOF 4
ENDMDL
MODEL 2
REMARK VINA RESULT:    -4.121      0.950      1.549
REMARK INTER + INTRA:          -5.188
REMARK INTER:                  -5.088
REMARK INTRA:                  -0.100
REMARK UNBOUND:                -0.103
REMARK SMILES CCCCCC(=O)[O-]
REMARK SMILES IDX 4 1 5 2 6 3 7 4 8 5 3 6 2 7 1 8
REMARK H PARENT
REMARK Flexibility Score: inf
ROOT
ATOM      1  C   UNL     1      96.318 124.483 124.506  1.00  0.00     0.006 C 
ENDROOT
BRANCH   1   2
ATOM      2  C   UNL     1      96.596 123.873 125.884  1.00  0.00     0.053 C 
BRANCH   2   3
ATOM      3  C   UNL     1      97.770 124.543 126.527  1.00  0.00     0.041 C 
ATOM      4  O   UNL     1      98.837 123.903 126.722  1.00  0.00    -0.550 OA
ATOM      5  O   UNL     1      97.670 125.861 126.955  1.00  0.00    -0.550 OA
ENDBRANCH   2   3
ENDBRANCH   1   2
BRANCH   1   6
ATOM      6  C   UNL     1      95.106 123.812 123.844  1.00  0.00     0.000 C 
BRANCH   6   7
ATOM      7  C   UNL     1      94.201 123.095 124.856  1.00  0.00    -0.003 C 
ATOM      8  C   UNL     1      92.724 123.144 124.466  1.00  0.00     0.004 C 
ENDBRANCH   6   7
ENDBRANCH   1   6
TORSDOF 4
ENDMDL
MODEL 3
REMARK VINA RESULT:    -4.110      3.055      4.612
REMARK INTER + INTRA:          -5.175
REMARK INTER:                  -5.088
REMARK INTRA:                  -0.086
REMARK UNBOUND:                -0.103
REMARK SMILES CCCCCC(=O)[O-]
REMARK SMILES IDX 4 1 5 2 6 3 7 4 8 5 3 6 2 7 1 8
REMARK H PARENT
REMARK Flexibility Score: inf
ROOT
ATOM      1  C   UNL     1      96.100 123.736 125.504  1.00  0.00     0.006 C 
ENDROOT
BRANCH   1   2
ATOM      2  C   UNL     1      95.225 124.024 124.280  1.00  0.00     0.053 C 
BRANCH   2   3
ATOM      3  C   UNL     1      93.923 123.294 124.383  1.00  0.00     0.041 C 
ATOM      4  O   UNL     1      93.682 122.563 125.380  1.00  0.00    -0.550 OA
ATOM      5  O   UNL     1      92.994 123.380 123.354  1.00  0.00    -0.550 OA
ENDBRANCH   2   3
ENDBRANCH   1   2
BRANCH   1   6
ATOM      6  C   UNL     1      97.216 124.782 125.639  1.00  0.00     0.000 C 
BRANCH   6   7
ATOM      7  C   UNL     1      98.329 124.338 126.600  1.00  0.00    -0.003 C 
ATOM      8  C   UNL     1      98.704 122.866 126.431  1.00  0.00     0.004 C 
ENDBRANCH   6   7
ENDBRANCH   1   6
TORSDOF 4
ENDMDL
MODEL 4
REMARK VINA RESULT:    -4.033      2.537      4.338
REMARK INTER + INTRA:          -5.079
REMARK INTER:                  -4.935
REMARK INTRA:                  -0.143
REMARK UNBOUND:                -0.103
REMARK SMILES CCCCCC(=O)[O-]
REMARK SMILES IDX 4 1 5 2 6 3 7 4 8 5 3 6 2 7 1 8
REMARK H PARENT
REMARK Flexibility Score: inf
ROOT
ATOM      1  C   UNL     1      97.486 124.551 126.308  1.00  0.00     0.006 C 
ENDROOT
BRANCH   1   2
ATOM      2  C   UNL     1      96.363 123.578 125.935  1.00  0.00     0.053 C 
BRANCH   2   3
ATOM      3  C   UNL     1      95.659 124.041 124.698  1.00  0.00     0.041 C 
ATOM      4  O   UNL     1      96.219 124.854 123.915  1.00  0.00    -0.550 OA
ATOM      5  O   UNL     1      94.364 123.614 124.435  1.00  0.00    -0.550 OA
ENDBRANCH   2   3
ENDBRANCH   1   2
BRANCH   1   6
ATOM      6  C   UNL     1      98.823 123.811 126.468  1.00  0.00     0.000 C 
BRANCH   6   7
ATOM      7  C   UNL     1      98.650 122.286 126.532  1.00  0.00    -0.003 C 
ATOM      8  C   UNL     1      99.975 121.535 126.404  1.00  0.00     0.004 C 
ENDBRANCH   6   7
ENDBRANCH   1   6
TORSDOF 4
ENDMDL
MODEL 5
REMARK VINA RESULT:    -3.875      1.675      2.589
REMARK INTER + INTRA:          -4.884
REMARK INTER:                  -4.757
REMARK INTRA:                  -0.127
REMARK UNBOUND:                -0.103
REMARK SMILES CCCCCC(=O)[O-]
REMARK SMILES IDX 4 1 5 2 6 3 7 4 8 5 3 6 2 7 1 8
REMARK H PARENT
REMARK Flexibility Score: inf
ROOT
ATOM      1  C   UNL     1      98.574 124.176 126.491  1.00  0.00     0.006 C 
ENDROOT
BRANCH   1   2
ATOM      2  C   UNL     1      98.419 122.653 126.480  1.00  0.00     0.053 C 
BRANCH   2   3
ATOM      3  C   UNL     1      99.755 121.990 126.360  1.00  0.00     0.041 C 
ATOM      4  O   UNL     1      99.849 120.736 126.416  1.00  0.00    -0.550 OA
ATOM      5  O   UNL     1     100.904 122.761 126.234  1.00  0.00    -0.550 OA
ENDBRANCH   2   3
ENDBRANCH   1   2
BRANCH   1   6
ATOM      6  C   UNL     1      97.330 124.860 125.906  1.00  0.00     0.000 C 
BRANCH   6   7
ATOM      7  C   UNL     1      96.233 123.857 125.517  1.00  0.00    -0.003 C 
ATOM      8  C   UNL     1      95.674 124.105 124.117  1.00  0.00     0.004 C 
ENDBRANCH   6   7
ENDBRANCH   1   6
TORSDOF 4
ENDMDL
MODEL 6
REMARK VINA RESULT:    -3.749      2.847      5.165
REMARK INTER + INTRA:          -4.729
REMARK INTER:                  -4.685
REMARK INTRA:                  -0.043
REMARK UNBOUND:                -0.103
REMARK SMILES CCCCCC(=O)[O-]
REMARK SMILES IDX 4 1 5 2 6 3 7 4 8 5 3 6 2 7 1 8
REMARK H PARENT
REMARK Flexibility Score: inf
ROOT
ATOM      1  C   UNL     1      98.873 122.073 126.499  1.00  0.00     0.006 C 
ENDROOT
BRANCH   1   2
ATOM      2  C   UNL     1      98.630 123.585 126.513  1.00  0.00     0.053 C 
BRANCH   2   3
ATOM      3  C   UNL     1      97.256 123.899 126.009  1.00  0.00     0.041 C 
ATOM      4  O   UNL     1      97.050 124.944 125.337  1.00  0.00    -0.550 OA
ATOM      5  O   UNL     1      96.192 123.063 126.324  1.00  0.00    -0.550 OA
ENDBRANCH   2   3
ENDBRANCH   1   2
BRANCH   1   6
ATOM      6  C   UNL     1     100.372 121.759 126.377  1.00  0.00     0.000 C 
BRANCH   6   7
ATOM      7  C   UNL     1     100.666 120.252 126.425  1.00  0.00    -0.003 C 
ATOM      8  C   UNL     1     101.999 119.889 125.772  1.00  0.00     0.004 C 
ENDBRANCH   6   7
ENDBRANCH   1   6
TORSDOF 4
ENDMDL
MODEL 7
REMARK VINA RESULT:    -3.494      2.956      4.270
REMARK INTER + INTRA:          -4.414
REMARK INTER:                  -4.287
REMARK INTRA:                  -0.128
REMARK UNBOUND:                -0.103
REMARK SMILES CCCCCC(=O)[O-]
REMARK SMILES IDX 4 1 5 2 6 3 7 4 8 5 3 6 2 7 1 8
REMARK H PARENT
REMARK Flexibility Score: inf
ROOT
ATOM      1  C   UNL     1      96.989 123.646 125.959  1.00  0.00     0.006 C 
ENDROOT
BRANCH   1   2
ATOM      2  C   UNL     1      96.137 124.145 124.787  1.00  0.00     0.053 C 
BRANCH   2   3
ATOM      3  C   UNL     1      94.801 123.471 124.786  1.00  0.00     0.041 C 
ATOM      4  O   UNL     1      93.919 123.813 123.954  1.00  0.00    -0.550 OA
ATOM      5  O   UNL     1      94.512 122.498 125.734  1.00  0.00    -0.550 OA
ENDBRANCH   2   3
ENDBRANCH   1   2
BRANCH   1   6
ATOM      6  C   UNL     1      97.952 124.740 126.443  1.00  0.00     0.000 C 
BRANCH   6   7
ATOM      7  C   UNL     1      97.846 126.029 125.615  1.00  0.00    -0.003 C 
ATOM      8  C   UNL     1      97.660 127.274 126.481  1.00  0.00     0.004 C 
ENDBRANCH   6   7
ENDBRANCH   1   6
TORSDOF 4
ENDMDL
MODEL 8
REMARK VINA RESULT:    -3.413     15.210     16.351
REMARK INTER + INTRA:          -4.314
REMARK INTER:                  -4.077
REMARK INTRA:                  -0.237
REMARK UNBOUND:                -0.103
REMARK SMILES CCCCCC(=O)[O-]
REMARK SMILES IDX 4 1 5 2 6 3 7 4 8 5 3 6 2 7 1 8
REMARK H PARENT
REMARK Flexibility Score: inf
ROOT
ATOM      1  C   UNL     1      84.641 130.317 132.277  1.00  0.00     0.006 C 
ENDROOT
BRANCH   1   2
ATOM      2  C   UNL     1      83.504 131.145 132.882  1.00  0.00     0.053 C 
BRANCH   2   3
ATOM      3  C   UNL     1      82.633 131.708 131.803  1.00  0.00     0.041 C 
ATOM      4  O   UNL     1      81.876 130.950 131.139  1.00  0.00    -0.550 OA
ATOM      5  O   UNL     1      82.693 133.061 131.495  1.00  0.00    -0.550 OA
ENDBRANCH   2   3
ENDBRANCH   1   2
BRANCH   1   6
ATOM      6  C   UNL     1      84.472 128.827 132.610  1.00  0.00     0.000 C 
BRANCH   6   7
ATOM      7  C   UNL     1      83.861 128.028 131.449  1.00  0.00    -0.003 C 
ATOM      8  C   UNL     1      84.208 128.614 130.081  1.00  0.00     0.004 C 
ENDBRANCH   6   7
ENDBRANCH   1   6
TORSDOF 4
ENDMDL
MODEL 9
REMARK VINA RESULT:    -3.339     14.652     15.613
REMARK INTER + INTRA:          -4.222
REMARK INTER:                  -3.973
REMARK INTRA:                  -0.249
REMARK UNBOUND:                -0.103
REMARK SMILES CCCCCC(=O)[O-]
REMARK SMILES IDX 4 1 5 2 6 3 7 4 8 5 3 6 2 7 1 8
REMARK H PARENT
REMARK Flexibility Score: inf
ROOT
ATOM      1  C   UNL     1      84.974 129.359 132.160  1.00  0.00     0.006 C 
ENDROOT
BRANCH   1   2
ATOM      2  C   UNL     1      84.118 128.103 131.974  1.00  0.00     0.053 C 
BRANCH   2   3
ATOM      3  C   UNL     1      83.551 128.055 130.589  1.00  0.00     0.041 C 
ATOM      4  O   UNL     1      83.915 128.896 129.726  1.00  0.00    -0.550 OA
ATOM      5  O   UNL     1      82.584 127.112 130.266  1.00  0.00    -0.550 OA
ENDBRANCH   2   3
ENDBRANCH   1   2
BRANCH   1   6
ATOM      6  C   UNL     1      84.275 130.368 133.083  1.00  0.00     0.000 C 
BRANCH   6   7
ATOM      7  C   UNL     1      83.831 131.638 132.343  1.00  0.00    -0.003 C 
ATOM      8  C   UNL     1      82.430 131.514 131.744  1.00  0.00     0.004 C 
ENDBRANCH   6   7
ENDBRANCH   1   6
TORSDOF 4
ENDMDL
