MODEL 1
REMARK VINA RESULT:    -4.125      0.000      0.000
REMARK INTER + INTRA:          -4.331
REMARK INTER:                  -5.090
REMARK INTRA:                   0.759
REMARK UNBOUND:                 0.759
REMARK SMILES CC1=CC=CC(C)(C)CC1=O
REMARK SMILES IDX 1 1 2 2 3 3 10 4 11 5 9 6 4 8 5 9 6 10 7 11 8 12
REMARK H PARENT
REMARK Flexibility Score: 80.00
ROOT
ATOM      1  C   UNL     1     -11.461  73.587  33.573  1.00  0.00     0.048 C 
ATOM      2  C   UNL     1     -10.799  73.543  32.216  1.00  0.00    -0.008 C 
ATOM      3  C   UNL     1     -10.448  72.334  31.729  1.00  0.00     0.007 C 
ENDROOT
BRANCH   2   4
ATOM      4  C   UNL     1     -10.654  74.831  31.493  1.00  0.00     0.159 C 
ATOM      5  O   UNL     1     -11.251  75.849  31.938  1.00  0.00    -0.295 OA
BRANCH   4   6
ATOM      6  C   UNL     1      -9.821  74.997  30.259  1.00  0.00     0.091 CG0
ATOM      7  G   UNL     1     -10.275  74.093  29.091  1.00  0.00     0.000 G0
ENDBRANCH   4   6
ENDBRANCH   2   4
BRANCH   3   8
ATOM      8  C   UNL     1      -9.816  71.974  30.438  1.00  0.00    -0.003 C 
ATOM      9  C   UNL     1      -9.738  72.689  29.308  1.00  0.00    -0.020 C 
BRANCH   9  10
ATOM     10  C   UNL     1     -10.270  74.085  29.091  1.00  0.00    -0.010 CG0
ATOM     11  C   UNL     1     -11.805  74.043  28.912  1.00  0.00     0.016 C 
ATOM     12  C   UNL     1      -9.653  74.643  27.789  1.00  0.00     0.016 C 
ATOM     13  G   UNL     1      -9.833  74.996  30.259  1.00  0.00     0.000 G0
ENDBRANCH   9  10
ENDBRANCH   3   8
TORSDOF 0
ENDMDL
MODEL 2
REMARK VINA RESULT:    -3.954      1.947      3.842
REMARK INTER + INTRA:          -4.119
REMARK INTER:                  -4.897
REMARK INTRA:                   0.778
REMARK UNBOUND:                 0.759
REMARK SMILES CC1=CC=CC(C)(C)CC1=O
REMARK SMILES IDX 1 1 2 2 3 3 10 4 11 5 9 6 4 8 5 9 6 10 7 11 8 12
REMARK H PARENT
REMARK Flexibility Score: 80.00
ROOT
ATOM      1  C   UNL     1     -10.617  74.074  26.399  1.00  0.00     0.048 C 
ATOM      2  C   UNL     1     -10.562  73.424  27.761  1.00  0.00    -0.008 C 
ATOM      3  C   UNL     1      -9.348  73.082  28.243  1.00  0.00     0.007 C 
ENDROOT
BRANCH   2   4
ATOM      4  C   UNL     1     -11.845  73.280  28.494  1.00  0.00     0.159 C 
ATOM      5  O   UNL     1     -12.868  73.867  28.049  1.00  0.00    -0.295 OA
BRANCH   4   6
ATOM      6  C   UNL     1     -11.998  72.461  29.739  1.00  0.00     0.091 CG0
ATOM      7  G   UNL     1     -11.085  72.929  30.894  1.00  0.00     0.000 G0
ENDBRANCH   4   6
ENDBRANCH   2   4
BRANCH   3   8
ATOM      8  C   UNL     1      -8.977  72.462  29.537  1.00  0.00    -0.003 C 
ATOM      9  C   UNL     1      -9.682  72.394  30.673  1.00  0.00    -0.020 C 
BRANCH   9  10
ATOM     10  C   UNL     1     -11.077  72.928  30.896  1.00  0.00    -0.010 CG0
ATOM     11  C   UNL     1     -11.037  74.467  31.039  1.00  0.00     0.016 C 
ATOM     12  C   UNL     1     -11.615  72.341  32.221  1.00  0.00     0.016 C 
ATOM     13  G   UNL     1     -12.003  72.460  29.752  1.00  0.00     0.000 G0
ENDBRANCH   9  10
ENDBRANCH   3   8
TORSDOF 0
ENDMDL
MODEL 3
REMARK VINA RESULT:    -3.745      1.527      3.521
REMARK INTER + INTRA:          -3.861
REMARK INTER:                  -4.632
REMARK INTRA:                   0.770
REMARK UNBOUND:                 0.759
REMARK SMILES CC1=CC=CC(C)(C)CC1=O
REMARK SMILES IDX 1 1 2 2 3 3 10 4 11 5 9 6 4 8 5 9 6 10 7 11 8 12
REMARK H PARENT
REMARK Flexibility Score: 80.00
ROOT
ATOM      1  C   UNL     1      -9.854  75.177  27.380  1.00  0.00     0.048 C 
ATOM      2  C   UNL     1     -10.490  74.337  28.464  1.00  0.00    -0.008 C 
ATOM      3  C   UNL     1     -11.315  73.340  28.079  1.00  0.00     0.007 C 
ENDROOT
BRANCH   2   4
ATOM      4  C   UNL     1     -10.097  74.631  29.864  1.00  0.00     0.159 C 
ATOM      5  O   UNL     1      -9.110  75.389  30.072  1.00  0.00    -0.295 OA
BRANCH   4   6
ATOM      6  C   UNL     1     -10.818  74.083  31.057  1.00  0.00     0.091 CG0
ATOM      7  G   UNL     1     -10.810  72.540  31.119  1.00  0.00     0.000 G0
ENDBRANCH   4   6
ENDBRANCH   2   4
BRANCH   3   8
ATOM      8  C   UNL     1     -12.053  72.347  28.896  1.00  0.00    -0.003 C 
ATOM      9  C   UNL     1     -11.848  71.981  30.167  1.00  0.00    -0.020 C 
BRANCH   9  10
ATOM     10  C   UNL     1     -10.801  72.534  31.103  1.00  0.00    -0.010 CG0
ATOM     11  C   UNL     1      -9.414  71.950  30.749  1.00  0.00     0.016 C 
ATOM     12  C   UNL     1     -11.151  72.091  32.541  1.00  0.00     0.016 C 
ATOM     13  G   UNL     1     -10.825  74.078  31.057  1.00  0.00     0.000 G0
ENDBRANCH   9  10
ENDBRANCH   3   8
TORSDOF 0
ENDMDL
MODEL 4
REMARK VINA RESULT:    -3.628      2.249      4.042
REMARK INTER + INTRA:          -3.718
REMARK INTER:                  -4.477
REMARK INTRA:                   0.759
REMARK UNBOUND:                 0.759
REMARK SMILES CC1=CC=CC(C)(C)CC1=O
REMARK SMILES IDX 1 1 2 2 3 3 10 4 11 5 9 6 4 8 5 9 6 10 7 11 8 12
REMARK H PARENT
REMARK Flexibility Score: 80.00
ROOT
ATOM      1  C   UNL     1     -12.376  73.603  28.128  1.00  0.00     0.048 C 
ATOM      2  C   UNL     1     -11.623  73.570  29.438  1.00  0.00    -0.008 C 
ATOM      3  C   UNL     1     -11.250  74.751  29.975  1.00  0.00     0.007 C 
ENDROOT
BRANCH   2   4
ATOM      4  C   UNL     1     -11.419  72.241  30.066  1.00  0.00     0.159 C 
ATOM      5  O   UNL     1     -12.044  71.247  29.604  1.00  0.00    -0.295 OA
BRANCH   4   6
ATOM      6  C   UNL     1     -10.495  72.007  31.222  1.00  0.00     0.091 CG0
ATOM      7  G   UNL     1     -10.857  72.840  32.471  1.00  0.00     0.000 G0
ENDBRANCH   4   6
ENDBRANCH   2   4
BRANCH   3   8
ATOM      8  C   UNL     1     -10.535  75.037  31.241  1.00  0.00    -0.003 C 
ATOM      9  C   UNL     1     -10.369  74.251  32.313  1.00  0.00    -0.020 C 
BRANCH   9  10
ATOM     10  C   UNL     1     -10.865  72.835  32.472  1.00  0.00    -0.010 CG0
ATOM     11  C   UNL     1     -12.383  72.837  32.764  1.00  0.00     0.016 C 
ATOM     12  C   UNL     1     -10.148  72.202  33.686  1.00  0.00     0.016 C 
ATOM     13  G   UNL     1     -10.502  72.011  31.217  1.00  0.00     0.000 G0
ENDBRANCH   9  10
ENDBRANCH   3   8
TORSDOF 0
ENDMDL
MODEL 5
REMARK VINA RESULT:    -3.620      5.057      6.792
REMARK INTER + INTRA:          -3.708
REMARK INTER:                  -4.469
REMARK INTRA:                   0.762
REMARK UNBOUND:                 0.759
REMARK SMILES CC1=CC=CC(C)(C)CC1=O
REMARK SMILES IDX 1 1 2 2 3 3 10 4 11 5 9 6 4 8 5 9 6 10 7 11 8 12
REMARK H PARENT
REMARK Flexibility Score: 80.00
ROOT
ATOM      1  C   UNL     1      -8.964  73.127  26.957  1.00  0.00     0.048 C 
ATOM      2  C   UNL     1      -8.998  73.330  25.460  1.00  0.00    -0.008 C 
ATOM      3  C   UNL     1      -8.352  72.427  24.692  1.00  0.00     0.007 C 
ENDROOT
BRANCH   2   4
ATOM      4  C   UNL     1      -9.804  74.467  24.949  1.00  0.00     0.159 C 
ATOM      5  O   UNL     1     -10.593  75.055  25.738  1.00  0.00    -0.295 OA
BRANCH   4   6
ATOM      6  C   UNL     1      -9.726  74.968  23.540  1.00  0.00     0.091 CG0
ATOM      7  G   UNL     1     -10.111  73.902  22.491  1.00  0.00     0.000 G0
ENDBRANCH   4   6
ENDBRANCH   2   4
BRANCH   3   8
ATOM      8  C   UNL     1      -8.230  72.345  23.217  1.00  0.00    -0.003 C 
ATOM      9  C   UNL     1      -8.968  72.946  22.275  1.00  0.00    -0.020 C 
BRANCH   9  10
ATOM     10  C   UNL     1     -10.115  73.900  22.506  1.00  0.00    -0.010 CG0
ATOM     11  C   UNL     1     -11.379  73.114  22.923  1.00  0.00     0.016 C 
ATOM     12  C   UNL     1     -10.421  74.623  21.175  1.00  0.00     0.016 C 
ATOM     13  G   UNL     1      -9.705  74.964  23.548  1.00  0.00     0.000 G0
ENDBRANCH   9  10
ENDBRANCH   3   8
TORSDOF 0
ENDMDL
MODEL 6
REMARK VINA RESULT:    -3.586      1.756      2.433
REMARK INTER + INTRA:          -3.666
REMARK INTER:                  -4.426
REMARK INTRA:                   0.760
REMARK UNBOUND:                 0.759
REMARK SMILES CC1=CC=CC(C)(C)CC1=O
REMARK SMILES IDX 1 1 2 2 3 3 10 4 11 5 9 6 4 8 5 9 6 10 7 11 8 12
REMARK H PARENT
REMARK Flexibility Score: 80.00
ROOT
ATOM      1  C   UNL     1     -11.434  72.116  32.525  1.00  0.00     0.048 C 
ATOM      2  C   UNL     1     -11.066  73.038  31.386  1.00  0.00    -0.008 C 
ATOM      3  C   UNL     1     -10.199  74.040  31.647  1.00  0.00     0.007 C 
ENDROOT
BRANCH   2   4
ATOM      4  C   UNL     1     -11.632  72.723  30.051  1.00  0.00     0.159 C 
ATOM      5  O   UNL     1     -12.210  71.614  29.882  1.00  0.00    -0.295 OA
BRANCH   4   6
ATOM      6  C   UNL     1     -11.566  73.658  28.883  1.00  0.00     0.091 CG0
ATOM      7  G   UNL     1     -10.122  74.024  28.475  1.00  0.00     0.000 G0
ENDBRANCH   4   6
ENDBRANCH   2   4
BRANCH   3   8
ATOM      8  C   UNL     1      -9.638  75.072  30.744  1.00  0.00    -0.003 C 
ATOM      9  C   UNL     1      -9.586  75.085  29.406  1.00  0.00    -0.020 C 
BRANCH   9  10
ATOM     10  C   UNL     1     -10.131  74.028  28.476  1.00  0.00    -0.010 CG0
ATOM     11  C   UNL     1      -9.187  72.803  28.458  1.00  0.00     0.016 C 
ATOM     12  C   UNL     1     -10.178  74.614  27.047  1.00  0.00     0.016 C 
ATOM     13  G   UNL     1     -11.573  73.661  28.893  1.00  0.00     0.000 G0
ENDBRANCH   9  10
ENDBRANCH   3   8
TORSDOF 0
ENDMDL
MODEL 7
REMARK VINA RESULT:    -3.350      1.787      2.574
REMARK INTER + INTRA:          -3.375
REMARK INTER:                  -4.124
REMARK INTRA:                   0.749
REMARK UNBOUND:                 0.759
REMARK SMILES CC1=CC=CC(C)(C)CC1=O
REMARK SMILES IDX 1 1 2 2 3 3 10 4 11 5 9 6 4 8 5 9 6 10 7 11 8 12
REMARK H PARENT
REMARK Flexibility Score: 80.00
ROOT
ATOM      1  C   UNL     1     -10.779  74.434  31.884  1.00  0.00     0.048 C 
ATOM      2  C   UNL     1     -10.792  73.951  30.452  1.00  0.00    -0.008 C 
ATOM      3  C   UNL     1     -11.995  73.767  29.865  1.00  0.00     0.007 C 
ENDROOT
BRANCH   2   4
ATOM      4  C   UNL     1      -9.479  73.790  29.781  1.00  0.00     0.159 C 
ATOM      5  O   UNL     1      -8.447  74.244  30.347  1.00  0.00    -0.295 OA
BRANCH   4   6
ATOM      6  C   UNL     1      -9.304  73.101  28.462  1.00  0.00     0.091 CG0
ATOM      7  G   UNL     1     -10.105  73.761  27.318  1.00  0.00     0.000 G0
ENDBRANCH   4   6
ENDBRANCH   2   4
BRANCH   3   8
ATOM      8  C   UNL     1     -12.324  73.332  28.487  1.00  0.00    -0.003 C 
ATOM      9  C   UNL     1     -11.549  73.327  27.396  1.00  0.00    -0.020 C 
BRANCH   9  10
ATOM     10  C   UNL     1     -10.101  73.750  27.321  1.00  0.00    -0.010 CG0
ATOM     11  C   UNL     1     -10.001  75.292  27.318  1.00  0.00     0.016 C 
ATOM     12  C   UNL     1      -9.511  73.231  25.990  1.00  0.00     0.016 C 
ATOM     13  G   UNL     1      -9.310  73.105  28.481  1.00  0.00     0.000 G0
ENDBRANCH   9  10
ENDBRANCH   3   8
TORSDOF 0
ENDMDL
MODEL 8
REMARK VINA RESULT:    -3.120      1.939      2.829
REMARK INTER + INTRA:          -3.091
REMARK INTER:                  -3.855
REMARK INTRA:                   0.764
REMARK UNBOUND:                 0.759
REMARK SMILES CC1=CC=CC(C)(C)CC1=O
REMARK SMILES IDX 1 1 2 2 3 3 10 4 11 5 9 6 4 8 5 9 6 10 7 11 8 12
REMARK H PARENT
REMARK Flexibility Score: 80.00
ROOT
ATOM      1  C   UNL     1     -10.497  73.201  34.676  1.00  0.00     0.048 C 
ATOM      2  C   UNL     1     -10.860  73.443  33.230  1.00  0.00    -0.008 C 
ATOM      3  C   UNL     1     -10.871  74.721  32.794  1.00  0.00     0.007 C 
ENDROOT
BRANCH   2   4
ATOM      4  C   UNL     1     -11.104  72.249  32.384  1.00  0.00     0.159 C 
ATOM      5  O   UNL     1     -10.816  71.110  32.844  1.00  0.00    -0.295 OA
BRANCH   4   6
ATOM      6  C   UNL     1     -11.690  72.316  31.007  1.00  0.00     0.091 CG0
ATOM      7  G   UNL     1     -10.855  73.173  30.031  1.00  0.00     0.000 G0
ENDBRANCH   4   6
ENDBRANCH   2   4
BRANCH   3   8
ATOM      8  C   UNL     1     -11.158  75.264  31.445  1.00  0.00    -0.003 C 
ATOM      9  C   UNL     1     -11.153  74.634  30.263  1.00  0.00    -0.020 C 
BRANCH   9  10
ATOM     10  C   UNL     1     -10.872  73.170  30.028  1.00  0.00    -0.010 CG0
ATOM     11  C   UNL     1      -9.354  72.900  30.136  1.00  0.00     0.016 C 
ATOM     12  C   UNL     1     -11.318  72.814  28.592  1.00  0.00     0.016 C 
ATOM     13  G   UNL     1     -11.700  72.316  31.014  1.00  0.00     0.000 G0
ENDBRANCH   9  10
ENDBRANCH   3   8
TORSDOF 0
ENDMDL
MODEL 9
REMARK VINA RESULT:    -3.028      6.771      8.851
REMARK INTER + INTRA:          -2.978
REMARK INTER:                  -3.732
REMARK INTRA:                   0.755
REMARK UNBOUND:                 0.759
REMARK SMILES CC1=CC=CC(C)(C)CC1=O
REMARK SMILES IDX 1 1 2 2 3 3 10 4 11 5 9 6 4 8 5 9 6 10 7 11 8 12
REMARK H PARENT
REMARK Flexibility Score: 80.00
ROOT
ATOM      1  C   UNL     1      -9.692  74.166  24.819  1.00  0.00     0.048 C 
ATOM      2  C   UNL     1      -8.986  73.697  23.568  1.00  0.00    -0.008 C 
ATOM      3  C   UNL     1      -9.116  74.451  22.456  1.00  0.00     0.007 C 
ENDROOT
BRANCH   2   4
ATOM      4  C   UNL     1      -8.143  72.480  23.683  1.00  0.00     0.159 C 
ATOM      5  O   UNL     1      -7.897  72.018  24.831  1.00  0.00    -0.295 OA
BRANCH   4   6
ATOM      6  C   UNL     1      -7.573  71.755  22.503  1.00  0.00     0.091 CG0
ATOM      7  G   UNL     1      -6.637  72.633  21.642  1.00  0.00     0.000 G0
ENDBRANCH   4   6
ENDBRANCH   2   4
BRANCH   3   8
ATOM      8  C   UNL     1      -8.531  74.267  21.107  1.00  0.00    -0.003 C 
ATOM      9  C   UNL     1      -7.485  73.517  20.735  1.00  0.00    -0.020 C 
BRANCH   9  10
ATOM     10  C   UNL     1      -6.650  72.635  21.632  1.00  0.00    -0.010 CG0
ATOM     11  C   UNL     1      -5.678  73.500  22.467  1.00  0.00     0.016 C 
ATOM     12  C   UNL     1      -5.806  71.696  20.740  1.00  0.00     0.016 C 
ATOM     13  G   UNL     1      -7.574  71.762  22.510  1.00  0.00     0.000 G0
ENDBRANCH   9  10
ENDBRANCH   3   8
TORSDOF 0
ENDMDL
