MODEL 1
REMARK VINA RESULT:    -3.591      0.000      0.000
REMARK INTER + INTRA:          -6.003
REMARK INTER:                  -5.480
REMARK INTRA:                  -0.524
REMARK UNBOUND:                -0.524
REMARK SMILES CCCCCCCCCC=CC(=O)[O-]
REMARK SMILES IDX 7 1 8 2 9 3 10 4 11 5 12 6 13 7 14 8 6 9 5 10 4 11 3 12 2 13
REMARK SMILES IDX 1 14
REMARK H PARENT
REMARK Flexibility Score: inf
ROOT
ATOM      1  C   UNL     1      65.242  31.297  60.612  1.00  0.00     0.000 C 
ENDROOT
BRANCH   1   2
ATOM      2  C   UNL     1      64.721  30.081  61.391  1.00  0.00     0.004 C 
BRANCH   2   3
ATOM      3  C   UNL     1      63.792  29.202  60.540  1.00  0.00     0.027 C 
BRANCH   3   4
ATOM      4  C   UNL     1      63.731  27.784  61.036  1.00  0.00    -0.025 C 
ATOM      5  C   UNL     1      62.700  27.342  61.765  1.00  0.00     0.020 C 
BRANCH   5   6
ATOM      6  C   UNL     1      62.617  25.957  62.255  1.00  0.00     0.064 C 
ATOM      7  O   UNL     1      61.821  25.640  63.178  1.00  0.00    -0.545 OA
ATOM      8  O   UNL     1      63.429  24.983  61.688  1.00  0.00    -0.545 OA
ENDBRANCH   5   6
ENDBRANCH   3   4
ENDBRANCH   2   3
ENDBRANCH   1   2
BRANCH   1   9
ATOM      9  C   UNL     1      64.375  31.566  59.373  1.00  0.00     0.000 C 
BRANCH   9  10
ATOM     10  C   UNL     1      63.780  32.984  59.361  1.00  0.00     0.000 C 
BRANCH  10  11
ATOM     11  C   UNL     1      64.370  33.883  60.459  1.00  0.00    -0.000 C 
BRANCH  11  12
ATOM     12  C   UNL     1      63.565  35.181  60.597  1.00  0.00    -0.000 C 
BRANCH  12  13
ATOM     13  C   UNL     1      63.962  35.943  61.866  1.00  0.00    -0.003 C 
ATOM     14  C   UNL     1      65.330  35.495  62.372  1.00  0.00     0.004 C 
ENDBRANCH  12  13
ENDBRANCH  11  12
ENDBRANCH  10  11
ENDBRANCH   9  10
ENDBRANCH   1   9
TORSDOF 9
ENDMDL
MODEL 2
REMARK VINA RESULT:    -3.489      2.584      3.554
REMARK INTER + INTRA:          -5.848
REMARK INTER:                  -4.875
REMARK INTRA:                  -0.973
REMARK UNBOUND:                -0.524
REMARK SMILES CCCCCCCCCC=CC(=O)[O-]
REMARK SMILES IDX 7 1 8 2 9 3 10 4 11 5 12 6 13 7 14 8 6 9 5 10 4 11 3 12 2 13
REMARK SMILES IDX 1 14
REMARK H PARENT
REMARK Flexibility Score: inf
ROOT
ATOM      1  C   UNL     1      62.179  29.506  59.122  1.00  0.00     0.000 C 
ENDROOT
BRANCH   1   2
ATOM      2  C   UNL     1      61.671  29.122  60.520  1.00  0.00     0.004 C 
BRANCH   2   3
ATOM      3  C   UNL     1      62.783  29.187  61.578  1.00  0.00     0.027 C 
BRANCH   3   4
ATOM      4  C   UNL     1      64.130  28.823  61.017  1.00  0.00    -0.025 C 
ATOM      5  C   UNL     1      65.209  29.580  61.245  1.00  0.00     0.020 C 
BRANCH   5   6
ATOM      6  C   UNL     1      66.538  29.239  60.712  1.00  0.00     0.064 C 
ATOM      7  O   UNL     1      67.176  28.243  61.143  1.00  0.00    -0.545 OA
ATOM      8  O   UNL     1      67.096  30.029  59.715  1.00  0.00    -0.545 OA
ENDBRANCH   5   6
ENDBRANCH   3   4
ENDBRANCH   2   3
ENDBRANCH   1   2
BRANCH   1   9
ATOM      9  C   UNL     1      62.080  31.022  58.901  1.00  0.00     0.000 C 
BRANCH   9  10
ATOM     10  C   UNL     1      63.453  31.684  58.701  1.00  0.00     0.000 C 
BRANCH  10  11
ATOM     11  C   UNL     1      63.549  33.064  59.369  1.00  0.00    -0.000 C 
BRANCH  11  12
ATOM     12  C   UNL     1      64.722  33.114  60.357  1.00  0.00    -0.000 C 
BRANCH  12  13
ATOM     13  C   UNL     1      64.917  34.531  60.907  1.00  0.00    -0.003 C 
ATOM     14  C   UNL     1      63.606  35.311  60.899  1.00  0.00     0.004 C 
ENDBRANCH  12  13
ENDBRANCH  11  12
ENDBRANCH  10  11
ENDBRANCH   9  10
ENDBRANCH   1   9
TORSDOF 9
ENDMDL
MODEL 3
REMARK VINA RESULT:    -3.455     12.564     13.877
REMARK INTER + INTRA:          -5.796
REMARK INTER:                  -4.736
REMARK INTRA:                  -1.060
REMARK UNBOUND:                -0.524
REMARK SMILES CCCCCCCCCC=CC(=O)[O-]
REMARK SMILES IDX 7 1 8 2 9 3 10 4 11 5 12 6 13 7 14 8 6 9 5 10 4 11 3 12 2 13
REMARK SMILES IDX 1 14
REMARK H PARENT
REMARK Flexibility Score: inf
ROOT
ATOM      1  C   UNL     1      59.807  24.079  50.965  1.00  0.00     0.000 C 
ENDROOT
BRANCH   1   2
ATOM      2  C   UNL     1      58.687  24.887  50.293  1.00  0.00     0.004 C 
BRANCH   2   3
ATOM      3  C   UNL     1      57.822  25.639  51.315  1.00  0.00     0.027 C 
BRANCH   3   4
ATOM      4  C   UNL     1      56.374  25.692  50.912  1.00  0.00    -0.025 C 
ATOM      5  C   UNL     1      55.995  25.509  49.642  1.00  0.00     0.020 C 
BRANCH   5   6
ATOM      6  C   UNL     1      54.584  25.551  49.227  1.00  0.00     0.064 C 
ATOM      7  O   UNL     1      53.885  24.504  49.193  1.00  0.00    -0.545 OA
ATOM      8  O   UNL     1      54.014  26.765  48.867  1.00  0.00    -0.545 OA
ENDBRANCH   5   6
ENDBRANCH   3   4
ENDBRANCH   2   3
ENDBRANCH   1   2
BRANCH   1   9
ATOM      9  C   UNL     1      61.037  23.982  50.050  1.00  0.00     0.000 C 
BRANCH   9  10
ATOM     10  C   UNL     1      62.309  24.545  50.705  1.00  0.00     0.000 C 
BRANCH  10  11
ATOM     11  C   UNL     1      62.244  26.066  50.915  1.00  0.00    -0.000 C 
BRANCH  11  12
ATOM     12  C   UNL     1      62.210  26.803  49.571  1.00  0.00    -0.000 C 
BRANCH  12  13
ATOM     13  C   UNL     1      60.974  27.704  49.468  1.00  0.00    -0.003 C 
ATOM     14  C   UNL     1      60.512  28.165  50.848  1.00  0.00     0.004 C 
ENDBRANCH  12  13
ENDBRANCH  11  12
ENDBRANCH  10  11
ENDBRANCH   9  10
ENDBRANCH   1   9
TORSDOF 9
ENDMDL
MODEL 4
REMARK VINA RESULT:    -3.429     12.878     14.595
REMARK INTER + INTRA:          -5.756
REMARK INTER:                  -4.913
REMARK INTRA:                  -0.844
REMARK UNBOUND:                -0.524
REMARK SMILES CCCCCCCCCC=CC(=O)[O-]
REMARK SMILES IDX 7 1 8 2 9 3 10 4 11 5 12 6 13 7 14 8 6 9 5 10 4 11 3 12 2 13
REMARK SMILES IDX 1 14
REMARK H PARENT
REMARK Flexibility Score: inf
ROOT
ATOM      1  C   UNL     1      59.403  26.657  51.819  1.00  0.00     0.000 C 
ENDROOT
BRANCH   1   2
ATOM      2  C   UNL     1      57.894  26.911  51.694  1.00  0.00     0.004 C 
BRANCH   2   3
ATOM      3  C   UNL     1      57.062  25.712  52.176  1.00  0.00     0.027 C 
BRANCH   3   4
ATOM      4  C   UNL     1      55.821  25.507  51.352  1.00  0.00    -0.025 C 
ATOM      5  C   UNL     1      55.775  25.852  50.060  1.00  0.00     0.020 C 
BRANCH   5   6
ATOM      6  C   UNL     1      54.573  25.655  49.234  1.00  0.00     0.064 C 
ATOM      7  O   UNL     1      54.061  26.610  48.592  1.00  0.00    -0.545 OA
ATOM      8  O   UNL     1      53.995  24.394  49.160  1.00  0.00    -0.545 OA
ENDBRANCH   5   6
ENDBRANCH   3   4
ENDBRANCH   2   3
ENDBRANCH   1   2
BRANCH   1   9
ATOM      9  C   UNL     1      60.091  26.760  50.450  1.00  0.00     0.000 C 
BRANCH   9  10
ATOM     10  C   UNL     1      59.783  25.559  49.540  1.00  0.00     0.000 C 
BRANCH  10  11
ATOM     11  C   UNL     1      59.999  24.211  50.244  1.00  0.00    -0.000 C 
BRANCH  11  12
ATOM     12  C   UNL     1      61.470  23.785  50.174  1.00  0.00    -0.000 C 
BRANCH  12  13
ATOM     13  C   UNL     1      61.604  22.259  50.222  1.00  0.00    -0.003 C 
ATOM     14  C   UNL     1      61.138  21.623  48.916  1.00  0.00     0.004 C 
ENDBRANCH  12  13
ENDBRANCH  11  12
ENDBRANCH  10  11
ENDBRANCH   9  10
ENDBRANCH   1   9
TORSDOF 9
ENDMDL
MODEL 5
REMARK VINA RESULT:    -3.423     11.554     12.989
REMARK INTER + INTRA:          -5.748
REMARK INTER:                  -4.626
REMARK INTRA:                  -1.121
REMARK UNBOUND:                -0.524
REMARK SMILES CCCCCCCCCC=CC(=O)[O-]
REMARK SMILES IDX 7 1 8 2 9 3 10 4 11 5 12 6 13 7 14 8 6 9 5 10 4 11 3 12 2 13
REMARK SMILES IDX 1 14
REMARK H PARENT
REMARK Flexibility Score: inf
ROOT
ATOM      1  C   UNL     1      59.999  28.862  51.338  1.00  0.00     0.000 C 
ENDROOT
BRANCH   1   2
ATOM      2  C   UNL     1      61.050  27.874  50.812  1.00  0.00     0.004 C 
BRANCH   2   3
ATOM      3  C   UNL     1      60.677  27.312  49.432  1.00  0.00     0.027 C 
BRANCH   3   4
ATOM      4  C   UNL     1      60.203  25.887  49.502  1.00  0.00    -0.025 C 
ATOM      5  C   UNL     1      60.496  25.104  50.546  1.00  0.00     0.020 C 
BRANCH   5   6
ATOM      6  C   UNL     1      60.037  23.709  50.637  1.00  0.00     0.064 C 
ATOM      7  O   UNL     1      60.447  22.834  49.829  1.00  0.00    -0.545 OA
ATOM      8  O   UNL     1      59.137  23.350  51.633  1.00  0.00    -0.545 OA
ENDBRANCH   5   6
ENDBRANCH   3   4
ENDBRANCH   2   3
ENDBRANCH   1   2
BRANCH   1   9
ATOM      9  C   UNL     1      59.149  28.220  52.445  1.00  0.00     0.000 C 
BRANCH   9  10
ATOM     10  C   UNL     1      57.712  27.916  51.989  1.00  0.00     0.000 C 
BRANCH  10  11
ATOM     11  C   UNL     1      57.421  26.409  51.913  1.00  0.00    -0.000 C 
BRANCH  11  12
ATOM     12  C   UNL     1      56.313  26.116  50.894  1.00  0.00    -0.000 C 
BRANCH  12  13
ATOM     13  C   UNL     1      55.273  27.241  50.873  1.00  0.00    -0.003 C 
ATOM     14  C   UNL     1      54.347  27.113  49.666  1.00  0.00     0.004 C 
ENDBRANCH  12  13
ENDBRANCH  11  12
ENDBRANCH  10  11
ENDBRANCH   9  10
ENDBRANCH   1   9
TORSDOF 9
ENDMDL
MODEL 6
REMARK VINA RESULT:    -3.405     12.047     13.132
REMARK INTER + INTRA:          -5.720
REMARK INTER:                  -4.508
REMARK INTRA:                  -1.212
REMARK UNBOUND:                -0.524
REMARK SMILES CCCCCCCCCC=CC(=O)[O-]
REMARK SMILES IDX 7 1 8 2 9 3 10 4 11 5 12 6 13 7 14 8 6 9 5 10 4 11 3 12 2 13
REMARK SMILES IDX 1 14
REMARK H PARENT
REMARK Flexibility Score: inf
ROOT
ATOM      1  C   UNL     1      60.225  24.951  50.564  1.00  0.00     0.000 C 
ENDROOT
BRANCH   1   2
ATOM      2  C   UNL     1      58.752  24.701  50.917  1.00  0.00     0.004 C 
BRANCH   2   3
ATOM      3  C   UNL     1      58.119  25.898  51.644  1.00  0.00     0.027 C 
BRANCH   3   4
ATOM      4  C   UNL     1      56.842  26.352  50.993  1.00  0.00    -0.025 C 
ATOM      5  C   UNL     1      56.215  25.600  50.082  1.00  0.00     0.020 C 
BRANCH   5   6
ATOM      6  C   UNL     1      54.961  26.022  49.438  1.00  0.00     0.064 C 
ATOM      7  O   UNL     1      54.475  27.165  49.647  1.00  0.00    -0.545 OA
ATOM      8  O   UNL     1      54.303  25.146  48.584  1.00  0.00    -0.545 OA
ENDBRANCH   5   6
ENDBRANCH   3   4
ENDBRANCH   2   3
ENDBRANCH   1   2
BRANCH   1   9
ATOM      9  C   UNL     1      60.360  26.118  49.574  1.00  0.00     0.000 C 
BRANCH   9  10
ATOM     10  C   UNL     1      61.756  26.762  49.604  1.00  0.00     0.000 C 
BRANCH  10  11
ATOM     11  C   UNL     1      61.824  27.986  50.530  1.00  0.00    -0.000 C 
BRANCH  11  12
ATOM     12  C   UNL     1      60.598  28.887  50.338  1.00  0.00    -0.000 C 
BRANCH  12  13
ATOM     13  C   UNL     1      59.967  29.252  51.686  1.00  0.00    -0.003 C 
ATOM     14  C   UNL     1      60.544  28.401  52.813  1.00  0.00     0.004 C 
ENDBRANCH  12  13
ENDBRANCH  11  12
ENDBRANCH  10  11
ENDBRANCH   9  10
ENDBRANCH   1   9
TORSDOF 9
ENDMDL
MODEL 7
REMARK VINA RESULT:    -3.390     10.904     12.425
REMARK INTER + INTRA:          -5.697
REMARK INTER:                  -4.318
REMARK INTRA:                  -1.379
REMARK UNBOUND:                -0.524
REMARK SMILES CCCCCCCCCC=CC(=O)[O-]
REMARK SMILES IDX 7 1 8 2 9 3 10 4 11 5 12 6 13 7 14 8 6 9 5 10 4 11 3 12 2 13
REMARK SMILES IDX 1 14
REMARK H PARENT
REMARK Flexibility Score: inf
ROOT
ATOM      1  C   UNL     1      62.860  30.469  51.004  1.00  0.00     0.000 C 
ENDROOT
BRANCH   1   2
ATOM      2  C   UNL     1      61.534  29.753  51.297  1.00  0.00     0.004 C 
BRANCH   2   3
ATOM      3  C   UNL     1      61.017  28.970  50.080  1.00  0.00     0.027 C 
BRANCH   3   4
ATOM      4  C   UNL     1      60.605  27.568  50.433  1.00  0.00    -0.025 C 
ATOM      5  C   UNL     1      60.385  26.645  49.490  1.00  0.00     0.020 C 
BRANCH   5   6
ATOM      6  C   UNL     1      59.988  25.266  49.814  1.00  0.00     0.064 C 
ATOM      7  O   UNL     1      60.850  24.363  49.981  1.00  0.00    -0.545 OA
ATOM      8  O   UNL     1      58.640  24.955  49.938  1.00  0.00    -0.545 OA
ENDBRANCH   5   6
ENDBRANCH   3   4
ENDBRANCH   2   3
ENDBRANCH   1   2
BRANCH   1   9
ATOM      9  C   UNL     1      62.890  31.000  49.563  1.00  0.00     0.000 C 
BRANCH   9  10
ATOM     10  C   UNL     1      64.293  30.943  48.938  1.00  0.00     0.000 C 
BRANCH  10  11
ATOM     11  C   UNL     1      64.969  29.575  49.122  1.00  0.00    -0.000 C 
BRANCH  11  12
ATOM     12  C   UNL     1      64.709  28.668  47.913  1.00  0.00    -0.000 C 
BRANCH  12  13
ATOM     13  C   UNL     1      63.843  27.465  48.303  1.00  0.00    -0.003 C 
ATOM     14  C   UNL     1      64.203  26.955  49.695  1.00  0.00     0.004 C 
ENDBRANCH  12  13
ENDBRANCH  11  12
ENDBRANCH  10  11
ENDBRANCH   9  10
ENDBRANCH   1   9
TORSDOF 9
ENDMDL
MODEL 8
REMARK VINA RESULT:    -3.379      4.894      6.360
REMARK INTER + INTRA:          -5.680
REMARK INTER:                  -4.988
REMARK INTRA:                  -0.692
REMARK UNBOUND:                -0.524
REMARK SMILES CCCCCCCCCC=CC(=O)[O-]
REMARK SMILES IDX 7 1 8 2 9 3 10 4 11 5 12 6 13 7 14 8 6 9 5 10 4 11 3 12 2 13
REMARK SMILES IDX 1 14
REMARK H PARENT
REMARK Flexibility Score: inf
ROOT
ATOM      1  C   UNL     1      65.882  27.655  60.284  1.00  0.00     0.000 C 
ENDROOT
BRANCH   1   2
ATOM      2  C   UNL     1      66.884  28.540  61.040  1.00  0.00     0.004 C 
BRANCH   2   3
ATOM      3  C   UNL     1      68.245  27.850  61.221  1.00  0.00     0.027 C 
BRANCH   3   4
ATOM      4  C   UNL     1      69.354  28.831  61.484  1.00  0.00    -0.025 C 
ATOM      5  C   UNL     1      70.352  29.007  60.611  1.00  0.00     0.020 C 
BRANCH   5   6
ATOM      6  C   UNL     1      71.444  29.966  60.845  1.00  0.00     0.064 C 
ATOM      7  O   UNL     1      72.301  29.769  61.747  1.00  0.00    -0.545 OA
ATOM      8  O   UNL     1      71.531  31.107  60.057  1.00  0.00    -0.545 OA
ENDBRANCH   5   6
ENDBRANCH   3   4
ENDBRANCH   2   3
ENDBRANCH   1   2
BRANCH   1   9
ATOM      9  C   UNL     1      64.468  27.809  60.865  1.00  0.00     0.000 C 
BRANCH   9  10
ATOM     10  C   UNL     1      64.151  29.255  61.279  1.00  0.00     0.000 C 
BRANCH  10  11
ATOM     11  C   UNL     1      63.467  30.055  60.159  1.00  0.00    -0.000 C 
BRANCH  11  12
ATOM     12  C   UNL     1      64.445  31.044  59.516  1.00  0.00    -0.000 C 
BRANCH  12  13
ATOM     13  C   UNL     1      65.165  31.879  60.581  1.00  0.00    -0.003 C 
ATOM     14  C   UNL     1      64.842  33.363  60.429  1.00  0.00     0.004 C 
ENDBRANCH  12  13
ENDBRANCH  11  12
ENDBRANCH  10  11
ENDBRANCH   9  10
ENDBRANCH   1   9
TORSDOF 9
ENDMDL
MODEL 9
REMARK VINA RESULT:    -3.361      4.125      6.944
REMARK INTER + INTRA:          -5.652
REMARK INTER:                  -4.636
REMARK INTRA:                  -1.016
REMARK UNBOUND:                -0.524
REMARK SMILES CCCCCCCCCC=CC(=O)[O-]
REMARK SMILES IDX 7 1 8 2 9 3 10 4 11 5 12 6 13 7 14 8 6 9 5 10 4 11 3 12 2 13
REMARK SMILES IDX 1 14
REMARK H PARENT
REMARK Flexibility Score: inf
ROOT
ATOM      1  C   UNL     1      62.956  29.903  58.475  1.00  0.00     0.000 C 
ENDROOT
BRANCH   1   2
ATOM      2  C   UNL     1      63.170  31.262  59.156  1.00  0.00     0.004 C 
BRANCH   2   3
ATOM      3  C   UNL     1      64.658  31.567  59.386  1.00  0.00     0.027 C 
BRANCH   3   4
ATOM      4  C   UNL     1      64.871  32.616  60.442  1.00  0.00    -0.025 C 
ATOM      5  C   UNL     1      64.389  33.856  60.303  1.00  0.00     0.020 C 
BRANCH   5   6
ATOM      6  C   UNL     1      64.581  34.895  61.327  1.00  0.00     0.064 C 
ATOM      7  O   UNL     1      65.683  35.028  61.921  1.00  0.00    -0.545 OA
ATOM      8  O   UNL     1      63.529  35.745  61.642  1.00  0.00    -0.545 OA
ENDBRANCH   5   6
ENDBRANCH   3   4
ENDBRANCH   2   3
ENDBRANCH   1   2
BRANCH   1   9
ATOM      9  C   UNL     1      61.922  29.063  59.240  1.00  0.00     0.000 C 
BRANCH   9  10
ATOM     10  C   UNL     1      61.857  29.418  60.734  1.00  0.00     0.000 C 
BRANCH  10  11
ATOM     11  C   UNL     1      62.933  28.697  61.561  1.00  0.00    -0.000 C 
BRANCH  11  12
ATOM     12  C   UNL     1      62.999  27.209  61.197  1.00  0.00    -0.000 C 
BRANCH  12  13
ATOM     13  C   UNL     1      64.434  26.786  60.865  1.00  0.00    -0.003 C 
ATOM     14  C   UNL     1      65.321  28.001  60.606  1.00  0.00     0.004 C 
ENDBRANCH  12  13
ENDBRANCH  11  12
ENDBRANCH  10  11
ENDBRANCH   9  10
ENDBRANCH   1   9
TORSDOF 9
ENDMDL
