MODEL 1
REMARK VINA RESULT:    -3.845      0.000      0.000
REMARK INTER + INTRA:          -7.810
REMARK INTER:                  -6.093
REMARK INTRA:                  -1.716
REMARK UNBOUND:                -1.716
REMARK SMILES CCCCCCCCCCCC(=O)[O-]
REMARK SMILES IDX 7 1 8 2 9 3 10 4 11 5 12 6 13 7 14 8 6 9 5 10 4 11 3 12 2 13
REMARK SMILES IDX 1 14
REMARK H PARENT
REMARK Flexibility Score: inf
ROOT
ATOM      1  C   UNL     1     206.682 204.496 159.600  1.00  0.00     0.000 C 
ENDROOT
BRANCH   1   2
ATOM      2  C   UNL     1     205.626 203.646 158.874  1.00  0.00     0.000 C 
BRANCH   2   3
ATOM      3  C   UNL     1     206.255 202.632 157.902  1.00  0.00     0.000 C 
BRANCH   3   4
ATOM      4  C   UNL     1     205.945 202.951 156.427  1.00  0.00     0.006 C 
BRANCH   4   5
ATOM      5  C   UNL     1     206.990 203.841 155.736  1.00  0.00     0.053 C 
BRANCH   5   6
ATOM      6  C   UNL     1     208.388 203.356 155.970  1.00  0.00     0.041 C 
ATOM      7  O   UNL     1     209.244 204.119 156.489  1.00  0.00    -0.550 OA
ATOM      8  O   UNL     1     208.754 202.073 155.582  1.00  0.00    -0.550 OA
ENDBRANCH   5   6
ENDBRANCH   4   5
ENDBRANCH   3   4
ENDBRANCH   2   3
ENDBRANCH   1   2
BRANCH   1   9
ATOM      9  C   UNL     1     206.504 206.004 159.354  1.00  0.00     0.000 C 
BRANCH   9  10
ATOM     10  C   UNL     1     207.416 206.529 158.233  1.00  0.00    -0.000 C 
BRANCH  10  11
ATOM     11  C   UNL     1     206.627 207.201 157.096  1.00  0.00    -0.000 C 
BRANCH  11  12
ATOM     12  C   UNL     1     205.117 207.252 157.375  1.00  0.00    -0.000 C 
BRANCH  12  13
ATOM     13  C   UNL     1     204.304 206.418 156.375  1.00  0.00    -0.003 C 
ATOM     14  C   UNL     1     203.227 205.602 157.085  1.00  0.00     0.004 C 
ENDBRANCH  12  13
ENDBRANCH  11  12
ENDBRANCH  10  11
ENDBRANCH   9  10
ENDBRANCH   1   9
TORSDOF 10
ENDMDL
MODEL 2
REMARK VINA RESULT:    -3.768      2.564      4.355
REMARK INTER + INTRA:          -7.687
REMARK INTER:                  -6.081
REMARK INTRA:                  -1.606
REMARK UNBOUND:                -1.716
REMARK SMILES CCCCCCCCCCCC(=O)[O-]
REMARK SMILES IDX 7 1 8 2 9 3 10 4 11 5 12 6 13 7 14 8 6 9 5 10 4 11 3 12 2 13
REMARK SMILES IDX 1 14
REMARK H PARENT
REMARK Flexibility Score: inf
ROOT
ATOM      1  C   UNL     1     208.240 205.462 159.363  1.00  0.00     0.000 C 
ENDROOT
BRANCH   1   2
ATOM      2  C   UNL     1     208.353 206.585 158.319  1.00  0.00     0.000 C 
BRANCH   2   3
ATOM      3  C   UNL     1     208.408 206.047 156.880  1.00  0.00     0.000 C 
BRANCH   3   4
ATOM      4  C   UNL     1     207.350 206.690 155.963  1.00  0.00     0.006 C 
BRANCH   4   5
ATOM      5  C   UNL     1     206.514 207.791 156.635  1.00  0.00     0.053 C 
BRANCH   5   6
ATOM      6  C   UNL     1     205.107 207.350 156.899  1.00  0.00     0.041 C 
ATOM      7  O   UNL     1     204.631 207.416 158.062  1.00  0.00    -0.550 OA
ATOM      8  O   UNL     1     204.334 206.832 155.867  1.00  0.00    -0.550 OA
ENDBRANCH   5   6
ENDBRANCH   4   5
ENDBRANCH   3   4
ENDBRANCH   2   3
ENDBRANCH   1   2
BRANCH   1   9
ATOM      9  C   UNL     1     206.786 205.189 159.788  1.00  0.00     0.000 C 
BRANCH   9  10
ATOM     10  C   UNL     1     206.279 203.820 159.307  1.00  0.00    -0.000 C 
BRANCH  10  11
ATOM     11  C   UNL     1     205.158 203.940 158.261  1.00  0.00    -0.000 C 
BRANCH  11  12
ATOM     12  C   UNL     1     205.636 203.602 156.841  1.00  0.00    -0.000 C 
BRANCH  12  13
ATOM     13  C   UNL     1     206.549 202.368 156.805  1.00  0.00    -0.003 C 
ATOM     14  C   UNL     1     207.601 202.495 155.706  1.00  0.00     0.004 C 
ENDBRANCH  12  13
ENDBRANCH  11  12
ENDBRANCH  10  11
ENDBRANCH   9  10
ENDBRANCH   1   9
TORSDOF 10
ENDMDL
MODEL 3
REMARK VINA RESULT:    -3.761      3.317      5.289
REMARK INTER + INTRA:          -7.676
REMARK INTER:                  -6.098
REMARK INTRA:                  -1.578
REMARK UNBOUND:                -1.716
REMARK SMILES CCCCCCCCCCCC(=O)[O-]
REMARK SMILES IDX 7 1 8 2 9 3 10 4 11 5 12 6 13 7 14 8 6 9 5 10 4 11 3 12 2 13
REMARK SMILES IDX 1 14
REMARK H PARENT
REMARK Flexibility Score: inf
ROOT
ATOM      1  C   UNL     1     205.951 206.739 154.511  1.00  0.00     0.000 C 
ENDROOT
BRANCH   1   2
ATOM      2  C   UNL     1     204.796 207.332 155.334  1.00  0.00     0.000 C 
BRANCH   2   3
ATOM      3  C   UNL     1     204.103 206.281 156.217  1.00  0.00     0.000 C 
BRANCH   3   4
ATOM      4  C   UNL     1     204.148 206.639 157.715  1.00  0.00     0.006 C 
BRANCH   4   5
ATOM      5  C   UNL     1     205.350 207.504 158.124  1.00  0.00     0.053 C 
BRANCH   5   6
ATOM      6  C   UNL     1     204.929 208.769 158.807  1.00  0.00     0.041 C 
ATOM      7  O   UNL     1     203.907 208.781 159.543  1.00  0.00    -0.550 OA
ATOM      8  O   UNL     1     205.642 209.943 158.602  1.00  0.00    -0.550 OA
ENDBRANCH   5   6
ENDBRANCH   4   5
ENDBRANCH   3   4
ENDBRANCH   2   3
ENDBRANCH   1   2
BRANCH   1   9
ATOM      9  C   UNL     1     206.427 205.378 155.049  1.00  0.00     0.000 C 
BRANCH   9  10
ATOM     10  C   UNL     1     207.659 205.504 155.961  1.00  0.00    -0.000 C 
BRANCH  10  11
ATOM     11  C   UNL     1     207.639 204.494 157.121  1.00  0.00    -0.000 C 
BRANCH  11  12
ATOM     12  C   UNL     1     206.439 203.537 157.050  1.00  0.00    -0.000 C 
BRANCH  12  13
ATOM     13  C   UNL     1     205.729 203.381 158.402  1.00  0.00    -0.003 C 
ATOM     14  C   UNL     1     206.434 204.184 159.491  1.00  0.00     0.004 C 
ENDBRANCH  12  13
ENDBRANCH  11  12
ENDBRANCH  10  11
ENDBRANCH   9  10
ENDBRANCH   1   9
TORSDOF 10
ENDMDL
MODEL 4
REMARK VINA RESULT:    -3.751      3.170      4.904
REMARK INTER + INTRA:          -7.660
REMARK INTER:                  -6.269
REMARK INTRA:                  -1.392
REMARK UNBOUND:                -1.716
REMARK SMILES CCCCCCCCCCCC(=O)[O-]
REMARK SMILES IDX 7 1 8 2 9 3 10 4 11 5 12 6 13 7 14 8 6 9 5 10 4 11 3 12 2 13
REMARK SMILES IDX 1 14
REMARK H PARENT
REMARK Flexibility Score: inf
ROOT
ATOM      1  C   UNL     1     208.250 205.393 159.353  1.00  0.00     0.000 C 
ENDROOT
BRANCH   1   2
ATOM      2  C   UNL     1     208.426 206.744 158.639  1.00  0.00     0.000 C 
BRANCH   2   3
ATOM      3  C   UNL     1     208.243 206.632 157.116  1.00  0.00     0.000 C 
BRANCH   3   4
ATOM      4  C   UNL     1     207.122 207.545 156.583  1.00  0.00     0.006 C 
BRANCH   4   5
ATOM      5  C   UNL     1     206.066 207.931 157.631  1.00  0.00     0.053 C 
BRANCH   5   6
ATOM      6  C   UNL     1     206.084 209.397 157.937  1.00  0.00     0.041 C 
ATOM      7  O   UNL     1     205.079 209.947 158.461  1.00  0.00    -0.550 OA
ATOM      8  O   UNL     1     207.196 210.164 157.610  1.00  0.00    -0.550 OA
ENDBRANCH   5   6
ENDBRANCH   4   5
ENDBRANCH   3   4
ENDBRANCH   2   3
ENDBRANCH   1   2
BRANCH   1   9
ATOM      9  C   UNL     1     206.799 205.140 159.798  1.00  0.00     0.000 C 
BRANCH   9  10
ATOM     10  C   UNL     1     206.232 203.826 159.236  1.00  0.00    -0.000 C 
BRANCH  10  11
ATOM     11  C   UNL     1     205.113 204.060 158.207  1.00  0.00    -0.000 C 
BRANCH  11  12
ATOM     12  C   UNL     1     205.630 204.051 156.760  1.00  0.00    -0.000 C 
BRANCH  12  13
ATOM     13  C   UNL     1     206.897 203.199 156.592  1.00  0.00    -0.003 C 
ATOM     14  C   UNL     1     206.550 201.775 156.166  1.00  0.00     0.004 C 
ENDBRANCH  12  13
ENDBRANCH  11  12
ENDBRANCH  10  11
ENDBRANCH   9  10
ENDBRANCH   1   9
TORSDOF 10
ENDMDL
MODEL 5
REMARK VINA RESULT:    -3.745      2.516      4.210
REMARK INTER + INTRA:          -7.651
REMARK INTER:                  -6.681
REMARK INTRA:                  -0.970
REMARK UNBOUND:                -1.716
REMARK SMILES CCCCCCCCCCCC(=O)[O-]
REMARK SMILES IDX 7 1 8 2 9 3 10 4 11 5 12 6 13 7 14 8 6 9 5 10 4 11 3 12 2 13
REMARK SMILES IDX 1 14
REMARK H PARENT
REMARK Flexibility Score: inf
ROOT
ATOM      1  C   UNL     1     205.294 208.038 156.491  1.00  0.00     0.000 C 
ENDROOT
BRANCH   1   2
ATOM      2  C   UNL     1     204.927 206.632 155.989  1.00  0.00     0.000 C 
BRANCH   2   3
ATOM      3  C   UNL     1     203.697 206.054 156.709  1.00  0.00     0.000 C 
BRANCH   3   4
ATOM      4  C   UNL     1     204.015 204.763 157.488  1.00  0.00     0.006 C 
BRANCH   4   5
ATOM      5  C   UNL     1     205.498 204.357 157.464  1.00  0.00     0.053 C 
BRANCH   5   6
ATOM      6  C   UNL     1     205.891 203.583 158.684  1.00  0.00     0.041 C 
ATOM      7  O   UNL     1     206.264 204.188 159.724  1.00  0.00    -0.550 OA
ATOM      8  O   UNL     1     205.880 202.194 158.663  1.00  0.00    -0.550 OA
ENDBRANCH   5   6
ENDBRANCH   4   5
ENDBRANCH   3   4
ENDBRANCH   2   3
ENDBRANCH   1   2
BRANCH   1   9
ATOM      9  C   UNL     1     206.172 208.008 157.755  1.00  0.00     0.000 C 
BRANCH   9  10
ATOM     10  C   UNL     1     207.634 208.386 157.466  1.00  0.00    -0.000 C 
BRANCH  10  11
ATOM     11  C   UNL     1     208.564 207.161 157.431  1.00  0.00    -0.000 C 
BRANCH  11  12
ATOM     12  C   UNL     1     208.618 206.500 156.045  1.00  0.00    -0.000 C 
BRANCH  12  13
ATOM     13  C   UNL     1     209.369 207.354 155.013  1.00  0.00    -0.003 C 
ATOM     14  C   UNL     1     210.866 207.382 155.307  1.00  0.00     0.004 C 
ENDBRANCH  12  13
ENDBRANCH  11  12
ENDBRANCH  10  11
ENDBRANCH   9  10
ENDBRANCH   1   9
TORSDOF 10
ENDMDL
MODEL 6
REMARK VINA RESULT:    -3.744      1.343      2.178
REMARK INTER + INTRA:          -7.649
REMARK INTER:                  -6.130
REMARK INTRA:                  -1.519
REMARK UNBOUND:                -1.716
REMARK SMILES CCCCCCCCCCCC(=O)[O-]
REMARK SMILES IDX 7 1 8 2 9 3 10 4 11 5 12 6 13 7 14 8 6 9 5 10 4 11 3 12 2 13
REMARK SMILES IDX 1 14
REMARK H PARENT
REMARK Flexibility Score: inf
ROOT
ATOM      1  C   UNL     1     208.200 205.604 159.317  1.00  0.00     0.000 C 
ENDROOT
BRANCH   1   2
ATOM      2  C   UNL     1     206.758 205.247 159.714  1.00  0.00     0.000 C 
BRANCH   2   3
ATOM      3  C   UNL     1     206.382 203.806 159.326  1.00  0.00     0.000 C 
BRANCH   3   4
ATOM      4  C   UNL     1     205.250 203.748 158.282  1.00  0.00     0.006 C 
BRANCH   4   5
ATOM      5  C   UNL     1     205.720 203.894 156.827  1.00  0.00     0.053 C 
BRANCH   5   6
ATOM      6  C   UNL     1     206.692 202.823 156.437  1.00  0.00     0.041 C 
ATOM      7  O   UNL     1     206.366 201.610 156.526  1.00  0.00    -0.550 OA
ATOM      8  O   UNL     1     207.970 203.163 156.012  1.00  0.00    -0.550 OA
ENDBRANCH   5   6
ENDBRANCH   4   5
ENDBRANCH   3   4
ENDBRANCH   2   3
ENDBRANCH   1   2
BRANCH   1   9
ATOM      9  C   UNL     1     208.300 206.182 157.895  1.00  0.00     0.000 C 
BRANCH   9  10
ATOM     10  C   UNL     1     208.496 207.707 157.892  1.00  0.00    -0.000 C 
BRANCH  10  11
ATOM     11  C   UNL     1     207.254 208.460 157.385  1.00  0.00    -0.000 C 
BRANCH  11  12
ATOM     12  C   UNL     1     206.232 207.530 156.713  1.00  0.00    -0.000 C 
BRANCH  12  13
ATOM     13  C   UNL     1     204.889 207.495 157.456  1.00  0.00    -0.003 C 
ATOM     14  C   UNL     1     204.961 208.281 158.762  1.00  0.00     0.004 C 
ENDBRANCH  12  13
ENDBRANCH  11  12
ENDBRANCH  10  11
ENDBRANCH   9  10
ENDBRANCH   1   9
TORSDOF 10
ENDMDL
MODEL 7
REMARK VINA RESULT:    -3.726      1.665      2.840
REMARK INTER + INTRA:          -7.620
REMARK INTER:                  -5.968
REMARK INTRA:                  -1.652
REMARK UNBOUND:                -1.716
REMARK SMILES CCCCCCCCCCCC(=O)[O-]
REMARK SMILES IDX 7 1 8 2 9 3 10 4 11 5 12 6 13 7 14 8 6 9 5 10 4 11 3 12 2 13
REMARK SMILES IDX 1 14
REMARK H PARENT
REMARK Flexibility Score: inf
ROOT
ATOM      1  C   UNL     1     208.423 207.619 156.134  1.00  0.00     0.000 C 
ENDROOT
BRANCH   1   2
ATOM      2  C   UNL     1     208.364 206.083 156.125  1.00  0.00     0.000 C 
BRANCH   2   3
ATOM      3  C   UNL     1     208.221 205.492 157.538  1.00  0.00     0.000 C 
BRANCH   3   4
ATOM      4  C   UNL     1     207.132 204.405 157.621  1.00  0.00     0.006 C 
BRANCH   4   5
ATOM      5  C   UNL     1     206.686 203.848 156.259  1.00  0.00     0.053 C 
BRANCH   5   6
ATOM      6  C   UNL     1     207.215 202.469 156.014  1.00  0.00     0.041 C 
ATOM      7  O   UNL     1     206.437 201.479 156.037  1.00  0.00    -0.550 OA
ATOM      8  O   UNL     1     208.573 202.271 155.795  1.00  0.00    -0.550 OA
ENDBRANCH   5   6
ENDBRANCH   4   5
ENDBRANCH   3   4
ENDBRANCH   2   3
ENDBRANCH   1   2
BRANCH   1   9
ATOM      9  C   UNL     1     208.054 208.221 157.501  1.00  0.00     0.000 C 
BRANCH   9  10
ATOM     10  C   UNL     1     207.134 209.447 157.376  1.00  0.00    -0.000 C 
BRANCH  10  11
ATOM     11  C   UNL     1     205.666 209.059 157.123  1.00  0.00    -0.000 C 
BRANCH  11  12
ATOM     12  C   UNL     1     205.234 207.826 157.931  1.00  0.00    -0.000 C 
BRANCH  12  13
ATOM     13  C   UNL     1     204.480 206.796 157.077  1.00  0.00    -0.003 C 
ATOM     14  C   UNL     1     204.721 207.034 155.589  1.00  0.00     0.004 C 
ENDBRANCH  12  13
ENDBRANCH  11  12
ENDBRANCH  10  11
ENDBRANCH   9  10
ENDBRANCH   1   9
TORSDOF 10
ENDMDL
MODEL 8
REMARK VINA RESULT:    -3.703      2.098      4.397
REMARK INTER + INTRA:          -7.584
REMARK INTER:                  -6.101
REMARK INTRA:                  -1.483
REMARK UNBOUND:                -1.716
REMARK SMILES CCCCCCCCCCCC(=O)[O-]
REMARK SMILES IDX 7 1 8 2 9 3 10 4 11 5 12 6 13 7 14 8 6 9 5 10 4 11 3 12 2 13
REMARK SMILES IDX 1 14
REMARK H PARENT
REMARK Flexibility Score: inf
ROOT
ATOM      1  C   UNL     1     204.725 206.777 155.710  1.00  0.00     0.000 C 
ENDROOT
BRANCH   1   2
ATOM      2  C   UNL     1     205.258 208.116 156.246  1.00  0.00     0.000 C 
BRANCH   2   3
ATOM      3  C   UNL     1     206.126 207.941 157.503  1.00  0.00     0.000 C 
BRANCH   3   4
ATOM      4  C   UNL     1     207.605 208.301 157.260  1.00  0.00     0.006 C 
BRANCH   4   5
ATOM      5  C   UNL     1     208.503 207.100 156.925  1.00  0.00     0.053 C 
BRANCH   5   6
ATOM      6  C   UNL     1     209.010 207.149 155.516  1.00  0.00     0.041 C 
ATOM      7  O   UNL     1     210.240 207.298 155.290  1.00  0.00    -0.550 OA
ATOM      8  O   UNL     1     208.119 207.068 154.453  1.00  0.00    -0.550 OA
ENDBRANCH   5   6
ENDBRANCH   4   5
ENDBRANCH   3   4
ENDBRANCH   2   3
ENDBRANCH   1   2
BRANCH   1   9
ATOM      9  C   UNL     1     203.708 206.119 156.659  1.00  0.00     0.000 C 
BRANCH   9  10
ATOM     10  C   UNL     1     204.241 204.819 157.282  1.00  0.00    -0.000 C 
BRANCH  10  11
ATOM     11  C   UNL     1     205.536 204.330 156.611  1.00  0.00    -0.000 C 
BRANCH  11  12
ATOM     12  C   UNL     1     206.596 203.883 157.628  1.00  0.00    -0.000 C 
BRANCH  12  13
ATOM     13  C   UNL     1     206.143 204.087 159.081  1.00  0.00    -0.003 C 
ATOM     14  C   UNL     1     207.039 205.091 159.801  1.00  0.00     0.004 C 
ENDBRANCH  12  13
ENDBRANCH  11  12
ENDBRANCH  10  11
ENDBRANCH   9  10
ENDBRANCH   1   9
TORSDOF 10
ENDMDL
MODEL 9
REMARK VINA RESULT:    -3.652      3.108      5.018
REMARK INTER + INTRA:          -7.504
REMARK INTER:                  -6.176
REMARK INTRA:                  -1.328
REMARK UNBOUND:                -1.716
REMARK SMILES CCCCCCCCCCCC(=O)[O-]
REMARK SMILES IDX 7 1 8 2 9 3 10 4 11 5 12 6 13 7 14 8 6 9 5 10 4 11 3 12 2 13
REMARK SMILES IDX 1 14
REMARK H PARENT
REMARK Flexibility Score: inf
ROOT
ATOM      1  C   UNL     1     208.221 205.719 157.439  1.00  0.00     0.000 C 
ENDROOT
BRANCH   1   2
ATOM      2  C   UNL     1     208.017 207.014 156.635  1.00  0.00     0.000 C 
BRANCH   2   3
ATOM      3  C   UNL     1     208.115 208.273 157.514  1.00  0.00     0.000 C 
BRANCH   3   4
ATOM      4  C   UNL     1     207.062 209.337 157.148  1.00  0.00     0.006 C 
BRANCH   4   5
ATOM      5  C   UNL     1     205.608 208.851 157.249  1.00  0.00     0.053 C 
BRANCH   5   6
ATOM      6  C   UNL     1     205.090 208.906 158.653  1.00  0.00     0.041 C 
ATOM      7  O   UNL     1     205.033 207.857 159.348  1.00  0.00    -0.550 OA
ATOM      8  O   UNL     1     204.637 210.108 159.182  1.00  0.00    -0.550 OA
ENDBRANCH   5   6
ENDBRANCH   4   5
ENDBRANCH   3   4
ENDBRANCH   2   3
ENDBRANCH   1   2
BRANCH   1   9
ATOM      9  C   UNL     1     207.982 205.911 158.947  1.00  0.00     0.000 C 
BRANCH   9  10
ATOM     10  C   UNL     1     206.990 204.886 159.521  1.00  0.00    -0.000 C 
BRANCH  10  11
ATOM     11  C   UNL     1     206.389 203.976 158.436  1.00  0.00    -0.000 C 
BRANCH  11  12
ATOM     12  C   UNL     1     204.880 204.195 158.250  1.00  0.00    -0.000 C 
BRANCH  12  13
ATOM     13  C   UNL     1     204.563 205.186 157.120  1.00  0.00    -0.003 C 
ATOM     14  C   UNL     1     203.089 205.582 157.133  1.00  0.00     0.004 C 
ENDBRANCH  12  13
ENDBRANCH  11  12
ENDBRANCH  10  11
ENDBRANCH   9  10
ENDBRANCH   1   9
TORSDOF 10
ENDMDL
