MODEL 1
REMARK VINA RESULT:    -3.342      0.000      0.000
REMARK INTER + INTRA:          -4.755
REMARK INTER:                  -4.514
REMARK INTRA:                  -0.241
REMARK UNBOUND:                -0.241
REMARK SMILES CCCCCCCC(=O)[O-]
REMARK SMILES IDX 5 1 6 2 7 3 8 4 9 5 10 6 4 7 3 8 2 9 1 10
REMARK H PARENT
REMARK Flexibility Score: inf
ROOT
ATOM      1  C   UNL     1      56.740  29.180  50.404  1.00  0.00     0.000 C 
ENDROOT
BRANCH   1   2
ATOM      2  C   UNL     1      58.220  29.024  50.785  1.00  0.00     0.006 C 
BRANCH   2   3
ATOM      3  C   UNL     1      59.129  28.922  49.553  1.00  0.00     0.053 C 
BRANCH   3   4
ATOM      4  C   UNL     1      59.913  27.646  49.544  1.00  0.00     0.041 C 
ATOM      5  O   UNL     1      59.318  26.537  49.526  1.00  0.00    -0.550 OA
ATOM      6  O   UNL     1      61.302  27.681  49.521  1.00  0.00    -0.550 OA
ENDBRANCH   3   4
ENDBRANCH   2   3
ENDBRANCH   1   2
BRANCH   1   7
ATOM      7  C   UNL     1      55.951  27.907  50.733  1.00  0.00     0.000 C 
BRANCH   7   8
ATOM      8  C   UNL     1      54.477  28.053  50.326  1.00  0.00    -0.000 C 
BRANCH   8   9
ATOM      9  C   UNL     1      53.827  26.708  49.968  1.00  0.00    -0.003 C 
ATOM     10  C   UNL     1      54.851  25.589  49.778  1.00  0.00     0.004 C 
ENDBRANCH   8   9
ENDBRANCH   7   8
ENDBRANCH   1   7
TORSDOF 6
ENDMDL
MODEL 2
REMARK VINA RESULT:    -3.342     12.380     14.143
REMARK INTER + INTRA:          -4.755
REMARK INTER:                  -4.495
REMARK INTRA:                  -0.259
REMARK UNBOUND:                -0.241
REMARK SMILES CCCCCCCC(=O)[O-]
REMARK SMILES IDX 5 1 6 2 7 3 8 4 9 5 10 6 4 7 3 8 2 9 1 10
REMARK H PARENT
REMARK Flexibility Score: inf
ROOT
ATOM      1  C   UNL     1      61.509  34.384  60.521  1.00  0.00     0.000 C 
ENDROOT
BRANCH   1   2
ATOM      2  C   UNL     1      61.936  32.908  60.496  1.00  0.00     0.006 C 
BRANCH   2   3
ATOM      3  C   UNL     1      60.789  31.979  60.076  1.00  0.00     0.053 C 
BRANCH   3   4
ATOM      4  C   UNL     1      60.608  30.847  61.041  1.00  0.00     0.041 C 
ATOM      5  O   UNL     1      59.665  30.028  60.885  1.00  0.00    -0.550 OA
ATOM      6  O   UNL     1      61.500  30.678  62.092  1.00  0.00    -0.550 OA
ENDBRANCH   3   4
ENDBRANCH   2   3
ENDBRANCH   1   2
BRANCH   1   7
ATOM      7  C   UNL     1      62.726  35.306  60.668  1.00  0.00     0.000 C 
BRANCH   7   8
ATOM      8  C   UNL     1      63.998  34.495  60.955  1.00  0.00    -0.000 C 
BRANCH   8   9
ATOM      9  C   UNL     1      65.061  35.311  61.707  1.00  0.00    -0.003 C 
ATOM     10  C   UNL     1      64.651  36.768  61.914  1.00  0.00     0.004 C 
ENDBRANCH   8   9
ENDBRANCH   7   8
ENDBRANCH   1   7
TORSDOF 6
ENDMDL
MODEL 3
REMARK VINA RESULT:    -3.305     11.702     13.319
REMARK INTER + INTRA:          -4.705
REMARK INTER:                  -4.351
REMARK INTRA:                  -0.354
REMARK UNBOUND:                -0.241
REMARK SMILES CCCCCCCC(=O)[O-]
REMARK SMILES IDX 5 1 6 2 7 3 8 4 9 5 10 6 4 7 3 8 2 9 1 10
REMARK H PARENT
REMARK Flexibility Score: inf
ROOT
ATOM      1  C   UNL     1      61.061  32.074  59.626  1.00  0.00     0.000 C 
ENDROOT
BRANCH   1   2
ATOM      2  C   UNL     1      60.445  30.963  60.491  1.00  0.00     0.006 C 
BRANCH   2   3
ATOM      3  C   UNL     1      61.197  30.774  61.814  1.00  0.00     0.053 C 
BRANCH   3   4
ATOM      4  C   UNL     1      62.387  29.876  61.654  1.00  0.00     0.041 C 
ATOM      5  O   UNL     1      63.541  30.368  61.552  1.00  0.00    -0.550 OA
ATOM      6  O   UNL     1      62.224  28.497  61.653  1.00  0.00    -0.550 OA
ENDBRANCH   3   4
ENDBRANCH   2   3
ENDBRANCH   1   2
BRANCH   1   7
ATOM      7  C   UNL     1      61.405  33.304  60.473  1.00  0.00     0.000 C 
BRANCH   7   8
ATOM      8  C   UNL     1      62.875  33.706  60.289  1.00  0.00    -0.000 C 
BRANCH   8   9
ATOM      9  C   UNL     1      63.202  35.064  60.929  1.00  0.00    -0.003 C 
ATOM     10  C   UNL     1      62.020  36.033  60.897  1.00  0.00     0.004 C 
ENDBRANCH   8   9
ENDBRANCH   7   8
ENDBRANCH   1   7
TORSDOF 6
ENDMDL
MODEL 4
REMARK VINA RESULT:    -3.236     13.372     14.361
REMARK INTER + INTRA:          -4.612
REMARK INTER:                  -4.288
REMARK INTRA:                  -0.324
REMARK UNBOUND:                -0.241
REMARK SMILES CCCCCCCC(=O)[O-]
REMARK SMILES IDX 5 1 6 2 7 3 8 4 9 5 10 6 4 7 3 8 2 9 1 10
REMARK H PARENT
REMARK Flexibility Score: inf
ROOT
ATOM      1  C   UNL     1      61.753  34.185  60.473  1.00  0.00     0.000 C 
ENDROOT
BRANCH   1   2
ATOM      2  C   UNL     1      62.766  35.291  60.807  1.00  0.00     0.006 C 
BRANCH   2   3
ATOM      3  C   UNL     1      64.139  34.723  61.190  1.00  0.00     0.053 C 
BRANCH   3   4
ATOM      4  C   UNL     1      65.118  35.808  61.518  1.00  0.00     0.041 C 
ATOM      5  O   UNL     1      66.243  35.837  60.953  1.00  0.00    -0.550 OA
ATOM      6  O   UNL     1      64.776  36.807  62.421  1.00  0.00    -0.550 OA
ENDBRANCH   3   4
ENDBRANCH   2   3
ENDBRANCH   1   2
BRANCH   1   7
ATOM      7  C   UNL     1      62.438  32.816  60.396  1.00  0.00     0.000 C 
BRANCH   7   8
ATOM      8  C   UNL     1      61.545  31.719  60.996  1.00  0.00    -0.000 C 
BRANCH   8   9
ATOM      9  C   UNL     1      62.340  30.473  61.413  1.00  0.00    -0.003 C 
ATOM     10  C   UNL     1      63.849  30.650  61.247  1.00  0.00     0.004 C 
ENDBRANCH   8   9
ENDBRANCH   7   8
ENDBRANCH   1   7
TORSDOF 6
ENDMDL
MODEL 5
REMARK VINA RESULT:    -3.205      2.931      4.769
REMARK INTER + INTRA:          -4.570
REMARK INTER:                  -4.125
REMARK INTRA:                  -0.445
REMARK UNBOUND:                -0.241
REMARK SMILES CCCCCCCC(=O)[O-]
REMARK SMILES IDX 5 1 6 2 7 3 8 4 9 5 10 6 4 7 3 8 2 9 1 10
REMARK H PARENT
REMARK Flexibility Score: inf
ROOT
ATOM      1  C   UNL     1      57.669  28.680  51.082  1.00  0.00     0.000 C 
ENDROOT
BRANCH   1   2
ATOM      2  C   UNL     1      56.221  28.337  50.697  1.00  0.00     0.006 C 
BRANCH   2   3
ATOM      3  C   UNL     1      55.999  26.824  50.564  1.00  0.00     0.053 C 
BRANCH   3   4
ATOM      4  C   UNL     1      54.672  26.509  49.944  1.00  0.00     0.041 C 
ATOM      5  O   UNL     1      53.775  27.390  49.888  1.00  0.00    -0.550 OA
ATOM      6  O   UNL     1      54.439  25.254  49.398  1.00  0.00    -0.550 OA
ENDBRANCH   3   4
ENDBRANCH   2   3
ENDBRANCH   1   2
BRANCH   1   7
ATOM      7  C   UNL     1      58.436  29.253  49.884  1.00  0.00     0.000 C 
BRANCH   7   8
ATOM      8  C   UNL     1      59.334  28.184  49.244  1.00  0.00    -0.000 C 
BRANCH   8   9
ATOM      9  C   UNL     1      59.879  27.179  50.269  1.00  0.00    -0.003 C 
ATOM     10  C   UNL     1      59.558  25.730  49.905  1.00  0.00     0.004 C 
ENDBRANCH   8   9
ENDBRANCH   7   8
ENDBRANCH   1   7
TORSDOF 6
ENDMDL
MODEL 6
REMARK VINA RESULT:    -3.181     12.594     13.448
REMARK INTER + INTRA:          -4.538
REMARK INTER:                  -4.175
REMARK INTRA:                  -0.363
REMARK UNBOUND:                -0.241
REMARK SMILES CCCCCCCC(=O)[O-]
REMARK SMILES IDX 5 1 6 2 7 3 8 4 9 5 10 6 4 7 3 8 2 9 1 10
REMARK H PARENT
REMARK Flexibility Score: inf
ROOT
ATOM      1  C   UNL     1      61.103  31.743  60.290  1.00  0.00     0.000 C 
ENDROOT
BRANCH   1   2
ATOM      2  C   UNL     1      61.375  33.243  60.477  1.00  0.00     0.006 C 
BRANCH   2   3
ATOM      3  C   UNL     1      62.806  33.627  60.080  1.00  0.00     0.053 C 
BRANCH   3   4
ATOM      4  C   UNL     1      63.349  34.724  60.944  1.00  0.00     0.041 C 
ATOM      5  O   UNL     1      62.639  35.729  61.211  1.00  0.00    -0.550 OA
ATOM      6  O   UNL     1      64.624  34.620  61.484  1.00  0.00    -0.550 OA
ENDBRANCH   3   4
ENDBRANCH   2   3
ENDBRANCH   1   2
BRANCH   1   7
ATOM      7  C   UNL     1      61.043  31.022  61.642  1.00  0.00     0.000 C 
BRANCH   7   8
ATOM      8  C   UNL     1      62.050  29.863  61.693  1.00  0.00    -0.000 C 
BRANCH   8   9
ATOM      9  C   UNL     1      63.486  30.314  61.389  1.00  0.00    -0.003 C 
ATOM     10  C   UNL     1      64.089  29.592  60.184  1.00  0.00     0.004 C 
ENDBRANCH   8   9
ENDBRANCH   7   8
ENDBRANCH   1   7
TORSDOF 6
ENDMDL
MODEL 7
REMARK VINA RESULT:    -3.116     12.363     13.660
REMARK INTER + INTRA:          -4.450
REMARK INTER:                  -4.097
REMARK INTRA:                  -0.353
REMARK UNBOUND:                -0.241
REMARK SMILES CCCCCCCC(=O)[O-]
REMARK SMILES IDX 5 1 6 2 7 3 8 4 9 5 10 6 4 7 3 8 2 9 1 10
REMARK H PARENT
REMARK Flexibility Score: inf
ROOT
ATOM      1  C   UNL     1      64.383  31.239  60.963  1.00  0.00     0.000 C 
ENDROOT
BRANCH   1   2
ATOM      2  C   UNL     1      63.280  30.224  60.627  1.00  0.00     0.006 C 
BRANCH   2   3
ATOM      3  C   UNL     1      62.195  30.166  61.710  1.00  0.00     0.053 C 
BRANCH   3   4
ATOM      4  C   UNL     1      60.917  30.801  61.253  1.00  0.00     0.041 C 
ATOM      5  O   UNL     1      60.876  32.037  61.013  1.00  0.00    -0.550 OA
ATOM      6  O   UNL     1      59.783  30.024  61.059  1.00  0.00    -0.550 OA
ENDBRANCH   3   4
ENDBRANCH   2   3
ENDBRANCH   1   2
BRANCH   1   7
ATOM      7  C   UNL     1      64.304  32.463  60.042  1.00  0.00     0.000 C 
BRANCH   7   8
ATOM      8  C   UNL     1      64.036  33.742  60.848  1.00  0.00    -0.000 C 
BRANCH   8   9
ATOM      9  C   UNL     1      62.999  34.657  60.177  1.00  0.00    -0.003 C 
ATOM     10  C   UNL     1      62.606  35.846  61.052  1.00  0.00     0.004 C 
ENDBRANCH   8   9
ENDBRANCH   7   8
ENDBRANCH   1   7
TORSDOF 6
ENDMDL
MODEL 8
REMARK VINA RESULT:    -3.115     12.072     13.445
REMARK INTER + INTRA:          -4.449
REMARK INTER:                  -4.023
REMARK INTRA:                  -0.426
REMARK UNBOUND:                -0.241
REMARK SMILES CCCCCCCC(=O)[O-]
REMARK SMILES IDX 5 1 6 2 7 3 8 4 9 5 10 6 4 7 3 8 2 9 1 10
REMARK H PARENT
REMARK Flexibility Score: inf
ROOT
ATOM      1  C   UNL     1      64.149  31.775  60.853  1.00  0.00     0.000 C 
ENDROOT
BRANCH   1   2
ATOM      2  C   UNL     1      63.629  32.974  60.045  1.00  0.00     0.006 C 
BRANCH   2   3
ATOM      3  C   UNL     1      63.733  34.290  60.827  1.00  0.00     0.053 C 
BRANCH   3   4
ATOM      4  C   UNL     1      62.438  35.043  60.823  1.00  0.00     0.041 C 
ATOM      5  O   UNL     1      62.403  36.243  61.201  1.00  0.00    -0.550 OA
ATOM      6  O   UNL     1      61.277  34.430  60.370  1.00  0.00    -0.550 OA
ENDBRANCH   3   4
ENDBRANCH   2   3
ENDBRANCH   1   2
BRANCH   1   7
ATOM      7  C   UNL     1      63.390  30.494  60.486  1.00  0.00     0.000 C 
BRANCH   7   8
ATOM      8  C   UNL     1      62.511  30.021  61.652  1.00  0.00    -0.000 C 
BRANCH   8   9
ATOM      9  C   UNL     1      61.199  30.814  61.762  1.00  0.00    -0.003 C 
ATOM     10  C   UNL     1      60.472  30.941  60.424  1.00  0.00     0.004 C 
ENDBRANCH   8   9
ENDBRANCH   7   8
ENDBRANCH   1   7
TORSDOF 6
ENDMDL
MODEL 9
REMARK VINA RESULT:    -3.072     13.021     14.405
REMARK INTER + INTRA:          -4.391
REMARK INTER:                  -3.993
REMARK INTRA:                  -0.398
REMARK UNBOUND:                -0.241
REMARK SMILES CCCCCCCC(=O)[O-]
REMARK SMILES IDX 5 1 6 2 7 3 8 4 9 5 10 6 4 7 3 8 2 9 1 10
REMARK H PARENT
REMARK Flexibility Score: inf
ROOT
ATOM      1  C   UNL     1      62.416  34.262  59.833  1.00  0.00     0.000 C 
ENDROOT
BRANCH   1   2
ATOM      2  C   UNL     1      62.650  32.901  60.508  1.00  0.00     0.006 C 
BRANCH   2   3
ATOM      3  C   UNL     1      64.139  32.546  60.598  1.00  0.00     0.053 C 
BRANCH   3   4
ATOM      4  C   UNL     1      64.349  31.080  60.827  1.00  0.00     0.041 C 
ATOM      5  O   UNL     1      65.324  30.489  60.293  1.00  0.00    -0.550 OA
ATOM      6  O   UNL     1      63.488  30.374  61.658  1.00  0.00    -0.550 OA
ENDBRANCH   3   4
ENDBRANCH   2   3
ENDBRANCH   1   2
BRANCH   1   7
ATOM      7  C   UNL     1      62.219  35.367  60.878  1.00  0.00     0.000 C 
BRANCH   7   8
ATOM      8  C   UNL     1      63.193  36.530  60.639  1.00  0.00    -0.000 C 
BRANCH   8   9
ATOM      9  C   UNL     1      64.259  36.644  61.740  1.00  0.00    -0.003 C 
ATOM     10  C   UNL     1      65.522  35.843  61.425  1.00  0.00     0.004 C 
ENDBRANCH   8   9
ENDBRANCH   7   8
ENDBRANCH   1   7
TORSDOF 6
ENDMDL
