MODEL 1
REMARK VINA RESULT:    -3.780      0.000      0.000
REMARK INTER + INTRA:         -15.170
REMARK INTER:                  -9.968
REMARK INTRA:                  -5.202
REMARK UNBOUND:                -5.202
REMARK SMILES CCCCCCCCCCCCCCCCCCCCCCCCCCCCCC(=O)[O-]
REMARK SMILES IDX 16 1 17 2 18 3 19 4 20 5 21 6 22 7 23 8 24 9 25 10 26 11
REMARK SMILES IDX 27 12 28 13 29 14 30 15 31 16 32 17 15 18 14 19 13 20 12 21
REMARK SMILES IDX 11 22 10 23 9 24 8 25 7 26 6 27 5 28 4 29 3 30 2 31 1 32
REMARK H PARENT
REMARK Flexibility Score: inf
ROOT
ATOM      1  C   UNL     1      24.100  -4.406  -9.862  1.00  0.00     0.000 C 
ENDROOT
BRANCH   1   2
ATOM      2  C   UNL     1      25.235  -3.855  -8.980  1.00  0.00     0.000 C 
BRANCH   2   3
ATOM      3  C   UNL     1      24.849  -2.663  -8.086  1.00  0.00     0.000 C 
BRANCH   3   4
ATOM      4  C   UNL     1      24.390  -1.434  -8.889  1.00  0.00     0.000 C 
BRANCH   4   5
ATOM      5  C   UNL     1      25.563  -0.585  -9.398  1.00  0.00     0.000 C 
BRANCH   5   6
ATOM      6  C   UNL     1      25.677  -0.586 -10.930  1.00  0.00     0.000 C 
BRANCH   6   7
ATOM      7  C   UNL     1      24.447  -1.240 -11.572  1.00  0.00     0.000 C 
BRANCH   7   8
ATOM      8  C   UNL     1      23.980  -0.452 -12.804  1.00  0.00     0.000 C 
BRANCH   8   9
ATOM      9  C   UNL     1      24.620   0.946 -12.898  1.00  0.00     0.000 C 
BRANCH   9  10
ATOM     10  C   UNL     1      25.166   1.315 -14.289  1.00  0.00     0.000 C 
BRANCH  10  11
ATOM     11  C   UNL     1      25.424   0.085 -15.175  1.00  0.00     0.000 C 
BRANCH  11  12
ATOM     12  C   UNL     1      26.867   0.026 -15.701  1.00  0.00     0.000 C 
BRANCH  12  13
ATOM     13  C   UNL     1      27.557  -1.311 -15.376  1.00  0.00     0.006 C 
BRANCH  13  14
ATOM     14  C   UNL     1      27.329  -1.740 -13.920  1.00  0.00     0.053 C 
BRANCH  14  15
ATOM     15  C   UNL     1      27.075  -3.212 -13.800  1.00  0.00     0.041 C 
ATOM     16  O   UNL     1      26.733  -3.711 -12.696  1.00  0.00    -0.550 OA
ATOM     17  O   UNL     1      27.229  -4.036 -14.908  1.00  0.00    -0.550 OA
ENDBRANCH  14  15
ENDBRANCH  13  14
ENDBRANCH  12  13
ENDBRANCH  11  12
ENDBRANCH  10  11
ENDBRANCH   9  10
ENDBRANCH   8   9
ENDBRANCH   7   8
ENDBRANCH   6   7
ENDBRANCH   5   6
ENDBRANCH   4   5
ENDBRANCH   3   4
ENDBRANCH   2   3
ENDBRANCH   1   2
BRANCH   1  18
ATOM     18  C   UNL     1      23.282  -5.508  -9.169  1.00  0.00     0.000 C 
BRANCH  18  19
ATOM     19  C   UNL     1      23.432  -6.879  -9.855  1.00  0.00     0.000 C 
BRANCH  19  20
ATOM     20  C   UNL     1      24.646  -7.712  -9.396  1.00  0.00     0.000 C 
BRANCH  20  21
ATOM     21  C   UNL     1      25.671  -8.038 -10.500  1.00  0.00     0.000 C 
BRANCH  21  22
ATOM     22  C   UNL     1      26.458  -6.825 -11.034  1.00  0.00     0.000 C 
BRANCH  22  23
ATOM     23  C   UNL     1      27.654  -6.395 -10.159  1.00  0.00     0.000 C 
BRANCH  23  24
ATOM     24  C   UNL     1      28.268  -7.517  -9.298  1.00  0.00    -0.000 C 
BRANCH  24  25
ATOM     25  C   UNL     1      28.499  -7.154  -7.820  1.00  0.00    -0.000 C 
BRANCH  25  26
ATOM     26  C   UNL     1      27.372  -6.287  -7.238  1.00  0.00    -0.000 C 
BRANCH  26  27
ATOM     27  C   UNL     1      27.921  -4.962  -6.690  1.00  0.00    -0.000 C 
BRANCH  27  28
ATOM     28  C   UNL     1      29.435  -4.800  -6.945  1.00  0.00    -0.000 C 
BRANCH  28  29
ATOM     29  C   UNL     1      29.793  -3.591  -7.831  1.00  0.00    -0.000 C 
BRANCH  29  30
ATOM     30  C   UNL     1      28.615  -2.661  -8.180  1.00  0.00    -0.000 C 
BRANCH  30  31
ATOM     31  C   UNL     1      28.678  -1.265  -7.532  1.00  0.00    -0.003 C 
ATOM     32  C   UNL     1      28.629  -1.316  -6.005  1.00  0.00     0.004 C 
ENDBRANCH  30  31
ENDBRANCH  29  30
ENDBRANCH  28  29
ENDBRANCH  27  28
ENDBRANCH  26  27
ENDBRANCH  25  26
ENDBRANCH  24  25
ENDBRANCH  23  24
ENDBRANCH  22  23
ENDBRANCH  21  22
ENDBRANCH  20  21
ENDBRANCH  19  20
ENDBRANCH  18  19
ENDBRANCH   1  18
TORSDOF 28
ENDMDL
MODEL 2
REMARK VINA RESULT:    -3.769      2.278      7.143
REMARK INTER + INTRA:         -15.140
REMARK INTER:                  -9.452
REMARK INTRA:                  -5.688
REMARK UNBOUND:                -5.202
REMARK SMILES CCCCCCCCCCCCCCCCCCCCCCCCCCCCCC(=O)[O-]
REMARK SMILES IDX 16 1 17 2 18 3 19 4 20 5 21 6 22 7 23 8 24 9 25 10 26 11
REMARK SMILES IDX 27 12 28 13 29 14 30 15 31 16 32 17 15 18 14 19 13 20 12 21
REMARK SMILES IDX 11 22 10 23 9 24 8 25 7 26 6 27 5 28 4 29 3 30 2 31 1 32
REMARK H PARENT
REMARK Flexibility Score: inf
ROOT
ATOM      1  C   UNL     1      27.885  -2.144 -12.472  1.00  0.00     0.000 C 
ENDROOT
BRANCH   1   2
ATOM      2  C   UNL     1      29.186  -2.630 -11.808  1.00  0.00     0.000 C 
BRANCH   2   3
ATOM      3  C   UNL     1      29.484  -4.131 -11.974  1.00  0.00     0.000 C 
BRANCH   3   4
ATOM      4  C   UNL     1      29.341  -4.921 -10.662  1.00  0.00     0.000 C 
BRANCH   4   5
ATOM      5  C   UNL     1      28.026  -5.709 -10.583  1.00  0.00     0.000 C 
BRANCH   5   6
ATOM      6  C   UNL     1      27.377  -5.924 -11.959  1.00  0.00     0.000 C 
BRANCH   6   7
ATOM      7  C   UNL     1      25.917  -5.456 -11.956  1.00  0.00     0.000 C 
BRANCH   7   8
ATOM      8  C   UNL     1      25.662  -4.447 -10.825  1.00  0.00     0.000 C 
BRANCH   8   9
ATOM      9  C   UNL     1      24.209  -4.477 -10.314  1.00  0.00     0.000 C 
BRANCH   9  10
ATOM     10  C   UNL     1      24.024  -5.126  -8.931  1.00  0.00     0.000 C 
BRANCH  10  11
ATOM     11  C   UNL     1      25.352  -5.313  -8.177  1.00  0.00     0.000 C 
BRANCH  11  12
ATOM     12  C   UNL     1      25.698  -6.793  -7.946  1.00  0.00     0.000 C 
BRANCH  12  13
ATOM     13  C   UNL     1      27.049  -6.975  -7.231  1.00  0.00     0.006 C 
BRANCH  13  14
ATOM     14  C   UNL     1      27.668  -5.634  -6.813  1.00  0.00     0.053 C 
BRANCH  14  15
ATOM     15  C   UNL     1      29.156  -5.623  -6.984  1.00  0.00     0.041 C 
ATOM     16  O   UNL     1      29.825  -4.603  -6.673  1.00  0.00    -0.550 OA
ATOM     17  O   UNL     1      29.805  -6.738  -7.503  1.00  0.00    -0.550 OA
ENDBRANCH  14  15
ENDBRANCH  13  14
ENDBRANCH  12  13
ENDBRANCH  11  12
ENDBRANCH  10  11
ENDBRANCH   9  10
ENDBRANCH   8   9
ENDBRANCH   7   8
ENDBRANCH   6   7
ENDBRANCH   5   6
ENDBRANCH   4   5
ENDBRANCH   3   4
ENDBRANCH   2   3
ENDBRANCH   1   2
BRANCH   1  18
ATOM     18  C   UNL     1      27.997  -2.031 -14.001  1.00  0.00     0.000 C 
BRANCH  18  19
ATOM     19  C   UNL     1      26.705  -2.458 -14.724  1.00  0.00     0.000 C 
BRANCH  19  20
ATOM     20  C   UNL     1      26.386  -1.674 -16.012  1.00  0.00     0.000 C 
BRANCH  20  21
ATOM     21  C   UNL     1      25.268  -0.620 -15.878  1.00  0.00     0.000 C 
BRANCH  21  22
ATOM     22  C   UNL     1      25.737   0.765 -15.392  1.00  0.00     0.000 C 
BRANCH  22  23
ATOM     23  C   UNL     1      24.960   1.320 -14.181  1.00  0.00     0.000 C 
BRANCH  23  24
ATOM     24  C   UNL     1      25.152   0.535 -12.867  1.00  0.00    -0.000 C 
BRANCH  24  25
ATOM     25  C   UNL     1      24.028  -0.462 -12.533  1.00  0.00    -0.000 C 
BRANCH  25  26
ATOM     26  C   UNL     1      24.183  -1.088 -11.140  1.00  0.00    -0.000 C 
BRANCH  26  27
ATOM     27  C   UNL     1      25.487  -0.632 -10.470  1.00  0.00    -0.000 C 
BRANCH  27  28
ATOM     28  C   UNL     1      25.370  -0.568  -8.932  1.00  0.00    -0.000 C 
BRANCH  28  29
ATOM     29  C   UNL     1      25.944  -1.803  -8.211  1.00  0.00    -0.000 C 
BRANCH  29  30
ATOM     30  C   UNL     1      27.475  -1.959  -8.292  1.00  0.00    -0.000 C 
BRANCH  30  31
ATOM     31  C   UNL     1      28.275  -0.916  -7.490  1.00  0.00    -0.003 C 
ATOM     32  C   UNL     1      28.676  -1.413  -6.101  1.00  0.00     0.004 C 
ENDBRANCH  30  31
ENDBRANCH  29  30
ENDBRANCH  28  29
ENDBRANCH  27  28
ENDBRANCH  26  27
ENDBRANCH  25  26
ENDBRANCH  24  25
ENDBRANCH  23  24
ENDBRANCH  22  23
ENDBRANCH  21  22
ENDBRANCH  20  21
ENDBRANCH  19  20
ENDBRANCH  18  19
ENDBRANCH   1  18
TORSDOF 28
ENDMDL
MODEL 3
REMARK VINA RESULT:    -3.728      1.871      5.114
REMARK INTER + INTRA:         -15.031
REMARK INTER:                  -8.904
REMARK INTRA:                  -6.127
REMARK UNBOUND:                -5.202
REMARK SMILES CCCCCCCCCCCCCCCCCCCCCCCCCCCCCC(=O)[O-]
REMARK SMILES IDX 16 1 17 2 18 3 19 4 20 5 21 6 22 7 23 8 24 9 25 10 26 11
REMARK SMILES IDX 27 12 28 13 29 14 30 15 31 16 32 17 15 18 14 19 13 20 12 21
REMARK SMILES IDX 11 22 10 23 9 24 8 25 7 26 6 27 5 28 4 29 3 30 2 31 1 32
REMARK H PARENT
REMARK Flexibility Score: inf
ROOT
ATOM      1  C   UNL     1      27.410  -1.002  -8.363  1.00  0.00     0.000 C 
ENDROOT
BRANCH   1   2
ATOM      2  C   UNL     1      25.947  -0.541  -8.496  1.00  0.00     0.000 C 
BRANCH   2   3
ATOM      3  C   UNL     1      25.349  -0.663  -9.909  1.00  0.00     0.000 C 
BRANCH   3   4
ATOM      4  C   UNL     1      26.299  -1.347 -10.907  1.00  0.00     0.000 C 
BRANCH   4   5
ATOM      5  C   UNL     1      25.634  -2.509 -11.660  1.00  0.00     0.000 C 
BRANCH   5   6
ATOM      6  C   UNL     1      26.540  -3.745 -11.765  1.00  0.00     0.000 C 
BRANCH   6   7
ATOM      7  C   UNL     1      27.914  -3.474 -11.141  1.00  0.00     0.000 C 
BRANCH   7   8
ATOM      8  C   UNL     1      29.036  -3.643 -12.176  1.00  0.00     0.000 C 
BRANCH   8   9
ATOM      9  C   UNL     1      28.911  -2.664 -13.358  1.00  0.00     0.000 C 
BRANCH   9  10
ATOM     10  C   UNL     1      28.670  -3.330 -14.726  1.00  0.00     0.000 C 
BRANCH  10  11
ATOM     11  C   UNL     1      27.524  -2.674 -15.514  1.00  0.00     0.000 C 
BRANCH  11  12
ATOM     12  C   UNL     1      26.995  -1.398 -14.839  1.00  0.00     0.000 C 
BRANCH  12  13
ATOM     13  C   UNL     1      25.561  -1.052 -15.278  1.00  0.00     0.006 C 
BRANCH  13  14
ATOM     14  C   UNL     1      25.308   0.461 -15.290  1.00  0.00     0.053 C 
BRANCH  14  15
ATOM     15  C   UNL     1      24.886   0.972 -13.946  1.00  0.00     0.041 C 
ATOM     16  O   UNL     1      24.167   0.264 -13.193  1.00  0.00    -0.550 OA
ATOM     17  O   UNL     1      25.277   2.239 -13.529  1.00  0.00    -0.550 OA
ENDBRANCH  14  15
ENDBRANCH  13  14
ENDBRANCH  12  13
ENDBRANCH  11  12
ENDBRANCH  10  11
ENDBRANCH   9  10
ENDBRANCH   8   9
ENDBRANCH   7   8
ENDBRANCH   6   7
ENDBRANCH   5   6
ENDBRANCH   4   5
ENDBRANCH   3   4
ENDBRANCH   2   3
ENDBRANCH   1   2
BRANCH   1  18
ATOM     18  C   UNL     1      27.930  -0.940  -6.917  1.00  0.00     0.000 C 
BRANCH  18  19
ATOM     19  C   UNL     1      28.870  -2.111  -6.573  1.00  0.00     0.000 C 
BRANCH  19  20
ATOM     20  C   UNL     1      28.637  -3.398  -7.388  1.00  0.00     0.000 C 
BRANCH  20  21
ATOM     21  C   UNL     1      28.001  -4.564  -6.604  1.00  0.00     0.000 C 
BRANCH  21  22
ATOM     22  C   UNL     1      26.484  -4.736  -6.814  1.00  0.00     0.000 C 
BRANCH  22  23
ATOM     23  C   UNL     1      25.969  -4.286  -8.197  1.00  0.00     0.000 C 
BRANCH  23  24
ATOM     24  C   UNL     1      24.459  -3.975  -8.260  1.00  0.00    -0.000 C 
BRANCH  24  25
ATOM     25  C   UNL     1      23.724  -4.556  -9.482  1.00  0.00    -0.000 C 
BRANCH  25  26
ATOM     26  C   UNL     1      22.957  -5.845  -9.156  1.00  0.00    -0.000 C 
BRANCH  26  27
ATOM     27  C   UNL     1      23.348  -6.979 -10.116  1.00  0.00    -0.000 C 
BRANCH  27  28
ATOM     28  C   UNL     1      24.823  -7.404  -9.956  1.00  0.00    -0.000 C 
BRANCH  28  29
ATOM     29  C   UNL     1      25.656  -7.261 -11.245  1.00  0.00    -0.000 C 
BRANCH  29  30
ATOM     30  C   UNL     1      27.184  -7.303 -11.047  1.00  0.00    -0.000 C 
BRANCH  30  31
ATOM     31  C   UNL     1      27.663  -6.937  -9.630  1.00  0.00    -0.003 C 
ATOM     32  C   UNL     1      29.163  -6.649  -9.565  1.00  0.00     0.004 C 
ENDBRANCH  30  31
ENDBRANCH  29  30
ENDBRANCH  28  29
ENDBRANCH  27  28
ENDBRANCH  26  27
ENDBRANCH  25  26
ENDBRANCH  24  25
ENDBRANCH  23  24
ENDBRANCH  22  23
ENDBRANCH  21  22
ENDBRANCH  20  21
ENDBRANCH  19  20
ENDBRANCH  18  19
ENDBRANCH   1  18
TORSDOF 28
ENDMDL
MODEL 4
REMARK VINA RESULT:    -3.705      1.635      5.980
REMARK INTER + INTRA:         -14.970
REMARK INTER:                  -9.850
REMARK INTRA:                  -5.120
REMARK UNBOUND:                -5.202
REMARK SMILES CCCCCCCCCCCCCCCCCCCCCCCCCCCCCC(=O)[O-]
REMARK SMILES IDX 16 1 17 2 18 3 19 4 20 5 21 6 22 7 23 8 24 9 25 10 26 11
REMARK SMILES IDX 27 12 28 13 29 14 30 15 31 16 32 17 15 18 14 19 13 20 12 21
REMARK SMILES IDX 11 22 10 23 9 24 8 25 7 26 6 27 5 28 4 29 3 30 2 31 1 32
REMARK H PARENT
REMARK Flexibility Score: inf
ROOT
ATOM      1  C   UNL     1      29.939  -3.028  -7.512  1.00  0.00     0.000 C 
ENDROOT
BRANCH   1   2
ATOM      2  C   UNL     1      30.000  -1.796  -6.590  1.00  0.00     0.000 C 
BRANCH   2   3
ATOM      3  C   UNL     1      28.640  -1.156  -6.262  1.00  0.00     0.000 C 
BRANCH   3   4
ATOM      4  C   UNL     1      27.915  -0.614  -7.506  1.00  0.00     0.000 C 
BRANCH   4   5
ATOM      5  C   UNL     1      26.694  -1.457  -7.898  1.00  0.00     0.000 C 
BRANCH   5   6
ATOM      6  C   UNL     1      25.731  -0.713  -8.835  1.00  0.00     0.000 C 
BRANCH   6   7
ATOM      7  C   UNL     1      24.456  -1.530  -9.074  1.00  0.00     0.000 C 
BRANCH   7   8
ATOM      8  C   UNL     1      24.655  -2.998  -8.666  1.00  0.00     0.000 C 
BRANCH   8   9
ATOM      9  C   UNL     1      23.930  -3.982  -9.602  1.00  0.00     0.000 C 
BRANCH   9  10
ATOM     10  C   UNL     1      23.476  -5.294  -8.935  1.00  0.00     0.000 C 
BRANCH  10  11
ATOM     11  C   UNL     1      24.384  -6.485  -9.284  1.00  0.00     0.000 C 
BRANCH  11  12
ATOM     12  C   UNL     1      23.662  -7.554 -10.120  1.00  0.00     0.000 C 
BRANCH  12  13
ATOM     13  C   UNL     1      24.468  -7.971 -11.363  1.00  0.00     0.006 C 
BRANCH  13  14
ATOM     14  C   UNL     1      25.433  -6.870 -11.823  1.00  0.00     0.053 C 
BRANCH  14  15
ATOM     15  C   UNL     1      26.147  -7.240 -13.088  1.00  0.00     0.041 C 
ATOM     16  O   UNL     1      27.313  -7.712 -13.046  1.00  0.00    -0.550 OA
ATOM     17  O   UNL     1      25.527  -7.048 -14.317  1.00  0.00    -0.550 OA
ENDBRANCH  14  15
ENDBRANCH  13  14
ENDBRANCH  12  13
ENDBRANCH  11  12
ENDBRANCH  10  11
ENDBRANCH   9  10
ENDBRANCH   8   9
ENDBRANCH   7   8
ENDBRANCH   6   7
ENDBRANCH   5   6
ENDBRANCH   4   5
ENDBRANCH   3   4
ENDBRANCH   2   3
ENDBRANCH   1   2
BRANCH   1  18
ATOM     18  C   UNL     1      29.636  -4.331  -6.754  1.00  0.00     0.000 C 
BRANCH  18  19
ATOM     19  C   UNL     1      28.126  -4.566  -6.558  1.00  0.00     0.000 C 
BRANCH  19  20
ATOM     20  C   UNL     1      27.418  -5.280  -7.726  1.00  0.00     0.000 C 
BRANCH  20  21
ATOM     21  C   UNL     1      28.274  -6.324  -8.472  1.00  0.00     0.000 C 
BRANCH  21  22
ATOM     22  C   UNL     1      28.405  -6.091  -9.990  1.00  0.00     0.000 C 
BRANCH  22  23
ATOM     23  C   UNL     1      29.575  -5.175 -10.403  1.00  0.00     0.000 C 
BRANCH  23  24
ATOM     24  C   UNL     1      29.164  -3.884 -11.140  1.00  0.00    -0.000 C 
BRANCH  24  25
ATOM     25  C   UNL     1      27.796  -3.308 -10.733  1.00  0.00    -0.000 C 
BRANCH  25  26
ATOM     26  C   UNL     1      26.723  -3.504 -11.814  1.00  0.00    -0.000 C 
BRANCH  26  27
ATOM     27  C   UNL     1      26.784  -2.385 -12.863  1.00  0.00    -0.000 C 
BRANCH  27  28
ATOM     28  C   UNL     1      26.183  -1.060 -12.349  1.00  0.00    -0.000 C 
BRANCH  28  29
ATOM     29  C   UNL     1      24.653  -0.964 -12.507  1.00  0.00    -0.000 C 
BRANCH  29  30
ATOM     30  C   UNL     1      24.134   0.371 -13.075  1.00  0.00    -0.000 C 
BRANCH  30  31
ATOM     31  C   UNL     1      25.232   1.360 -13.510  1.00  0.00    -0.003 C 
ATOM     32  C   UNL     1      25.558   1.269 -15.001  1.00  0.00     0.004 C 
ENDBRANCH  30  31
ENDBRANCH  29  30
ENDBRANCH  28  29
ENDBRANCH  27  28
ENDBRANCH  26  27
ENDBRANCH  25  26
ENDBRANCH  24  25
ENDBRANCH  23  24
ENDBRANCH  22  23
ENDBRANCH  21  22
ENDBRANCH  20  21
ENDBRANCH  19  20
ENDBRANCH  18  19
ENDBRANCH   1  18
TORSDOF 28
ENDMDL
MODEL 5
REMARK VINA RESULT:    -3.703      1.484      3.831
REMARK INTER + INTRA:         -14.965
REMARK INTER:                  -9.742
REMARK INTRA:                  -5.223
REMARK UNBOUND:                -5.202
REMARK SMILES CCCCCCCCCCCCCCCCCCCCCCCCCCCCCC(=O)[O-]
REMARK SMILES IDX 16 1 17 2 18 3 19 4 20 5 21 6 22 7 23 8 24 9 25 10 26 11
REMARK SMILES IDX 27 12 28 13 29 14 30 15 31 16 32 17 15 18 14 19 13 20 12 21
REMARK SMILES IDX 11 22 10 23 9 24 8 25 7 26 6 27 5 28 4 29 3 30 2 31 1 32
REMARK H PARENT
REMARK Flexibility Score: inf
ROOT
ATOM      1  C   UNL     1      25.278  -0.702  -9.367  1.00  0.00     0.000 C 
ENDROOT
BRANCH   1   2
ATOM      2  C   UNL     1      24.792  -0.991 -10.799  1.00  0.00     0.000 C 
BRANCH   2   3
ATOM      3  C   UNL     1      25.299  -0.012 -11.872  1.00  0.00     0.000 C 
BRANCH   3   4
ATOM      4  C   UNL     1      24.227   0.346 -12.916  1.00  0.00     0.000 C 
BRANCH   4   5
ATOM      5  C   UNL     1      24.728   1.349 -13.964  1.00  0.00     0.000 C 
BRANCH   5   6
ATOM      6  C   UNL     1      25.737   0.732 -14.944  1.00  0.00     0.000 C 
BRANCH   6   7
ATOM      7  C   UNL     1      25.230  -0.613 -15.478  1.00  0.00     0.000 C 
BRANCH   7   8
ATOM      8  C   UNL     1      26.278  -1.718 -15.278  1.00  0.00     0.000 C 
BRANCH   8   9
ATOM      9  C   UNL     1      27.586  -1.197 -14.655  1.00  0.00     0.000 C 
BRANCH   9  10
ATOM     10  C   UNL     1      28.139  -2.053 -13.502  1.00  0.00     0.000 C 
BRANCH  10  11
ATOM     11  C   UNL     1      27.071  -2.959 -12.867  1.00  0.00     0.000 C 
BRANCH  11  12
ATOM     12  C   UNL     1      27.504  -3.518 -11.502  1.00  0.00     0.000 C 
BRANCH  12  13
ATOM     13  C   UNL     1      27.083  -4.985 -11.307  1.00  0.00     0.006 C 
BRANCH  13  14
ATOM     14  C   UNL     1      26.078  -5.445 -12.372  1.00  0.00     0.053 C 
BRANCH  14  15
ATOM     15  C   UNL     1      26.268  -6.885 -12.740  1.00  0.00     0.041 C 
ATOM     16  O   UNL     1      25.384  -7.496 -13.397  1.00  0.00    -0.550 OA
ATOM     17  O   UNL     1      27.417  -7.558 -12.344  1.00  0.00    -0.550 OA
ENDBRANCH  14  15
ENDBRANCH  13  14
ENDBRANCH  12  13
ENDBRANCH  11  12
ENDBRANCH  10  11
ENDBRANCH   9  10
ENDBRANCH   8   9
ENDBRANCH   7   8
ENDBRANCH   6   7
ENDBRANCH   5   6
ENDBRANCH   4   5
ENDBRANCH   3   4
ENDBRANCH   2   3
ENDBRANCH   1   2
BRANCH   1  18
ATOM     18  C   UNL     1      25.868  -1.939  -8.672  1.00  0.00     0.000 C 
BRANCH  18  19
ATOM     19  C   UNL     1      24.816  -2.726  -7.867  1.00  0.00     0.000 C 
BRANCH  19  20
ATOM     20  C   UNL     1      24.697  -4.220  -8.231  1.00  0.00     0.000 C 
BRANCH  20  21
ATOM     21  C   UNL     1      23.780  -4.530  -9.432  1.00  0.00     0.000 C 
BRANCH  21  22
ATOM     22  C   UNL     1      23.040  -5.879  -9.352  1.00  0.00     0.000 C 
BRANCH  22  23
ATOM     23  C   UNL     1      23.693  -7.022 -10.157  1.00  0.00     0.000 C 
BRANCH  23  24
ATOM     24  C   UNL     1      24.537  -8.008  -9.324  1.00  0.00    -0.000 C 
BRANCH  24  25
ATOM     25  C   UNL     1      25.989  -7.567  -9.067  1.00  0.00    -0.000 C 
BRANCH  25  26
ATOM     26  C   UNL     1      26.316  -7.436  -7.573  1.00  0.00    -0.000 C 
BRANCH  26  27
ATOM     27  C   UNL     1      27.704  -6.813  -7.362  1.00  0.00    -0.000 C 
BRANCH  27  28
ATOM     28  C   UNL     1      27.700  -5.283  -7.564  1.00  0.00    -0.000 C 
BRANCH  28  29
ATOM     29  C   UNL     1      29.016  -4.727  -8.142  1.00  0.00    -0.000 C 
BRANCH  29  30
ATOM     30  C   UNL     1      29.581  -3.490  -7.416  1.00  0.00    -0.000 C 
BRANCH  30  31
ATOM     31  C   UNL     1      28.602  -2.808  -6.443  1.00  0.00    -0.003 C 
ATOM     32  C   UNL     1      28.782  -1.291  -6.383  1.00  0.00     0.004 C 
ENDBRANCH  30  31
ENDBRANCH  29  30
ENDBRANCH  28  29
ENDBRANCH  27  28
ENDBRANCH  26  27
ENDBRANCH  25  26
ENDBRANCH  24  25
ENDBRANCH  23  24
ENDBRANCH  22  23
ENDBRANCH  21  22
ENDBRANCH  20  21
ENDBRANCH  19  20
ENDBRANCH  18  19
ENDBRANCH   1  18
TORSDOF 28
ENDMDL
MODEL 6
REMARK VINA RESULT:    -3.664      1.929      6.924
REMARK INTER + INTRA:         -14.864
REMARK INTER:                  -8.943
REMARK INTRA:                  -5.921
REMARK UNBOUND:                -5.202
REMARK SMILES CCCCCCCCCCCCCCCCCCCCCCCCCCCCCC(=O)[O-]
REMARK SMILES IDX 16 1 17 2 18 3 19 4 20 5 21 6 22 7 23 8 24 9 25 10 26 11
REMARK SMILES IDX 27 12 28 13 29 14 30 15 31 16 32 17 15 18 14 19 13 20 12 21
REMARK SMILES IDX 11 22 10 23 9 24 8 25 7 26 6 27 5 28 4 29 3 30 2 31 1 32
REMARK H PARENT
REMARK Flexibility Score: inf
ROOT
ATOM      1  C   UNL     1      24.206  -0.963 -11.554  1.00  0.00     0.000 C 
ENDROOT
BRANCH   1   2
ATOM      2  C   UNL     1      25.263  -0.233 -10.704  1.00  0.00     0.000 C 
BRANCH   2   3
ATOM      3  C   UNL     1      25.364  -0.702  -9.242  1.00  0.00     0.000 C 
BRANCH   3   4
ATOM      4  C   UNL     1      26.790  -1.120  -8.841  1.00  0.00     0.000 C 
BRANCH   4   5
ATOM      5  C   UNL     1      27.296  -0.383  -7.593  1.00  0.00     0.000 C 
BRANCH   5   6
ATOM      6  C   UNL     1      28.552  -1.029  -6.988  1.00  0.00     0.000 C 
BRANCH   6   7
ATOM      7  C   UNL     1      29.073  -2.158  -7.886  1.00  0.00     0.000 C 
BRANCH   7   8
ATOM      8  C   UNL     1      29.735  -3.266  -7.053  1.00  0.00     0.000 C 
BRANCH   8   9
ATOM      9  C   UNL     1      28.734  -4.335  -6.576  1.00  0.00     0.000 C 
BRANCH   9  10
ATOM     10  C   UNL     1      27.514  -4.533  -7.494  1.00  0.00     0.000 C 
BRANCH  10  11
ATOM     11  C   UNL     1      26.200  -4.060  -6.850  1.00  0.00     0.000 C 
BRANCH  11  12
ATOM     12  C   UNL     1      25.024  -4.055  -7.840  1.00  0.00     0.000 C 
BRANCH  12  13
ATOM     13  C   UNL     1      25.436  -4.530  -9.245  1.00  0.00     0.006 C 
BRANCH  13  14
ATOM     14  C   UNL     1      24.259  -5.138 -10.018  1.00  0.00     0.053 C 
BRANCH  14  15
ATOM     15  C   UNL     1      24.169  -6.623  -9.832  1.00  0.00     0.041 C 
ATOM     16  O   UNL     1      23.248  -7.279 -10.386  1.00  0.00    -0.550 OA
ATOM     17  O   UNL     1      25.096  -7.280  -9.033  1.00  0.00    -0.550 OA
ENDBRANCH  14  15
ENDBRANCH  13  14
ENDBRANCH  12  13
ENDBRANCH  11  12
ENDBRANCH  10  11
ENDBRANCH   9  10
ENDBRANCH   8   9
ENDBRANCH   7   8
ENDBRANCH   6   7
ENDBRANCH   5   6
ENDBRANCH   4   5
ENDBRANCH   3   4
ENDBRANCH   2   3
ENDBRANCH   1   2
BRANCH   1  18
ATOM     18  C   UNL     1      24.094  -0.404 -12.981  1.00  0.00     0.000 C 
BRANCH  18  19
ATOM     19  C   UNL     1      25.171   0.653 -13.292  1.00  0.00     0.000 C 
BRANCH  19  20
ATOM     20  C   UNL     1      25.170   1.183 -14.740  1.00  0.00     0.000 C 
BRANCH  20  21
ATOM     21  C   UNL     1      26.399   0.789 -15.583  1.00  0.00     0.000 C 
BRANCH  21  22
ATOM     22  C   UNL     1      26.723  -0.718 -15.593  1.00  0.00     0.000 C 
BRANCH  22  23
ATOM     23  C   UNL     1      28.138  -1.078 -15.095  1.00  0.00     0.000 C 
BRANCH  23  24
ATOM     24  C   UNL     1      28.225  -2.372 -14.260  1.00  0.00    -0.000 C 
BRANCH  24  25
ATOM     25  C   UNL     1      26.950  -2.731 -13.476  1.00  0.00    -0.000 C 
BRANCH  25  26
ATOM     26  C   UNL     1      27.210  -2.922 -11.975  1.00  0.00    -0.000 C 
BRANCH  26  27
ATOM     27  C   UNL     1      28.713  -3.037 -11.683  1.00  0.00    -0.000 C 
BRANCH  27  28
ATOM     28  C   UNL     1      29.054  -4.269 -10.817  1.00  0.00    -0.000 C 
BRANCH  28  29
ATOM     29  C   UNL     1      29.051  -5.599 -11.595  1.00  0.00    -0.000 C 
BRANCH  29  30
ATOM     30  C   UNL     1      27.854  -6.526 -11.308  1.00  0.00    -0.000 C 
BRANCH  30  31
ATOM     31  C   UNL     1      26.793  -6.578 -12.424  1.00  0.00    -0.003 C 
ATOM     32  C   UNL     1      27.391  -6.411 -13.821  1.00  0.00     0.004 C 
ENDBRANCH  30  31
ENDBRANCH  29  30
ENDBRANCH  28  29
ENDBRANCH  27  28
ENDBRANCH  26  27
ENDBRANCH  25  26
ENDBRANCH  24  25
ENDBRANCH  23  24
ENDBRANCH  22  23
ENDBRANCH  21  22
ENDBRANCH  20  21
ENDBRANCH  19  20
ENDBRANCH  18  19
ENDBRANCH   1  18
TORSDOF 28
ENDMDL
MODEL 7
REMARK VINA RESULT:    -3.638      1.382      6.025
REMARK INTER + INTRA:         -14.796
REMARK INTER:                  -9.022
REMARK INTRA:                  -5.773
REMARK UNBOUND:                -5.202
REMARK SMILES CCCCCCCCCCCCCCCCCCCCCCCCCCCCCC(=O)[O-]
REMARK SMILES IDX 16 1 17 2 18 3 19 4 20 5 21 6 22 7 23 8 24 9 25 10 26 11
REMARK SMILES IDX 27 12 28 13 29 14 30 15 31 16 32 17 15 18 14 19 13 20 12 21
REMARK SMILES IDX 11 22 10 23 9 24 8 25 7 26 6 27 5 28 4 29 3 30 2 31 1 32
REMARK H PARENT
REMARK Flexibility Score: inf
ROOT
ATOM      1  C   UNL     1      25.468  -3.921  -7.477  1.00  0.00     0.000 C 
ENDROOT
BRANCH   1   2
ATOM      2  C   UNL     1      24.343  -4.479  -8.368  1.00  0.00     0.000 C 
BRANCH   2   3
ATOM      3  C   UNL     1      24.708  -4.647  -9.854  1.00  0.00     0.000 C 
BRANCH   3   4
ATOM      4  C   UNL     1      24.499  -6.083 -10.366  1.00  0.00     0.000 C 
BRANCH   4   5
ATOM      5  C   UNL     1      24.509  -7.123  -9.237  1.00  0.00     0.000 C 
BRANCH   5   6
ATOM      6  C   UNL     1      25.838  -7.890  -9.146  1.00  0.00     0.000 C 
BRANCH   6   7
ATOM      7  C   UNL     1      26.582  -7.858 -10.486  1.00  0.00     0.000 C 
BRANCH   7   8
ATOM      8  C   UNL     1      28.008  -7.312 -10.314  1.00  0.00     0.000 C 
BRANCH   8   9
ATOM      9  C   UNL     1      28.350  -6.204 -11.326  1.00  0.00     0.000 C 
BRANCH   9  10
ATOM     10  C   UNL     1      27.417  -6.133 -12.548  1.00  0.00     0.000 C 
BRANCH  10  11
ATOM     11  C   UNL     1      27.066  -4.690 -12.949  1.00  0.00     0.000 C 
BRANCH  11  12
ATOM     12  C   UNL     1      27.397  -3.673 -11.845  1.00  0.00     0.000 C 
BRANCH  12  13
ATOM     13  C   UNL     1      27.753  -2.287 -12.412  1.00  0.00     0.006 C 
BRANCH  13  14
ATOM     14  C   UNL     1      27.150  -2.059 -13.805  1.00  0.00     0.053 C 
BRANCH  14  15
ATOM     15  C   UNL     1      28.205  -1.870 -14.852  1.00  0.00     0.041 C 
ATOM     16  O   UNL     1      28.754  -0.747 -15.006  1.00  0.00    -0.550 OA
ATOM     17  O   UNL     1      28.572  -2.933 -15.668  1.00  0.00    -0.550 OA
ENDBRANCH  14  15
ENDBRANCH  13  14
ENDBRANCH  12  13
ENDBRANCH  11  12
ENDBRANCH  10  11
ENDBRANCH   9  10
ENDBRANCH   8   9
ENDBRANCH   7   8
ENDBRANCH   6   7
ENDBRANCH   5   6
ENDBRANCH   4   5
ENDBRANCH   3   4
ENDBRANCH   2   3
ENDBRANCH   1   2
BRANCH   1  18
ATOM     18  C   UNL     1      26.389  -5.016  -6.916  1.00  0.00     0.000 C 
BRANCH  18  19
ATOM     19  C   UNL     1      27.881  -4.644  -7.008  1.00  0.00     0.000 C 
BRANCH  19  20
ATOM     20  C   UNL     1      28.357  -4.191  -8.403  1.00  0.00     0.000 C 
BRANCH  20  21
ATOM     21  C   UNL     1      29.542  -3.204  -8.402  1.00  0.00     0.000 C 
BRANCH  21  22
ATOM     22  C   UNL     1      29.851  -2.562  -7.036  1.00  0.00     0.000 C 
BRANCH  22  23
ATOM     23  C   UNL     1      29.317  -1.125  -6.863  1.00  0.00     0.000 C 
BRANCH  23  24
ATOM     24  C   UNL     1      27.781  -1.003  -6.794  1.00  0.00    -0.000 C 
BRANCH  24  25
ATOM     25  C   UNL     1      27.132  -0.254  -7.972  1.00  0.00    -0.000 C 
BRANCH  25  26
ATOM     26  C   UNL     1      26.413  -1.193  -8.951  1.00  0.00    -0.000 C 
BRANCH  26  27
ATOM     27  C   UNL     1      25.400  -0.424  -9.811  1.00  0.00    -0.000 C 
BRANCH  27  28
ATOM     28  C   UNL     1      24.596  -1.352 -10.747  1.00  0.00    -0.000 C 
BRANCH  28  29
ATOM     29  C   UNL     1      24.027  -0.643 -11.991  1.00  0.00    -0.000 C 
BRANCH  29  30
ATOM     30  C   UNL     1      24.860   0.545 -12.509  1.00  0.00    -0.000 C 
BRANCH  30  31
ATOM     31  C   UNL     1      24.593   0.933 -13.975  1.00  0.00    -0.003 C 
ATOM     32  C   UNL     1      25.868   1.297 -14.737  1.00  0.00     0.004 C 
ENDBRANCH  30  31
ENDBRANCH  29  30
ENDBRANCH  28  29
ENDBRANCH  27  28
ENDBRANCH  26  27
ENDBRANCH  25  26
ENDBRANCH  24  25
ENDBRANCH  23  24
ENDBRANCH  22  23
ENDBRANCH  21  22
ENDBRANCH  20  21
ENDBRANCH  19  20
ENDBRANCH  18  19
ENDBRANCH   1  18
TORSDOF 28
ENDMDL
MODEL 8
REMARK VINA RESULT:    -3.601      1.890      3.550
REMARK INTER + INTRA:         -14.697
REMARK INTER:                  -8.549
REMARK INTRA:                  -6.148
REMARK UNBOUND:                -5.202
REMARK SMILES CCCCCCCCCCCCCCCCCCCCCCCCCCCCCC(=O)[O-]
REMARK SMILES IDX 16 1 17 2 18 3 19 4 20 5 21 6 22 7 23 8 24 9 25 10 26 11
REMARK SMILES IDX 27 12 28 13 29 14 30 15 31 16 32 17 15 18 14 19 13 20 12 21
REMARK SMILES IDX 11 22 10 23 9 24 8 25 7 26 6 27 5 28 4 29 3 30 2 31 1 32
REMARK H PARENT
REMARK Flexibility Score: inf
ROOT
ATOM      1  C   UNL     1      24.497  -1.707  -9.213  1.00  0.00     0.000 C 
ENDROOT
BRANCH   1   2
ATOM      2  C   UNL     1      25.613  -0.800  -9.763  1.00  0.00     0.000 C 
BRANCH   2   3
ATOM      3  C   UNL     1      26.369  -1.358 -10.982  1.00  0.00     0.000 C 
BRANCH   3   4
ATOM      4  C   UNL     1      25.666  -2.566 -11.625  1.00  0.00     0.000 C 
BRANCH   4   5
ATOM      5  C   UNL     1      26.459  -3.870 -11.465  1.00  0.00     0.000 C 
BRANCH   5   6
ATOM      6  C   UNL     1      26.744  -4.562 -12.807  1.00  0.00     0.000 C 
BRANCH   6   7
ATOM      7  C   UNL     1      28.252  -4.710 -13.038  1.00  0.00     0.000 C 
BRANCH   7   8
ATOM      8  C   UNL     1      29.049  -3.802 -12.088  1.00  0.00     0.000 C 
BRANCH   8   9
ATOM      9  C   UNL     1      29.438  -2.459 -12.732  1.00  0.00     0.000 C 
BRANCH   9  10
ATOM     10  C   UNL     1      29.085  -2.331 -14.226  1.00  0.00     0.000 C 
BRANCH  10  11
ATOM     11  C   UNL     1      28.016  -1.259 -14.496  1.00  0.00     0.000 C 
BRANCH  11  12
ATOM     12  C   UNL     1      26.831  -1.797 -15.313  1.00  0.00     0.000 C 
BRANCH  12  13
ATOM     13  C   UNL     1      25.773  -0.715 -15.596  1.00  0.00     0.006 C 
BRANCH  13  14
ATOM     14  C   UNL     1      24.650  -0.716 -14.551  1.00  0.00     0.053 C 
BRANCH  14  15
ATOM     15  C   UNL     1      24.689   0.504 -13.681  1.00  0.00     0.041 C 
ATOM     16  O   UNL     1      24.001   0.557 -12.628  1.00  0.00    -0.550 OA
ATOM     17  O   UNL     1      25.476   1.590 -14.043  1.00  0.00    -0.550 OA
ENDBRANCH  14  15
ENDBRANCH  13  14
ENDBRANCH  12  13
ENDBRANCH  11  12
ENDBRANCH  10  11
ENDBRANCH   9  10
ENDBRANCH   8   9
ENDBRANCH   7   8
ENDBRANCH   6   7
ENDBRANCH   5   6
ENDBRANCH   4   5
ENDBRANCH   3   4
ENDBRANCH   2   3
ENDBRANCH   1   2
BRANCH   1  18
ATOM     18  C   UNL     1      24.937  -2.522  -7.986  1.00  0.00     0.000 C 
BRANCH  18  19
ATOM     19  C   UNL     1      24.697  -4.034  -8.160  1.00  0.00     0.000 C 
BRANCH  19  20
ATOM     20  C   UNL     1      23.635  -4.412  -9.212  1.00  0.00     0.000 C 
BRANCH  20  21
ATOM     21  C   UNL     1      23.403  -5.925  -9.394  1.00  0.00     0.000 C 
BRANCH  21  22
ATOM     22  C   UNL     1      24.615  -6.708  -9.935  1.00  0.00     0.000 C 
BRANCH  22  23
ATOM     23  C   UNL     1      25.370  -7.540  -8.877  1.00  0.00     0.000 C 
BRANCH  23  24
ATOM     24  C   UNL     1      26.822  -7.903  -9.249  1.00  0.00    -0.000 C 
BRANCH  24  25
ATOM     25  C   UNL     1      27.658  -6.745  -9.823  1.00  0.00    -0.000 C 
BRANCH  25  26
ATOM     26  C   UNL     1      29.136  -6.818  -9.413  1.00  0.00    -0.000 C 
BRANCH  26  27
ATOM     27  C   UNL     1      29.579  -5.527  -8.710  1.00  0.00    -0.000 C 
BRANCH  27  28
ATOM     28  C   UNL     1      28.389  -4.730  -8.136  1.00  0.00    -0.000 C 
BRANCH  28  29
ATOM     29  C   UNL     1      28.380  -3.243  -8.541  1.00  0.00    -0.000 C 
BRANCH  29  30
ATOM     30  C   UNL     1      29.698  -2.485  -8.287  1.00  0.00    -0.000 C 
BRANCH  30  31
ATOM     31  C   UNL     1      29.603  -1.351  -7.249  1.00  0.00    -0.003 C 
ATOM     32  C   UNL     1      28.275  -1.346  -6.493  1.00  0.00     0.004 C 
ENDBRANCH  30  31
ENDBRANCH  29  30
ENDBRANCH  28  29
ENDBRANCH  27  28
ENDBRANCH  26  27
ENDBRANCH  25  26
ENDBRANCH  24  25
ENDBRANCH  23  24
ENDBRANCH  22  23
ENDBRANCH  21  22
ENDBRANCH  20  21
ENDBRANCH  19  20
ENDBRANCH  18  19
ENDBRANCH   1  18
TORSDOF 28
ENDMDL
MODEL 9
REMARK VINA RESULT:    -3.590      2.217      7.425
REMARK INTER + INTRA:         -14.667
REMARK INTER:                  -9.039
REMARK INTRA:                  -5.628
REMARK UNBOUND:                -5.202
REMARK SMILES CCCCCCCCCCCCCCCCCCCCCCCCCCCCCC(=O)[O-]
REMARK SMILES IDX 16 1 17 2 18 3 19 4 20 5 21 6 22 7 23 8 24 9 25 10 26 11
REMARK SMILES IDX 27 12 28 13 29 14 30 15 31 16 32 17 15 18 14 19 13 20 12 21
REMARK SMILES IDX 11 22 10 23 9 24 8 25 7 26 6 27 5 28 4 29 3 30 2 31 1 32
REMARK H PARENT
REMARK Flexibility Score: inf
ROOT
ATOM      1  C   UNL     1      23.730  -1.364 -10.872  1.00  0.00     0.000 C 
ENDROOT
BRANCH   1   2
ATOM      2  C   UNL     1      24.893  -1.247  -9.870  1.00  0.00     0.000 C 
BRANCH   2   3
ATOM      3  C   UNL     1      24.679  -1.976  -8.531  1.00  0.00     0.000 C 
BRANCH   3   4
ATOM      4  C   UNL     1      25.037  -3.471  -8.596  1.00  0.00     0.000 C 
BRANCH   4   5
ATOM      5  C   UNL     1      23.798  -4.378  -8.615  1.00  0.00     0.000 C 
BRANCH   5   6
ATOM      6  C   UNL     1      23.672  -5.185  -9.916  1.00  0.00     0.000 C 
BRANCH   6   7
ATOM      7  C   UNL     1      23.737  -6.691  -9.635  1.00  0.00     0.000 C 
BRANCH   7   8
ATOM      8  C   UNL     1      25.190  -7.190  -9.626  1.00  0.00     0.000 C 
BRANCH   8   9
ATOM      9  C   UNL     1      25.679  -7.581  -8.219  1.00  0.00     0.000 C 
BRANCH   9  10
ATOM     10  C   UNL     1      26.754  -6.651  -7.626  1.00  0.00     0.000 C 
BRANCH  10  11
ATOM     11  C   UNL     1      27.568  -5.917  -8.705  1.00  0.00     0.000 C 
BRANCH  11  12
ATOM     12  C   UNL     1      28.879  -5.330  -8.160  1.00  0.00     0.000 C 
BRANCH  12  13
ATOM     13  C   UNL     1      28.861  -3.792  -8.117  1.00  0.00     0.006 C 
BRANCH  13  14
ATOM     14  C   UNL     1      28.109  -3.256  -6.891  1.00  0.00     0.053 C 
BRANCH  14  15
ATOM     15  C   UNL     1      28.287  -1.778  -6.723  1.00  0.00     0.041 C 
ATOM     16  O   UNL     1      28.816  -1.316  -5.677  1.00  0.00    -0.550 OA
ATOM     17  O   UNL     1      27.856  -0.908  -7.716  1.00  0.00    -0.550 OA
ENDBRANCH  14  15
ENDBRANCH  13  14
ENDBRANCH  12  13
ENDBRANCH  11  12
ENDBRANCH  10  11
ENDBRANCH   9  10
ENDBRANCH   8   9
ENDBRANCH   7   8
ENDBRANCH   6   7
ENDBRANCH   5   6
ENDBRANCH   4   5
ENDBRANCH   3   4
ENDBRANCH   2   3
ENDBRANCH   1   2
BRANCH   1  18
ATOM     18  C   UNL     1      24.122  -0.946 -12.298  1.00  0.00     0.000 C 
BRANCH  18  19
ATOM     19  C   UNL     1      24.984   0.331 -12.327  1.00  0.00     0.000 C 
BRANCH  19  20
ATOM     20  C   UNL     1      24.681   1.298 -13.489  1.00  0.00     0.000 C 
BRANCH  20  21
ATOM     21  C   UNL     1      25.694   1.265 -14.651  1.00  0.00     0.000 C 
BRANCH  21  22
ATOM     22  C   UNL     1      25.253   0.436 -15.873  1.00  0.00     0.000 C 
BRANCH  22  23
ATOM     23  C   UNL     1      25.949  -0.933 -16.010  1.00  0.00     0.000 C 
BRANCH  23  24
ATOM     24  C   UNL     1      27.158  -1.147 -15.076  1.00  0.00    -0.000 C 
BRANCH  24  25
ATOM     25  C   UNL     1      26.984  -2.260 -14.027  1.00  0.00    -0.000 C 
BRANCH  25  26
ATOM     26  C   UNL     1      27.975  -2.139 -12.861  1.00  0.00    -0.000 C 
BRANCH  26  27
ATOM     27  C   UNL     1      27.538  -3.006 -11.671  1.00  0.00    -0.000 C 
BRANCH  27  28
ATOM     28  C   UNL     1      26.371  -3.951 -12.028  1.00  0.00    -0.000 C 
BRANCH  28  29
ATOM     29  C   UNL     1      26.798  -5.418 -12.235  1.00  0.00    -0.000 C 
BRANCH  29  30
ATOM     30  C   UNL     1      26.835  -5.889 -13.702  1.00  0.00    -0.000 C 
BRANCH  30  31
ATOM     31  C   UNL     1      28.244  -6.188 -14.250  1.00  0.00    -0.003 C 
ATOM     32  C   UNL     1      28.685  -5.198 -15.328  1.00  0.00     0.004 C 
ENDBRANCH  30  31
ENDBRANCH  29  30
ENDBRANCH  28  29
ENDBRANCH  27  28
ENDBRANCH  26  27
ENDBRANCH  25  26
ENDBRANCH  24  25
ENDBRANCH  23  24
ENDBRANCH  22  23
ENDBRANCH  21  22
ENDBRANCH  20  21
ENDBRANCH  19  20
ENDBRANCH  18  19
ENDBRANCH   1  18
TORSDOF 28
ENDMDL
