MODEL 1
REMARK VINA RESULT:    -2.482      0.000      0.000
REMARK INTER + INTRA:          -7.207
REMARK INTER:                  -6.253
REMARK INTRA:                  -0.954
REMARK UNBOUND:                -0.954
REMARK SMILES CCCCCCCCCCCCCCCCCCCCCCCCCCCC(=O)[O-]
REMARK SMILES IDX 15 1 16 2 17 3 18 4 19 5 20 6 21 7 22 8 23 9 24 10 25 11
REMARK SMILES IDX 26 12 27 13 28 14 29 15 30 16 14 17 13 18 12 19 11 20 10 21
REMARK SMILES IDX 9 22 8 23 7 24 6 25 5 26 4 27 3 28 2 29 1 30
REMARK H PARENT
REMARK Flexibility Score: inf
ROOT
ATOM      1  C   UNL     1      27.197  27.430  23.829  1.00  0.00     0.000 C 
ENDROOT
BRANCH   1   2
ATOM      2  C   UNL     1      27.853  26.120  23.357  1.00  0.00     0.000 C 
BRANCH   2   3
ATOM      3  C   UNL     1      27.076  25.435  22.225  1.00  0.00     0.000 C 
BRANCH   3   4
ATOM      4  C   UNL     1      28.039  24.843  21.185  1.00  0.00     0.000 C 
BRANCH   4   5
ATOM      5  C   UNL     1      27.465  23.605  20.470  1.00  0.00     0.000 C 
BRANCH   5   6
ATOM      6  C   UNL     1      27.354  22.342  21.344  1.00  0.00     0.000 C 
BRANCH   6   7
ATOM      7  C   UNL     1      27.001  22.591  22.823  1.00  0.00     0.000 C 
BRANCH   7   8
ATOM      8  C   UNL     1      25.501  22.433  23.147  1.00  0.00     0.000 C 
BRANCH   8   9
ATOM      9  C   UNL     1      24.671  22.008  21.925  1.00  0.00     0.000 C 
BRANCH   9  10
ATOM     10  C   UNL     1      23.644  23.087  21.552  1.00  0.00     0.000 C 
BRANCH  10  11
ATOM     11  C   UNL     1      24.156  24.045  20.464  1.00  0.00     0.000 C 
BRANCH  11  12
ATOM     12  C   UNL     1      24.406  25.466  20.993  1.00  0.00     0.006 C 
BRANCH  12  13
ATOM     13  C   UNL     1      23.239  25.938  21.866  1.00  0.00     0.053 C 
BRANCH  13  14
ATOM     14  C   UNL     1      23.276  27.424  22.029  1.00  0.00     0.041 C 
ATOM     15  O   UNL     1      22.226  28.103  21.879  1.00  0.00    -0.550 OA
ATOM     16  O   UNL     1      24.458  28.055  22.399  1.00  0.00    -0.550 OA
ENDBRANCH  13  14
ENDBRANCH  12  13
ENDBRANCH  11  12
ENDBRANCH  10  11
ENDBRANCH   9  10
ENDBRANCH   8   9
ENDBRANCH   7   8
ENDBRANCH   6   7
ENDBRANCH   5   6
ENDBRANCH   4   5
ENDBRANCH   3   4
ENDBRANCH   2   3
ENDBRANCH   1   2
BRANCH   1  17
ATOM     17  C   UNL     1      28.125  28.372  24.623  1.00  0.00     0.000 C 
BRANCH  17  18
ATOM     18  C   UNL     1      28.043  29.860  24.225  1.00  0.00     0.000 C 
BRANCH  18  19
ATOM     19  C   UNL     1      27.994  30.852  25.404  1.00  0.00     0.000 C 
BRANCH  19  20
ATOM     20  C   UNL     1      26.655  31.591  25.575  1.00  0.00     0.000 C 
BRANCH  20  21
ATOM     21  C   UNL     1      26.775  33.105  25.348  1.00  0.00     0.000 C 
BRANCH  21  22
ATOM     22  C   UNL     1      27.890  33.416  24.339  1.00  0.00    -0.000 C 
BRANCH  22  23
ATOM     23  C   UNL     1      28.125  34.926  24.150  1.00  0.00    -0.000 C 
BRANCH  23  24
ATOM     24  C   UNL     1      28.024  35.424  22.694  1.00  0.00    -0.000 C 
BRANCH  24  25
ATOM     25  C   UNL     1      27.851  36.947  22.534  1.00  0.00    -0.000 C 
BRANCH  25  26
ATOM     26  C   UNL     1      27.183  37.657  23.729  1.00  0.00    -0.000 C 
BRANCH  26  27
ATOM     27  C   UNL     1      27.109  39.190  23.612  1.00  0.00    -0.000 C 
BRANCH  27  28
ATOM     28  C   UNL     1      27.263  39.900  24.968  1.00  0.00    -0.000 C 
BRANCH  28  29
ATOM     29  C   UNL     1      27.836  38.977  26.053  1.00  0.00    -0.003 C 
ATOM     30  C   UNL     1      27.412  39.388  27.462  1.00  0.00     0.004 C 
ENDBRANCH  28  29
ENDBRANCH  27  28
ENDBRANCH  26  27
ENDBRANCH  25  26
ENDBRANCH  24  25
ENDBRANCH  23  24
ENDBRANCH  22  23
ENDBRANCH  21  22
ENDBRANCH  20  21
ENDBRANCH  19  20
ENDBRANCH  18  19
ENDBRANCH  17  18
ENDBRANCH   1  17
TORSDOF 26
ENDMDL
MODEL 2
REMARK VINA RESULT:    -2.359      3.508     12.465
REMARK INTER + INTRA:          -6.898
REMARK INTER:                  -5.181
REMARK INTRA:                  -1.717
REMARK UNBOUND:                -0.954
REMARK SMILES CCCCCCCCCCCCCCCCCCCCCCCCCCCC(=O)[O-]
REMARK SMILES IDX 15 1 16 2 17 3 18 4 19 5 20 6 21 7 22 8 23 9 24 10 25 11
REMARK SMILES IDX 26 12 27 13 28 14 29 15 30 16 14 17 13 18 12 19 11 20 10 21
REMARK SMILES IDX 9 22 8 23 7 24 6 25 5 26 4 27 3 28 2 29 1 30
REMARK H PARENT
REMARK Flexibility Score: inf
ROOT
ATOM      1  C   UNL     1      27.778  29.759  24.424  1.00  0.00     0.000 C 
ENDROOT
BRANCH   1   2
ATOM      2  C   UNL     1      27.123  31.039  24.970  1.00  0.00     0.000 C 
BRANCH   2   3
ATOM      3  C   UNL     1      28.030  31.810  25.940  1.00  0.00     0.000 C 
BRANCH   3   4
ATOM      4  C   UNL     1      28.124  33.289  25.538  1.00  0.00     0.000 C 
BRANCH   4   5
ATOM      5  C   UNL     1      27.466  33.586  24.178  1.00  0.00     0.000 C 
BRANCH   5   6
ATOM      6  C   UNL     1      28.115  34.730  23.377  1.00  0.00     0.000 C 
BRANCH   6   7
ATOM      7  C   UNL     1      27.246  35.325  22.253  1.00  0.00     0.000 C 
BRANCH   7   8
ATOM      8  C   UNL     1      28.027  36.204  21.253  1.00  0.00     0.000 C 
BRANCH   8   9
ATOM      9  C   UNL     1      28.032  37.690  21.647  1.00  0.00     0.000 C 
BRANCH   9  10
ATOM     10  C   UNL     1      27.787  37.862  23.154  1.00  0.00     0.000 C 
BRANCH  10  11
ATOM     11  C   UNL     1      27.660  39.337  23.570  1.00  0.00     0.000 C 
BRANCH  11  12
ATOM     12  C   UNL     1      26.864  39.520  24.871  1.00  0.00     0.006 C 
BRANCH  12  13
ATOM     13  C   UNL     1      27.801  39.618  26.078  1.00  0.00     0.053 C 
BRANCH  13  14
ATOM     14  C   UNL     1      27.091  39.203  27.327  1.00  0.00     0.041 C 
ATOM     15  O   UNL     1      27.683  38.499  28.187  1.00  0.00    -0.550 OA
ATOM     16  O   UNL     1      25.793  39.638  27.567  1.00  0.00    -0.550 OA
ENDBRANCH  13  14
ENDBRANCH  12  13
ENDBRANCH  11  12
ENDBRANCH  10  11
ENDBRANCH   9  10
ENDBRANCH   8   9
ENDBRANCH   7   8
ENDBRANCH   6   7
ENDBRANCH   5   6
ENDBRANCH   4   5
ENDBRANCH   3   4
ENDBRANCH   2   3
ENDBRANCH   1   2
BRANCH   1  17
ATOM     17  C   UNL     1      27.602  28.509  25.310  1.00  0.00     0.000 C 
BRANCH  17  18
ATOM     18  C   UNL     1      27.754  27.160  24.578  1.00  0.00     0.000 C 
BRANCH  18  19
ATOM     19  C   UNL     1      27.910  27.258  23.047  1.00  0.00     0.000 C 
BRANCH  19  20
ATOM     20  C   UNL     1      27.857  25.912  22.304  1.00  0.00     0.000 C 
BRANCH  20  21
ATOM     21  C   UNL     1      27.963  24.704  23.246  1.00  0.00     0.000 C 
BRANCH  21  22
ATOM     22  C   UNL     1      27.281  23.473  22.629  1.00  0.00    -0.000 C 
BRANCH  22  23
ATOM     23  C   UNL     1      26.798  22.463  23.685  1.00  0.00    -0.000 C 
BRANCH  23  24
ATOM     24  C   UNL     1      25.266  22.336  23.812  1.00  0.00    -0.000 C 
BRANCH  24  25
ATOM     25  C   UNL     1      24.501  22.282  22.475  1.00  0.00    -0.000 C 
BRANCH  25  26
ATOM     26  C   UNL     1      23.429  23.375  22.291  1.00  0.00    -0.000 C 
BRANCH  26  27
ATOM     27  C   UNL     1      23.656  24.308  21.089  1.00  0.00    -0.000 C 
BRANCH  27  28
ATOM     28  C   UNL     1      24.527  23.668  19.994  1.00  0.00    -0.000 C 
BRANCH  28  29
ATOM     29  C   UNL     1      25.646  24.602  19.512  1.00  0.00    -0.003 C 
ATOM     30  C   UNL     1      26.968  23.871  19.285  1.00  0.00     0.004 C 
ENDBRANCH  28  29
ENDBRANCH  27  28
ENDBRANCH  26  27
ENDBRANCH  25  26
ENDBRANCH  24  25
ENDBRANCH  23  24
ENDBRANCH  22  23
ENDBRANCH  21  22
ENDBRANCH  20  21
ENDBRANCH  19  20
ENDBRANCH  18  19
ENDBRANCH  17  18
ENDBRANCH   1  17
TORSDOF 26
ENDMDL
MODEL 3
REMARK VINA RESULT:    -0.097      1.850      2.998
REMARK INTER + INTRA:          -1.199
REMARK INTER:                   0.127
REMARK INTRA:                  -1.326
REMARK UNBOUND:                -0.954
REMARK SMILES CCCCCCCCCCCCCCCCCCCCCCCCCCCC(=O)[O-]
REMARK SMILES IDX 15 1 16 2 17 3 18 4 19 5 20 6 21 7 22 8 23 9 24 10 25 11
REMARK SMILES IDX 26 12 27 13 28 14 29 15 30 16 14 17 13 18 12 19 11 20 10 21
REMARK SMILES IDX 9 22 8 23 7 24 6 25 5 26 4 27 3 28 2 29 1 30
REMARK H PARENT
REMARK Flexibility Score: inf
ROOT
ATOM      1  C   UNL     1      24.161  29.244  22.912  1.00  0.00     0.000 C 
ENDROOT
BRANCH   1   2
ATOM      2  C   UNL     1      24.891  28.072  22.233  1.00  0.00     0.000 C 
BRANCH   2   3
ATOM      3  C   UNL     1      25.495  27.080  23.237  1.00  0.00     0.000 C 
BRANCH   3   4
ATOM      4  C   UNL     1      26.783  26.458  22.678  1.00  0.00     0.000 C 
BRANCH   4   5
ATOM      5  C   UNL     1      27.952  26.494  23.680  1.00  0.00     0.000 C 
BRANCH   5   6
ATOM      6  C   UNL     1      27.703  25.735  24.997  1.00  0.00     0.000 C 
BRANCH   6   7
ATOM      7  C   UNL     1      27.050  24.349  24.847  1.00  0.00     0.000 C 
BRANCH   7   8
ATOM      8  C   UNL     1      28.055  23.177  24.842  1.00  0.00     0.000 C 
BRANCH   8   9
ATOM      9  C   UNL     1      27.709  22.103  23.799  1.00  0.00     0.000 C 
BRANCH   9  10
ATOM     10  C   UNL     1      26.188  21.969  23.627  1.00  0.00     0.000 C 
BRANCH  10  11
ATOM     11  C   UNL     1      25.667  22.687  22.372  1.00  0.00     0.000 C 
BRANCH  11  12
ATOM     12  C   UNL     1      26.596  22.515  21.160  1.00  0.00     0.006 C 
BRANCH  12  13
ATOM     13  C   UNL     1      26.893  23.865  20.501  1.00  0.00     0.053 C 
BRANCH  13  14
ATOM     14  C   UNL     1      25.735  24.304  19.662  1.00  0.00     0.041 C 
ATOM     15  O   UNL     1      25.736  24.090  18.421  1.00  0.00    -0.550 OA
ATOM     16  O   UNL     1      24.631  24.900  20.259  1.00  0.00    -0.550 OA
ENDBRANCH  13  14
ENDBRANCH  12  13
ENDBRANCH  11  12
ENDBRANCH  10  11
ENDBRANCH   9  10
ENDBRANCH   8   9
ENDBRANCH   7   8
ENDBRANCH   6   7
ENDBRANCH   5   6
ENDBRANCH   4   5
ENDBRANCH   3   4
ENDBRANCH   2   3
ENDBRANCH   1   2
BRANCH   1  17
ATOM     17  C   UNL     1      24.896  29.855  24.122  1.00  0.00     0.000 C 
BRANCH  17  18
ATOM     18  C   UNL     1      26.424  29.649  24.132  1.00  0.00     0.000 C 
BRANCH  18  19
ATOM     19  C   UNL     1      27.115  29.922  25.483  1.00  0.00     0.000 C 
BRANCH  19  20
ATOM     20  C   UNL     1      27.994  31.184  25.519  1.00  0.00     0.000 C 
BRANCH  20  21
ATOM     21  C   UNL     1      27.228  32.457  25.127  1.00  0.00     0.000 C 
BRANCH  21  22
ATOM     22  C   UNL     1      27.922  33.169  23.957  1.00  0.00    -0.000 C 
BRANCH  22  23
ATOM     23  C   UNL     1      28.011  34.694  24.150  1.00  0.00    -0.000 C 
BRANCH  23  24
ATOM     24  C   UNL     1      27.310  35.530  23.060  1.00  0.00    -0.000 C 
BRANCH  24  25
ATOM     25  C   UNL     1      28.047  36.821  22.650  1.00  0.00    -0.000 C 
BRANCH  25  26
ATOM     26  C   UNL     1      27.288  38.129  22.952  1.00  0.00    -0.000 C 
BRANCH  26  27
ATOM     27  C   UNL     1      26.991  38.376  24.442  1.00  0.00    -0.000 C 
BRANCH  27  28
ATOM     28  C   UNL     1      27.518  39.734  24.937  1.00  0.00    -0.000 C 
BRANCH  28  29
ATOM     29  C   UNL     1      27.271  39.948  26.437  1.00  0.00    -0.003 C 
ATOM     30  C   UNL     1      25.966  39.316  26.917  1.00  0.00     0.004 C 
ENDBRANCH  28  29
ENDBRANCH  27  28
ENDBRANCH  26  27
ENDBRANCH  25  26
ENDBRANCH  24  25
ENDBRANCH  23  24
ENDBRANCH  22  23
ENDBRANCH  21  22
ENDBRANCH  20  21
ENDBRANCH  19  20
ENDBRANCH  18  19
ENDBRANCH  17  18
ENDBRANCH   1  17
TORSDOF 26
ENDMDL
