MODEL 1
REMARK VINA RESULT:    -0.086      0.000      0.000
REMARK INTER + INTRA:          -1.057
REMARK INTER:                  -0.121
REMARK INTRA:                  -0.935
REMARK UNBOUND:                -0.935
REMARK SMILES CCCCCCCCC(=O)[O-]
REMARK SMILES IDX 6 1 7 2 8 3 9 4 10 5 11 6 5 7 4 8 3 9 2 10 1 11
REMARK H PARENT
REMARK Flexibility Score: inf
ROOT
ATOM      1  C   UNL     1     160.940 183.360 180.411  1.00  0.00     0.000 C 
ENDROOT
BRANCH   1   2
ATOM      2  C   UNL     1     160.287 182.178 179.676  1.00  0.00     0.006 C 
BRANCH   2   3
ATOM      3  C   UNL     1     158.911 182.531 179.096  1.00  0.00     0.053 C 
BRANCH   3   4
ATOM      4  C   UNL     1     158.958 182.522 177.601  1.00  0.00     0.041 C 
ATOM      5  O   UNL     1     157.917 182.755 176.933  1.00  0.00    -0.550 OA
ATOM      6  O   UNL     1     160.163 182.305 176.945  1.00  0.00    -0.550 OA
ENDBRANCH   3   4
ENDBRANCH   2   3
ENDBRANCH   1   2
BRANCH   1   7
ATOM      7  C   UNL     1     161.984 184.087 179.550  1.00  0.00     0.000 C 
BRANCH   7   8
ATOM      8  C   UNL     1     161.495 185.488 179.162  1.00  0.00    -0.000 C 
BRANCH   8   9
ATOM      9  C   UNL     1     161.325 185.610 177.640  1.00  0.00    -0.000 C 
BRANCH   9  10
ATOM     10  C   UNL     1     159.905 186.036 177.236  1.00  0.00    -0.003 C 
ATOM     11  C   UNL     1     158.974 186.201 178.436  1.00  0.00     0.004 C 
ENDBRANCH   9  10
ENDBRANCH   8   9
ENDBRANCH   7   8
ENDBRANCH   1   7
TORSDOF 7
ENDMDL
MODEL 2
REMARK VINA RESULT:    -0.051     20.066     21.670
REMARK INTER + INTRA:          -1.007
REMARK INTER:                  -0.071
REMARK INTRA:                  -0.936
REMARK UNBOUND:                -0.935
REMARK SMILES CCCCCCCCC(=O)[O-]
REMARK SMILES IDX 6 1 7 2 8 3 9 4 10 5 11 6 5 7 4 8 3 9 2 10 1 11
REMARK H PARENT
REMARK Flexibility Score: inf
ROOT
ATOM      1  C   UNL     1     173.730 196.743 183.016  1.00  0.00     0.000 C 
ENDROOT
BRANCH   1   2
ATOM      2  C   UNL     1     175.089 196.065 182.783  1.00  0.00     0.006 C 
BRANCH   2   3
ATOM      3  C   UNL     1     175.551 195.236 183.989  1.00  0.00     0.053 C 
BRANCH   3   4
ATOM      4  C   UNL     1     176.512 196.022 184.823  1.00  0.00     0.041 C 
ATOM      5  O   UNL     1     177.748 195.970 184.584  1.00  0.00    -0.550 OA
ATOM      6  O   UNL     1     176.042 196.849 185.835  1.00  0.00    -0.550 OA
ENDBRANCH   3   4
ENDBRANCH   2   3
ENDBRANCH   1   2
BRANCH   1   7
ATOM      7  C   UNL     1     173.862 198.243 183.318  1.00  0.00     0.000 C 
BRANCH   7   8
ATOM      8  C   UNL     1     175.087 198.840 182.613  1.00  0.00    -0.000 C 
BRANCH   8   9
ATOM      9  C   UNL     1     175.955 199.636 183.599  1.00  0.00    -0.000 C 
BRANCH   9  10
ATOM     10  C   UNL     1     177.456 199.366 183.416  1.00  0.00    -0.003 C 
ATOM     11  C   UNL     1     177.764 198.570 182.148  1.00  0.00     0.004 C 
ENDBRANCH   9  10
ENDBRANCH   8   9
ENDBRANCH   7   8
ENDBRANCH   1   7
TORSDOF 7
ENDMDL
MODEL 3
REMARK VINA RESULT:    -0.039      1.593      3.586
REMARK INTER + INTRA:          -0.990
REMARK INTER:                  -0.035
REMARK INTRA:                  -0.956
REMARK UNBOUND:                -0.935
REMARK SMILES CCCCCCCCC(=O)[O-]
REMARK SMILES IDX 6 1 7 2 8 3 9 4 10 5 11 6 5 7 4 8 3 9 2 10 1 11
REMARK H PARENT
REMARK Flexibility Score: inf
ROOT
ATOM      1  C   UNL     1     162.285 186.192 179.059  1.00  0.00     0.000 C 
ENDROOT
BRANCH   1   2
ATOM      2  C   UNL     1     161.255 186.300 177.924  1.00  0.00     0.006 C 
BRANCH   2   3
ATOM      3  C   UNL     1     161.170 185.021 177.080  1.00  0.00     0.053 C 
BRANCH   3   4
ATOM      4  C   UNL     1     159.893 184.294 177.363  1.00  0.00     0.041 C 
ATOM      5  O   UNL     1     159.694 183.150 176.877  1.00  0.00    -0.550 OA
ATOM      6  O   UNL     1     158.942 184.860 178.202  1.00  0.00    -0.550 OA
ENDBRANCH   3   4
ENDBRANCH   2   3
ENDBRANCH   1   2
BRANCH   1   7
ATOM      7  C   UNL     1     161.636 185.896 180.420  1.00  0.00     0.000 C 
BRANCH   7   8
ATOM      8  C   UNL     1     162.063 184.519 180.943  1.00  0.00    -0.000 C 
BRANCH   8   9
ATOM      9  C   UNL     1     160.892 183.525 180.895  1.00  0.00    -0.000 C 
BRANCH   9  10
ATOM     10  C   UNL     1     161.237 182.242 180.124  1.00  0.00    -0.003 C 
ATOM     11  C   UNL     1     162.534 182.363 179.324  1.00  0.00     0.004 C 
ENDBRANCH   9  10
ENDBRANCH   8   9
ENDBRANCH   7   8
ENDBRANCH   1   7
TORSDOF 7
ENDMDL
MODEL 4
REMARK VINA RESULT:    -0.039     20.098     21.662
REMARK INTER + INTRA:          -0.990
REMARK INTER:                  -0.087
REMARK INTRA:                  -0.903
REMARK UNBOUND:                -0.935
REMARK SMILES CCCCCCCCC(=O)[O-]
REMARK SMILES IDX 6 1 7 2 8 3 9 4 10 5 11 6 5 7 4 8 3 9 2 10 1 11
REMARK H PARENT
REMARK Flexibility Score: inf
ROOT
ATOM      1  C   UNL     1     173.520 198.126 183.371  1.00  0.00     0.000 C 
ENDROOT
BRANCH   1   2
ATOM      2  C   UNL     1     174.344 199.403 183.148  1.00  0.00     0.006 C 
BRANCH   2   3
ATOM      3  C   UNL     1     175.848 199.179 183.352  1.00  0.00     0.053 C 
BRANCH   3   4
ATOM      4  C   UNL     1     176.619 199.740 182.200  1.00  0.00     0.041 C 
ATOM      5  O   UNL     1     176.018 200.125 181.162  1.00  0.00    -0.550 OA
ATOM      6  O   UNL     1     177.998 199.883 182.289  1.00  0.00    -0.550 OA
ENDBRANCH   3   4
ENDBRANCH   2   3
ENDBRANCH   1   2
BRANCH   1   7
ATOM      7  C   UNL     1     173.992 196.957 182.492  1.00  0.00     0.000 C 
BRANCH   7   8
ATOM      8  C   UNL     1     173.656 197.210 181.017  1.00  0.00    -0.000 C 
BRANCH   8   9
ATOM      9  C   UNL     1     174.874 196.941 180.121  1.00  0.00    -0.000 C 
BRANCH   9  10
ATOM     10  C   UNL     1     176.030 196.270 180.879  1.00  0.00    -0.003 C 
ATOM     11  C   UNL     1     177.402 196.657 180.328  1.00  0.00     0.004 C 
ENDBRANCH   9  10
ENDBRANCH   8   9
ENDBRANCH   7   8
ENDBRANCH   1   7
TORSDOF 7
ENDMDL
MODEL 5
REMARK VINA RESULT:    -0.027     20.676     22.046
REMARK INTER + INTRA:          -0.974
REMARK INTER:                  -0.044
REMARK INTRA:                  -0.929
REMARK UNBOUND:                -0.935
REMARK SMILES CCCCCCCCC(=O)[O-]
REMARK SMILES IDX 6 1 7 2 8 3 9 4 10 5 11 6 5 7 4 8 3 9 2 10 1 11
REMARK H PARENT
REMARK Flexibility Score: inf
ROOT
ATOM      1  C   UNL     1     175.231 199.075 184.198  1.00  0.00     0.000 C 
ENDROOT
BRANCH   1   2
ATOM      2  C   UNL     1     174.592 198.487 185.466  1.00  0.00     0.006 C 
BRANCH   2   3
ATOM      3  C   UNL     1     174.410 196.965 185.385  1.00  0.00     0.053 C 
BRANCH   3   4
ATOM      4  C   UNL     1     175.259 196.283 186.410  1.00  0.00     0.041 C 
ATOM      5  O   UNL     1     176.107 196.940 187.070  1.00  0.00    -0.550 OA
ATOM      6  O   UNL     1     175.082 194.931 186.672  1.00  0.00    -0.550 OA
ENDBRANCH   3   4
ENDBRANCH   2   3
ENDBRANCH   1   2
BRANCH   1   7
ATOM      7  C   UNL     1     176.744 199.298 184.348  1.00  0.00     0.000 C 
BRANCH   7   8
ATOM      8  C   UNL     1     177.529 198.399 183.385  1.00  0.00    -0.000 C 
BRANCH   8   9
ATOM      9  C   UNL     1     178.125 197.191 184.123  1.00  0.00    -0.000 C 
BRANCH   9  10
ATOM     10  C   UNL     1     177.605 195.851 183.579  1.00  0.00    -0.003 C 
ATOM     11  C   UNL     1     176.573 196.026 182.466  1.00  0.00     0.004 C 
ENDBRANCH   9  10
ENDBRANCH   8   9
ENDBRANCH   7   8
ENDBRANCH   1   7
TORSDOF 7
ENDMDL
MODEL 6
REMARK VINA RESULT:    -0.017      7.141      8.247
REMARK INTER + INTRA:          -0.959
REMARK INTER:                   0.000
REMARK INTRA:                  -0.959
REMARK UNBOUND:                -0.935
REMARK SMILES CCCCCCCCC(=O)[O-]
REMARK SMILES IDX 6 1 7 2 8 3 9 4 10 5 11 6 5 7 4 8 3 9 2 10 1 11
REMARK H PARENT
REMARK Flexibility Score: inf
ROOT
ATOM      1  C   UNL     1     163.137 189.433 184.289  1.00  0.00     0.000 C 
ENDROOT
BRANCH   1   2
ATOM      2  C   UNL     1     163.287 189.785 182.801  1.00  0.00     0.006 C 
BRANCH   2   3
ATOM      3  C   UNL     1     162.354 190.923 182.365  1.00  0.00     0.053 C 
BRANCH   3   4
ATOM      4  C   UNL     1     161.220 190.383 181.553  1.00  0.00     0.041 C 
ATOM      5  O   UNL     1     161.233 189.187 181.161  1.00  0.00    -0.550 OA
ATOM      6  O   UNL     1     160.123 191.188 181.269  1.00  0.00    -0.550 OA
ENDBRANCH   3   4
ENDBRANCH   2   3
ENDBRANCH   1   2
BRANCH   1   7
ATOM      7  C   UNL     1     162.331 188.145 184.514  1.00  0.00     0.000 C 
BRANCH   7   8
ATOM      8  C   UNL     1     161.032 188.436 185.276  1.00  0.00    -0.000 C 
BRANCH   8   9
ATOM      9  C   UNL     1     159.814 188.340 184.345  1.00  0.00    -0.000 C 
BRANCH   9  10
ATOM     10  C   UNL     1     158.947 189.608 184.373  1.00  0.00    -0.003 C 
ATOM     11  C   UNL     1     159.671 190.805 184.988  1.00  0.00     0.004 C 
ENDBRANCH   9  10
ENDBRANCH   8   9
ENDBRANCH   7   8
ENDBRANCH   1   7
TORSDOF 7
ENDMDL
MODEL 7
REMARK VINA RESULT:    -0.016     15.132     16.482
REMARK INTER + INTRA:          -0.958
REMARK INTER:                   0.000
REMARK INTRA:                  -0.958
REMARK UNBOUND:                -0.935
REMARK SMILES CCCCCCCCC(=O)[O-]
REMARK SMILES IDX 6 1 7 2 8 3 9 4 10 5 11 6 5 7 4 8 3 9 2 10 1 11
REMARK H PARENT
REMARK Flexibility Score: inf
ROOT
ATOM      1  C   UNL     1     165.741 191.651 189.750  1.00  0.00     0.000 C 
ENDROOT
BRANCH   1   2
ATOM      2  C   UNL     1     166.163 191.824 188.283  1.00  0.00     0.006 C 
BRANCH   2   3
ATOM      3  C   UNL     1     167.678 192.005 188.122  1.00  0.00     0.053 C 
BRANCH   3   4
ATOM      4  C   UNL     1     168.002 193.431 187.806  1.00  0.00     0.041 C 
ATOM      5  O   UNL     1     167.081 194.243 187.525  1.00  0.00    -0.550 OA
ATOM      6  O   UNL     1     169.316 193.877 187.868  1.00  0.00    -0.550 OA
ENDBRANCH   3   4
ENDBRANCH   2   3
ENDBRANCH   1   2
BRANCH   1   7
ATOM      7  C   UNL     1     165.119 192.926 190.341  1.00  0.00     0.000 C 
BRANCH   7   8
ATOM      8  C   UNL     1     165.976 193.473 191.490  1.00  0.00    -0.000 C 
BRANCH   8   9
ATOM      9  C   UNL     1     166.726 194.743 191.061  1.00  0.00    -0.000 C 
BRANCH   9  10
ATOM     10  C   UNL     1     168.240 194.644 191.297  1.00  0.00    -0.003 C 
ATOM     11  C   UNL     1     168.711 193.208 191.525  1.00  0.00     0.004 C 
ENDBRANCH   9  10
ENDBRANCH   8   9
ENDBRANCH   7   8
ENDBRANCH   1   7
TORSDOF 7
ENDMDL
MODEL 8
REMARK VINA RESULT:    -0.016      5.119      6.825
REMARK INTER + INTRA:          -0.958
REMARK INTER:                   0.000
REMARK INTRA:                  -0.958
REMARK UNBOUND:                -0.935
REMARK SMILES CCCCCCCCC(=O)[O-]
REMARK SMILES IDX 6 1 7 2 8 3 9 4 10 5 11 6 5 7 4 8 3 9 2 10 1 11
REMARK H PARENT
REMARK Flexibility Score: inf
ROOT
ATOM      1  C   UNL     1     161.617 188.619 181.855  1.00  0.00     0.000 C 
ENDROOT
BRANCH   1   2
ATOM      2  C   UNL     1     162.523 188.360 180.641  1.00  0.00     0.006 C 
BRANCH   2   3
ATOM      3  C   UNL     1     162.729 186.865 180.365  1.00  0.00     0.053 C 
BRANCH   3   4
ATOM      4  C   UNL     1     164.102 186.443 180.782  1.00  0.00     0.041 C 
ATOM      5  O   UNL     1     164.961 187.307 181.102  1.00  0.00    -0.550 OA
ATOM      6  O   UNL     1     164.421 185.093 180.862  1.00  0.00    -0.550 OA
ENDBRANCH   3   4
ENDBRANCH   2   3
ENDBRANCH   1   2
BRANCH   1   7
ATOM      7  C   UNL     1     162.407 189.039 183.104  1.00  0.00     0.000 C 
BRANCH   7   8
ATOM      8  C   UNL     1     162.257 188.002 184.224  1.00  0.00    -0.000 C 
BRANCH   8   9
ATOM      9  C   UNL     1     163.548 187.189 184.398  1.00  0.00    -0.000 C 
BRANCH   9  10
ATOM     10  C   UNL     1     163.309 185.674 184.317  1.00  0.00    -0.003 C 
ATOM     11  C   UNL     1     161.956 185.321 183.699  1.00  0.00     0.004 C 
ENDBRANCH   9  10
ENDBRANCH   8   9
ENDBRANCH   7   8
ENDBRANCH   1   7
TORSDOF 7
ENDMDL
MODEL 9
REMARK VINA RESULT:    -0.016     17.663     19.170
REMARK INTER + INTRA:          -0.958
REMARK INTER:                   0.000
REMARK INTRA:                  -0.958
REMARK UNBOUND:                -0.935
REMARK SMILES CCCCCCCCC(=O)[O-]
REMARK SMILES IDX 6 1 7 2 8 3 9 4 10 5 11 6 5 7 4 8 3 9 2 10 1 11
REMARK H PARENT
REMARK Flexibility Score: inf
ROOT
ATOM      1  C   UNL     1     171.109 187.704 191.422  1.00  0.00     0.000 C 
ENDROOT
BRANCH   1   2
ATOM      2  C   UNL     1     171.636 186.333 190.970  1.00  0.00     0.006 C 
BRANCH   2   3
ATOM      3  C   UNL     1     172.710 185.774 191.912  1.00  0.00     0.053 C 
BRANCH   3   4
ATOM      4  C   UNL     1     174.062 185.882 191.283  1.00  0.00     0.041 C 
ATOM      5  O   UNL     1     174.173 186.204 190.071  1.00  0.00    -0.550 OA
ATOM      6  O   UNL     1     175.204 185.674 192.047  1.00  0.00    -0.550 OA
ENDBRANCH   3   4
ENDBRANCH   2   3
ENDBRANCH   1   2
BRANCH   1   7
ATOM      7  C   UNL     1     171.686 188.862 190.593  1.00  0.00     0.000 C 
BRANCH   7   8
ATOM      8  C   UNL     1     172.532 189.795 191.468  1.00  0.00    -0.000 C 
BRANCH   8   9
ATOM      9  C   UNL     1     174.030 189.615 191.175  1.00  0.00    -0.000 C 
BRANCH   9  10
ATOM     10  C   UNL     1     174.847 189.311 192.440  1.00  0.00    -0.003 C 
ATOM     11  C   UNL     1     173.975 188.871 193.616  1.00  0.00     0.004 C 
ENDBRANCH   9  10
ENDBRANCH   8   9
ENDBRANCH   7   8
ENDBRANCH   1   7
TORSDOF 7
ENDMDL
