MODEL 1
REMARK VINA RESULT:    12.661      0.000      0.000
REMARK INTER + INTRA:          13.376
REMARK INTER:                  13.402
REMARK INTRA:                  -0.026
REMARK UNBOUND:                -0.026
REMARK SMILES CC1=C[C@@H]2C(=C(C)CC[C@@H]2C(C)C)CC1
REMARK SMILES IDX 1 1 2 2 3 3 4 4 10 5 9 6 8 7 6 8 5 9 14 10 15 11 7 12 11 13
REMARK SMILES IDX 12 14 13 15
REMARK H PARENT
REMARK Flexibility Score: inf
ROOT
ATOM      1  C   UNL     1     150.646 136.435 156.920  1.00  0.00     0.039 C 
ATOM      2  C   UNL     1     150.133 135.898 158.227  1.00  0.00    -0.076 C 
ATOM      3  C   UNL     1     151.015 135.485 159.160  1.00  0.00    -0.020 C 
ATOM      4  C   UNL     1     150.611 134.916 160.508  1.00  0.00     0.041 C 
ATOM      5  C   UNL     1     151.452 135.521 161.660  1.00  0.00     0.003 C 
ATOM      6  C   UNL     1     151.006 134.877 162.987  1.00  0.00     0.009 C 
ATOM      7  C   UNL     1     149.504 135.004 163.263  1.00  0.00     0.031 C 
ATOM      8  C   UNL     1     148.612 134.941 162.036  1.00  0.00    -0.073 C 
ATOM      9  C   UNL     1     149.111 134.978 160.766  1.00  0.00    -0.064 C 
ATOM     10  C   UNL     1     148.229 134.875 159.536  1.00  0.00     0.036 C 
ATOM     11  C   UNL     1     148.647 135.926 158.506  1.00  0.00     0.035 C 
ATOM     12  C   UNL     1     147.124 134.917 162.298  1.00  0.00     0.039 C 
ENDROOT
BRANCH   5  13
ATOM     13  C   UNL     1     151.588 137.087 161.659  1.00  0.00    -0.013 C 
ATOM     14  C   UNL     1     152.613 137.580 162.693  1.00  0.00     0.007 C 
ATOM     15  C   UNL     1     150.279 137.877 161.805  1.00  0.00     0.007 C 
ENDBRANCH   5  13
TORSDOF 1
ENDMDL
MODEL 2
REMARK VINA RESULT:    13.055      1.396      4.591
REMARK INTER + INTRA:          13.793
REMARK INTER:                  13.716
REMARK INTRA:                   0.076
REMARK UNBOUND:                -0.026
REMARK SMILES CC1=C[C@@H]2C(=C(C)CC[C@@H]2C(C)C)CC1
REMARK SMILES IDX 1 1 2 2 3 3 4 4 10 5 9 6 8 7 6 8 5 9 14 10 15 11 7 12 11 13
REMARK SMILES IDX 12 14 13 15
REMARK H PARENT
REMARK Flexibility Score: inf
ROOT
ATOM      1  C   UNL     1     150.663 136.335 164.710  1.00  0.00     0.039 C 
ATOM      2  C   UNL     1     150.617 135.833 163.293  1.00  0.00    -0.076 C 
ATOM      3  C   UNL     1     149.441 135.416 162.782  1.00  0.00    -0.020 C 
ATOM      4  C   UNL     1     149.279 134.880 161.371  1.00  0.00     0.041 C 
ATOM      5  C   UNL     1     148.038 135.486 160.668  1.00  0.00     0.003 C 
ATOM      6  C   UNL     1     147.923 134.875 159.257  1.00  0.00     0.009 C 
ATOM      7  C   UNL     1     149.187 135.041 158.406  1.00  0.00     0.031 C 
ATOM      8  C   UNL     1     150.497 134.976 159.172  1.00  0.00    -0.073 C 
ATOM      9  C   UNL     1     150.548 134.980 160.536  1.00  0.00    -0.064 C 
ATOM     10  C   UNL     1     151.850 134.876 161.307  1.00  0.00     0.036 C 
ATOM     11  C   UNL     1     151.866 135.899 162.444  1.00  0.00     0.035 C 
ATOM     12  C   UNL     1     151.756 134.991 158.335  1.00  0.00     0.039 C 
ENDROOT
BRANCH   5  13
ATOM     13  C   UNL     1     147.893 137.049 160.762  1.00  0.00    -0.013 C 
ATOM     14  C   UNL     1     146.870 137.597 159.754  1.00  0.00     0.007 C 
ATOM     15  C   UNL     1     149.198 137.854 160.672  1.00  0.00     0.007 C 
ENDBRANCH   5  13
TORSDOF 1
ENDMDL
MODEL 3
REMARK VINA RESULT:    13.612     12.947     14.983
REMARK INTER + INTRA:          14.382
REMARK INTER:                  13.803
REMARK INTRA:                   0.579
REMARK UNBOUND:                -0.026
REMARK SMILES CC1=C[C@@H]2C(=C(C)CC[C@@H]2C(C)C)CC1
REMARK SMILES IDX 1 1 2 2 3 3 4 4 10 5 9 6 8 7 6 8 5 9 14 10 15 11 7 12 11 13
REMARK SMILES IDX 12 14 13 15
REMARK H PARENT
REMARK Flexibility Score: inf
ROOT
ATOM      1  C   UNL     1     136.442 140.755 166.605  1.00  0.00     0.039 C 
ATOM      2  C   UNL     1     136.331 139.724 165.517  1.00  0.00    -0.076 C 
ATOM      3  C   UNL     1     135.426 139.903 164.533  1.00  0.00    -0.020 C 
ATOM      4  C   UNL     1     135.218 138.924 163.392  1.00  0.00     0.041 C 
ATOM      5  C   UNL     1     135.114 139.650 162.026  1.00  0.00     0.003 C 
ATOM      6  C   UNL     1     134.876 138.598 160.926  1.00  0.00     0.009 C 
ATOM      7  C   UNL     1     135.932 137.487 160.891  1.00  0.00     0.031 C 
ATOM      8  C   UNL     1     136.485 137.077 162.245  1.00  0.00    -0.073 C 
ATOM      9  C   UNL     1     136.222 137.779 163.386  1.00  0.00    -0.064 C 
ATOM     10  C   UNL     1     136.739 137.353 164.747  1.00  0.00     0.036 C 
ATOM     11  C   UNL     1     137.299 138.564 165.494  1.00  0.00     0.035 C 
ATOM     12  C   UNL     1     137.417 135.887 162.247  1.00  0.00     0.039 C 
ENDROOT
BRANCH   5  13
ATOM     13  C   UNL     1     136.227 140.721 161.734  1.00  0.00    -0.013 C 
ATOM     14  C   UNL     1     137.606 140.278 162.249  1.00  0.00     0.007 C 
ATOM     15  C   UNL     1     135.927 142.151 162.208  1.00  0.00     0.007 C 
ENDBRANCH   5  13
TORSDOF 1
ENDMDL
MODEL 4
REMARK VINA RESULT:    14.135      1.246      2.122
REMARK INTER + INTRA:          14.936
REMARK INTER:                  14.928
REMARK INTRA:                   0.007
REMARK UNBOUND:                -0.026
REMARK SMILES CC1=C[C@@H]2C(=C(C)CC[C@@H]2C(C)C)CC1
REMARK SMILES IDX 1 1 2 2 3 3 4 4 10 5 9 6 8 7 6 8 5 9 14 10 15 11 7 12 11 13
REMARK SMILES IDX 12 14 13 15
REMARK H PARENT
REMARK Flexibility Score: inf
ROOT
ATOM      1  C   UNL     1     152.202 135.858 156.333  1.00  0.00     0.039 C 
ATOM      2  C   UNL     1     150.952 135.774 157.164  1.00  0.00    -0.076 C 
ATOM      3  C   UNL     1     150.969 135.055 158.304  1.00  0.00    -0.020 C 
ATOM      4  C   UNL     1     149.765 134.891 159.214  1.00  0.00     0.041 C 
ATOM      5  C   UNL     1     150.143 135.085 160.705  1.00  0.00     0.003 C 
ATOM      6  C   UNL     1     148.881 134.875 161.564  1.00  0.00     0.009 C 
ATOM      7  C   UNL     1     147.703 135.770 161.164  1.00  0.00     0.031 C 
ATOM      8  C   UNL     1     147.586 136.060 159.677  1.00  0.00    -0.073 C 
ATOM      9  C   UNL     1     148.566 135.727 158.787  1.00  0.00    -0.064 C 
ATOM     10  C   UNL     1     148.438 135.977 157.297  1.00  0.00     0.036 C 
ATOM     11  C   UNL     1     149.737 136.575 156.756  1.00  0.00     0.035 C 
ATOM     12  C   UNL     1     146.351 136.817 159.245  1.00  0.00     0.039 C 
ENDROOT
BRANCH   5  13
ATOM     13  C   UNL     1     151.003 136.359 161.032  1.00  0.00    -0.013 C 
ATOM     14  C   UNL     1     151.786 136.207 162.346  1.00  0.00     0.007 C 
ATOM     15  C   UNL     1     150.253 137.699 161.023  1.00  0.00     0.007 C 
ENDBRANCH   5  13
TORSDOF 1
ENDMDL
MODEL 5
REMARK VINA RESULT:    14.910     13.136     14.857
REMARK INTER + INTRA:          15.756
REMARK INTER:                  15.800
REMARK INTRA:                  -0.044
REMARK UNBOUND:                -0.026
REMARK SMILES CC1=C[C@@H]2C(=C(C)CC[C@@H]2C(C)C)CC1
REMARK SMILES IDX 1 1 2 2 3 3 4 4 10 5 9 6 8 7 6 8 5 9 14 10 15 11 7 12 11 13
REMARK SMILES IDX 12 14 13 15
REMARK H PARENT
REMARK Flexibility Score: inf
ROOT
ATOM      1  C   UNL     1     136.905 136.956 167.328  1.00  0.00     0.039 C 
ATOM      2  C   UNL     1     136.757 137.826 166.111  1.00  0.00    -0.076 C 
ATOM      3  C   UNL     1     137.478 137.540 165.008  1.00  0.00    -0.020 C 
ATOM      4  C   UNL     1     137.418 138.354 163.728  1.00  0.00     0.041 C 
ATOM      5  C   UNL     1     137.315 137.447 162.476  1.00  0.00     0.003 C 
ATOM      6  C   UNL     1     137.288 138.340 161.221  1.00  0.00     0.009 C 
ATOM      7  C   UNL     1     136.180 139.399 161.238  1.00  0.00     0.031 C 
ATOM      8  C   UNL     1     135.859 139.978 162.605  1.00  0.00    -0.073 C 
ATOM      9  C   UNL     1     136.364 139.453 163.759  1.00  0.00    -0.064 C 
ATOM     10  C   UNL     1     136.079 140.050 165.124  1.00  0.00     0.036 C 
ATOM     11  C   UNL     1     135.735 138.939 166.116  1.00  0.00     0.035 C 
ATOM     12  C   UNL     1     134.875 141.125 162.624  1.00  0.00     0.039 C 
ENDROOT
BRANCH   5  13
ATOM     13  C   UNL     1     136.232 136.309 162.543  1.00  0.00    -0.013 C 
ATOM     14  C   UNL     1     136.763 134.971 162.003  1.00  0.00     0.007 C 
ATOM     15  C   UNL     1     134.876 136.631 161.898  1.00  0.00     0.007 C 
ENDBRANCH   5  13
TORSDOF 1
ENDMDL
