MODEL 1
REMARK VINA RESULT:    -6.113      0.000      0.000
REMARK INTER + INTRA:          -6.851
REMARK INTER:                  -6.650
REMARK INTRA:                  -0.202
REMARK UNBOUND:                -0.202
REMARK SMILES CC(C)(C)[C@@H]1C=C[C@H](O)CC1
REMARK SMILES IDX 5 1 11 2 10 3 8 4 7 5 6 6 2 7 1 8 3 9 4 10 9 11
REMARK H PARENT 9 12
REMARK Flexibility Score: inf
ROOT
ATOM      1  C   UNL     1     137.415 119.170 138.130  1.00  0.00     0.017 C 
ATOM      2  C   UNL     1     136.121 120.037 138.222  1.00  0.00     0.011 C 
ATOM      3  C   UNL     1     136.128 121.089 139.365  1.00  0.00     0.037 C 
ATOM      4  C   UNL     1     137.492 121.223 140.069  1.00  0.00     0.137 C 
ATOM      5  C   UNL     1     137.998 119.855 140.431  1.00  0.00     0.000 C 
ATOM      6  C   UNL     1     137.942 118.872 139.524  1.00  0.00    -0.025 C 
ENDROOT
BRANCH   1   7
ATOM      7  C   UNL     1     137.275 117.891 137.220  1.00  0.00    -0.032 C 
ATOM      8  C   UNL     1     137.866 116.625 137.887  1.00  0.00     0.011 C 
ATOM      9  C   UNL     1     135.787 117.625 136.896  1.00  0.00     0.011 C 
ATOM     10  C   UNL     1     138.006 118.126 135.875  1.00  0.00     0.011 C 
ENDBRANCH   1   7
BRANCH   4  11
ATOM     11  O   UNL     1     137.367 121.999 141.231  1.00  0.00    -0.389 OA
ATOM     12  H   UNL     1     138.271 122.044 141.641  1.00  0.00     0.211 HD
ENDBRANCH   4  11
TORSDOF 2
ENDMDL
MODEL 2
REMARK VINA RESULT:    -6.078      1.272      2.121
REMARK INTER + INTRA:          -6.813
REMARK INTER:                  -6.608
REMARK INTRA:                  -0.205
REMARK UNBOUND:                -0.202
REMARK SMILES CC(C)(C)[C@@H]1C=C[C@H](O)CC1
REMARK SMILES IDX 5 1 11 2 10 3 8 4 7 5 6 6 2 7 1 8 3 9 4 10 9 11
REMARK H PARENT 9 12
REMARK Flexibility Score: inf
ROOT
ATOM      1  C   UNL     1     136.644 120.176 138.859  1.00  0.00     0.017 C 
ATOM      2  C   UNL     1     135.263 120.691 139.373  1.00  0.00     0.011 C 
ATOM      3  C   UNL     1     135.346 121.902 140.342  1.00  0.00     0.037 C 
ATOM      4  C   UNL     1     136.760 122.502 140.458  1.00  0.00     0.137 C 
ATOM      5  C   UNL     1     137.748 121.396 140.702  1.00  0.00     0.000 C 
ATOM      6  C   UNL     1     137.682 120.281 139.964  1.00  0.00    -0.025 C 
ENDROOT
BRANCH   1   7
ATOM      7  C   UNL     1     136.592 118.759 138.172  1.00  0.00    -0.032 C 
ATOM      8  C   UNL     1     136.291 118.849 136.656  1.00  0.00     0.011 C 
ATOM      9  C   UNL     1     137.940 118.024 138.361  1.00  0.00     0.011 C 
ATOM     10  C   UNL     1     135.496 117.894 138.841  1.00  0.00     0.011 C 
ENDBRANCH   1   7
BRANCH   4  11
ATOM     11  O   UNL     1     136.815 123.421 141.517  1.00  0.00    -0.389 OA
ATOM     12  H   UNL     1     136.070 124.063 141.374  1.00  0.00     0.211 HD
ENDBRANCH   4  11
TORSDOF 2
ENDMDL
MODEL 3
REMARK VINA RESULT:    -6.019      0.680      1.645
REMARK INTER + INTRA:          -6.749
REMARK INTER:                  -6.545
REMARK INTRA:                  -0.204
REMARK UNBOUND:                -0.202
REMARK SMILES CC(C)(C)[C@@H]1C=C[C@H](O)CC1
REMARK SMILES IDX 5 1 11 2 10 3 8 4 7 5 6 6 2 7 1 8 3 9 4 10 9 11
REMARK H PARENT 9 12
REMARK Flexibility Score: inf
ROOT
ATOM      1  C   UNL     1     136.972 118.452 138.272  1.00  0.00     0.017 C 
ATOM      2  C   UNL     1     138.260 118.741 139.104  1.00  0.00     0.011 C 
ATOM      3  C   UNL     1     138.110 119.877 140.153  1.00  0.00     0.037 C 
ATOM      4  C   UNL     1     136.660 120.371 140.323  1.00  0.00     0.137 C 
ATOM      5  C   UNL     1     136.071 120.645 138.967  1.00  0.00     0.000 C 
ATOM      6  C   UNL     1     136.236 119.750 137.986  1.00  0.00    -0.025 C 
ENDROOT
BRANCH   1   7
ATOM      7  C   UNL     1     137.212 117.565 136.992  1.00  0.00    -0.032 C 
ATOM      8  C   UNL     1     137.918 116.228 137.326  1.00  0.00     0.011 C 
ATOM      9  C   UNL     1     135.866 117.248 136.301  1.00  0.00     0.011 C 
ATOM     10  C   UNL     1     138.083 118.342 135.975  1.00  0.00     0.011 C 
ENDBRANCH   1   7
BRANCH   4  11
ATOM     11  O   UNL     1     136.631 121.543 141.092  1.00  0.00    -0.389 OA
ATOM     12  H   UNL     1     137.016 121.310 141.978  1.00  0.00     0.211 HD
ENDBRANCH   4  11
TORSDOF 2
ENDMDL
MODEL 4
REMARK VINA RESULT:    -5.837      2.423      4.597
REMARK INTER + INTRA:          -6.551
REMARK INTER:                  -6.346
REMARK INTRA:                  -0.205
REMARK UNBOUND:                -0.202
REMARK SMILES CC(C)(C)[C@@H]1C=C[C@H](O)CC1
REMARK SMILES IDX 5 1 11 2 10 3 8 4 7 5 6 6 2 7 1 8 3 9 4 10 9 11
REMARK H PARENT 9 12
REMARK Flexibility Score: inf
ROOT
ATOM      1  C   UNL     1     136.041 120.179 139.142  1.00  0.00     0.017 C 
ATOM      2  C   UNL     1     137.563 119.999 139.432  1.00  0.00     0.011 C 
ATOM      3  C   UNL     1     138.170 118.674 138.895  1.00  0.00     0.037 C 
ATOM      4  C   UNL     1     137.207 117.875 137.997  1.00  0.00     0.137 C 
ATOM      5  C   UNL     1     135.875 117.757 138.684  1.00  0.00     0.000 C 
ATOM      6  C   UNL     1     135.329 118.841 139.249  1.00  0.00    -0.025 C 
ENDROOT
BRANCH   1   7
ATOM      7  C   UNL     1     135.354 121.329 139.973  1.00  0.00    -0.032 C 
ATOM      8  C   UNL     1     135.283 122.662 139.188  1.00  0.00     0.011 C 
ATOM      9  C   UNL     1     133.917 120.917 140.370  1.00  0.00     0.011 C 
ATOM     10  C   UNL     1     136.144 121.569 141.283  1.00  0.00     0.011 C 
ENDBRANCH   1   7
BRANCH   4  11
ATOM     11  O   UNL     1     137.721 116.594 137.748  1.00  0.00    -0.389 OA
ATOM     12  H   UNL     1     137.488 116.037 138.537  1.00  0.00     0.211 HD
ENDBRANCH   4  11
TORSDOF 2
ENDMDL
MODEL 5
REMARK VINA RESULT:    -5.677      2.173      3.359
REMARK INTER + INTRA:          -6.377
REMARK INTER:                  -6.177
REMARK INTRA:                  -0.200
REMARK UNBOUND:                -0.202
REMARK SMILES CC(C)(C)[C@@H]1C=C[C@H](O)CC1
REMARK SMILES IDX 5 1 11 2 10 3 8 4 7 5 6 6 2 7 1 8 3 9 4 10 9 11
REMARK H PARENT 9 12
REMARK Flexibility Score: inf
ROOT
ATOM      1  C   UNL     1     135.705 120.420 139.301  1.00  0.00     0.017 C 
ATOM      2  C   UNL     1     134.356 120.048 139.991  1.00  0.00     0.011 C 
ATOM      3  C   UNL     1     133.457 121.264 140.348  1.00  0.00     0.037 C 
ATOM      4  C   UNL     1     133.968 122.598 139.771  1.00  0.00     0.137 C 
ATOM      5  C   UNL     1     135.430 122.745 140.089  1.00  0.00     0.000 C 
ATOM      6  C   UNL     1     136.253 121.708 139.891  1.00  0.00    -0.025 C 
ENDROOT
BRANCH   1   7
ATOM      7  C   UNL     1     136.757 119.246 139.258  1.00  0.00    -0.032 C 
ATOM      8  C   UNL     1     136.086 117.851 139.319  1.00  0.00     0.011 C 
ATOM      9  C   UNL     1     137.598 119.329 137.963  1.00  0.00     0.011 C 
ATOM     10  C   UNL     1     137.732 119.376 140.453  1.00  0.00     0.011 C 
ENDBRANCH   1   7
BRANCH   4  11
ATOM     11  O   UNL     1     133.258 123.673 140.325  1.00  0.00    -0.389 OA
ATOM     12  H   UNL     1     133.373 123.612 141.309  1.00  0.00     0.211 HD
ENDBRANCH   4  11
TORSDOF 2
ENDMDL
MODEL 6
REMARK VINA RESULT:    -5.416      1.432      2.359
REMARK INTER + INTRA:          -6.093
REMARK INTER:                  -5.889
REMARK INTRA:                  -0.204
REMARK UNBOUND:                -0.202
REMARK SMILES CC(C)(C)[C@@H]1C=C[C@H](O)CC1
REMARK SMILES IDX 5 1 11 2 10 3 8 4 7 5 6 6 2 7 1 8 3 9 4 10 9 11
REMARK H PARENT 9 12
REMARK Flexibility Score: inf
ROOT
ATOM      1  C   UNL     1     136.468 119.819 139.523  1.00  0.00     0.017 C 
ATOM      2  C   UNL     1     137.826 120.361 140.068  1.00  0.00     0.011 C 
ATOM      3  C   UNL     1     137.736 121.750 140.758  1.00  0.00     0.037 C 
ATOM      4  C   UNL     1     136.291 122.245 140.961  1.00  0.00     0.137 C 
ATOM      5  C   UNL     1     135.535 122.102 139.670  1.00  0.00     0.000 C 
ATOM      6  C   UNL     1     135.634 120.964 138.973  1.00  0.00    -0.025 C 
ENDROOT
BRANCH   1   7
ATOM      7  C   UNL     1     136.607 118.603 138.531  1.00  0.00    -0.032 C 
ATOM      8  C   UNL     1     135.731 117.396 138.951  1.00  0.00     0.011 C 
ATOM      9  C   UNL     1     136.199 119.030 137.101  1.00  0.00     0.011 C 
ATOM     10  C   UNL     1     138.084 118.143 138.473  1.00  0.00     0.011 C 
ENDBRANCH   1   7
BRANCH   4  11
ATOM     11  O   UNL     1     136.287 123.589 141.361  1.00  0.00    -0.389 OA
ATOM     12  H   UNL     1     135.530 123.695 141.995  1.00  0.00     0.211 HD
ENDBRANCH   4  11
TORSDOF 2
ENDMDL
MODEL 7
REMARK VINA RESULT:    -5.307      2.292      3.378
REMARK INTER + INTRA:          -5.974
REMARK INTER:                  -5.769
REMARK INTRA:                  -0.205
REMARK UNBOUND:                -0.202
REMARK SMILES CC(C)(C)[C@@H]1C=C[C@H](O)CC1
REMARK SMILES IDX 5 1 11 2 10 3 8 4 7 5 6 6 2 7 1 8 3 9 4 10 9 11
REMARK H PARENT 9 12
REMARK Flexibility Score: inf
ROOT
ATOM      1  C   UNL     1     135.776 120.673 139.774  1.00  0.00     0.017 C 
ATOM      2  C   UNL     1     136.020 122.000 138.990  1.00  0.00     0.011 C 
ATOM      3  C   UNL     1     134.993 123.126 139.293  1.00  0.00     0.037 C 
ATOM      4  C   UNL     1     134.045 122.796 140.462  1.00  0.00     0.137 C 
ATOM      5  C   UNL     1     133.473 121.421 140.261  1.00  0.00     0.000 C 
ATOM      6  C   UNL     1     134.285 120.416 139.912  1.00  0.00    -0.025 C 
ENDROOT
BRANCH   1   7
ATOM      7  C   UNL     1     136.583 119.437 139.222  1.00  0.00    -0.032 C 
ATOM      8  C   UNL     1     137.996 119.328 139.846  1.00  0.00     0.011 C 
ATOM      9  C   UNL     1     135.817 118.125 139.513  1.00  0.00     0.011 C 
ATOM     10  C   UNL     1     136.731 119.555 137.685  1.00  0.00     0.011 C 
ENDBRANCH   1   7
BRANCH   4  11
ATOM     11  O   UNL     1     133.002 123.733 140.523  1.00  0.00    -0.389 OA
ATOM     12  H   UNL     1     133.190 124.315 141.306  1.00  0.00     0.211 HD
ENDBRANCH   4  11
TORSDOF 2
ENDMDL
MODEL 8
REMARK VINA RESULT:    -5.212      2.625      4.416
REMARK INTER + INTRA:          -5.870
REMARK INTER:                  -5.669
REMARK INTRA:                  -0.201
REMARK UNBOUND:                -0.202
REMARK SMILES CC(C)(C)[C@@H]1C=C[C@H](O)CC1
REMARK SMILES IDX 5 1 11 2 10 3 8 4 7 5 6 6 2 7 1 8 3 9 4 10 9 11
REMARK H PARENT 9 12
REMARK Flexibility Score: inf
ROOT
ATOM      1  C   UNL     1     136.616 118.987 138.728  1.00  0.00     0.017 C 
ATOM      2  C   UNL     1     136.113 119.273 137.279  1.00  0.00     0.011 C 
ATOM      3  C   UNL     1     136.481 118.177 136.241  1.00  0.00     0.037 C 
ATOM      4  C   UNL     1     137.096 116.913 136.871  1.00  0.00     0.137 C 
ATOM      5  C   UNL     1     138.192 117.317 137.818  1.00  0.00     0.000 C 
ATOM      6  C   UNL     1     137.977 118.315 138.684  1.00  0.00    -0.025 C 
ENDROOT
BRANCH   1   7
ATOM      7  C   UNL     1     136.556 120.233 139.692  1.00  0.00    -0.032 C 
ATOM      8  C   UNL     1     137.922 120.525 140.362  1.00  0.00     0.011 C 
ATOM      9  C   UNL     1     136.114 121.492 138.912  1.00  0.00     0.011 C 
ATOM     10  C   UNL     1     135.506 119.983 140.802  1.00  0.00     0.011 C 
ENDBRANCH   1   7
BRANCH   4  11
ATOM     11  O   UNL     1     137.622 116.077 135.875  1.00  0.00    -0.389 OA
ATOM     12  H   UNL     1     137.457 115.144 136.172  1.00  0.00     0.211 HD
ENDBRANCH   4  11
TORSDOF 2
ENDMDL
MODEL 9
REMARK VINA RESULT:    -5.043      2.911      4.628
REMARK INTER + INTRA:          -5.687
REMARK INTER:                  -5.482
REMARK INTRA:                  -0.205
REMARK UNBOUND:                -0.202
REMARK SMILES CC(C)(C)[C@@H]1C=C[C@H](O)CC1
REMARK SMILES IDX 5 1 11 2 10 3 8 4 7 5 6 6 2 7 1 8 3 9 4 10 9 11
REMARK H PARENT 9 12
REMARK Flexibility Score: inf
ROOT
ATOM      1  C   UNL     1     135.482 122.297 139.574  1.00  0.00     0.017 C 
ATOM      2  C   UNL     1     134.129 123.074 139.614  1.00  0.00     0.011 C 
ATOM      3  C   UNL     1     134.274 124.621 139.612  1.00  0.00     0.037 C 
ATOM      4  C   UNL     1     135.716 125.104 139.365  1.00  0.00     0.137 C 
ATOM      5  C   UNL     1     136.650 124.357 140.276  1.00  0.00     0.000 C 
ATOM      6  C   UNL     1     136.528 123.030 140.397  1.00  0.00    -0.025 C 
ENDROOT
BRANCH   1   7
ATOM      7  C   UNL     1     135.360 120.765 139.926  1.00  0.00    -0.032 C 
ATOM      8  C   UNL     1     135.751 119.854 138.737  1.00  0.00     0.011 C 
ATOM      9  C   UNL     1     136.268 120.419 141.128  1.00  0.00     0.011 C 
ATOM     10  C   UNL     1     133.903 120.439 140.338  1.00  0.00     0.011 C 
ENDBRANCH   1   7
BRANCH   4  11
ATOM     11  O   UNL     1     135.818 126.481 139.615  1.00  0.00    -0.389 OA
ATOM     12  H   UNL     1     135.911 126.584 140.598  1.00  0.00     0.211 HD
ENDBRANCH   4  11
TORSDOF 2
ENDMDL
