MODEL 1
REMARK VINA RESULT:    -6.650      0.000      0.000
REMARK INTER + INTRA:          -8.079
REMARK INTER:                  -7.816
REMARK INTRA:                  -0.262
REMARK UNBOUND:                -0.262
REMARK SMILES O=c1cc(-c2ccc(O)c(O)c2)oc2cc(O)cc(O)c12
REMARK SMILES IDX 4 1 3 2 2 3 1 4 21 5 19 6 18 7 16 8 15 9 14 10 13 11 5 12
REMARK SMILES IDX 6 13 7 14 8 15 12 16 10 17 9 18 11 20 20 22 17 24
REMARK H PARENT 9 19 11 21 20 23 17 25
REMARK Flexibility Score: inf
ROOT
ATOM      1  C   UNL     1     -16.555  -2.375   4.000  1.00  0.00     0.138 A 
ATOM      2  C   UNL     1     -17.503  -3.405   4.089  1.00  0.00     0.100 A 
ATOM      3  C   UNL     1     -18.806  -3.184   3.641  1.00  0.00     0.197 A 
ATOM      4  O   UNL     1     -19.649  -4.106   3.792  1.00  0.00    -0.289 OA
ATOM      5  C   UNL     1     -19.153  -1.936   3.073  1.00  0.00     0.107 A 
ATOM      6  C   UNL     1     -20.439  -1.612   2.545  1.00  0.00     0.134 A 
ATOM      7  C   UNL     1     -20.698  -0.305   2.113  1.00  0.00     0.093 A 
ATOM      8  C   UNL     1     -19.704   0.671   2.133  1.00  0.00     0.123 A 
ATOM      9  C   UNL     1     -18.427   0.351   2.596  1.00  0.00     0.094 A 
ATOM     10  C   UNL     1     -18.146  -0.934   3.066  1.00  0.00     0.146 A 
ATOM     11  O   UNL     1     -16.921  -1.194   3.512  1.00  0.00    -0.456 OA
ENDROOT
BRANCH   1  12
ATOM     12  C   UNL     1     -15.155  -2.557   4.460  1.00  0.00     0.021 A 
ATOM     13  C   UNL     1     -14.123  -2.908   3.570  1.00  0.00     0.016 A 
ATOM     14  C   UNL     1     -12.813  -3.062   4.029  1.00  0.00     0.051 A 
ATOM     15  C   UNL     1     -12.507  -2.861   5.378  1.00  0.00     0.157 A 
ATOM     16  C   UNL     1     -14.839  -2.343   5.814  1.00  0.00     0.062 A 
ATOM     17  C   UNL     1     -13.523  -2.497   6.275  1.00  0.00     0.158 A 
BRANCH  15  18
ATOM     18  O   UNL     1     -11.189  -3.023   5.806  1.00  0.00    -0.504 OA
ATOM     19  H   UNL     1     -10.882  -2.727   6.725  1.00  0.00     0.293 HD
ENDBRANCH  15  18
BRANCH  17  20
ATOM     20  O   UNL     1     -13.225  -2.291   7.622  1.00  0.00    -0.504 OA
ATOM     21  H   UNL     1     -12.288  -2.418   7.985  1.00  0.00     0.293 HD
ENDBRANCH  17  20
ENDBRANCH   1  12
BRANCH   6  22
ATOM     22  O   UNL     1     -21.480  -2.535   2.403  1.00  0.00    -0.507 OA
ATOM     23  H   UNL     1     -22.422  -2.303   2.127  1.00  0.00     0.293 HD
ENDBRANCH   6  22
BRANCH   8  24
ATOM     24  O   UNL     1     -19.994   1.957   1.681  1.00  0.00    -0.508 OA
ATOM     25  H   UNL     1     -20.336   2.125   0.742  1.00  0.00     0.293 HD
ENDBRANCH   8  24
TORSDOF 5
ENDMDL
MODEL 2
REMARK VINA RESULT:    -6.485      1.520      7.212
REMARK INTER + INTRA:          -7.885
REMARK INTER:                  -7.622
REMARK INTRA:                  -0.262
REMARK UNBOUND:                -0.262
REMARK SMILES O=c1cc(-c2ccc(O)c(O)c2)oc2cc(O)cc(O)c12
REMARK SMILES IDX 4 1 3 2 2 3 1 4 21 5 19 6 18 7 16 8 15 9 14 10 13 11 5 12
REMARK SMILES IDX 6 13 7 14 8 15 12 16 10 17 9 18 11 20 20 22 17 24
REMARK H PARENT 9 19 11 21 20 23 17 25
REMARK Flexibility Score: inf
ROOT
ATOM      1  C   UNL     1     -16.662  -1.408   3.928  1.00  0.00     0.138 A 
ATOM      2  C   UNL     1     -16.340  -0.905   5.197  1.00  0.00     0.100 A 
ATOM      3  C   UNL     1     -15.047  -1.069   5.695  1.00  0.00     0.197 A 
ATOM      4  O   UNL     1     -14.805  -0.663   6.861  1.00  0.00    -0.289 OA
ATOM      5  C   UNL     1     -14.064  -1.712   4.907  1.00  0.00     0.107 A 
ATOM      6  C   UNL     1     -12.704  -1.899   5.295  1.00  0.00     0.134 A 
ATOM      7  C   UNL     1     -11.851  -2.653   4.480  1.00  0.00     0.093 A 
ATOM      8  C   UNL     1     -12.290  -3.175   3.264  1.00  0.00     0.123 A 
ATOM      9  C   UNL     1     -13.603  -2.953   2.848  1.00  0.00     0.094 A 
ATOM     10  C   UNL     1     -14.489  -2.234   3.655  1.00  0.00     0.146 A 
ATOM     11  O   UNL     1     -15.735  -2.056   3.229  1.00  0.00    -0.456 OA
ENDROOT
BRANCH   1  12
ATOM     12  C   UNL     1     -18.022  -1.260   3.348  1.00  0.00     0.021 A 
ATOM     13  C   UNL     1     -18.981  -2.286   3.439  1.00  0.00     0.016 A 
ATOM     14  C   UNL     1     -20.255  -2.116   2.894  1.00  0.00     0.051 A 
ATOM     15  C   UNL     1     -20.599  -0.920   2.257  1.00  0.00     0.157 A 
ATOM     16  C   UNL     1     -18.378  -0.054   2.717  1.00  0.00     0.062 A 
ATOM     17  C   UNL     1     -19.657   0.117   2.169  1.00  0.00     0.158 A 
BRANCH  15  18
ATOM     18  O   UNL     1     -21.879  -0.781   1.722  1.00  0.00    -0.504 OA
ATOM     19  H   UNL     1     -22.055  -0.839   0.726  1.00  0.00     0.293 HD
ENDBRANCH  15  18
BRANCH  17  20
ATOM     20  O   UNL     1     -19.994   1.314   1.539  1.00  0.00    -0.504 OA
ATOM     21  H   UNL     1     -19.924   1.424   0.534  1.00  0.00     0.293 HD
ENDBRANCH  17  20
ENDBRANCH   1  12
BRANCH   6  22
ATOM     22  O   UNL     1     -12.139  -1.350   6.450  1.00  0.00    -0.507 OA
ATOM     23  H   UNL     1     -11.441  -0.621   6.460  1.00  0.00     0.293 HD
ENDBRANCH   6  22
BRANCH   8  24
ATOM     24  O   UNL     1     -11.409  -3.907   2.472  1.00  0.00    -0.508 OA
ATOM     25  H   UNL     1     -11.249  -3.673   1.499  1.00  0.00     0.293 HD
ENDBRANCH   8  24
TORSDOF 5
ENDMDL
MODEL 3
REMARK VINA RESULT:    -6.080      1.496      7.121
REMARK INTER + INTRA:          -7.408
REMARK INTER:                  -7.144
REMARK INTRA:                  -0.264
REMARK UNBOUND:                -0.262
REMARK SMILES O=c1cc(-c2ccc(O)c(O)c2)oc2cc(O)cc(O)c12
REMARK SMILES IDX 4 1 3 2 2 3 1 4 21 5 19 6 18 7 16 8 15 9 14 10 13 11 5 12
REMARK SMILES IDX 6 13 7 14 8 15 12 16 10 17 9 18 11 20 20 22 17 24
REMARK H PARENT 9 19 11 21 20 23 17 25
REMARK Flexibility Score: inf
ROOT
ATOM      1  C   UNL     1     -16.950  -1.544   3.949  1.00  0.00     0.138 A 
ATOM      2  C   UNL     1     -16.704  -0.980   5.209  1.00  0.00     0.100 A 
ATOM      3  C   UNL     1     -15.419  -1.035   5.750  1.00  0.00     0.197 A 
ATOM      4  O   UNL     1     -15.243  -0.576   6.908  1.00  0.00    -0.289 OA
ATOM      5  C   UNL     1     -14.369  -1.631   5.013  1.00  0.00     0.107 A 
ATOM      6  C   UNL     1     -13.011  -1.707   5.447  1.00  0.00     0.134 A 
ATOM      7  C   UNL     1     -12.082  -2.423   4.682  1.00  0.00     0.093 A 
ATOM      8  C   UNL     1     -12.445  -3.013   3.473  1.00  0.00     0.123 A 
ATOM      9  C   UNL     1     -13.757  -2.899   3.011  1.00  0.00     0.094 A 
ATOM     10  C   UNL     1     -14.716  -2.220   3.767  1.00  0.00     0.146 A 
ATOM     11  O   UNL     1     -15.958  -2.146   3.300  1.00  0.00    -0.456 OA
ENDROOT
BRANCH   1  12
ATOM     12  C   UNL     1     -18.297  -1.513   3.325  1.00  0.00     0.021 A 
ATOM     13  C   UNL     1     -18.736  -0.411   2.567  1.00  0.00     0.016 A 
ATOM     14  C   UNL     1     -20.005  -0.414   1.984  1.00  0.00     0.051 A 
ATOM     15  C   UNL     1     -20.854  -1.513   2.138  1.00  0.00     0.157 A 
ATOM     16  C   UNL     1     -19.151  -2.623   3.466  1.00  0.00     0.062 A 
ATOM     17  C   UNL     1     -20.425  -2.625   2.880  1.00  0.00     0.158 A 
BRANCH  15  18
ATOM     18  O   UNL     1     -22.115  -1.485   1.543  1.00  0.00    -0.504 OA
ATOM     19  H   UNL     1     -22.944  -1.203   2.054  1.00  0.00     0.293 HD
ENDBRANCH  15  18
BRANCH  17  20
ATOM     20  O   UNL     1     -21.264  -3.727   3.035  1.00  0.00    -0.504 OA
ATOM     21  H   UNL     1     -21.908  -4.013   2.306  1.00  0.00     0.293 HD
ENDBRANCH  17  20
ENDBRANCH   1  12
BRANCH   6  22
ATOM     22  O   UNL     1     -12.524  -1.082   6.599  1.00  0.00    -0.507 OA
ATOM     23  H   UNL     1     -13.006  -1.048   7.484  1.00  0.00     0.293 HD
ENDBRANCH   6  22
BRANCH   8  24
ATOM     24  O   UNL     1     -11.489  -3.705   2.731  1.00  0.00    -0.508 OA
ATOM     25  H   UNL     1     -10.954  -3.251   2.000  1.00  0.00     0.293 HD
ENDBRANCH   8  24
TORSDOF 5
ENDMDL
MODEL 4
REMARK VINA RESULT:    -6.008      1.173      2.678
REMARK INTER + INTRA:          -7.324
REMARK INTER:                  -7.055
REMARK INTRA:                  -0.269
REMARK UNBOUND:                -0.262
REMARK SMILES O=c1cc(-c2ccc(O)c(O)c2)oc2cc(O)cc(O)c12
REMARK SMILES IDX 4 1 3 2 2 3 1 4 21 5 19 6 18 7 16 8 15 9 14 10 13 11 5 12
REMARK SMILES IDX 6 13 7 14 8 15 12 16 10 17 9 18 11 20 20 22 17 24
REMARK H PARENT 9 19 11 21 20 23 17 25
REMARK Flexibility Score: inf
ROOT
ATOM      1  C   UNL     1     -16.600  -1.639   3.925  1.00  0.00     0.138 A 
ATOM      2  C   UNL     1     -16.868  -0.410   3.303  1.00  0.00     0.100 A 
ATOM      3  C   UNL     1     -18.164  -0.121   2.876  1.00  0.00     0.197 A 
ATOM      4  O   UNL     1     -18.360   0.962   2.267  1.00  0.00    -0.289 OA
ATOM      5  C   UNL     1     -19.204  -1.054   3.101  1.00  0.00     0.107 A 
ATOM      6  C   UNL     1     -20.571  -0.849   2.746  1.00  0.00     0.134 A 
ATOM      7  C   UNL     1     -21.491  -1.892   2.913  1.00  0.00     0.093 A 
ATOM      8  C   UNL     1     -21.108  -3.108   3.476  1.00  0.00     0.123 A 
ATOM      9  C   UNL     1     -19.785  -3.300   3.877  1.00  0.00     0.094 A 
ATOM     10  C   UNL     1     -18.836  -2.292   3.693  1.00  0.00     0.146 A 
ATOM     11  O   UNL     1     -17.584  -2.520   4.075  1.00  0.00    -0.456 OA
ENDROOT
BRANCH   1  12
ATOM     12  C   UNL     1     -15.239  -1.997   4.399  1.00  0.00     0.021 A 
ATOM     13  C   UNL     1     -14.210  -2.342   3.503  1.00  0.00     0.016 A 
ATOM     14  C   UNL     1     -12.937  -2.665   3.977  1.00  0.00     0.051 A 
ATOM     15  C   UNL     1     -12.664  -2.642   5.348  1.00  0.00     0.157 A 
ATOM     16  C   UNL     1     -14.956  -1.964   5.777  1.00  0.00     0.062 A 
ATOM     17  C   UNL     1     -13.677  -2.288   6.253  1.00  0.00     0.158 A 
BRANCH  15  18
ATOM     18  O   UNL     1     -11.383  -2.971   5.790  1.00  0.00    -0.504 OA
ATOM     19  H   UNL     1     -11.167  -3.088   6.773  1.00  0.00     0.293 HD
ENDBRANCH  15  18
BRANCH  17  20
ATOM     20  O   UNL     1     -13.412  -2.259   7.622  1.00  0.00    -0.504 OA
ATOM     21  H   UNL     1     -12.648  -1.715   8.004  1.00  0.00     0.293 HD
ENDBRANCH  17  20
ENDBRANCH   1  12
BRANCH   6  22
ATOM     22  O   UNL     1     -21.077   0.357   2.252  1.00  0.00    -0.507 OA
ATOM     23  H   UNL     1     -21.771   0.924   2.717  1.00  0.00     0.293 HD
ENDBRANCH   6  22
BRANCH   8  24
ATOM     24  O   UNL     1     -22.053  -4.118   3.641  1.00  0.00    -0.508 OA
ATOM     25  H   UNL     1     -22.643  -4.163   4.464  1.00  0.00     0.293 HD
ENDBRANCH   8  24
TORSDOF 5
ENDMDL
MODEL 5
REMARK VINA RESULT:    -5.967      1.625      7.131
REMARK INTER + INTRA:          -7.275
REMARK INTER:                  -7.013
REMARK INTRA:                  -0.262
REMARK UNBOUND:                -0.262
REMARK SMILES O=c1cc(-c2ccc(O)c(O)c2)oc2cc(O)cc(O)c12
REMARK SMILES IDX 4 1 3 2 2 3 1 4 21 5 19 6 18 7 16 8 15 9 14 10 13 11 5 12
REMARK SMILES IDX 6 13 7 14 8 15 12 16 10 17 9 18 11 20 20 22 17 24
REMARK H PARENT 9 19 11 21 20 23 17 25
REMARK Flexibility Score: inf
ROOT
ATOM      1  C   UNL     1     -16.615  -1.640   2.911  1.00  0.00     0.138 A 
ATOM      2  C   UNL     1     -15.918  -2.184   1.823  1.00  0.00     0.100 A 
ATOM      3  C   UNL     1     -14.573  -2.528   1.966  1.00  0.00     0.197 A 
ATOM      4  O   UNL     1     -13.959  -2.955   0.955  1.00  0.00    -0.289 OA
ATOM      5  C   UNL     1     -13.932  -2.354   3.216  1.00  0.00     0.107 A 
ATOM      6  C   UNL     1     -12.577  -2.708   3.490  1.00  0.00     0.134 A 
ATOM      7  C   UNL     1     -12.017  -2.382   4.731  1.00  0.00     0.093 A 
ATOM      8  C   UNL     1     -12.777  -1.773   5.728  1.00  0.00     0.123 A 
ATOM      9  C   UNL     1     -14.119  -1.472   5.490  1.00  0.00     0.094 A 
ATOM     10  C   UNL     1     -14.698  -1.752   4.250  1.00  0.00     0.146 A 
ATOM     11  O   UNL     1     -15.974  -1.437   4.058  1.00  0.00    -0.456 OA
ENDROOT
BRANCH   1  12
ATOM     12  C   UNL     1     -18.047  -1.258   2.814  1.00  0.00     0.021 A 
ATOM     13  C   UNL     1     -19.074  -2.131   3.217  1.00  0.00     0.016 A 
ATOM     14  C   UNL     1     -20.412  -1.741   3.123  1.00  0.00     0.051 A 
ATOM     15  C   UNL     1     -20.749  -0.476   2.636  1.00  0.00     0.157 A 
ATOM     16  C   UNL     1     -18.391   0.020   2.336  1.00  0.00     0.062 A 
ATOM     17  C   UNL     1     -19.734   0.411   2.243  1.00  0.00     0.158 A 
BRANCH  15  18
ATOM     18  O   UNL     1     -22.094  -0.116   2.554  1.00  0.00    -0.504 OA
ATOM     19  H   UNL     1     -22.702  -0.121   3.364  1.00  0.00     0.293 HD
ENDBRANCH  15  18
BRANCH  17  20
ATOM     20  O   UNL     1     -20.062   1.677   1.759  1.00  0.00    -0.504 OA
ATOM     21  H   UNL     1     -20.988   1.889   1.407  1.00  0.00     0.293 HD
ENDBRANCH  17  20
ENDBRANCH   1  12
BRANCH   6  22
ATOM     22  O   UNL     1     -11.752  -3.395   2.594  1.00  0.00    -0.507 OA
ATOM     23  H   UNL     1     -10.986  -3.995   2.860  1.00  0.00     0.293 HD
ENDBRANCH   6  22
BRANCH   8  24
ATOM     24  O   UNL     1     -12.191  -1.477   6.957  1.00  0.00    -0.508 OA
ATOM     25  H   UNL     1     -12.293  -0.567   7.389  1.00  0.00     0.293 HD
ENDBRANCH   8  24
TORSDOF 5
ENDMDL
MODEL 6
REMARK VINA RESULT:    -5.725      1.545      7.123
REMARK INTER + INTRA:          -6.992
REMARK INTER:                  -6.723
REMARK INTRA:                  -0.269
REMARK UNBOUND:                -0.262
REMARK SMILES O=c1cc(-c2ccc(O)c(O)c2)oc2cc(O)cc(O)c12
REMARK SMILES IDX 4 1 3 2 2 3 1 4 21 5 19 6 18 7 16 8 15 9 14 10 13 11 5 12
REMARK SMILES IDX 6 13 7 14 8 15 12 16 10 17 9 18 11 20 20 22 17 24
REMARK H PARENT 9 19 11 21 20 23 17 25
REMARK Flexibility Score: inf
ROOT
ATOM      1  C   UNL     1     -16.881  -2.328   2.808  1.00  0.00     0.138 A 
ATOM      2  C   UNL     1     -15.901  -2.495   1.818  1.00  0.00     0.100 A 
ATOM      3  C   UNL     1     -14.561  -2.608   2.188  1.00  0.00     0.197 A 
ATOM      4  O   UNL     1     -13.699  -2.694   1.275  1.00  0.00    -0.289 OA
ATOM      5  C   UNL     1     -14.203  -2.586   3.557  1.00  0.00     0.107 A 
ATOM      6  C   UNL     1     -12.873  -2.734   4.053  1.00  0.00     0.134 A 
ATOM      7  C   UNL     1     -12.626  -2.579   5.422  1.00  0.00     0.093 A 
ATOM      8  C   UNL     1     -13.666  -2.342   6.320  1.00  0.00     0.123 A 
ATOM      9  C   UNL     1     -14.977  -2.249   5.853  1.00  0.00     0.094 A 
ATOM     10  C   UNL     1     -15.253  -2.365   4.488  1.00  0.00     0.146 A 
ATOM     11  O   UNL     1     -16.514  -2.256   4.083  1.00  0.00    -0.456 OA
ENDROOT
BRANCH   1  12
ATOM     12  C   UNL     1     -18.322  -2.203   2.471  1.00  0.00     0.021 A 
ATOM     13  C   UNL     1     -19.092  -3.318   2.088  1.00  0.00     0.016 A 
ATOM     14  C   UNL     1     -20.448  -3.173   1.786  1.00  0.00     0.051 A 
ATOM     15  C   UNL     1     -21.061  -1.920   1.868  1.00  0.00     0.157 A 
ATOM     16  C   UNL     1     -18.949  -0.947   2.564  1.00  0.00     0.062 A 
ATOM     17  C   UNL     1     -20.310  -0.801   2.261  1.00  0.00     0.158 A 
BRANCH  15  18
ATOM     18  O   UNL     1     -22.417  -1.807   1.559  1.00  0.00    -0.504 OA
ATOM     19  H   UNL     1     -22.740  -1.606   0.620  1.00  0.00     0.293 HD
ENDBRANCH  15  18
BRANCH  17  20
ATOM     20  O   UNL     1     -20.916   0.451   2.349  1.00  0.00    -0.504 OA
ATOM     21  H   UNL     1     -21.341   0.895   1.543  1.00  0.00     0.293 HD
ENDBRANCH  17  20
ENDBRANCH   1  12
BRANCH   6  22
ATOM     22  O   UNL     1     -11.773  -3.055   3.252  1.00  0.00    -0.507 OA
ATOM     23  H   UNL     1     -11.081  -2.394   2.931  1.00  0.00     0.293 HD
ENDBRANCH   6  22
BRANCH   8  24
ATOM     24  O   UNL     1     -13.384  -2.209   7.678  1.00  0.00    -0.508 OA
ATOM     25  H   UNL     1     -13.531  -1.334   8.167  1.00  0.00     0.293 HD
ENDBRANCH   8  24
TORSDOF 5
ENDMDL
MODEL 7
REMARK VINA RESULT:    -5.583      4.395      7.045
REMARK INTER + INTRA:          -6.824
REMARK INTER:                  -6.526
REMARK INTRA:                  -0.298
REMARK UNBOUND:                -0.262
REMARK SMILES O=c1cc(-c2ccc(O)c(O)c2)oc2cc(O)cc(O)c12
REMARK SMILES IDX 4 1 3 2 2 3 1 4 21 5 19 6 18 7 16 8 15 9 14 10 13 11 5 12
REMARK SMILES IDX 6 13 7 14 8 15 12 16 10 17 9 18 11 20 20 22 17 24
REMARK H PARENT 9 19 11 21 20 23 17 25
REMARK Flexibility Score: inf
ROOT
ATOM      1  C   UNL     1     -22.346  -1.785   3.929  1.00  0.00     0.138 A 
ATOM      2  C   UNL     1     -22.282  -2.610   5.061  1.00  0.00     0.100 A 
ATOM      3  C   UNL     1     -23.462  -3.074   5.644  1.00  0.00     0.197 A 
ATOM      4  O   UNL     1     -23.374  -3.760   6.695  1.00  0.00    -0.289 OA
ATOM      5  C   UNL     1     -24.711  -2.735   5.073  1.00  0.00     0.107 A 
ATOM      6  C   UNL     1     -25.976  -3.183   5.557  1.00  0.00     0.134 A 
ATOM      7  C   UNL     1     -27.151  -2.688   4.979  1.00  0.00     0.093 A 
ATOM      8  C   UNL     1     -27.108  -1.809   3.898  1.00  0.00     0.123 A 
ATOM      9  C   UNL     1     -25.877  -1.406   3.381  1.00  0.00     0.094 A 
ATOM     10  C   UNL     1     -24.686  -1.855   3.957  1.00  0.00     0.146 A 
ATOM     11  O   UNL     1     -23.534  -1.436   3.444  1.00  0.00    -0.456 OA
ENDROOT
BRANCH   1  12
ATOM     12  C   UNL     1     -21.123  -1.264   3.268  1.00  0.00     0.021 A 
ATOM     13  C   UNL     1     -19.981  -2.068   3.086  1.00  0.00     0.016 A 
ATOM     14  C   UNL     1     -18.848  -1.555   2.452  1.00  0.00     0.051 A 
ATOM     15  C   UNL     1     -18.834  -0.239   1.981  1.00  0.00     0.157 A 
ATOM     16  C   UNL     1     -21.107   0.055   2.780  1.00  0.00     0.062 A 
ATOM     17  C   UNL     1     -19.969   0.570   2.143  1.00  0.00     0.158 A 
BRANCH  15  18
ATOM     18  O   UNL     1     -17.686   0.244   1.352  1.00  0.00    -0.504 OA
ATOM     19  H   UNL     1     -17.279  -0.217   0.547  1.00  0.00     0.293 HD
ENDBRANCH  15  18
BRANCH  17  20
ATOM     20  O   UNL     1     -19.964   1.883   1.673  1.00  0.00    -0.504 OA
ATOM     21  H   UNL     1     -19.820   2.670   2.294  1.00  0.00     0.293 HD
ENDBRANCH  17  20
ENDBRANCH   1  12
BRANCH   6  22
ATOM     22  O   UNL     1     -26.131  -4.125   6.579  1.00  0.00    -0.507 OA
ATOM     23  H   UNL     1     -26.670  -3.979   7.420  1.00  0.00     0.293 HD
ENDBRANCH   6  22
BRANCH   8  24
ATOM     24  O   UNL     1     -28.298  -1.349   3.338  1.00  0.00    -0.508 OA
ATOM     25  H   UNL     1     -28.304  -0.754   2.518  1.00  0.00     0.293 HD
ENDBRANCH   8  24
TORSDOF 5
ENDMDL
MODEL 8
REMARK VINA RESULT:    -5.435      2.171      7.082
REMARK INTER + INTRA:          -6.650
REMARK INTER:                  -6.338
REMARK INTRA:                  -0.313
REMARK UNBOUND:                -0.262
REMARK SMILES O=c1cc(-c2ccc(O)c(O)c2)oc2cc(O)cc(O)c12
REMARK SMILES IDX 4 1 3 2 2 3 1 4 21 5 19 6 18 7 16 8 15 9 14 10 13 11 5 12
REMARK SMILES IDX 6 13 7 14 8 15 12 16 10 17 9 18 11 20 20 22 17 24
REMARK H PARENT 9 19 11 21 20 23 17 25
REMARK Flexibility Score: inf
ROOT
ATOM      1  C   UNL     1     -18.420  -1.964   2.503  1.00  0.00     0.138 A 
ATOM      2  C   UNL     1     -17.453  -2.293   1.543  1.00  0.00     0.100 A 
ATOM      3  C   UNL     1     -16.099  -2.225   1.876  1.00  0.00     0.197 A 
ATOM      4  O   UNL     1     -15.255  -2.466   0.975  1.00  0.00    -0.289 OA
ATOM      5  C   UNL     1     -15.714  -1.856   3.186  1.00  0.00     0.107 A 
ATOM      6  C   UNL     1     -14.366  -1.793   3.650  1.00  0.00     0.134 A 
ATOM      7  C   UNL     1     -14.101  -1.301   4.934  1.00  0.00     0.093 A 
ATOM      8  C   UNL     1     -15.135  -0.929   5.792  1.00  0.00     0.123 A 
ATOM      9  C   UNL     1     -16.460  -1.038   5.368  1.00  0.00     0.094 A 
ATOM     10  C   UNL     1     -16.756  -1.492   4.080  1.00  0.00     0.146 A 
ATOM     11  O   UNL     1     -18.030  -1.567   3.711  1.00  0.00    -0.456 OA
ENDROOT
BRANCH   1  12
ATOM     12  C   UNL     1     -19.874  -2.020   2.203  1.00  0.00     0.021 A 
ATOM     13  C   UNL     1     -20.381  -2.791   1.141  1.00  0.00     0.016 A 
ATOM     14  C   UNL     1     -21.753  -2.834   0.888  1.00  0.00     0.051 A 
ATOM     15  C   UNL     1     -22.644  -2.117   1.692  1.00  0.00     0.157 A 
ATOM     16  C   UNL     1     -20.776  -1.311   3.017  1.00  0.00     0.062 A 
ATOM     17  C   UNL     1     -22.155  -1.353   2.763  1.00  0.00     0.158 A 
BRANCH  15  18
ATOM     18  O   UNL     1     -24.010  -2.178   1.413  1.00  0.00    -0.504 OA
ATOM     19  H   UNL     1     -24.367  -2.605   0.566  1.00  0.00     0.293 HD
ENDBRANCH  15  18
BRANCH  17  20
ATOM     20  O   UNL     1     -23.037  -0.638   3.572  1.00  0.00    -0.504 OA
ATOM     21  H   UNL     1     -24.026  -0.858   3.605  1.00  0.00     0.293 HD
ENDBRANCH  17  20
ENDBRANCH   1  12
BRANCH   6  22
ATOM     22  O   UNL     1     -13.263  -2.219   2.904  1.00  0.00    -0.507 OA
ATOM     23  H   UNL     1     -12.553  -1.610   2.525  1.00  0.00     0.293 HD
ENDBRANCH   6  22
BRANCH   8  24
ATOM     24  O   UNL     1     -14.834  -0.459   7.068  1.00  0.00    -0.508 OA
ATOM     25  H   UNL     1     -14.210  -0.964   7.686  1.00  0.00     0.293 HD
ENDBRANCH   8  24
TORSDOF 5
ENDMDL
MODEL 9
REMARK VINA RESULT:    -5.191      2.378      7.580
REMARK INTER + INTRA:          -6.363
REMARK INTER:                  -6.076
REMARK INTRA:                  -0.287
REMARK UNBOUND:                -0.262
REMARK SMILES O=c1cc(-c2ccc(O)c(O)c2)oc2cc(O)cc(O)c12
REMARK SMILES IDX 4 1 3 2 2 3 1 4 21 5 19 6 18 7 16 8 15 9 14 10 13 11 5 12
REMARK SMILES IDX 6 13 7 14 8 15 12 16 10 17 9 18 11 20 20 22 17 24
REMARK H PARENT 9 19 11 21 20 23 17 25
REMARK Flexibility Score: inf
ROOT
ATOM      1  C   UNL     1     -19.942  -1.479   3.023  1.00  0.00     0.138 A 
ATOM      2  C   UNL     1     -19.528  -0.671   1.954  1.00  0.00     0.100 A 
ATOM      3  C   UNL     1     -18.175  -0.363   1.807  1.00  0.00     0.197 A 
ATOM      4  O   UNL     1     -17.842   0.414   0.875  1.00  0.00    -0.289 OA
ATOM      5  C   UNL     1     -17.229  -0.891   2.717  1.00  0.00     0.107 A 
ATOM      6  C   UNL     1     -15.820  -0.677   2.641  1.00  0.00     0.134 A 
ATOM      7  C   UNL     1     -14.993  -1.155   3.665  1.00  0.00     0.093 A 
ATOM      8  C   UNL     1     -15.515  -1.889   4.729  1.00  0.00     0.123 A 
ATOM      9  C   UNL     1     -16.884  -2.151   4.786  1.00  0.00     0.094 A 
ATOM     10  C   UNL     1     -17.740  -1.658   3.797  1.00  0.00     0.146 A 
ATOM     11  O   UNL     1     -19.040  -1.917   3.896  1.00  0.00    -0.456 OA
ENDROOT
BRANCH   1  12
ATOM     12  C   UNL     1     -21.368  -1.839   3.227  1.00  0.00     0.021 A 
ATOM     13  C   UNL     1     -21.887  -2.115   4.506  1.00  0.00     0.016 A 
ATOM     14  C   UNL     1     -23.235  -2.441   4.668  1.00  0.00     0.051 A 
ATOM     15  C   UNL     1     -24.090  -2.490   3.564  1.00  0.00     0.157 A 
ATOM     16  C   UNL     1     -22.237  -1.877   2.120  1.00  0.00     0.062 A 
ATOM     17  C   UNL     1     -23.591  -2.204   2.284  1.00  0.00     0.158 A 
BRANCH  15  18
ATOM     18  O   UNL     1     -25.432  -2.820   3.759  1.00  0.00    -0.504 OA
ATOM     19  H   UNL     1     -25.922  -3.460   3.147  1.00  0.00     0.293 HD
ENDBRANCH  15  18
BRANCH  17  20
ATOM     20  O   UNL     1     -24.438  -2.247   1.178  1.00  0.00    -0.504 OA
ATOM     21  H   UNL     1     -25.276  -2.817   1.171  1.00  0.00     0.293 HD
ENDBRANCH  17  20
ENDBRANCH   1  12
BRANCH   6  22
ATOM     22  O   UNL     1     -15.185  -0.028   1.577  1.00  0.00    -0.507 OA
ATOM     23  H   UNL     1     -14.653  -0.491   0.855  1.00  0.00     0.293 HD
ENDBRANCH   6  22
BRANCH   8  24
ATOM     24  O   UNL     1     -14.660  -2.362   5.723  1.00  0.00    -0.508 OA
ATOM     25  H   UNL     1     -14.912  -2.321   6.703  1.00  0.00     0.293 HD
ENDBRANCH   8  24
TORSDOF 5
ENDMDL
