MODEL 1
REMARK VINA RESULT:    -3.080      0.000      0.000
REMARK INTER + INTRA:          -7.610
REMARK INTER:                  -5.420
REMARK INTRA:                  -2.190
REMARK UNBOUND:                -2.190
REMARK SMILES CCCCCCCCCCCCCCC(=O)[O-]
REMARK SMILES IDX 9 1 10 2 11 3 12 4 13 5 14 6 15 7 16 8 17 9 8 10 7 11 6 12
REMARK SMILES IDX 5 13 4 14 3 15 2 16 1 17
REMARK H PARENT
REMARK Flexibility Score: inf
ROOT
ATOM      1  C   UNL     1      57.818  29.021  52.485  1.00  0.00     0.000 C 
ENDROOT
BRANCH   1   2
ATOM      2  C   UNL     1      57.978  29.979  51.293  1.00  0.00     0.000 C 
BRANCH   2   3
ATOM      3  C   UNL     1      57.803  29.274  49.936  1.00  0.00     0.000 C 
BRANCH   3   4
ATOM      4  C   UNL     1      59.075  29.327  49.075  1.00  0.00     0.000 C 
BRANCH   4   5
ATOM      5  C   UNL     1      60.024  28.151  49.350  1.00  0.00     0.006 C 
BRANCH   5   6
ATOM      6  C   UNL     1      59.251  26.832  49.441  1.00  0.00     0.053 C 
BRANCH   6   7
ATOM      7  C   UNL     1      60.113  25.757  50.025  1.00  0.00     0.041 C 
ATOM      8  O   UNL     1      59.606  24.659  50.375  1.00  0.00    -0.550 OA
ATOM      9  O   UNL     1      61.484  25.949  50.136  1.00  0.00    -0.550 OA
ENDBRANCH   6   7
ENDBRANCH   5   6
ENDBRANCH   4   5
ENDBRANCH   3   4
ENDBRANCH   2   3
ENDBRANCH   1   2
BRANCH   1  10
ATOM     10  C   UNL     1      56.636  29.405  53.394  1.00  0.00     0.000 C 
BRANCH  10  11
ATOM     11  C   UNL     1      55.637  30.353  52.706  1.00  0.00    -0.000 C 
BRANCH  11  12
ATOM     12  C   UNL     1      54.331  29.688  52.223  1.00  0.00    -0.000 C 
BRANCH  12  13
ATOM     13  C   UNL     1      54.117  29.695  50.696  1.00  0.00    -0.000 C 
BRANCH  13  14
ATOM     14  C   UNL     1      54.223  28.315  50.022  1.00  0.00    -0.000 C 
BRANCH  14  15
ATOM     15  C   UNL     1      54.537  27.188  51.021  1.00  0.00    -0.000 C 
BRANCH  15  16
ATOM     16  C   UNL     1      55.740  26.337  50.588  1.00  0.00    -0.003 C 
ATOM     17  C   UNL     1      56.531  25.787  51.776  1.00  0.00     0.004 C 
ENDBRANCH  15  16
ENDBRANCH  14  15
ENDBRANCH  13  14
ENDBRANCH  12  13
ENDBRANCH  11  12
ENDBRANCH  10  11
ENDBRANCH   1  10
TORSDOF 13
ENDMDL
MODEL 2
REMARK VINA RESULT:    -3.025     10.657     12.727
REMARK INTER + INTRA:          -7.513
REMARK INTER:                  -5.553
REMARK INTRA:                  -1.960
REMARK UNBOUND:                -2.190
REMARK SMILES CCCCCCCCCCCCCCC(=O)[O-]
REMARK SMILES IDX 9 1 10 2 11 3 12 4 13 5 14 6 15 7 16 8 17 9 8 10 7 11 6 12
REMARK SMILES IDX 5 13 4 14 3 15 2 16 1 17
REMARK H PARENT
REMARK Flexibility Score: inf
ROOT
ATOM      1  C   UNL     1      60.872  31.884  60.776  1.00  0.00     0.000 C 
ENDROOT
BRANCH   1   2
ATOM      2  C   UNL     1      61.267  30.562  61.454  1.00  0.00     0.000 C 
BRANCH   2   3
ATOM      3  C   UNL     1      62.778  30.466  61.735  1.00  0.00     0.000 C 
BRANCH   3   4
ATOM      4  C   UNL     1      63.532  29.682  60.650  1.00  0.00     0.000 C 
BRANCH   4   5
ATOM      5  C   UNL     1      65.048  29.920  60.694  1.00  0.00     0.006 C 
BRANCH   5   6
ATOM      6  C   UNL     1      65.801  28.615  60.967  1.00  0.00     0.053 C 
BRANCH   6   7
ATOM      7  C   UNL     1      67.269  28.872  61.095  1.00  0.00     0.041 C 
ATOM      8  O   UNL     1      67.852  28.681  62.195  1.00  0.00    -0.550 OA
ATOM      9  O   UNL     1      68.004  29.275  59.987  1.00  0.00    -0.550 OA
ENDBRANCH   6   7
ENDBRANCH   5   6
ENDBRANCH   4   5
ENDBRANCH   3   4
ENDBRANCH   2   3
ENDBRANCH   1   2
BRANCH   1  10
ATOM     10  C   UNL     1      60.543  31.704  59.283  1.00  0.00     0.000 C 
BRANCH  10  11
ATOM     11  C   UNL     1      61.369  32.630  58.374  1.00  0.00    -0.000 C 
BRANCH  11  12
ATOM     12  C   UNL     1      62.896  32.412  58.432  1.00  0.00    -0.000 C 
BRANCH  12  13
ATOM     13  C   UNL     1      63.717  33.636  58.882  1.00  0.00    -0.000 C 
BRANCH  13  14
ATOM     14  C   UNL     1      64.267  33.554  60.318  1.00  0.00    -0.000 C 
BRANCH  14  15
ATOM     15  C   UNL     1      63.647  34.608  61.252  1.00  0.00    -0.000 C 
BRANCH  15  16
ATOM     16  C   UNL     1      62.948  35.738  60.481  1.00  0.00    -0.003 C 
ATOM     17  C   UNL     1      61.444  35.795  60.753  1.00  0.00     0.004 C 
ENDBRANCH  15  16
ENDBRANCH  14  15
ENDBRANCH  13  14
ENDBRANCH  12  13
ENDBRANCH  11  12
ENDBRANCH  10  11
ENDBRANCH   1  10
TORSDOF 13
ENDMDL
MODEL 3
REMARK VINA RESULT:    -2.992      1.315      2.770
REMARK INTER + INTRA:          -7.455
REMARK INTER:                  -5.600
REMARK INTRA:                  -1.855
REMARK UNBOUND:                -2.190
REMARK SMILES CCCCCCCCCCCCCCC(=O)[O-]
REMARK SMILES IDX 9 1 10 2 11 3 12 4 13 5 14 6 15 7 16 8 17 9 8 10 7 11 6 12
REMARK SMILES IDX 5 13 4 14 3 15 2 16 1 17
REMARK H PARENT
REMARK Flexibility Score: inf
ROOT
ATOM      1  C   UNL     1      57.432  28.914  50.101  1.00  0.00     0.000 C 
ENDROOT
BRANCH   1   2
ATOM      2  C   UNL     1      58.747  29.468  49.530  1.00  0.00     0.000 C 
BRANCH   2   3
ATOM      3  C   UNL     1      59.757  28.360  49.179  1.00  0.00     0.000 C 
BRANCH   3   4
ATOM      4  C   UNL     1      59.207  26.951  49.454  1.00  0.00     0.000 C 
BRANCH   4   5
ATOM      5  C   UNL     1      59.988  26.216  50.552  1.00  0.00     0.006 C 
BRANCH   5   6
ATOM      6  C   UNL     1      59.189  25.025  51.090  1.00  0.00     0.053 C 
BRANCH   6   7
ATOM      7  C   UNL     1      59.938  23.749  50.873  1.00  0.00     0.041 C 
ATOM      8  O   UNL     1      59.852  22.813  51.712  1.00  0.00    -0.550 OA
ATOM      9  O   UNL     1      60.691  23.573  49.719  1.00  0.00    -0.550 OA
ENDBRANCH   6   7
ENDBRANCH   5   6
ENDBRANCH   4   5
ENDBRANCH   3   4
ENDBRANCH   2   3
ENDBRANCH   1   2
BRANCH   1  10
ATOM     10  C   UNL     1      57.278  29.197  51.605  1.00  0.00     0.000 C 
BRANCH  10  11
ATOM     11  C   UNL     1      56.523  28.081  52.349  1.00  0.00    -0.000 C 
BRANCH  11  12
ATOM     12  C   UNL     1      56.058  26.904  51.464  1.00  0.00    -0.000 C 
BRANCH  12  13
ATOM     13  C   UNL     1      54.691  26.300  51.842  1.00  0.00    -0.000 C 
BRANCH  13  14
ATOM     14  C   UNL     1      53.596  26.457  50.771  1.00  0.00    -0.000 C 
BRANCH  14  15
ATOM     15  C   UNL     1      53.877  27.617  49.800  1.00  0.00    -0.000 C 
BRANCH  15  16
ATOM     16  C   UNL     1      53.006  28.849  50.087  1.00  0.00    -0.003 C 
ATOM     17  C   UNL     1      53.828  30.065  50.516  1.00  0.00     0.004 C 
ENDBRANCH  15  16
ENDBRANCH  14  15
ENDBRANCH  13  14
ENDBRANCH  12  13
ENDBRANCH  11  12
ENDBRANCH  10  11
ENDBRANCH   1  10
TORSDOF 13
ENDMDL
MODEL 4
REMARK VINA RESULT:    -2.981     10.816     12.520
REMARK INTER + INTRA:          -7.436
REMARK INTER:                  -5.309
REMARK INTRA:                  -2.127
REMARK UNBOUND:                -2.190
REMARK SMILES CCCCCCCCCCCCCCC(=O)[O-]
REMARK SMILES IDX 9 1 10 2 11 3 12 4 13 5 14 6 15 7 16 8 17 9 8 10 7 11 6 12
REMARK SMILES IDX 5 13 4 14 3 15 2 16 1 17
REMARK H PARENT
REMARK Flexibility Score: inf
ROOT
ATOM      1  C   UNL     1      63.061  32.549  59.033  1.00  0.00     0.000 C 
ENDROOT
BRANCH   1   2
ATOM      2  C   UNL     1      61.674  32.083  59.506  1.00  0.00     0.000 C 
BRANCH   2   3
ATOM      3  C   UNL     1      61.424  32.381  60.996  1.00  0.00     0.000 C 
BRANCH   3   4
ATOM      4  C   UNL     1      60.760  31.204  61.729  1.00  0.00     0.000 C 
BRANCH   4   5
ATOM      5  C   UNL     1      60.893  29.880  60.963  1.00  0.00     0.006 C 
BRANCH   5   6
ATOM      6  C   UNL     1      61.892  28.946  61.651  1.00  0.00     0.053 C 
BRANCH   6   7
ATOM      7  C   UNL     1      63.236  29.045  61.000  1.00  0.00     0.041 C 
ATOM      8  O   UNL     1      64.098  29.847  61.447  1.00  0.00    -0.550 OA
ATOM      9  O   UNL     1      63.554  28.215  59.933  1.00  0.00    -0.550 OA
ENDBRANCH   6   7
ENDBRANCH   5   6
ENDBRANCH   4   5
ENDBRANCH   3   4
ENDBRANCH   2   3
ENDBRANCH   1   2
BRANCH   1  10
ATOM     10  C   UNL     1      63.964  32.987  60.199  1.00  0.00     0.000 C 
BRANCH  10  11
ATOM     11  C   UNL     1      64.332  34.480  60.140  1.00  0.00    -0.000 C 
BRANCH  11  12
ATOM     12  C   UNL     1      63.921  35.305  61.378  1.00  0.00    -0.000 C 
BRANCH  12  13
ATOM     13  C   UNL     1      62.961  36.477  61.096  1.00  0.00    -0.000 C 
BRANCH  13  14
ATOM     14  C   UNL     1      61.479  36.082  60.961  1.00  0.00    -0.000 C 
BRANCH  14  15
ATOM     15  C   UNL     1      60.845  36.595  59.657  1.00  0.00    -0.000 C 
BRANCH  15  16
ATOM     16  C   UNL     1      60.808  35.521  58.559  1.00  0.00    -0.003 C 
ATOM     17  C   UNL     1      61.880  35.734  57.490  1.00  0.00     0.004 C 
ENDBRANCH  15  16
ENDBRANCH  14  15
ENDBRANCH  13  14
ENDBRANCH  12  13
ENDBRANCH  11  12
ENDBRANCH  10  11
ENDBRANCH   1  10
TORSDOF 13
ENDMDL
MODEL 5
REMARK VINA RESULT:    -2.962     10.348     12.429
REMARK INTER + INTRA:          -7.403
REMARK INTER:                  -5.706
REMARK INTRA:                  -1.697
REMARK UNBOUND:                -2.190
REMARK SMILES CCCCCCCCCCCCCCC(=O)[O-]
REMARK SMILES IDX 9 1 10 2 11 3 12 4 13 5 14 6 15 7 16 8 17 9 8 10 7 11 6 12
REMARK SMILES IDX 5 13 4 14 3 15 2 16 1 17
REMARK H PARENT
REMARK Flexibility Score: inf
ROOT
ATOM      1  C   UNL     1      60.942  32.180  59.471  1.00  0.00     0.000 C 
ENDROOT
BRANCH   1   2
ATOM      2  C   UNL     1      61.191  32.337  60.980  1.00  0.00     0.000 C 
BRANCH   2   3
ATOM      3  C   UNL     1      60.828  31.071  61.778  1.00  0.00     0.000 C 
BRANCH   3   4
ATOM      4  C   UNL     1      61.937  30.008  61.736  1.00  0.00     0.000 C 
BRANCH   4   5
ATOM      5  C   UNL     1      63.337  30.620  61.573  1.00  0.00     0.006 C 
BRANCH   5   6
ATOM      6  C   UNL     1      64.329  29.586  61.034  1.00  0.00     0.053 C 
BRANCH   6   7
ATOM      7  C   UNL     1      64.968  30.079  59.775  1.00  0.00     0.041 C 
ATOM      8  O   UNL     1      65.310  29.264  58.877  1.00  0.00    -0.550 OA
ATOM      9  O   UNL     1      65.142  31.442  59.570  1.00  0.00    -0.550 OA
ENDBRANCH   6   7
ENDBRANCH   5   6
ENDBRANCH   4   5
ENDBRANCH   3   4
ENDBRANCH   2   3
ENDBRANCH   1   2
BRANCH   1  10
ATOM     10  C   UNL     1      61.860  33.080  58.626  1.00  0.00     0.000 C 
BRANCH  10  11
ATOM     11  C   UNL     1      61.084  34.152  57.840  1.00  0.00    -0.000 C 
BRANCH  11  12
ATOM     12  C   UNL     1      61.245  35.594  58.365  1.00  0.00    -0.000 C 
BRANCH  12  13
ATOM     13  C   UNL     1      60.521  35.894  59.693  1.00  0.00    -0.000 C 
BRANCH  13  14
ATOM     14  C   UNL     1      61.451  36.128  60.898  1.00  0.00    -0.000 C 
BRANCH  14  15
ATOM     15  C   UNL     1      62.895  36.455  60.479  1.00  0.00    -0.000 C 
BRANCH  15  16
ATOM     16  C   UNL     1      63.933  35.897  61.464  1.00  0.00    -0.003 C 
ATOM     17  C   UNL     1      64.241  34.419  61.220  1.00  0.00     0.004 C 
ENDBRANCH  15  16
ENDBRANCH  14  15
ENDBRANCH  13  14
ENDBRANCH  12  13
ENDBRANCH  11  12
ENDBRANCH  10  11
ENDBRANCH   1  10
TORSDOF 13
ENDMDL
MODEL 6
REMARK VINA RESULT:    -2.950      3.242      5.740
REMARK INTER + INTRA:          -7.381
REMARK INTER:                  -5.156
REMARK INTRA:                  -2.225
REMARK UNBOUND:                -2.190
REMARK SMILES CCCCCCCCCCCCCCC(=O)[O-]
REMARK SMILES IDX 9 1 10 2 11 3 12 4 13 5 14 6 15 7 16 8 17 9 8 10 7 11 6 12
REMARK SMILES IDX 5 13 4 14 3 15 2 16 1 17
REMARK H PARENT
REMARK Flexibility Score: inf
ROOT
ATOM      1  C   UNL     1      56.705  27.786  51.814  1.00  0.00     0.000 C 
ENDROOT
BRANCH   1   2
ATOM      2  C   UNL     1      56.503  26.385  51.215  1.00  0.00     0.000 C 
BRANCH   2   3
ATOM      3  C   UNL     1      55.973  26.428  49.770  1.00  0.00     0.000 C 
BRANCH   3   4
ATOM      4  C   UNL     1      54.527  25.922  49.656  1.00  0.00     0.000 C 
BRANCH   4   5
ATOM      5  C   UNL     1      53.511  27.064  49.500  1.00  0.00     0.006 C 
BRANCH   5   6
ATOM      6  C   UNL     1      52.875  27.419  50.847  1.00  0.00     0.053 C 
BRANCH   6   7
ATOM      7  C   UNL     1      53.129  28.854  51.185  1.00  0.00     0.041 C 
ATOM      8  O   UNL     1      53.321  29.199  52.381  1.00  0.00    -0.550 OA
ATOM      9  O   UNL     1      53.204  29.804  50.174  1.00  0.00    -0.550 OA
ENDBRANCH   6   7
ENDBRANCH   5   6
ENDBRANCH   4   5
ENDBRANCH   3   4
ENDBRANCH   2   3
ENDBRANCH   1   2
BRANCH   1  10
ATOM     10  C   UNL     1      56.767  28.884  50.738  1.00  0.00     0.000 C 
BRANCH  10  11
ATOM     11  C   UNL     1      58.102  29.650  50.743  1.00  0.00    -0.000 C 
BRANCH  11  12
ATOM     12  C   UNL     1      58.908  29.568  49.429  1.00  0.00    -0.000 C 
BRANCH  12  13
ATOM     13  C   UNL     1      59.393  28.157  49.043  1.00  0.00    -0.000 C 
BRANCH  13  14
ATOM     14  C   UNL     1      60.622  27.658  49.825  1.00  0.00    -0.000 C 
BRANCH  14  15
ATOM     15  C   UNL     1      60.304  26.453  50.726  1.00  0.00    -0.000 C 
BRANCH  15  16
ATOM     16  C   UNL     1      60.241  26.831  52.214  1.00  0.00    -0.003 C 
ATOM     17  C   UNL     1      60.990  28.128  52.524  1.00  0.00     0.004 C 
ENDBRANCH  15  16
ENDBRANCH  14  15
ENDBRANCH  13  14
ENDBRANCH  12  13
ENDBRANCH  11  12
ENDBRANCH  10  11
ENDBRANCH   1  10
TORSDOF 13
ENDMDL
MODEL 7
REMARK VINA RESULT:    -2.932     10.209     12.270
REMARK INTER + INTRA:          -7.350
REMARK INTER:                  -5.715
REMARK INTRA:                  -1.635
REMARK UNBOUND:                -2.190
REMARK SMILES CCCCCCCCCCCCCCC(=O)[O-]
REMARK SMILES IDX 9 1 10 2 11 3 12 4 13 5 14 6 15 7 16 8 17 9 8 10 7 11 6 12
REMARK SMILES IDX 5 13 4 14 3 15 2 16 1 17
REMARK H PARENT
REMARK Flexibility Score: inf
ROOT
ATOM      1  C   UNL     1      64.157  33.528  60.344  1.00  0.00     0.000 C 
ENDROOT
BRANCH   1   2
ATOM      2  C   UNL     1      62.800  33.150  59.729  1.00  0.00     0.000 C 
BRANCH   2   3
ATOM      3  C   UNL     1      61.665  33.116  60.768  1.00  0.00     0.000 C 
BRANCH   3   4
ATOM      4  C   UNL     1      60.761  31.883  60.615  1.00  0.00     0.000 C 
BRANCH   4   5
ATOM      5  C   UNL     1      60.849  30.932  61.818  1.00  0.00     0.006 C 
BRANCH   5   6
ATOM      6  C   UNL     1      62.129  30.093  61.762  1.00  0.00     0.053 C 
BRANCH   6   7
ATOM      7  C   UNL     1      61.845  28.739  61.193  1.00  0.00     0.041 C 
ATOM      8  O   UNL     1      61.567  28.612  59.971  1.00  0.00    -0.550 OA
ATOM      9  O   UNL     1      61.937  27.613  61.999  1.00  0.00    -0.550 OA
ENDBRANCH   6   7
ENDBRANCH   5   6
ENDBRANCH   4   5
ENDBRANCH   3   4
ENDBRANCH   2   3
ENDBRANCH   1   2
BRANCH   1  10
ATOM     10  C   UNL     1      64.044  34.684  61.354  1.00  0.00     0.000 C 
BRANCH  10  11
ATOM     11  C   UNL     1      63.698  36.027  60.688  1.00  0.00    -0.000 C 
BRANCH  11  12
ATOM     12  C   UNL     1      62.562  36.821  61.366  1.00  0.00    -0.000 C 
BRANCH  12  13
ATOM     13  C   UNL     1      61.194  36.743  60.660  1.00  0.00    -0.000 C 
BRANCH  13  14
ATOM     14  C   UNL     1      61.261  36.440  59.151  1.00  0.00    -0.000 C 
BRANCH  14  15
ATOM     15  C   UNL     1      59.905  35.996  58.575  1.00  0.00    -0.000 C 
BRANCH  15  16
ATOM     16  C   UNL     1      60.007  34.688  57.775  1.00  0.00    -0.003 C 
ATOM     17  C   UNL     1      58.715  33.871  57.817  1.00  0.00     0.004 C 
ENDBRANCH  15  16
ENDBRANCH  14  15
ENDBRANCH  13  14
ENDBRANCH  12  13
ENDBRANCH  11  12
ENDBRANCH  10  11
ENDBRANCH   1  10
TORSDOF 13
ENDMDL
MODEL 8
REMARK VINA RESULT:    -2.915     10.312     12.583
REMARK INTER + INTRA:          -7.320
REMARK INTER:                  -5.620
REMARK INTRA:                  -1.700
REMARK UNBOUND:                -2.190
REMARK SMILES CCCCCCCCCCCCCCC(=O)[O-]
REMARK SMILES IDX 9 1 10 2 11 3 12 4 13 5 14 6 15 7 16 8 17 9 8 10 7 11 6 12
REMARK SMILES IDX 5 13 4 14 3 15 2 16 1 17
REMARK H PARENT
REMARK Flexibility Score: inf
ROOT
ATOM      1  C   UNL     1      64.693  31.895  59.369  1.00  0.00     0.000 C 
ENDROOT
BRANCH   1   2
ATOM      2  C   UNL     1      64.445  30.995  60.590  1.00  0.00     0.000 C 
BRANCH   2   3
ATOM      3  C   UNL     1      63.144  30.180  60.473  1.00  0.00     0.000 C 
BRANCH   3   4
ATOM      4  C   UNL     1      62.310  30.212  61.763  1.00  0.00     0.000 C 
BRANCH   4   5
ATOM      5  C   UNL     1      61.065  31.103  61.641  1.00  0.00     0.006 C 
BRANCH   5   6
ATOM      6  C   UNL     1      60.977  31.734  60.248  1.00  0.00     0.053 C 
BRANCH   6   7
ATOM      7  C   UNL     1      59.871  31.111  59.458  1.00  0.00     0.041 C 
ATOM      8  O   UNL     1      59.543  29.912  59.664  1.00  0.00    -0.550 OA
ATOM      9  O   UNL     1      59.168  31.867  58.530  1.00  0.00    -0.550 OA
ENDBRANCH   6   7
ENDBRANCH   5   6
ENDBRANCH   4   5
ENDBRANCH   3   4
ENDBRANCH   2   3
ENDBRANCH   1   2
BRANCH   1  10
ATOM     10  C   UNL     1      64.404  33.378  59.662  1.00  0.00     0.000 C 
BRANCH  10  11
ATOM     11  C   UNL     1      64.164  33.655  61.157  1.00  0.00    -0.000 C 
BRANCH  11  12
ATOM     12  C   UNL     1      64.284  35.135  61.576  1.00  0.00    -0.000 C 
BRANCH  12  13
ATOM     13  C   UNL     1      63.596  36.142  60.634  1.00  0.00    -0.000 C 
BRANCH  13  14
ATOM     14  C   UNL     1      62.151  36.507  61.021  1.00  0.00    -0.000 C 
BRANCH  14  15
ATOM     15  C   UNL     1      61.141  35.410  60.646  1.00  0.00    -0.000 C 
BRANCH  15  16
ATOM     16  C   UNL     1      60.553  35.607  59.240  1.00  0.00    -0.003 C 
ATOM     17  C   UNL     1      61.263  34.763  58.181  1.00  0.00     0.004 C 
ENDBRANCH  15  16
ENDBRANCH  14  15
ENDBRANCH  13  14
ENDBRANCH  12  13
ENDBRANCH  11  12
ENDBRANCH  10  11
ENDBRANCH   1  10
TORSDOF 13
ENDMDL
MODEL 9
REMARK VINA RESULT:    -2.860      9.721     11.941
REMARK INTER + INTRA:          -7.224
REMARK INTER:                  -5.491
REMARK INTRA:                  -1.732
REMARK UNBOUND:                -2.190
REMARK SMILES CCCCCCCCCCCCCCC(=O)[O-]
REMARK SMILES IDX 9 1 10 2 11 3 12 4 13 5 14 6 15 7 16 8 17 9 8 10 7 11 6 12
REMARK SMILES IDX 5 13 4 14 3 15 2 16 1 17
REMARK H PARENT
REMARK Flexibility Score: inf
ROOT
ATOM      1  C   UNL     1      59.641  32.604  58.138  1.00  0.00     0.000 C 
ENDROOT
BRANCH   1   2
ATOM      2  C   UNL     1      61.154  32.778  58.343  1.00  0.00     0.000 C 
BRANCH   2   3
ATOM      3  C   UNL     1      61.670  32.063  59.605  1.00  0.00     0.000 C 
BRANCH   3   4
ATOM      4  C   UNL     1      60.687  32.161  60.782  1.00  0.00     0.000 C 
BRANCH   4   5
ATOM      5  C   UNL     1      60.965  31.116  61.873  1.00  0.00     0.006 C 
BRANCH   5   6
ATOM      6  C   UNL     1      62.232  30.316  61.556  1.00  0.00     0.053 C 
BRANCH   6   7
ATOM      7  C   UNL     1      61.903  28.870  61.354  1.00  0.00     0.041 C 
ATOM      8  O   UNL     1      62.794  27.992  61.499  1.00  0.00    -0.550 OA
ATOM      9  O   UNL     1      60.602  28.488  61.056  1.00  0.00    -0.550 OA
ENDBRANCH   6   7
ENDBRANCH   5   6
ENDBRANCH   4   5
ENDBRANCH   3   4
ENDBRANCH   2   3
ENDBRANCH   1   2
BRANCH   1  10
ATOM     10  C   UNL     1      58.978  33.859  57.545  1.00  0.00     0.000 C 
BRANCH  10  11
ATOM     11  C   UNL     1      59.814  35.134  57.760  1.00  0.00    -0.000 C 
BRANCH  11  12
ATOM     12  C   UNL     1      59.159  36.201  58.663  1.00  0.00    -0.000 C 
BRANCH  12  13
ATOM     13  C   UNL     1      60.077  36.792  59.752  1.00  0.00    -0.000 C 
BRANCH  13  14
ATOM     14  C   UNL     1      60.794  35.750  60.630  1.00  0.00    -0.000 C 
BRANCH  14  15
ATOM     15  C   UNL     1      62.216  36.184  61.024  1.00  0.00    -0.000 C 
BRANCH  15  16
ATOM     16  C   UNL     1      63.299  35.307  60.377  1.00  0.00    -0.003 C 
ATOM     17  C   UNL     1      64.192  34.617  61.409  1.00  0.00     0.004 C 
ENDBRANCH  15  16
ENDBRANCH  14  15
ENDBRANCH  13  14
ENDBRANCH  12  13
ENDBRANCH  11  12
ENDBRANCH  10  11
ENDBRANCH   1  10
TORSDOF 13
ENDMDL
