MODEL 1
REMARK VINA RESULT:    -3.789      0.000      0.000
REMARK INTER + INTRA:          -3.789
REMARK INTER:                  -3.789
REMARK INTRA:                   0.000
REMARK UNBOUND:                 0.000
REMARK SMILES CC1=CC[C@H]2[C@@H](C1)C2(C)C
REMARK SMILES IDX 1 1 2 2 3 3 4 4 5 5 6 6 7 7 8 8 9 9 10 10
REMARK H PARENT
REMARK Flexibility Score: inf
ROOT
ATOM      1  C   UNL     1      11.369   9.916  17.712  1.00  0.00     0.039 C 
ATOM      2  C   UNL     1      11.573   8.476  17.328  1.00  0.00    -0.077 C 
ATOM      3  C   UNL     1      10.878   7.961  16.299  1.00  0.00    -0.028 C 
ATOM      4  C   UNL     1      11.038   6.527  15.878  1.00  0.00     0.031 C 
ATOM      5  C   UNL     1      12.504   6.056  15.989  1.00  0.00     0.003 C 
ATOM      6  C   UNL     1      13.310   6.638  17.173  1.00  0.00     0.003 C 
ATOM      7  C   UNL     1      12.548   7.614  18.096  1.00  0.00     0.034 C 
ATOM      8  C   UNL     1      12.945   5.144  17.146  1.00  0.00    -0.029 C 
ATOM      9  C   UNL     1      11.904   4.580  18.132  1.00  0.00     0.012 C 
ATOM     10  C   UNL     1      14.112   4.209  16.811  1.00  0.00     0.012 C 
ENDROOT
TORSDOF 0
ENDMDL
MODEL 2
REMARK VINA RESULT:    -3.783      1.064      3.991
REMARK INTER + INTRA:          -3.783
REMARK INTER:                  -3.783
REMARK INTRA:                   0.000
REMARK UNBOUND:                 0.000
REMARK SMILES CC1=CC[C@H]2[C@@H](C1)C2(C)C
REMARK SMILES IDX 1 1 2 2 3 3 4 4 5 5 6 6 7 7 8 8 9 9 10 10
REMARK H PARENT
REMARK Flexibility Score: inf
ROOT
ATOM      1  C   UNL     1      15.789   4.540  16.297  1.00  0.00     0.039 C 
ATOM      2  C   UNL     1      14.412   5.013  16.672  1.00  0.00    -0.077 C 
ATOM      3  C   UNL     1      13.603   4.201  17.374  1.00  0.00    -0.028 C 
ATOM      4  C   UNL     1      12.215   4.621  17.770  1.00  0.00     0.031 C 
ATOM      5  C   UNL     1      12.155   6.113  18.158  1.00  0.00     0.003 C 
ATOM      6  C   UNL     1      13.077   7.057  17.351  1.00  0.00     0.003 C 
ATOM      7  C   UNL     1      13.939   6.388  16.259  1.00  0.00     0.034 C 
ATOM      8  C   UNL     1      11.549   7.147  17.192  1.00  0.00    -0.029 C 
ATOM      9  C   UNL     1      10.875   6.687  15.885  1.00  0.00     0.012 C 
ATOM     10  C   UNL     1      10.908   8.358  17.876  1.00  0.00     0.012 C 
ENDROOT
TORSDOF 0
ENDMDL
MODEL 3
REMARK VINA RESULT:    -3.751      0.941      4.029
REMARK INTER + INTRA:          -3.751
REMARK INTER:                  -3.751
REMARK INTRA:                   0.000
REMARK UNBOUND:                 0.000
REMARK SMILES CC1=CC[C@H]2[C@@H](C1)C2(C)C
REMARK SMILES IDX 1 1 2 2 3 3 4 4 5 5 6 6 7 7 8 8 9 9 10 10
REMARK H PARENT
REMARK Flexibility Score: inf
ROOT
ATOM      1  C   UNL     1      14.681   3.661  17.544  1.00  0.00     0.039 C 
ATOM      2  C   UNL     1      13.483   4.571  17.557  1.00  0.00    -0.077 C 
ATOM      3  C   UNL     1      12.323   4.128  18.073  1.00  0.00    -0.028 C 
ATOM      4  C   UNL     1      11.094   4.992  18.105  1.00  0.00     0.031 C 
ATOM      5  C   UNL     1      11.435   6.466  18.410  1.00  0.00     0.003 C 
ATOM      6  C   UNL     1      12.764   6.986  17.816  1.00  0.00     0.003 C 
ATOM      7  C   UNL     1      13.581   5.968  16.990  1.00  0.00     0.034 C 
ATOM      8  C   UNL     1      11.421   7.518  17.289  1.00  0.00    -0.029 C 
ATOM      9  C   UNL     1      10.935   7.142  15.876  1.00  0.00     0.012 C 
ATOM     10  C   UNL     1      11.072   8.937  17.752  1.00  0.00     0.012 C 
ENDROOT
TORSDOF 0
ENDMDL
MODEL 4
REMARK VINA RESULT:    -3.681      1.890      3.384
REMARK INTER + INTRA:          -3.681
REMARK INTER:                  -3.681
REMARK INTRA:                   0.000
REMARK UNBOUND:                 0.000
REMARK SMILES CC1=CC[C@H]2[C@@H](C1)C2(C)C
REMARK SMILES IDX 1 1 2 2 3 3 4 4 5 5 6 6 7 7 8 8 9 9 10 10
REMARK H PARENT
REMARK Flexibility Score: inf
ROOT
ATOM      1  C   UNL     1      10.875   6.165  16.376  1.00  0.00     0.039 C 
ATOM      2  C   UNL     1      12.217   5.632  16.798  1.00  0.00    -0.077 C 
ATOM      3  C   UNL     1      12.276   4.615  17.675  1.00  0.00    -0.028 C 
ATOM      4  C   UNL     1      13.590   4.049  18.136  1.00  0.00     0.031 C 
ATOM      5  C   UNL     1      14.628   4.002  16.995  1.00  0.00     0.003 C 
ATOM      6  C   UNL     1      14.571   5.171  15.984  1.00  0.00     0.003 C 
ATOM      7  C   UNL     1      13.485   6.238  16.245  1.00  0.00     0.034 C 
ATOM      8  C   UNL     1      15.771   5.030  16.937  1.00  0.00    -0.029 C 
ATOM      9  C   UNL     1      15.972   6.034  18.088  1.00  0.00     0.012 C 
ATOM     10  C   UNL     1      17.054   4.519  16.274  1.00  0.00     0.012 C 
ENDROOT
TORSDOF 0
ENDMDL
MODEL 5
REMARK VINA RESULT:    -3.629      1.948      3.835
REMARK INTER + INTRA:          -3.629
REMARK INTER:                  -3.629
REMARK INTRA:                   0.000
REMARK UNBOUND:                 0.000
REMARK SMILES CC1=CC[C@H]2[C@@H](C1)C2(C)C
REMARK SMILES IDX 1 1 2 2 3 3 4 4 5 5 6 6 7 7 8 8 9 9 10 10
REMARK H PARENT
REMARK Flexibility Score: inf
ROOT
ATOM      1  C   UNL     1      12.471   5.574  22.020  1.00  0.00     0.039 C 
ATOM      2  C   UNL     1      12.488   5.481  20.519  1.00  0.00    -0.077 C 
ATOM      3  C   UNL     1      12.983   4.379  19.931  1.00  0.00    -0.028 C 
ATOM      4  C   UNL     1      13.030   4.237  18.435  1.00  0.00     0.031 C 
ATOM      5  C   UNL     1      11.781   4.843  17.761  1.00  0.00     0.003 C 
ATOM      6  C   UNL     1      11.207   6.115  18.427  1.00  0.00     0.003 C 
ATOM      7  C   UNL     1      11.956   6.620  19.679  1.00  0.00     0.034 C 
ATOM      8  C   UNL     1      11.864   6.199  17.039  1.00  0.00    -0.029 C 
ATOM      9  C   UNL     1      13.223   6.903  16.863  1.00  0.00     0.012 C 
ATOM     10  C   UNL     1      10.880   6.363  15.876  1.00  0.00     0.012 C 
ENDROOT
TORSDOF 0
ENDMDL
MODEL 6
REMARK VINA RESULT:    -3.551      1.404      3.954
REMARK INTER + INTRA:          -3.551
REMARK INTER:                  -3.551
REMARK INTRA:                   0.000
REMARK UNBOUND:                 0.000
REMARK SMILES CC1=CC[C@H]2[C@@H](C1)C2(C)C
REMARK SMILES IDX 1 1 2 2 3 3 4 4 5 5 6 6 7 7 8 8 9 9 10 10
REMARK H PARENT
REMARK Flexibility Score: inf
ROOT
ATOM      1  C   UNL     1      13.456   3.476  19.550  1.00  0.00     0.039 C 
ATOM      2  C   UNL     1      13.264   4.483  18.449  1.00  0.00    -0.077 C 
ATOM      3  C   UNL     1      13.814   4.256  17.244  1.00  0.00    -0.028 C 
ATOM      4  C   UNL     1      13.659   5.232  16.111  1.00  0.00     0.031 C 
ATOM      5  C   UNL     1      12.253   5.868  16.089  1.00  0.00     0.003 C 
ATOM      6  C   UNL     1      11.614   6.138  17.471  1.00  0.00     0.003 C 
ATOM      7  C   UNL     1      12.463   5.739  18.698  1.00  0.00     0.034 C 
ATOM      8  C   UNL     1      12.042   7.312  16.575  1.00  0.00    -0.029 C 
ATOM      9  C   UNL     1      13.250   8.186  16.963  1.00  0.00     0.012 C 
ATOM     10  C   UNL     1      10.883   8.050  15.896  1.00  0.00     0.012 C 
ENDROOT
TORSDOF 0
ENDMDL
MODEL 7
REMARK VINA RESULT:    -3.536      1.786      4.579
REMARK INTER + INTRA:          -3.536
REMARK INTER:                  -3.536
REMARK INTRA:                   0.000
REMARK UNBOUND:                 0.000
REMARK SMILES CC1=CC[C@H]2[C@@H](C1)C2(C)C
REMARK SMILES IDX 1 1 2 2 3 3 4 4 5 5 6 6 7 7 8 8 9 9 10 10
REMARK H PARENT
REMARK Flexibility Score: inf
ROOT
ATOM      1  C   UNL     1      14.035   2.613  20.787  1.00  0.00     0.039 C 
ATOM      2  C   UNL     1      13.881   3.450  19.546  1.00  0.00    -0.077 C 
ATOM      3  C   UNL     1      14.696   3.235  18.499  1.00  0.00    -0.028 C 
ATOM      4  C   UNL     1      14.590   4.046  17.239  1.00  0.00     0.031 C 
ATOM      5  C   UNL     1      13.123   4.366  16.882  1.00  0.00     0.003 C 
ATOM      6  C   UNL     1      12.179   4.622  18.080  1.00  0.00     0.003 C 
ATOM      7  C   UNL     1      12.823   4.527  19.481  1.00  0.00     0.034 C 
ATOM      8  C   UNL     1      12.549   5.772  17.128  1.00  0.00    -0.029 C 
ATOM      9  C   UNL     1      13.466   6.913  17.606  1.00  0.00     0.012 C 
ATOM     10  C   UNL     1      11.433   6.182  16.161  1.00  0.00     0.012 C 
ENDROOT
TORSDOF 0
ENDMDL
MODEL 8
REMARK VINA RESULT:    -3.488      1.929      4.009
REMARK INTER + INTRA:          -3.488
REMARK INTER:                  -3.488
REMARK INTRA:                   0.000
REMARK UNBOUND:                 0.000
REMARK SMILES CC1=CC[C@H]2[C@@H](C1)C2(C)C
REMARK SMILES IDX 1 1 2 2 3 3 4 4 5 5 6 6 7 7 8 8 9 9 10 10
REMARK H PARENT
REMARK Flexibility Score: inf
ROOT
ATOM      1  C   UNL     1      17.446   6.426  16.847  1.00  0.00     0.039 C 
ATOM      2  C   UNL     1      16.026   5.941  16.746  1.00  0.00    -0.077 C 
ATOM      3  C   UNL     1      15.774   4.752  16.172  1.00  0.00    -0.028 C 
ATOM      4  C   UNL     1      14.374   4.223  16.038  1.00  0.00     0.031 C 
ATOM      5  C   UNL     1      13.512   4.558  17.274  1.00  0.00     0.003 C 
ATOM      6  C   UNL     1      13.791   5.926  17.939  1.00  0.00     0.003 C 
ATOM      7  C   UNL     1      14.893   6.785  17.281  1.00  0.00     0.034 C 
ATOM      8  C   UNL     1      12.459   5.677  17.212  1.00  0.00    -0.029 C 
ATOM      9  C   UNL     1      12.156   6.385  15.878  1.00  0.00     0.012 C 
ATOM     10  C   UNL     1      11.256   5.471  18.139  1.00  0.00     0.012 C 
ENDROOT
TORSDOF 0
ENDMDL
MODEL 9
REMARK VINA RESULT:    -2.275      1.377      2.346
REMARK INTER + INTRA:          -2.275
REMARK INTER:                  -2.275
REMARK INTRA:                   0.000
REMARK UNBOUND:                 0.000
REMARK SMILES CC1=CC[C@H]2[C@@H](C1)C2(C)C
REMARK SMILES IDX 1 1 2 2 3 3 4 4 5 5 6 6 7 7 8 8 9 9 10 10
REMARK H PARENT
REMARK Flexibility Score: inf
ROOT
ATOM      1  C   UNL     1      11.076   7.836  15.875  1.00  0.00     0.039 C 
ATOM      2  C   UNL     1      11.711   6.808  16.771  1.00  0.00    -0.077 C 
ATOM      3  C   UNL     1      10.983   6.250  17.754  1.00  0.00    -0.028 C 
ATOM      4  C   UNL     1      11.570   5.223  18.682  1.00  0.00     0.031 C 
ATOM      5  C   UNL     1      12.535   4.269  17.947  1.00  0.00     0.003 C 
ATOM      6  C   UNL     1      13.381   4.904  16.819  1.00  0.00     0.003 C 
ATOM      7  C   UNL     1      13.155   6.411  16.571  1.00  0.00     0.034 C 
ATOM      8  C   UNL     1      14.057   4.419  18.113  1.00  0.00    -0.029 C 
ATOM      9  C   UNL     1      14.633   5.436  19.117  1.00  0.00     0.012 C 
ATOM     10  C   UNL     1      14.845   3.113  17.969  1.00  0.00     0.012 C 
ENDROOT
TORSDOF 0
ENDMDL
