MODEL 1
REMARK VINA RESULT:    -3.953      0.000      0.000
REMARK INTER + INTRA:          -6.417
REMARK INTER:                  -6.033
REMARK INTRA:                  -0.385
REMARK UNBOUND:                -0.385
REMARK SMILES CCCCCCCCCCC(=O)[O-]
REMARK SMILES IDX 7 1 8 2 9 3 10 4 11 5 12 6 13 7 6 8 5 9 4 10 3 11 2 12 1 13
REMARK H PARENT
REMARK Flexibility Score: inf
ROOT
ATOM      1  C   UNL     1       7.602   4.394   9.848  1.00  0.00     0.000 C 
ENDROOT
BRANCH   1   2
ATOM      2  C   UNL     1       6.990   3.003   9.616  1.00  0.00     0.000 C 
BRANCH   2   3
ATOM      3  C   UNL     1       5.567   3.070   9.040  1.00  0.00     0.006 C 
BRANCH   3   4
ATOM      4  C   UNL     1       4.952   1.682   8.821  1.00  0.00     0.053 C 
BRANCH   4   5
ATOM      5  C   UNL     1       4.674   1.459   7.369  1.00  0.00     0.041 C 
ATOM      6  O   UNL     1       5.367   0.641   6.708  1.00  0.00    -0.550 OA
ATOM      7  O   UNL     1       3.616   2.118   6.754  1.00  0.00    -0.550 OA
ENDBRANCH   4   5
ENDBRANCH   3   4
ENDBRANCH   2   3
ENDBRANCH   1   2
BRANCH   1   8
ATOM      8  C   UNL     1       9.134   4.333   9.810  1.00  0.00     0.000 C 
BRANCH   8   9
ATOM      9  C   UNL     1       9.744   5.727  10.015  1.00  0.00    -0.000 C 
BRANCH   9  10
ATOM     10  C   UNL     1      10.948   5.988   9.096  1.00  0.00    -0.000 C 
BRANCH  10  11
ATOM     11  C   UNL     1      10.687   7.115   8.086  1.00  0.00    -0.000 C 
BRANCH  11  12
ATOM     12  C   UNL     1       9.186   7.286   7.829  1.00  0.00    -0.003 C 
ATOM     13  C   UNL     1       8.741   8.724   8.087  1.00  0.00     0.004 C 
ENDBRANCH  11  12
ENDBRANCH  10  11
ENDBRANCH   9  10
ENDBRANCH   8   9
ENDBRANCH   1   8
TORSDOF 9
ENDMDL
MODEL 2
REMARK VINA RESULT:    -3.585      5.012      7.411
REMARK INTER + INTRA:          -5.857
REMARK INTER:                  -5.351
REMARK INTRA:                  -0.506
REMARK UNBOUND:                -0.385
REMARK SMILES CCCCCCCCCCC(=O)[O-]
REMARK SMILES IDX 7 1 8 2 9 3 10 4 11 5 12 6 13 7 6 8 5 9 4 10 3 11 2 12 1 13
REMARK H PARENT
REMARK Flexibility Score: inf
ROOT
ATOM      1  C   UNL     1       7.112  10.145   9.478  1.00  0.00     0.000 C 
ENDROOT
BRANCH   1   2
ATOM      2  C   UNL     1       6.942  10.758   8.079  1.00  0.00     0.000 C 
BRANCH   2   3
ATOM      3  C   UNL     1       6.141  12.070   8.100  1.00  0.00     0.006 C 
BRANCH   3   4
ATOM      4  C   UNL     1       4.626  11.837   8.100  1.00  0.00     0.053 C 
BRANCH   4   5
ATOM      5  C   UNL     1       4.045  12.177   6.765  1.00  0.00     0.041 C 
ATOM      6  O   UNL     1       3.658  13.349   6.521  1.00  0.00    -0.550 OA
ATOM      7  O   UNL     1       3.977  11.208   5.770  1.00  0.00    -0.550 OA
ENDBRANCH   4   5
ENDBRANCH   3   4
ENDBRANCH   2   3
ENDBRANCH   1   2
BRANCH   1   8
ATOM      8  C   UNL     1       7.977   8.880   9.421  1.00  0.00     0.000 C 
BRANCH   8   9
ATOM      9  C   UNL     1       8.683   8.757   8.063  1.00  0.00    -0.000 C 
BRANCH   9  10
ATOM     10  C   UNL     1       9.499   7.461   7.935  1.00  0.00    -0.000 C 
BRANCH  10  11
ATOM     11  C   UNL     1       8.904   6.303   8.750  1.00  0.00    -0.000 C 
BRANCH  11  12
ATOM     12  C   UNL     1      10.012   5.422   9.338  1.00  0.00    -0.003 C 
ATOM     13  C   UNL     1      11.391   5.889   8.879  1.00  0.00     0.004 C 
ENDBRANCH  11  12
ENDBRANCH  10  11
ENDBRANCH   9  10
ENDBRANCH   8   9
ENDBRANCH   1   8
TORSDOF 9
ENDMDL
MODEL 3
REMARK VINA RESULT:    -3.561      6.319      8.636
REMARK INTER + INTRA:          -5.819
REMARK INTER:                  -5.365
REMARK INTRA:                  -0.455
REMARK UNBOUND:                -0.385
REMARK SMILES CCCCCCCCCCC(=O)[O-]
REMARK SMILES IDX 7 1 8 2 9 3 10 4 11 5 12 6 13 7 6 8 5 9 4 10 3 11 2 12 1 13
REMARK H PARENT
REMARK Flexibility Score: inf
ROOT
ATOM      1  C   UNL     1       0.012   3.988   9.403  1.00  0.00     0.000 C 
ENDROOT
BRANCH   1   2
ATOM      2  C   UNL     1      -1.235   4.328   8.571  1.00  0.00     0.000 C 
BRANCH   2   3
ATOM      3  C   UNL     1      -1.995   5.548   9.115  1.00  0.00     0.006 C 
BRANCH   3   4
ATOM      4  C   UNL     1      -1.165   6.364  10.114  1.00  0.00     0.053 C 
BRANCH   4   5
ATOM      5  C   UNL     1      -1.305   7.827   9.837  1.00  0.00     0.041 C 
ATOM      6  O   UNL     1      -0.360   8.465   9.302  1.00  0.00    -0.550 OA
ATOM      7  O   UNL     1      -2.499   8.478  10.125  1.00  0.00    -0.550 OA
ENDBRANCH   4   5
ENDBRANCH   3   4
ENDBRANCH   2   3
ENDBRANCH   1   2
BRANCH   1   8
ATOM      8  C   UNL     1      -0.012   2.521   9.852  1.00  0.00     0.000 C 
BRANCH   8   9
ATOM      9  C   UNL     1       1.401   1.920   9.837  1.00  0.00    -0.000 C 
BRANCH   9  10
ATOM     10  C   UNL     1       2.494   2.979   9.624  1.00  0.00    -0.000 C 
BRANCH  10  11
ATOM     11  C   UNL     1       3.853   2.363   9.261  1.00  0.00    -0.000 C 
BRANCH  11  12
ATOM     12  C   UNL     1       4.043   2.313   7.741  1.00  0.00    -0.003 C 
ATOM     13  C   UNL     1       5.024   1.212   7.343  1.00  0.00     0.004 C 
ENDBRANCH  11  12
ENDBRANCH  10  11
ENDBRANCH   9  10
ENDBRANCH   8   9
ENDBRANCH   1   8
TORSDOF 9
ENDMDL
MODEL 4
REMARK VINA RESULT:    -3.406      5.167      7.139
REMARK INTER + INTRA:          -5.583
REMARK INTER:                  -5.122
REMARK INTRA:                  -0.461
REMARK UNBOUND:                -0.385
REMARK SMILES CCCCCCCCCCC(=O)[O-]
REMARK SMILES IDX 7 1 8 2 9 3 10 4 11 5 12 6 13 7 6 8 5 9 4 10 3 11 2 12 1 13
REMARK H PARENT
REMARK Flexibility Score: inf
ROOT
ATOM      1  C   UNL     1       8.429   8.629   9.504  1.00  0.00     0.000 C 
ENDROOT
BRANCH   1   2
ATOM      2  C   UNL     1       8.642   8.678   7.983  1.00  0.00     0.000 C 
BRANCH   2   3
ATOM      3  C   UNL     1       9.661   7.636   7.494  1.00  0.00     0.006 C 
BRANCH   3   4
ATOM      4  C   UNL     1      10.042   6.626   8.583  1.00  0.00     0.053 C 
BRANCH   4   5
ATOM      5  C   UNL     1      11.529   6.532   8.709  1.00  0.00     0.041 C 
ATOM      6  O   UNL     1      12.114   5.433   8.520  1.00  0.00    -0.550 OA
ATOM      7  O   UNL     1      12.277   7.670   8.988  1.00  0.00    -0.550 OA
ENDBRANCH   4   5
ENDBRANCH   3   4
ENDBRANCH   2   3
ENDBRANCH   1   2
BRANCH   1   8
ATOM      8  C   UNL     1       7.394   9.671   9.947  1.00  0.00     0.000 C 
BRANCH   8   9
ATOM      9  C   UNL     1       7.071  10.644   8.804  1.00  0.00    -0.000 C 
BRANCH   9  10
ATOM     10  C   UNL     1       5.852  11.530   9.107  1.00  0.00    -0.000 C 
BRANCH  10  11
ATOM     11  C   UNL     1       5.497  12.467   7.943  1.00  0.00    -0.000 C 
BRANCH  11  12
ATOM     12  C   UNL     1       4.082  12.186   7.426  1.00  0.00    -0.003 C 
ATOM     13  C   UNL     1       4.116  11.311   6.174  1.00  0.00     0.004 C 
ENDBRANCH  11  12
ENDBRANCH  10  11
ENDBRANCH   9  10
ENDBRANCH   8   9
ENDBRANCH   1   8
TORSDOF 9
ENDMDL
MODEL 5
REMARK VINA RESULT:    -3.151      2.037      2.911
REMARK INTER + INTRA:          -5.193
REMARK INTER:                  -4.712
REMARK INTRA:                  -0.481
REMARK UNBOUND:                -0.385
REMARK SMILES CCCCCCCCCCC(=O)[O-]
REMARK SMILES IDX 7 1 8 2 9 3 10 4 11 5 12 6 13 7 6 8 5 9 4 10 3 11 2 12 1 13
REMARK H PARENT
REMARK Flexibility Score: inf
ROOT
ATOM      1  C   UNL     1       6.562   2.337   9.670  1.00  0.00     0.000 C 
ENDROOT
BRANCH   1   2
ATOM      2  C   UNL     1       5.956   2.909   8.379  1.00  0.00     0.000 C 
BRANCH   2   3
ATOM      3  C   UNL     1       4.441   2.669   8.279  1.00  0.00     0.006 C 
BRANCH   3   4
ATOM      4  C   UNL     1       3.713   2.930   9.602  1.00  0.00     0.053 C 
BRANCH   4   5
ATOM      5  C   UNL     1       2.591   3.897   9.398  1.00  0.00     0.041 C 
ATOM      6  O   UNL     1       1.480   3.498   8.961  1.00  0.00    -0.550 OA
ATOM      7  O   UNL     1       2.756   5.235   9.736  1.00  0.00    -0.550 OA
ENDBRANCH   4   5
ENDBRANCH   3   4
ENDBRANCH   2   3
ENDBRANCH   1   2
BRANCH   1   8
ATOM      8  C   UNL     1       7.773   3.163  10.122  1.00  0.00     0.000 C 
BRANCH   8   9
ATOM      9  C   UNL     1       7.721   4.581   9.533  1.00  0.00    -0.000 C 
BRANCH   9  10
ATOM     10  C   UNL     1       9.109   5.231   9.429  1.00  0.00    -0.000 C 
BRANCH  10  11
ATOM     11  C   UNL     1       9.101   6.515   8.587  1.00  0.00    -0.000 C 
BRANCH  11  12
ATOM     12  C   UNL     1      10.529   6.975   8.274  1.00  0.00    -0.003 C 
ATOM     13  C   UNL     1      11.551   5.915   8.679  1.00  0.00     0.004 C 
ENDBRANCH  11  12
ENDBRANCH  10  11
ENDBRANCH   9  10
ENDBRANCH   8   9
ENDBRANCH   1   8
TORSDOF 9
ENDMDL
MODEL 6
REMARK VINA RESULT:    -3.140      1.528      2.842
REMARK INTER + INTRA:          -5.177
REMARK INTER:                  -4.683
REMARK INTRA:                  -0.493
REMARK UNBOUND:                -0.385
REMARK SMILES CCCCCCCCCCC(=O)[O-]
REMARK SMILES IDX 7 1 8 2 9 3 10 4 11 5 12 6 13 7 6 8 5 9 4 10 3 11 2 12 1 13
REMARK H PARENT
REMARK Flexibility Score: inf
ROOT
ATOM      1  C   UNL     1       4.337   4.368   9.420  1.00  0.00     0.000 C 
ENDROOT
BRANCH   1   2
ATOM      2  C   UNL     1       3.481   3.211   9.958  1.00  0.00     0.000 C 
BRANCH   2   3
ATOM      3  C   UNL     1       3.078   2.212   8.861  1.00  0.00     0.006 C 
BRANCH   3   4
ATOM      4  C   UNL     1       3.958   2.323   7.610  1.00  0.00     0.053 C 
BRANCH   4   5
ATOM      5  C   UNL     1       4.948   1.202   7.567  1.00  0.00     0.041 C 
ATOM      6  O   UNL     1       5.431   0.741   8.634  1.00  0.00    -0.550 OA
ATOM      7  O   UNL     1       5.301   0.633   6.349  1.00  0.00    -0.550 OA
ENDBRANCH   4   5
ENDBRANCH   3   4
ENDBRANCH   2   3
ENDBRANCH   1   2
BRANCH   1   8
ATOM      8  C   UNL     1       5.698   4.418  10.125  1.00  0.00     0.000 C 
BRANCH   8   9
ATOM      9  C   UNL     1       6.814   3.909   9.200  1.00  0.00    -0.000 C 
BRANCH   9  10
ATOM     10  C   UNL     1       8.215   4.091   9.806  1.00  0.00    -0.000 C 
BRANCH  10  11
ATOM     11  C   UNL     1       8.884   5.401   9.367  1.00  0.00    -0.000 C 
BRANCH  11  12
ATOM     12  C   UNL     1      10.411   5.266   9.375  1.00  0.00    -0.003 C 
ATOM     13  C   UNL     1      11.075   6.463   8.697  1.00  0.00     0.004 C 
ENDBRANCH  11  12
ENDBRANCH  10  11
ENDBRANCH   9  10
ENDBRANCH   8   9
ENDBRANCH   1   8
TORSDOF 9
ENDMDL
MODEL 7
REMARK VINA RESULT:    -3.112      3.753      6.671
REMARK INTER + INTRA:          -5.135
REMARK INTER:                  -4.811
REMARK INTRA:                  -0.323
REMARK UNBOUND:                -0.385
REMARK SMILES CCCCCCCCCCC(=O)[O-]
REMARK SMILES IDX 7 1 8 2 9 3 10 4 11 5 12 6 13 7 6 8 5 9 4 10 3 11 2 12 1 13
REMARK H PARENT
REMARK Flexibility Score: inf
ROOT
ATOM      1  C   UNL     1       7.946   4.652   9.328  1.00  0.00     0.000 C 
ENDROOT
BRANCH   1   2
ATOM      2  C   UNL     1       9.137   5.604   9.522  1.00  0.00     0.000 C 
BRANCH   2   3
ATOM      3  C   UNL     1       9.003   6.895   8.699  1.00  0.00     0.006 C 
BRANCH   3   4
ATOM      4  C   UNL     1      10.239   7.176   7.834  1.00  0.00     0.053 C 
BRANCH   4   5
ATOM      5  C   UNL     1      11.484   6.785   8.563  1.00  0.00     0.041 C 
ATOM      6  O   UNL     1      11.954   7.531   9.462  1.00  0.00    -0.550 OA
ATOM      7  O   UNL     1      12.103   5.572   8.283  1.00  0.00    -0.550 OA
ENDBRANCH   4   5
ENDBRANCH   3   4
ENDBRANCH   2   3
ENDBRANCH   1   2
BRANCH   1   8
ATOM      8  C   UNL     1       8.145   3.357  10.125  1.00  0.00     0.000 C 
BRANCH   8   9
ATOM      9  C   UNL     1       7.074   2.318   9.759  1.00  0.00    -0.000 C 
BRANCH   9  10
ATOM     10  C   UNL     1       6.211   2.752   8.564  1.00  0.00    -0.000 C 
BRANCH  10  11
ATOM     11  C   UNL     1       5.137   1.716   8.202  1.00  0.00    -0.000 C 
BRANCH  11  12
ATOM     12  C   UNL     1       3.756   2.372   8.097  1.00  0.00    -0.003 C 
ATOM     13  C   UNL     1       3.676   3.631   8.957  1.00  0.00     0.004 C 
ENDBRANCH  11  12
ENDBRANCH  10  11
ENDBRANCH   9  10
ENDBRANCH   8   9
ENDBRANCH   1   8
TORSDOF 9
ENDMDL
MODEL 8
REMARK VINA RESULT:    -3.095      5.735      8.136
REMARK INTER + INTRA:          -5.109
REMARK INTER:                  -4.558
REMARK INTRA:                  -0.551
REMARK UNBOUND:                -0.385
REMARK SMILES CCCCCCCCCCC(=O)[O-]
REMARK SMILES IDX 7 1 8 2 9 3 10 4 11 5 12 6 13 7 6 8 5 9 4 10 3 11 2 12 1 13
REMARK H PARENT
REMARK Flexibility Score: inf
ROOT
ATOM      1  C   UNL     1       5.178  11.510   7.681  1.00  0.00     0.000 C 
ENDROOT
BRANCH   1   2
ATOM      2  C   UNL     1       4.632  12.940   7.811  1.00  0.00     0.000 C 
BRANCH   2   3
ATOM      3  C   UNL     1       3.638  13.091   8.974  1.00  0.00     0.006 C 
BRANCH   3   4
ATOM      4  C   UNL     1       3.173  11.741   9.532  1.00  0.00     0.053 C 
BRANCH   4   5
ATOM      5  C   UNL     1       1.753  11.477   9.145  1.00  0.00     0.041 C 
ATOM      6  O   UNL     1       1.446  10.413   8.545  1.00  0.00    -0.550 OA
ATOM      7  O   UNL     1       0.758  12.385   9.488  1.00  0.00    -0.550 OA
ENDBRANCH   4   5
ENDBRANCH   3   4
ENDBRANCH   2   3
ENDBRANCH   1   2
BRANCH   1   8
ATOM      8  C   UNL     1       6.641  11.437   8.136  1.00  0.00     0.000 C 
BRANCH   8   9
ATOM      9  C   UNL     1       6.745  10.868   9.559  1.00  0.00    -0.000 C 
BRANCH   9  10
ATOM     10  C   UNL     1       7.604   9.595   9.627  1.00  0.00    -0.000 C 
BRANCH  10  11
ATOM     11  C   UNL     1       8.215   9.221   8.268  1.00  0.00    -0.000 C 
BRANCH  11  12
ATOM     12  C   UNL     1       9.409   8.276   8.447  1.00  0.00    -0.003 C 
ATOM     13  C   UNL     1       8.988   6.817   8.286  1.00  0.00     0.004 C 
ENDBRANCH  11  12
ENDBRANCH  10  11
ENDBRANCH   9  10
ENDBRANCH   8   9
ENDBRANCH   1   8
TORSDOF 9
ENDMDL
MODEL 9
REMARK VINA RESULT:    -3.074      4.048      7.081
REMARK INTER + INTRA:          -5.075
REMARK INTER:                  -4.584
REMARK INTRA:                  -0.491
REMARK UNBOUND:                -0.385
REMARK SMILES CCCCCCCCCCC(=O)[O-]
REMARK SMILES IDX 7 1 8 2 9 3 10 4 11 5 12 6 13 7 6 8 5 9 4 10 3 11 2 12 1 13
REMARK H PARENT
REMARK Flexibility Score: inf
ROOT
ATOM      1  C   UNL     1       4.301   2.811   8.379  1.00  0.00     0.000 C 
ENDROOT
BRANCH   1   2
ATOM      2  C   UNL     1       4.949   1.428   8.547  1.00  0.00     0.000 C 
BRANCH   2   3
ATOM      3  C   UNL     1       5.958   1.384   9.706  1.00  0.00     0.006 C 
BRANCH   3   4
ATOM      4  C   UNL     1       6.713   2.707   9.883  1.00  0.00     0.053 C 
BRANCH   4   5
ATOM      5  C   UNL     1       8.189   2.470   9.872  1.00  0.00     0.041 C 
ATOM      6  O   UNL     1       8.645   1.314   9.669  1.00  0.00    -0.550 OA
ATOM      7  O   UNL     1       9.066   3.536  10.038  1.00  0.00    -0.550 OA
ENDBRANCH   4   5
ENDBRANCH   3   4
ENDBRANCH   2   3
ENDBRANCH   1   2
BRANCH   1   8
ATOM      8  C   UNL     1       3.027   2.927   9.225  1.00  0.00     0.000 C 
BRANCH   8   9
ATOM      9  C   UNL     1       3.017   4.236  10.027  1.00  0.00    -0.000 C 
BRANCH   9  10
ATOM     10  C   UNL     1       1.616   4.861  10.125  1.00  0.00    -0.000 C 
BRANCH  10  11
ATOM     11  C   UNL     1       0.549   4.041   9.385  1.00  0.00    -0.000 C 
BRANCH  11  12
ATOM     12  C   UNL     1      -0.861   4.479   9.796  1.00  0.00    -0.003 C 
ATOM     13  C   UNL     1      -1.887   4.115   8.725  1.00  0.00     0.004 C 
ENDBRANCH  11  12
ENDBRANCH  10  11
ENDBRANCH   9  10
ENDBRANCH   8   9
ENDBRANCH   1   8
TORSDOF 9
ENDMDL
