MODEL 1
REMARK VINA RESULT:    -7.377      0.000      0.000
REMARK INTER + INTRA:          -8.906
REMARK INTER:                  -8.670
REMARK INTRA:                  -0.236
REMARK UNBOUND:                -0.236
REMARK SMILES COc1cc2ccc(=O)oc2c(OC)c1OC
REMARK SMILES IDX 3 1 15 2 12 3 11 4 5 5 4 6 6 7 7 8 8 9 9 10 10 11 2 12 1 13
REMARK SMILES IDX 16 14 17 15 13 16 14 17
REMARK H PARENT
REMARK Flexibility Score: inf
ROOT
ATOM      1  C   UNL     1      34.328  26.651  20.919  1.00  0.00     0.165 A 
ATOM      2  C   UNL     1      33.898  27.943  20.516  1.00  0.00     0.207 A 
ATOM      3  C   UNL     1      33.500  28.173  19.185  1.00  0.00     0.208 A 
ATOM      4  C   UNL     1      33.530  27.114  18.248  1.00  0.00     0.184 A 
ATOM      5  C   UNL     1      33.958  25.833  18.655  1.00  0.00     0.025 A 
ATOM      6  C   UNL     1      34.352  25.609  19.976  1.00  0.00     0.062 A 
ATOM      7  C   UNL     1      33.981  24.798  17.713  1.00  0.00     0.020 A 
ATOM      8  C   UNL     1      33.582  25.052  16.404  1.00  0.00     0.094 A 
ATOM      9  C   UNL     1      33.168  26.342  16.066  1.00  0.00     0.336 A 
ATOM     10  O   UNL     1      32.803  26.598  14.889  1.00  0.00    -0.246 OA
ATOM     11  O   UNL     1      33.158  27.306  16.983  1.00  0.00    -0.419 OA
ENDROOT
BRANCH   1  12
ATOM     12  O   UNL     1      34.723  26.427  22.247  1.00  0.00    -0.493 OA
ATOM     13  C   UNL     1      36.038  26.632  22.757  1.00  0.00     0.278 C 
ENDBRANCH   1  12
BRANCH   2  14
ATOM     14  O   UNL     1      33.839  29.049  21.387  1.00  0.00    -0.490 OA
ATOM     15  C   UNL     1      34.895  29.953  21.691  1.00  0.00     0.278 C 
ENDBRANCH   2  14
BRANCH   3  16
ATOM     16  O   UNL     1      33.087  29.481  18.864  1.00  0.00    -0.490 OA
ATOM     17  C   UNL     1      31.745  29.953  18.797  1.00  0.00     0.278 C 
ENDBRANCH   3  16
TORSDOF 3
ENDMDL
MODEL 2
REMARK VINA RESULT:    -6.961      1.517      2.411
REMARK INTER + INTRA:          -8.418
REMARK INTER:                  -8.177
REMARK INTRA:                  -0.241
REMARK UNBOUND:                -0.236
REMARK SMILES COc1cc2ccc(=O)oc2c(OC)c1OC
REMARK SMILES IDX 3 1 15 2 12 3 11 4 5 5 4 6 6 7 7 8 8 9 9 10 10 11 2 12 1 13
REMARK SMILES IDX 16 14 17 15 13 16 14 17
REMARK H PARENT
REMARK Flexibility Score: inf
ROOT
ATOM      1  C   UNL     1      34.557  24.890  19.751  1.00  0.00     0.165 A 
ATOM      2  C   UNL     1      34.194  26.090  20.418  1.00  0.00     0.207 A 
ATOM      3  C   UNL     1      33.622  27.155  19.697  1.00  0.00     0.208 A 
ATOM      4  C   UNL     1      33.409  27.029  18.304  1.00  0.00     0.184 A 
ATOM      5  C   UNL     1      33.771  25.834  17.648  1.00  0.00     0.025 A 
ATOM      6  C   UNL     1      34.338  24.780  18.367  1.00  0.00     0.062 A 
ATOM      7  C   UNL     1      33.553  25.729  16.270  1.00  0.00     0.020 A 
ATOM      8  C   UNL     1      32.985  26.796  15.580  1.00  0.00     0.094 A 
ATOM      9  C   UNL     1      32.649  27.951  16.289  1.00  0.00     0.336 A 
ATOM     10  O   UNL     1      32.135  28.930  15.690  1.00  0.00    -0.246 OA
ATOM     11  O   UNL     1      32.868  28.022  17.599  1.00  0.00    -0.419 OA
ENDROOT
BRANCH   1  12
ATOM     12  O   UNL     1      35.126  23.831  20.474  1.00  0.00    -0.493 OA
ATOM     13  C   UNL     1      34.760  22.459  20.345  1.00  0.00     0.278 C 
ENDBRANCH   1  12
BRANCH   2  14
ATOM     14  O   UNL     1      34.373  26.294  21.801  1.00  0.00    -0.490 OA
ATOM     15  C   UNL     1      35.587  26.625  22.464  1.00  0.00     0.278 C 
ENDBRANCH   2  14
BRANCH   3  16
ATOM     16  O   UNL     1      33.290  28.311  20.430  1.00  0.00    -0.490 OA
ATOM     17  C   UNL     1      34.057  29.507  20.520  1.00  0.00     0.278 C 
ENDBRANCH   3  16
TORSDOF 3
ENDMDL
MODEL 3
REMARK VINA RESULT:    -6.754      1.540      4.776
REMARK INTER + INTRA:          -8.174
REMARK INTER:                  -8.043
REMARK INTRA:                  -0.131
REMARK UNBOUND:                -0.236
REMARK SMILES COc1cc2ccc(=O)oc2c(OC)c1OC
REMARK SMILES IDX 3 1 15 2 12 3 11 4 5 5 4 6 6 7 7 8 8 9 9 10 10 11 2 12 1 13
REMARK SMILES IDX 16 14 17 15 13 16 14 17
REMARK H PARENT
REMARK Flexibility Score: inf
ROOT
ATOM      1  C   UNL     1      33.792  24.697  18.240  1.00  0.00     0.165 A 
ATOM      2  C   UNL     1      33.277  25.940  17.788  1.00  0.00     0.207 A 
ATOM      3  C   UNL     1      33.383  27.087  18.598  1.00  0.00     0.208 A 
ATOM      4  C   UNL     1      34.006  26.998  19.866  1.00  0.00     0.184 A 
ATOM      5  C   UNL     1      34.516  25.760  20.308  1.00  0.00     0.025 A 
ATOM      6  C   UNL     1      34.408  24.626  19.501  1.00  0.00     0.062 A 
ATOM      7  C   UNL     1      35.127  25.693  21.565  1.00  0.00     0.020 A 
ATOM      8  C   UNL     1      35.220  26.841  22.346  1.00  0.00     0.094 A 
ATOM      9  C   UNL     1      34.695  28.036  21.849  1.00  0.00     0.336 A 
ATOM     10  O   UNL     1      34.765  29.088  22.536  1.00  0.00    -0.246 OA
ATOM     11  O   UNL     1      34.119  28.069  20.651  1.00  0.00    -0.419 OA
ENDROOT
BRANCH   1  12
ATOM     12  O   UNL     1      33.685  23.557  17.428  1.00  0.00    -0.493 OA
ATOM     13  C   UNL     1      33.677  22.212  17.900  1.00  0.00     0.278 C 
ENDBRANCH   1  12
BRANCH   2  14
ATOM     14  O   UNL     1      32.645  26.111  16.540  1.00  0.00    -0.490 OA
ATOM     15  C   UNL     1      33.277  26.198  15.269  1.00  0.00     0.278 C 
ENDBRANCH   2  14
BRANCH   3  16
ATOM     16  O   UNL     1      32.847  28.282  18.079  1.00  0.00    -0.490 OA
ATOM     17  C   UNL     1      31.742  29.011  18.601  1.00  0.00     0.278 C 
ENDBRANCH   3  16
TORSDOF 3
ENDMDL
MODEL 4
REMARK VINA RESULT:    -6.469      1.738      3.453
REMARK INTER + INTRA:          -7.840
REMARK INTER:                  -7.625
REMARK INTRA:                  -0.215
REMARK UNBOUND:                -0.236
REMARK SMILES COc1cc2ccc(=O)oc2c(OC)c1OC
REMARK SMILES IDX 3 1 15 2 12 3 11 4 5 5 4 6 6 7 7 8 8 9 9 10 10 11 2 12 1 13
REMARK SMILES IDX 16 14 17 15 13 16 14 17
REMARK H PARENT
REMARK Flexibility Score: inf
ROOT
ATOM      1  C   UNL     1      34.032  27.559  21.615  1.00  0.00     0.165 A 
ATOM      2  C   UNL     1      34.663  26.287  21.584  1.00  0.00     0.207 A 
ATOM      3  C   UNL     1      34.715  25.552  20.384  1.00  0.00     0.208 A 
ATOM      4  C   UNL     1      34.136  26.083  19.208  1.00  0.00     0.184 A 
ATOM      5  C   UNL     1      33.511  27.347  19.246  1.00  0.00     0.025 A 
ATOM      6  C   UNL     1      33.463  28.073  20.437  1.00  0.00     0.062 A 
ATOM      7  C   UNL     1      32.944  27.854  18.071  1.00  0.00     0.020 A 
ATOM      8  C   UNL     1      33.009  27.107  16.898  1.00  0.00     0.094 A 
ATOM      9  C   UNL     1      33.642  25.863  16.928  1.00  0.00     0.336 A 
ATOM     10  O   UNL     1      33.714  25.168  15.882  1.00  0.00    -0.246 OA
ATOM     11  O   UNL     1      34.172  25.407  18.060  1.00  0.00    -0.419 OA
ENDROOT
BRANCH   1  12
ATOM     12  O   UNL     1      33.984  28.288  22.813  1.00  0.00    -0.493 OA
ATOM     13  C   UNL     1      35.018  29.144  23.294  1.00  0.00     0.278 C 
ENDBRANCH   1  12
BRANCH   2  14
ATOM     14  O   UNL     1      35.263  25.690  22.711  1.00  0.00    -0.490 OA
ATOM     15  C   UNL     1      34.603  25.225  23.882  1.00  0.00     0.278 C 
ENDBRANCH   2  14
BRANCH   3  16
ATOM     16  O   UNL     1      35.357  24.299  20.436  1.00  0.00    -0.490 OA
ATOM     17  C   UNL     1      34.725  23.025  20.504  1.00  0.00     0.278 C 
ENDBRANCH   3  16
TORSDOF 3
ENDMDL
MODEL 5
REMARK VINA RESULT:    -6.298      1.313      4.598
REMARK INTER + INTRA:          -7.639
REMARK INTER:                  -7.896
REMARK INTRA:                   0.257
REMARK UNBOUND:                -0.236
REMARK SMILES COc1cc2ccc(=O)oc2c(OC)c1OC
REMARK SMILES IDX 3 1 15 2 12 3 11 4 5 5 4 6 6 7 7 8 8 9 9 10 10 11 2 12 1 13
REMARK SMILES IDX 16 14 17 15 13 16 14 17
REMARK H PARENT
REMARK Flexibility Score: inf
ROOT
ATOM      1  C   UNL     1      33.067  27.343  17.207  1.00  0.00     0.165 A 
ATOM      2  C   UNL     1      32.874  28.378  18.159  1.00  0.00     0.207 A 
ATOM      3  C   UNL     1      33.262  28.188  19.499  1.00  0.00     0.208 A 
ATOM      4  C   UNL     1      33.844  26.961  19.896  1.00  0.00     0.184 A 
ATOM      5  C   UNL     1      34.033  25.937  18.945  1.00  0.00     0.025 A 
ATOM      6  C   UNL     1      33.648  26.131  17.617  1.00  0.00     0.062 A 
ATOM      7  C   UNL     1      34.610  24.731  19.358  1.00  0.00     0.020 A 
ATOM      8  C   UNL     1      34.984  24.568  20.688  1.00  0.00     0.094 A 
ATOM      9  C   UNL     1      34.770  25.621  21.580  1.00  0.00     0.336 A 
ATOM     10  O   UNL     1      35.099  25.500  22.788  1.00  0.00    -0.246 OA
ATOM     11  O   UNL     1      34.219  26.756  21.158  1.00  0.00    -0.419 OA
ENDROOT
BRANCH   1  12
ATOM     12  O   UNL     1      32.680  27.539  15.871  1.00  0.00    -0.493 OA
ATOM     13  C   UNL     1      32.980  26.656  14.793  1.00  0.00     0.278 C 
ENDBRANCH   1  12
BRANCH   2  14
ATOM     14  O   UNL     1      32.303  29.627  17.844  1.00  0.00    -0.490 OA
ATOM     15  C   UNL     1      31.341  29.894  16.830  1.00  0.00     0.278 C 
ENDBRANCH   2  14
BRANCH   3  16
ATOM     16  O   UNL     1      33.037  29.262  20.383  1.00  0.00    -0.490 OA
ATOM     17  C   UNL     1      34.026  30.123  20.938  1.00  0.00     0.278 C 
ENDBRANCH   3  16
TORSDOF 3
ENDMDL
MODEL 6
REMARK VINA RESULT:    -6.271      1.862      3.855
REMARK INTER + INTRA:          -7.606
REMARK INTER:                  -7.421
REMARK INTRA:                  -0.185
REMARK UNBOUND:                -0.236
REMARK SMILES COc1cc2ccc(=O)oc2c(OC)c1OC
REMARK SMILES IDX 3 1 15 2 12 3 11 4 5 5 4 6 6 7 7 8 8 9 9 10 10 11 2 12 1 13
REMARK SMILES IDX 16 14 17 15 13 16 14 17
REMARK H PARENT
REMARK Flexibility Score: inf
ROOT
ATOM      1  C   UNL     1      32.929  28.507  18.196  1.00  0.00     0.165 A 
ATOM      2  C   UNL     1      33.307  28.272  19.544  1.00  0.00     0.207 A 
ATOM      3  C   UNL     1      33.665  26.976  19.964  1.00  0.00     0.208 A 
ATOM      4  C   UNL     1      33.647  25.907  19.039  1.00  0.00     0.184 A 
ATOM      5  C   UNL     1      33.271  26.147  17.701  1.00  0.00     0.025 A 
ATOM      6  C   UNL     1      32.917  27.433  17.289  1.00  0.00     0.062 A 
ATOM      7  C   UNL     1      33.259  25.075  16.801  1.00  0.00     0.020 A 
ATOM      8  C   UNL     1      33.617  23.804  17.241  1.00  0.00     0.094 A 
ATOM      9  C   UNL     1      33.979  23.634  18.579  1.00  0.00     0.336 A 
ATOM     10  O   UNL     1      34.307  22.496  19.002  1.00  0.00    -0.246 OA
ATOM     11  O   UNL     1      33.981  24.672  19.411  1.00  0.00    -0.419 OA
ENDROOT
BRANCH   1  12
ATOM     12  O   UNL     1      32.575  29.800  17.783  1.00  0.00    -0.493 OA
ATOM     13  C   UNL     1      31.968  30.125  16.535  1.00  0.00     0.278 C 
ENDBRANCH   1  12
BRANCH   2  14
ATOM     14  O   UNL     1      33.351  29.283  20.525  1.00  0.00    -0.490 OA
ATOM     15  C   UNL     1      34.456  30.125  20.834  1.00  0.00     0.278 C 
ENDBRANCH   2  14
BRANCH   3  16
ATOM     16  O   UNL     1      34.027  26.826  21.317  1.00  0.00    -0.490 OA
ATOM     17  C   UNL     1      35.338  26.592  21.822  1.00  0.00     0.278 C 
ENDBRANCH   3  16
TORSDOF 3
ENDMDL
MODEL 7
REMARK VINA RESULT:    -6.260      1.692      5.544
REMARK INTER + INTRA:          -7.594
REMARK INTER:                  -7.880
REMARK INTRA:                   0.287
REMARK UNBOUND:                -0.236
REMARK SMILES COc1cc2ccc(=O)oc2c(OC)c1OC
REMARK SMILES IDX 3 1 15 2 12 3 11 4 5 5 4 6 6 7 7 8 8 9 9 10 10 11 2 12 1 13
REMARK SMILES IDX 16 14 17 15 13 16 14 17
REMARK H PARENT
REMARK Flexibility Score: inf
ROOT
ATOM      1  C   UNL     1      32.901  28.133  17.435  1.00  0.00     0.165 A 
ATOM      2  C   UNL     1      33.372  26.831  17.122  1.00  0.00     0.207 A 
ATOM      3  C   UNL     1      33.875  25.997  18.140  1.00  0.00     0.208 A 
ATOM      4  C   UNL     1      33.910  26.460  19.476  1.00  0.00     0.184 A 
ATOM      5  C   UNL     1      33.440  27.755  19.780  1.00  0.00     0.025 A 
ATOM      6  C   UNL     1      32.942  28.578  18.768  1.00  0.00     0.062 A 
ATOM      7  C   UNL     1      33.484  28.194  21.107  1.00  0.00     0.020 A 
ATOM      8  C   UNL     1      33.986  27.350  22.094  1.00  0.00     0.094 A 
ATOM      9  C   UNL     1      34.435  26.080  21.727  1.00  0.00     0.336 A 
ATOM     10  O   UNL     1      34.893  25.298  22.599  1.00  0.00    -0.246 OA
ATOM     11  O   UNL     1      34.381  25.690  20.457  1.00  0.00    -0.419 OA
ENDROOT
BRANCH   1  12
ATOM     12  O   UNL     1      32.400  28.960  16.418  1.00  0.00    -0.493 OA
ATOM     13  C   UNL     1      31.426  29.984  16.599  1.00  0.00     0.278 C 
ENDBRANCH   1  12
BRANCH   2  14
ATOM     14  O   UNL     1      33.369  26.296  15.819  1.00  0.00    -0.490 OA
ATOM     15  C   UNL     1      32.517  26.673  14.744  1.00  0.00     0.278 C 
ENDBRANCH   2  14
BRANCH   3  16
ATOM     16  O   UNL     1      34.323  24.719  17.749  1.00  0.00    -0.490 OA
ATOM     17  C   UNL     1      33.562  23.516  17.758  1.00  0.00     0.278 C 
ENDBRANCH   3  16
TORSDOF 3
ENDMDL
MODEL 8
REMARK VINA RESULT:    -6.254      1.674      3.747
REMARK INTER + INTRA:          -7.587
REMARK INTER:                  -7.347
REMARK INTRA:                  -0.241
REMARK UNBOUND:                -0.236
REMARK SMILES COc1cc2ccc(=O)oc2c(OC)c1OC
REMARK SMILES IDX 3 1 15 2 12 3 11 4 5 5 4 6 6 7 7 8 8 9 9 10 10 11 2 12 1 13
REMARK SMILES IDX 16 14 17 15 13 16 14 17
REMARK H PARENT
REMARK Flexibility Score: inf
ROOT
ATOM      1  C   UNL     1      34.418  26.433  21.322  1.00  0.00     0.165 A 
ATOM      2  C   UNL     1      34.582  25.673  20.134  1.00  0.00     0.207 A 
ATOM      3  C   UNL     1      34.052  26.141  18.916  1.00  0.00     0.208 A 
ATOM      4  C   UNL     1      33.353  27.370  18.878  1.00  0.00     0.184 A 
ATOM      5  C   UNL     1      33.194  28.120  20.062  1.00  0.00     0.025 A 
ATOM      6  C   UNL     1      33.722  27.654  21.267  1.00  0.00     0.062 A 
ATOM      7  C   UNL     1      32.500  29.334  20.003  1.00  0.00     0.020 A 
ATOM      8  C   UNL     1      31.986  29.773  18.787  1.00  0.00     0.094 A 
ATOM      9  C   UNL     1      32.178  28.983  17.652  1.00  0.00     0.336 A 
ATOM     10  O   UNL     1      31.723  29.357  16.540  1.00  0.00    -0.246 OA
ATOM     11  O   UNL     1      32.842  27.834  17.738  1.00  0.00    -0.419 OA
ENDROOT
BRANCH   1  12
ATOM     12  O   UNL     1      34.949  25.964  22.533  1.00  0.00    -0.493 OA
ATOM     13  C   UNL     1      34.329  26.100  23.809  1.00  0.00     0.278 C 
ENDBRANCH   1  12
BRANCH   2  14
ATOM     14  O   UNL     1      35.264  24.441  20.089  1.00  0.00    -0.490 OA
ATOM     15  C   UNL     1      34.774  23.178  20.523  1.00  0.00     0.278 C 
ENDBRANCH   2  14
BRANCH   3  16
ATOM     16  O   UNL     1      34.257  25.329  17.783  1.00  0.00    -0.490 OA
ATOM     17  C   UNL     1      33.321  24.421  17.211  1.00  0.00     0.278 C 
ENDBRANCH   3  16
TORSDOF 3
ENDMDL
MODEL 9
REMARK VINA RESULT:    -6.162      2.201      4.678
REMARK INTER + INTRA:          -7.479
REMARK INTER:                  -7.318
REMARK INTRA:                  -0.161
REMARK UNBOUND:                -0.236
REMARK SMILES COc1cc2ccc(=O)oc2c(OC)c1OC
REMARK SMILES IDX 3 1 15 2 12 3 11 4 5 5 4 6 6 7 7 8 8 9 9 10 10 11 2 12 1 13
REMARK SMILES IDX 16 14 17 15 13 16 14 17
REMARK H PARENT
REMARK Flexibility Score: inf
ROOT
ATOM      1  C   UNL     1      33.231  26.374  17.269  1.00  0.00     0.165 A 
ATOM      2  C   UNL     1      33.606  26.780  18.577  1.00  0.00     0.207 A 
ATOM      3  C   UNL     1      34.012  25.821  19.525  1.00  0.00     0.208 A 
ATOM      4  C   UNL     1      34.045  24.452  19.173  1.00  0.00     0.184 A 
ATOM      5  C   UNL     1      33.670  24.056  17.872  1.00  0.00     0.025 A 
ATOM      6  C   UNL     1      33.269  25.009  16.934  1.00  0.00     0.062 A 
ATOM      7  C   UNL     1      33.710  22.697  17.543  1.00  0.00     0.020 A 
ATOM      8  C   UNL     1      34.115  21.770  18.500  1.00  0.00     0.094 A 
ATOM      9  C   UNL     1      34.472  22.227  19.769  1.00  0.00     0.336 A 
ATOM     10  O   UNL     1      34.842  21.410  20.652  1.00  0.00    -0.246 OA
ATOM     11  O   UNL     1      34.425  23.526  20.053  1.00  0.00    -0.419 OA
ENDROOT
BRANCH   1  12
ATOM     12  O   UNL     1      32.828  27.333  16.327  1.00  0.00    -0.493 OA
ATOM     13  C   UNL     1      32.762  27.122  14.919  1.00  0.00     0.278 C 
ENDBRANCH   1  12
BRANCH   2  14
ATOM     14  O   UNL     1      33.601  28.122  19.005  1.00  0.00    -0.490 OA
ATOM     15  C   UNL     1      32.470  28.883  19.415  1.00  0.00     0.278 C 
ENDBRANCH   2  14
BRANCH   3  16
ATOM     16  O   UNL     1      34.368  26.303  20.801  1.00  0.00    -0.490 OA
ATOM     17  C   UNL     1      35.673  26.304  21.371  1.00  0.00     0.278 C 
ENDBRANCH   3  16
TORSDOF 3
ENDMDL
