MODEL 1
REMARK VINA RESULT:    -3.751      0.000      0.000
REMARK INTER + INTRA:          -5.747
REMARK INTER:                  -5.066
REMARK INTRA:                  -0.681
REMARK UNBOUND:                -0.681
REMARK SMILES CCCCCCC=CC(=O)[O-]
REMARK SMILES IDX 5 1 6 2 7 3 8 4 9 5 10 6 11 7 4 8 3 9 2 10 1 11
REMARK H PARENT
REMARK Flexibility Score: inf
ROOT
ATOM      1  C   UNL     1       7.142   7.657  -1.884  1.00  0.00     0.004 C 
ENDROOT
BRANCH   1   2
ATOM      2  C   UNL     1       5.952   8.419  -1.278  1.00  0.00     0.027 C 
BRANCH   2   3
ATOM      3  C   UNL     1       5.296   9.309  -2.298  1.00  0.00    -0.025 C 
ATOM      4  C   UNL     1       4.015   9.244  -2.695  1.00  0.00     0.020 C 
BRANCH   4   5
ATOM      5  C   UNL     1       2.998   8.273  -2.237  1.00  0.00     0.064 C 
ATOM      6  O   UNL     1       1.834   8.683  -1.991  1.00  0.00    -0.545 OA
ATOM      7  O   UNL     1       3.277   6.922  -2.086  1.00  0.00    -0.545 OA
ENDBRANCH   4   5
ENDBRANCH   2   3
ENDBRANCH   1   2
BRANCH   1   8
ATOM      8  C   UNL     1       6.715   6.386  -2.640  1.00  0.00     0.000 C 
BRANCH   8   9
ATOM      9  C   UNL     1       6.957   6.424  -4.159  1.00  0.00    -0.000 C 
BRANCH   9  10
ATOM     10  C   UNL     1       5.674   6.677  -4.964  1.00  0.00    -0.003 C 
ATOM     11  C   UNL     1       5.772   7.971  -5.765  1.00  0.00     0.004 C 
ENDBRANCH   9  10
ENDBRANCH   8   9
ENDBRANCH   1   8
TORSDOF 6
ENDMDL
MODEL 2
REMARK VINA RESULT:    -3.687      1.157      2.014
REMARK INTER + INTRA:          -5.661
REMARK INTER:                  -4.850
REMARK INTRA:                  -0.811
REMARK UNBOUND:                -0.681
REMARK SMILES CCCCCCC=CC(=O)[O-]
REMARK SMILES IDX 5 1 6 2 7 3 8 4 9 5 10 6 11 7 4 8 3 9 2 10 1 11
REMARK H PARENT
REMARK Flexibility Score: inf
ROOT
ATOM      1  C   UNL     1       6.574   8.627  -1.294  1.00  0.00     0.004 C 
ENDROOT
BRANCH   1   2
ATOM      2  C   UNL     1       5.697   9.682  -1.989  1.00  0.00     0.027 C 
BRANCH   2   3
ATOM      3  C   UNL     1       5.182   9.180  -3.310  1.00  0.00    -0.025 C 
ATOM      4  C   UNL     1       4.078   8.438  -3.496  1.00  0.00     0.020 C 
BRANCH   4   5
ATOM      5  C   UNL     1       3.162   7.940  -2.447  1.00  0.00     0.064 C 
ATOM      6  O   UNL     1       3.443   6.866  -1.854  1.00  0.00    -0.545 OA
ATOM      7  O   UNL     1       2.013   8.626  -2.078  1.00  0.00    -0.545 OA
ENDBRANCH   4   5
ENDBRANCH   2   3
ENDBRANCH   1   2
BRANCH   1   8
ATOM      8  C   UNL     1       7.884   8.348  -2.051  1.00  0.00     0.000 C 
BRANCH   8   9
ATOM      9  C   UNL     1       8.259   6.860  -2.169  1.00  0.00    -0.000 C 
BRANCH   9  10
ATOM     10  C   UNL     1       7.070   5.972  -2.564  1.00  0.00    -0.003 C 
ATOM     11  C   UNL     1       6.897   5.926  -4.079  1.00  0.00     0.004 C 
ENDBRANCH   9  10
ENDBRANCH   8   9
ENDBRANCH   1   8
TORSDOF 6
ENDMDL
MODEL 3
REMARK VINA RESULT:    -3.502     13.284     14.481
REMARK INTER + INTRA:          -5.410
REMARK INTER:                  -4.830
REMARK INTRA:                  -0.580
REMARK UNBOUND:                -0.681
REMARK SMILES CCCCCCC=CC(=O)[O-]
REMARK SMILES IDX 5 1 6 2 7 3 8 4 9 5 10 6 11 7 4 8 3 9 2 10 1 11
REMARK H PARENT
REMARK Flexibility Score: inf
ROOT
ATOM      1  C   UNL     1      -6.415   4.337  -7.574  1.00  0.00     0.004 C 
ENDROOT
BRANCH   1   2
ATOM      2  C   UNL     1      -6.864   3.780  -6.213  1.00  0.00     0.027 C 
BRANCH   2   3
ATOM      3  C   UNL     1      -8.358   3.623  -6.153  1.00  0.00    -0.025 C 
ATOM      4  C   UNL     1      -9.025   2.677  -5.472  1.00  0.00     0.020 C 
BRANCH   4   5
ATOM      5  C   UNL     1      -8.433   1.585  -4.669  1.00  0.00     0.064 C 
ATOM      6  O   UNL     1      -7.618   0.799  -5.219  1.00  0.00    -0.545 OA
ATOM      7  O   UNL     1      -8.730   1.407  -3.325  1.00  0.00    -0.545 OA
ENDBRANCH   4   5
ENDBRANCH   2   3
ENDBRANCH   1   2
BRANCH   1   8
ATOM      8  C   UNL     1      -5.690   3.289  -8.438  1.00  0.00     0.000 C 
BRANCH   8   9
ATOM      9  C   UNL     1      -6.306   1.880  -8.398  1.00  0.00    -0.000 C 
BRANCH   9  10
ATOM     10  C   UNL     1      -7.597   1.767  -9.222  1.00  0.00    -0.003 C 
ATOM     11  C   UNL     1      -8.515   0.685  -8.661  1.00  0.00     0.004 C 
ENDBRANCH   9  10
ENDBRANCH   8   9
ENDBRANCH   1   8
TORSDOF 6
ENDMDL
MODEL 4
REMARK VINA RESULT:    -3.498     12.948     14.838
REMARK INTER + INTRA:          -5.405
REMARK INTER:                  -4.961
REMARK INTRA:                  -0.444
REMARK UNBOUND:                -0.681
REMARK SMILES CCCCCCC=CC(=O)[O-]
REMARK SMILES IDX 5 1 6 2 7 3 8 4 9 5 10 6 11 7 4 8 3 9 2 10 1 11
REMARK H PARENT
REMARK Flexibility Score: inf
ROOT
ATOM      1  C   UNL     1      -8.291   1.214  -6.793  1.00  0.00     0.004 C 
ENDROOT
BRANCH   1   2
ATOM      2  C   UNL     1      -7.018   1.700  -6.081  1.00  0.00     0.027 C 
BRANCH   2   3
ATOM      3  C   UNL     1      -7.070   3.180  -5.819  1.00  0.00    -0.025 C 
ATOM      4  C   UNL     1      -6.529   4.137  -6.590  1.00  0.00     0.020 C 
BRANCH   4   5
ATOM      5  C   UNL     1      -5.751   3.935  -7.832  1.00  0.00     0.064 C 
ATOM      6  O   UNL     1      -4.503   4.092  -7.800  1.00  0.00    -0.545 OA
ATOM      7  O   UNL     1      -6.348   3.559  -9.028  1.00  0.00    -0.545 OA
ENDBRANCH   4   5
ENDBRANCH   2   3
ENDBRANCH   1   2
BRANCH   1   8
ATOM      8  C   UNL     1      -9.393   0.773  -5.813  1.00  0.00     0.000 C 
BRANCH   8   9
ATOM      9  C   UNL     1      -8.881   0.172  -4.492  1.00  0.00    -0.000 C 
BRANCH   9  10
ATOM     10  C   UNL     1      -9.245   1.023  -3.267  1.00  0.00    -0.003 C 
ATOM     11  C   UNL     1      -9.363   0.162  -2.014  1.00  0.00     0.004 C 
ENDBRANCH   9  10
ENDBRANCH   8   9
ENDBRANCH   1   8
TORSDOF 6
ENDMDL
MODEL 5
REMARK VINA RESULT:    -3.410      1.421      2.799
REMARK INTER + INTRA:          -5.287
REMARK INTER:                  -4.566
REMARK INTRA:                  -0.722
REMARK UNBOUND:                -0.681
REMARK SMILES CCCCCCC=CC(=O)[O-]
REMARK SMILES IDX 5 1 6 2 7 3 8 4 9 5 10 6 11 7 4 8 3 9 2 10 1 11
REMARK H PARENT
REMARK Flexibility Score: inf
ROOT
ATOM      1  C   UNL     1       7.475   8.220  -4.213  1.00  0.00     0.004 C 
ENDROOT
BRANCH   1   2
ATOM      2  C   UNL     1       5.985   8.498  -4.470  1.00  0.00     0.027 C 
BRANCH   2   3
ATOM      3  C   UNL     1       5.422   9.448  -3.448  1.00  0.00    -0.025 C 
ATOM      4  C   UNL     1       4.526   9.140  -2.495  1.00  0.00     0.020 C 
BRANCH   4   5
ATOM      5  C   UNL     1       3.892   7.824  -2.273  1.00  0.00     0.064 C 
ATOM      6  O   UNL     1       2.637   7.740  -2.309  1.00  0.00    -0.545 OA
ATOM      7  O   UNL     1       4.633   6.672  -2.044  1.00  0.00    -0.545 OA
ENDBRANCH   4   5
ENDBRANCH   2   3
ENDBRANCH   1   2
BRANCH   1   8
ATOM      8  C   UNL     1       7.711   6.926  -3.414  1.00  0.00     0.000 C 
BRANCH   8   9
ATOM      9  C   UNL     1       8.387   7.124  -2.045  1.00  0.00    -0.000 C 
BRANCH   9  10
ATOM     10  C   UNL     1       8.759   8.588  -1.768  1.00  0.00    -0.003 C 
ATOM     11  C   UNL     1       7.863   9.187  -0.688  1.00  0.00     0.004 C 
ENDBRANCH   9  10
ENDBRANCH   8   9
ENDBRANCH   1   8
TORSDOF 6
ENDMDL
MODEL 6
REMARK VINA RESULT:    -3.318     13.550     15.117
REMARK INTER + INTRA:          -5.163
REMARK INTER:                  -4.413
REMARK INTRA:                  -0.750
REMARK UNBOUND:                -0.681
REMARK SMILES CCCCCCC=CC(=O)[O-]
REMARK SMILES IDX 5 1 6 2 7 3 8 4 9 5 10 6 11 7 4 8 3 9 2 10 1 11
REMARK H PARENT
REMARK Flexibility Score: inf
ROOT
ATOM      1  C   UNL     1      -8.250   0.848  -8.588  1.00  0.00     0.004 C 
ENDROOT
BRANCH   1   2
ATOM      2  C   UNL     1      -9.450   0.830  -7.626  1.00  0.00     0.027 C 
BRANCH   2   3
ATOM      3  C   UNL     1      -9.595   2.145  -6.910  1.00  0.00    -0.025 C 
ATOM      4  C   UNL     1      -9.054   2.459  -5.721  1.00  0.00     0.020 C 
BRANCH   4   5
ATOM      5  C   UNL     1      -8.233   1.576  -4.864  1.00  0.00     0.064 C 
ATOM      6  O   UNL     1      -8.619   1.339  -3.690  1.00  0.00    -0.545 OA
ATOM      7  O   UNL     1      -7.061   0.984  -5.316  1.00  0.00    -0.545 OA
ENDBRANCH   4   5
ENDBRANCH   2   3
ENDBRANCH   1   2
BRANCH   1   8
ATOM      8  C   UNL     1      -8.120   2.175  -9.356  1.00  0.00     0.000 C 
BRANCH   8   9
ATOM      9  C   UNL     1      -6.732   2.834  -9.280  1.00  0.00    -0.000 C 
BRANCH   9  10
ATOM     10  C   UNL     1      -6.690   4.032  -8.320  1.00  0.00    -0.003 C 
ATOM     11  C   UNL     1      -5.783   3.749  -7.127  1.00  0.00     0.004 C 
ENDBRANCH   9  10
ENDBRANCH   8   9
ENDBRANCH   1   8
TORSDOF 6
ENDMDL
MODEL 7
REMARK VINA RESULT:    -3.290     12.947     14.451
REMARK INTER + INTRA:          -5.125
REMARK INTER:                  -4.533
REMARK INTRA:                  -0.592
REMARK UNBOUND:                -0.681
REMARK SMILES CCCCCCC=CC(=O)[O-]
REMARK SMILES IDX 5 1 6 2 7 3 8 4 9 5 10 6 11 7 4 8 3 9 2 10 1 11
REMARK H PARENT
REMARK Flexibility Score: inf
ROOT
ATOM      1  C   UNL     1      -6.840   1.847  -7.067  1.00  0.00     0.004 C 
ENDROOT
BRANCH   1   2
ATOM      2  C   UNL     1      -7.250   2.631  -5.810  1.00  0.00     0.027 C 
BRANCH   2   3
ATOM      3  C   UNL     1      -8.746   2.693  -5.668  1.00  0.00    -0.025 C 
ATOM      4  C   UNL     1      -9.495   1.914  -4.870  1.00  0.00     0.020 C 
BRANCH   4   5
ATOM      5  C   UNL     1      -9.012   0.824  -3.994  1.00  0.00     0.064 C 
ATOM      6  O   UNL     1      -8.628   1.105  -2.830  1.00  0.00    -0.545 OA
ATOM      7  O   UNL     1      -8.985  -0.501  -4.406  1.00  0.00    -0.545 OA
ENDBRANCH   4   5
ENDBRANCH   2   3
ENDBRANCH   1   2
BRANCH   1   8
ATOM      8  C   UNL     1      -6.062   2.706  -8.079  1.00  0.00     0.000 C 
BRANCH   8   9
ATOM      9  C   UNL     1      -5.704   4.120  -7.588  1.00  0.00    -0.000 C 
BRANCH   9  10
ATOM     10  C   UNL     1      -6.278   5.228  -8.484  1.00  0.00    -0.003 C 
ATOM     11  C   UNL     1      -7.787   5.360  -8.298  1.00  0.00     0.004 C 
ENDBRANCH   9  10
ENDBRANCH   8   9
ENDBRANCH   1   8
TORSDOF 6
ENDMDL
MODEL 8
REMARK VINA RESULT:    -3.266      1.460      2.120
REMARK INTER + INTRA:          -5.092
REMARK INTER:                  -4.355
REMARK INTRA:                  -0.737
REMARK UNBOUND:                -0.681
REMARK SMILES CCCCCCC=CC(=O)[O-]
REMARK SMILES IDX 5 1 6 2 7 3 8 4 9 5 10 6 11 7 4 8 3 9 2 10 1 11
REMARK H PARENT
REMARK Flexibility Score: inf
ROOT
ATOM      1  C   UNL     1       6.989   9.610  -3.239  1.00  0.00     0.004 C 
ENDROOT
BRANCH   1   2
ATOM      2  C   UNL     1       6.217   9.631  -1.910  1.00  0.00     0.027 C 
BRANCH   2   3
ATOM      3  C   UNL     1       6.069   8.247  -1.341  1.00  0.00    -0.025 C 
ATOM      4  C   UNL     1       5.055   7.400  -1.581  1.00  0.00     0.020 C 
BRANCH   4   5
ATOM      5  C   UNL     1       3.868   7.660  -2.424  1.00  0.00     0.064 C 
ATOM      6  O   UNL     1       2.725   7.591  -1.903  1.00  0.00    -0.545 OA
ATOM      7  O   UNL     1       3.972   7.997  -3.767  1.00  0.00    -0.545 OA
ENDBRANCH   4   5
ENDBRANCH   2   3
ENDBRANCH   1   2
BRANCH   1   8
ATOM      8  C   UNL     1       8.314   8.832  -3.148  1.00  0.00     0.000 C 
BRANCH   8   9
ATOM      9  C   UNL     1       8.504   7.749  -4.225  1.00  0.00    -0.000 C 
BRANCH   9  10
ATOM     10  C   UNL     1       7.962   6.377  -3.796  1.00  0.00    -0.003 C 
ATOM     11  C   UNL     1       6.752   5.977  -4.634  1.00  0.00     0.004 C 
ENDBRANCH   9  10
ENDBRANCH   8   9
ENDBRANCH   1   8
TORSDOF 6
ENDMDL
MODEL 9
REMARK VINA RESULT:    -3.225      2.568      4.082
REMARK INTER + INTRA:          -5.036
REMARK INTER:                  -4.381
REMARK INTRA:                  -0.655
REMARK UNBOUND:                -0.681
REMARK SMILES CCCCCCC=CC(=O)[O-]
REMARK SMILES IDX 5 1 6 2 7 3 8 4 9 5 10 6 11 7 4 8 3 9 2 10 1 11
REMARK H PARENT
REMARK Flexibility Score: inf
ROOT
ATOM      1  C   UNL     1       7.323   8.717  -2.393  1.00  0.00     0.004 C 
ENDROOT
BRANCH   1   2
ATOM      2  C   UNL     1       7.063   8.652  -3.907  1.00  0.00     0.027 C 
BRANCH   2   3
ATOM      3  C   UNL     1       8.088   7.797  -4.601  1.00  0.00    -0.025 C 
ATOM      4  C   UNL     1       8.027   6.465  -4.760  1.00  0.00     0.020 C 
BRANCH   4   5
ATOM      5  C   UNL     1       6.964   5.565  -4.265  1.00  0.00     0.064 C 
ATOM      6  O   UNL     1       5.959   5.353  -4.992  1.00  0.00    -0.545 OA
ATOM      7  O   UNL     1       7.043   4.930  -3.033  1.00  0.00    -0.545 OA
ENDBRANCH   4   5
ENDBRANCH   2   3
ENDBRANCH   1   2
BRANCH   1   8
ATOM      8  C   UNL     1       6.027   8.795  -1.568  1.00  0.00     0.000 C 
BRANCH   8   9
ATOM      9  C   UNL     1       5.217   7.487  -1.508  1.00  0.00    -0.000 C 
BRANCH   9  10
ATOM     10  C   UNL     1       3.874   7.581  -2.247  1.00  0.00    -0.003 C 
ATOM     11  C   UNL     1       3.498   9.034  -2.523  1.00  0.00     0.004 C 
ENDBRANCH   9  10
ENDBRANCH   8   9
ENDBRANCH   1   8
TORSDOF 6
ENDMDL
