MODEL 1
REMARK VINA RESULT:    -7.243      0.000      0.000
REMARK INTER + INTRA:          -9.034
REMARK INTER:                  -8.725
REMARK INTRA:                  -0.309
REMARK UNBOUND:                -0.309
REMARK SMILES Oc1cc(O)c2c(c1)O[C@@H](c1ccc(O)c(O)c1)[C@@H](O)C2
REMARK SMILES IDX 21 1 19 2 10 3 9 4 7 5 8 6 2 7 3 8 4 9 6 10 20 11 11 13
REMARK SMILES IDX 18 14 12 15 16 16 13 17 14 18 17 19 15 21 5 23 1 25
REMARK H PARENT 20 12 17 20 15 22 5 24 1 26
REMARK Flexibility Score: inf
ROOT
ATOM      1  C   UNL     1     -15.253  39.013  -6.749  1.00  0.00     0.079 C 
ATOM      2  C   UNL     1     -14.234  38.730  -5.628  1.00  0.00     0.164 C 
ATOM      3  C   UNL     1     -12.871  38.386  -6.250  1.00  0.00     0.232 C 
ATOM      4  O   UNL     1     -12.436  39.455  -7.090  1.00  0.00    -0.482 OA
ATOM      5  C   UNL     1     -13.321  40.156  -7.916  1.00  0.00     0.131 A 
ATOM      6  C   UNL     1     -12.808  41.056  -8.854  1.00  0.00     0.093 A 
ATOM      7  C   UNL     1     -13.669  41.758  -9.702  1.00  0.00     0.122 A 
ATOM      8  C   UNL     1     -15.048  41.551  -9.618  1.00  0.00     0.092 A 
ATOM      9  C   UNL     1     -15.581  40.654  -8.686  1.00  0.00     0.126 A 
ATOM     10  C   UNL     1     -14.717  39.973  -7.794  1.00  0.00     0.039 A 
ENDROOT
BRANCH   2  11
ATOM     11  O   UNL     1     -14.112  39.859  -4.800  1.00  0.00    -0.389 OA
ATOM     12  H   UNL     1     -13.504  39.605  -4.057  1.00  0.00     0.211 HD
ENDBRANCH   2  11
BRANCH   3  13
ATOM     13  C   UNL     1     -11.836  38.091  -5.187  1.00  0.00    -0.001 A 
ATOM     14  C   UNL     1     -10.893  39.062  -4.808  1.00  0.00     0.057 A 
ATOM     15  C   UNL     1     -11.850  36.857  -4.521  1.00  0.00     0.012 A 
ATOM     16  C   UNL     1      -9.957  38.800  -3.798  1.00  0.00     0.157 A 
ATOM     17  C   UNL     1     -10.920  36.587  -3.515  1.00  0.00     0.050 A 
ATOM     18  C   UNL     1      -9.970  37.545  -3.146  1.00  0.00     0.157 A 
BRANCH  16  19
ATOM     19  O   UNL     1      -9.046  39.808  -3.477  1.00  0.00    -0.504 OA
ATOM     20  H   UNL     1      -8.795  40.562  -4.099  1.00  0.00     0.293 HD
ENDBRANCH  16  19
BRANCH  18  21
ATOM     21  O   UNL     1      -9.066  37.210  -2.134  1.00  0.00    -0.504 OA
ATOM     22  H   UNL     1      -8.377  37.846  -1.760  1.00  0.00     0.293 HD
ENDBRANCH  18  21
ENDBRANCH   3  13
BRANCH   9  23
ATOM     23  O   UNL     1     -16.963  40.456  -8.680  1.00  0.00    -0.507 OA
ATOM     24  H   UNL     1     -17.616  41.101  -8.256  1.00  0.00     0.293 HD
ENDBRANCH   9  23
BRANCH   7  25
ATOM     25  O   UNL     1     -13.165  42.659 -10.638  1.00  0.00    -0.508 OA
ATOM     26  H   UNL     1     -13.545  43.595 -10.730  1.00  0.00     0.293 HD
ENDBRANCH   7  25
TORSDOF 6
ENDMDL
MODEL 2
REMARK VINA RESULT:    -7.226      6.586      9.894
REMARK INTER + INTRA:          -9.014
REMARK INTER:                  -8.630
REMARK INTRA:                  -0.384
REMARK UNBOUND:                -0.309
REMARK SMILES Oc1cc(O)c2c(c1)O[C@@H](c1ccc(O)c(O)c1)[C@@H](O)C2
REMARK SMILES IDX 21 1 19 2 10 3 9 4 7 5 8 6 2 7 3 8 4 9 6 10 20 11 11 13
REMARK SMILES IDX 18 14 12 15 16 16 13 17 14 18 17 19 15 21 5 23 1 25
REMARK H PARENT 20 12 17 20 15 22 5 24 1 26
REMARK Flexibility Score: inf
ROOT
ATOM      1  C   UNL     1     -15.480  35.569   0.693  1.00  0.00     0.079 C 
ATOM      2  C   UNL     1     -15.426  36.253  -0.687  1.00  0.00     0.164 C 
ATOM      3  C   UNL     1     -16.855  36.431  -1.227  1.00  0.00     0.232 C 
ATOM      4  O   UNL     1     -17.634  37.188  -0.301  1.00  0.00    -0.482 OA
ATOM      5  C   UNL     1     -17.525  37.007   1.082  1.00  0.00     0.131 A 
ATOM      6  C   UNL     1     -18.446  37.634   1.925  1.00  0.00     0.093 A 
ATOM      7  C   UNL     1     -18.369  37.458   3.310  1.00  0.00     0.122 A 
ATOM      8  C   UNL     1     -17.373  36.643   3.852  1.00  0.00     0.092 A 
ATOM      9  C   UNL     1     -16.441  36.006   3.024  1.00  0.00     0.126 A 
ATOM     10  C   UNL     1     -16.486  36.217   1.625  1.00  0.00     0.039 A 
ENDROOT
BRANCH   2  11
ATOM     11  O   UNL     1     -14.799  37.505  -0.573  1.00  0.00    -0.389 OA
ATOM     12  H   UNL     1     -15.432  38.101  -0.094  1.00  0.00     0.211 HD
ENDBRANCH   2  11
BRANCH   3  13
ATOM     13  C   UNL     1     -16.855  37.092  -2.587  1.00  0.00    -0.001 A 
ATOM     14  C   UNL     1     -16.176  36.512  -3.672  1.00  0.00     0.057 A 
ATOM     15  C   UNL     1     -17.591  38.268  -2.792  1.00  0.00     0.012 A 
ATOM     16  C   UNL     1     -16.205  37.107  -4.940  1.00  0.00     0.157 A 
ATOM     17  C   UNL     1     -17.624  38.869  -4.052  1.00  0.00     0.050 A 
ATOM     18  C   UNL     1     -16.937  38.303  -5.131  1.00  0.00     0.157 A 
BRANCH  16  19
ATOM     19  O   UNL     1     -15.504  36.480  -5.971  1.00  0.00    -0.504 OA
ATOM     20  H   UNL     1     -14.528  36.645  -6.173  1.00  0.00     0.293 HD
ENDBRANCH  16  19
BRANCH  18  21
ATOM     21  O   UNL     1     -17.009  38.956  -6.364  1.00  0.00    -0.504 OA
ATOM     22  H   UNL     1     -16.726  38.540  -7.240  1.00  0.00     0.293 HD
ENDBRANCH  18  21
ENDBRANCH   3  13
BRANCH   9  23
ATOM     23  O   UNL     1     -15.497  35.168   3.621  1.00  0.00    -0.507 OA
ATOM     24  H   UNL     1     -15.742  34.361   4.177  1.00  0.00     0.293 HD
ENDBRANCH   9  23
BRANCH   7  25
ATOM     25  O   UNL     1     -19.283  38.082   4.157  1.00  0.00    -0.508 OA
ATOM     26  H   UNL     1     -19.396  37.790   5.121  1.00  0.00     0.293 HD
ENDBRANCH   7  25
TORSDOF 6
ENDMDL
MODEL 3
REMARK VINA RESULT:    -7.203      6.653      8.098
REMARK INTER + INTRA:          -8.986
REMARK INTER:                  -8.633
REMARK INTRA:                  -0.352
REMARK UNBOUND:                -0.309
REMARK SMILES Oc1cc(O)c2c(c1)O[C@@H](c1ccc(O)c(O)c1)[C@@H](O)C2
REMARK SMILES IDX 21 1 19 2 10 3 9 4 7 5 8 6 2 7 3 8 4 9 6 10 20 11 11 13
REMARK SMILES IDX 18 14 12 15 16 16 13 17 14 18 17 19 15 21 5 23 1 25
REMARK H PARENT 20 12 17 20 15 22 5 24 1 26
REMARK Flexibility Score: inf
ROOT
ATOM      1  C   UNL     1     -17.988  38.551  -2.400  1.00  0.00     0.079 C 
ATOM      2  C   UNL     1     -17.822  38.481  -0.869  1.00  0.00     0.164 C 
ATOM      3  C   UNL     1     -17.774  37.010  -0.425  1.00  0.00     0.232 C 
ATOM      4  O   UNL     1     -16.710  36.334  -1.095  1.00  0.00    -0.482 OA
ATOM      5  C   UNL     1     -16.410  36.573  -2.440  1.00  0.00     0.131 A 
ATOM      6  C   UNL     1     -15.490  35.746  -3.090  1.00  0.00     0.093 A 
ATOM      7  C   UNL     1     -15.184  35.952  -4.438  1.00  0.00     0.122 A 
ATOM      8  C   UNL     1     -15.809  36.985  -5.142  1.00  0.00     0.092 A 
ATOM      9  C   UNL     1     -16.733  37.824  -4.509  1.00  0.00     0.126 A 
ATOM     10  C   UNL     1     -17.014  37.648  -3.133  1.00  0.00     0.039 A 
ENDROOT
BRANCH   2  11
ATOM     11  O   UNL     1     -16.637  39.135  -0.489  1.00  0.00    -0.389 OA
ATOM     12  H   UNL     1     -16.695  39.288   0.490  1.00  0.00     0.211 HD
ENDBRANCH   2  11
BRANCH   3  13
ATOM     13  C   UNL     1     -17.620  36.889   1.074  1.00  0.00    -0.001 A 
ATOM     14  C   UNL     1     -16.612  36.085   1.634  1.00  0.00     0.057 A 
ATOM     15  C   UNL     1     -18.449  37.635   1.924  1.00  0.00     0.012 A 
ATOM     16  C   UNL     1     -16.448  36.001   3.023  1.00  0.00     0.157 A 
ATOM     17  C   UNL     1     -18.293  37.556   3.310  1.00  0.00     0.050 A 
ATOM     18  C   UNL     1     -17.302  36.744   3.872  1.00  0.00     0.157 A 
BRANCH  16  19
ATOM     19  O   UNL     1     -15.431  35.178   3.511  1.00  0.00    -0.504 OA
ATOM     20  H   UNL     1     -14.470  35.469   3.615  1.00  0.00     0.293 HD
ENDBRANCH  16  19
BRANCH  18  21
ATOM     21  O   UNL     1     -17.201  36.708   5.265  1.00  0.00    -0.504 OA
ATOM     22  H   UNL     1     -17.296  37.519   5.859  1.00  0.00     0.293 HD
ENDBRANCH  18  21
ENDBRANCH   3  13
BRANCH   9  23
ATOM     23  O   UNL     1     -17.359  38.809  -5.276  1.00  0.00    -0.507 OA
ATOM     24  H   UNL     1     -18.153  38.628  -5.874  1.00  0.00     0.293 HD
ENDBRANCH   9  23
BRANCH   7  25
ATOM     25  O   UNL     1     -14.266  35.133  -5.092  1.00  0.00    -0.508 OA
ATOM     26  H   UNL     1     -13.730  35.466  -5.885  1.00  0.00     0.293 HD
ENDBRANCH   7  25
TORSDOF 6
ENDMDL
MODEL 4
REMARK VINA RESULT:    -7.183      7.006     10.045
REMARK INTER + INTRA:          -8.962
REMARK INTER:                  -8.580
REMARK INTRA:                  -0.382
REMARK UNBOUND:                -0.309
REMARK SMILES Oc1cc(O)c2c(c1)O[C@@H](c1ccc(O)c(O)c1)[C@@H](O)C2
REMARK SMILES IDX 21 1 19 2 10 3 9 4 7 5 8 6 2 7 3 8 4 9 6 10 20 11 11 13
REMARK SMILES IDX 18 14 12 15 16 16 13 17 14 18 17 19 15 21 5 23 1 25
REMARK H PARENT 20 12 17 20 15 22 5 24 1 26
REMARK Flexibility Score: inf
ROOT
ATOM      1  C   UNL     1     -18.588  38.224   1.179  1.00  0.00     0.079 C 
ATOM      2  C   UNL     1     -18.355  37.875  -0.304  1.00  0.00     0.164 C 
ATOM      3  C   UNL     1     -16.846  37.756  -0.571  1.00  0.00     0.232 C 
ATOM      4  O   UNL     1     -16.275  36.772   0.290  1.00  0.00    -0.482 OA
ATOM      5  C   UNL     1     -16.668  36.638   1.626  1.00  0.00     0.131 A 
ATOM      6  C   UNL     1     -15.941  35.792   2.468  1.00  0.00     0.093 A 
ATOM      7  C   UNL     1     -16.302  35.652   3.811  1.00  0.00     0.122 A 
ATOM      8  C   UNL     1     -17.389  36.370   4.316  1.00  0.00     0.092 A 
ATOM      9  C   UNL     1     -18.129  37.222   3.489  1.00  0.00     0.126 A 
ATOM     10  C   UNL     1     -17.796  37.333   2.118  1.00  0.00     0.039 A 
ENDROOT
BRANCH   2  11
ATOM     11  O   UNL     1     -18.993  36.661  -0.613  1.00  0.00    -0.389 OA
ATOM     12  H   UNL     1     -19.909  36.713  -0.233  1.00  0.00     0.211 HD
ENDBRANCH   2  11
BRANCH   3  13
ATOM     13  C   UNL     1     -16.565  37.422  -2.019  1.00  0.00    -0.001 A 
ATOM     14  C   UNL     1     -17.025  38.254  -3.055  1.00  0.00     0.057 A 
ATOM     15  C   UNL     1     -15.783  36.303  -2.339  1.00  0.00     0.012 A 
ATOM     16  C   UNL     1     -16.735  37.962  -4.394  1.00  0.00     0.157 A 
ATOM     17  C   UNL     1     -15.490  36.004  -3.672  1.00  0.00     0.050 A 
ATOM     18  C   UNL     1     -15.960  36.821  -4.706  1.00  0.00     0.157 A 
BRANCH  16  19
ATOM     19  O   UNL     1     -17.228  38.828  -5.372  1.00  0.00    -0.504 OA
ATOM     20  H   UNL     1     -16.883  39.765  -5.522  1.00  0.00     0.293 HD
ENDBRANCH  16  19
BRANCH  18  21
ATOM     21  O   UNL     1     -15.633  36.464  -6.017  1.00  0.00    -0.504 OA
ATOM     22  H   UNL     1     -15.820  35.557  -6.419  1.00  0.00     0.293 HD
ENDBRANCH  18  21
ENDBRANCH   3  13
BRANCH   9  23
ATOM     23  O   UNL     1     -19.177  37.947   4.062  1.00  0.00    -0.507 OA
ATOM     24  H   UNL     1     -19.838  37.547   4.714  1.00  0.00     0.293 HD
ENDBRANCH   9  23
BRANCH   7  25
ATOM     25  O   UNL     1     -15.583  34.809   4.656  1.00  0.00    -0.508 OA
ATOM     26  H   UNL     1     -14.669  35.068   5.010  1.00  0.00     0.293 HD
ENDBRANCH   7  25
TORSDOF 6
ENDMDL
MODEL 5
REMARK VINA RESULT:    -7.065      4.497      5.695
REMARK INTER + INTRA:          -8.820
REMARK INTER:                  -8.683
REMARK INTRA:                  -0.137
REMARK UNBOUND:                -0.309
REMARK SMILES Oc1cc(O)c2c(c1)O[C@@H](c1ccc(O)c(O)c1)[C@@H](O)C2
REMARK SMILES IDX 21 1 19 2 10 3 9 4 7 5 8 6 2 7 3 8 4 9 6 10 20 11 11 13
REMARK SMILES IDX 18 14 12 15 16 16 13 17 14 18 17 19 15 21 5 23 1 25
REMARK H PARENT 20 12 17 20 15 22 5 24 1 26
REMARK Flexibility Score: inf
ROOT
ATOM      1  C   UNL     1     -12.113  41.547  -8.453  1.00  0.00     0.079 C 
ATOM      2  C   UNL     1     -10.881  41.088  -9.257  1.00  0.00     0.164 C 
ATOM      3  C   UNL     1     -10.971  39.575  -9.513  1.00  0.00     0.232 C 
ATOM      4  O   UNL     1     -12.184  39.268 -10.199  1.00  0.00    -0.482 OA
ATOM      5  C   UNL     1     -13.391  39.905  -9.893  1.00  0.00     0.131 A 
ATOM      6  C   UNL     1     -14.575  39.427 -10.460  1.00  0.00     0.093 A 
ATOM      7  C   UNL     1     -15.797  40.035 -10.159  1.00  0.00     0.122 A 
ATOM      8  C   UNL     1     -15.836  41.119  -9.278  1.00  0.00     0.092 A 
ATOM      9  C   UNL     1     -14.660  41.610  -8.698  1.00  0.00     0.126 A 
ATOM     10  C   UNL     1     -13.415  41.028  -9.035  1.00  0.00     0.039 A 
ENDROOT
BRANCH   2  11
ATOM     11  O   UNL     1     -10.828  41.778 -10.481  1.00  0.00    -0.389 OA
ATOM     12  H   UNL     1     -11.566  42.442 -10.468  1.00  0.00     0.211 HD
ENDBRANCH   2  11
BRANCH   3  13
ATOM     13  C   UNL     1      -9.777  39.074 -10.294  1.00  0.00    -0.001 A 
ATOM     14  C   UNL     1      -8.532  39.722 -10.206  1.00  0.00     0.057 A 
ATOM     15  C   UNL     1      -9.887  37.912 -11.070  1.00  0.00     0.012 A 
ATOM     16  C   UNL     1      -7.418  39.237 -10.902  1.00  0.00     0.157 A 
ATOM     17  C   UNL     1      -8.781  37.422 -11.769  1.00  0.00     0.050 A 
ATOM     18  C   UNL     1      -7.545  38.073 -11.697  1.00  0.00     0.157 A 
BRANCH  16  19
ATOM     19  O   UNL     1      -6.215  39.934 -10.774  1.00  0.00    -0.504 OA
ATOM     20  H   UNL     1      -6.077  40.885 -11.081  1.00  0.00     0.293 HD
ENDBRANCH  16  19
BRANCH  18  21
ATOM     21  O   UNL     1      -6.480  37.533 -12.422  1.00  0.00    -0.504 OA
ATOM     22  H   UNL     1      -6.010  36.674 -12.179  1.00  0.00     0.293 HD
ENDBRANCH  18  21
ENDBRANCH   3  13
BRANCH   9  23
ATOM     23  O   UNL     1     -14.767  42.666  -7.790  1.00  0.00    -0.507 OA
ATOM     24  H   UNL     1     -14.033  42.920  -7.144  1.00  0.00     0.293 HD
ENDBRANCH   9  23
BRANCH   7  25
ATOM     25  O   UNL     1     -16.982  39.567 -10.723  1.00  0.00    -0.508 OA
ATOM     26  H   UNL     1     -17.856  39.581 -10.208  1.00  0.00     0.293 HD
ENDBRANCH   7  25
TORSDOF 6
ENDMDL
MODEL 6
REMARK VINA RESULT:    -7.058      5.667      9.221
REMARK INTER + INTRA:          -8.811
REMARK INTER:                  -8.428
REMARK INTRA:                  -0.383
REMARK UNBOUND:                -0.309
REMARK SMILES Oc1cc(O)c2c(c1)O[C@@H](c1ccc(O)c(O)c1)[C@@H](O)C2
REMARK SMILES IDX 21 1 19 2 10 3 9 4 7 5 8 6 2 7 3 8 4 9 6 10 20 11 11 13
REMARK SMILES IDX 18 14 12 15 16 16 13 17 14 18 17 19 15 21 5 23 1 25
REMARK H PARENT 20 12 17 20 15 22 5 24 1 26
REMARK Flexibility Score: inf
ROOT
ATOM      1  C   UNL     1     -16.367  37.853   1.826  1.00  0.00     0.079 C 
ATOM      2  C   UNL     1     -16.640  37.751   0.313  1.00  0.00     0.164 C 
ATOM      3  C   UNL     1     -16.131  39.022  -0.387  1.00  0.00     0.232 C 
ATOM      4  O   UNL     1     -14.740  39.201  -0.119  1.00  0.00    -0.482 OA
ATOM      5  C   UNL     1     -14.186  38.935   1.137  1.00  0.00     0.131 A 
ATOM      6  C   UNL     1     -12.865  39.312   1.392  1.00  0.00     0.093 A 
ATOM      7  C   UNL     1     -12.292  39.072   2.644  1.00  0.00     0.122 A 
ATOM      8  C   UNL     1     -13.047  38.463   3.649  1.00  0.00     0.092 A 
ATOM      9  C   UNL     1     -14.372  38.079   3.413  1.00  0.00     0.126 A 
ATOM     10  C   UNL     1     -14.944  38.278   2.133  1.00  0.00     0.039 A 
ENDROOT
BRANCH   2  11
ATOM     11  O   UNL     1     -15.988  36.622  -0.214  1.00  0.00    -0.389 OA
ATOM     12  H   UNL     1     -15.070  36.619   0.165  1.00  0.00     0.211 HD
ENDBRANCH   2  11
BRANCH   3  13
ATOM     13  C   UNL     1     -16.384  38.973  -1.877  1.00  0.00    -0.001 A 
ATOM     14  C   UNL     1     -15.323  39.074  -2.794  1.00  0.00     0.057 A 
ATOM     15  C   UNL     1     -17.684  38.762  -2.358  1.00  0.00     0.012 A 
ATOM     16  C   UNL     1     -15.554  38.994  -4.173  1.00  0.00     0.157 A 
ATOM     17  C   UNL     1     -17.923  38.682  -3.732  1.00  0.00     0.050 A 
ATOM     18  C   UNL     1     -16.873  38.799  -4.648  1.00  0.00     0.157 A 
BRANCH  16  19
ATOM     19  O   UNL     1     -14.455  39.108  -5.026  1.00  0.00    -0.504 OA
ATOM     20  H   UNL     1     -13.547  39.442  -4.736  1.00  0.00     0.293 HD
ENDBRANCH  16  19
BRANCH  18  21
ATOM     21  O   UNL     1     -17.181  38.713  -6.008  1.00  0.00    -0.504 OA
ATOM     22  H   UNL     1     -16.596  39.083  -6.743  1.00  0.00     0.293 HD
ENDBRANCH  18  21
ENDBRANCH   3  13
BRANCH   9  23
ATOM     23  O   UNL     1     -15.091  37.516   4.470  1.00  0.00    -0.507 OA
ATOM     24  H   UNL     1     -15.742  38.038   5.041  1.00  0.00     0.293 HD
ENDBRANCH   9  23
BRANCH   7  25
ATOM     25  O   UNL     1     -10.974  39.443   2.904  1.00  0.00    -0.508 OA
ATOM     26  H   UNL     1     -10.562  39.322   3.823  1.00  0.00     0.293 HD
ENDBRANCH   7  25
TORSDOF 6
ENDMDL
MODEL 7
REMARK VINA RESULT:    -6.998      6.817      8.317
REMARK INTER + INTRA:          -8.740
REMARK INTER:                  -8.353
REMARK INTRA:                  -0.387
REMARK UNBOUND:                -0.309
REMARK SMILES Oc1cc(O)c2c(c1)O[C@@H](c1ccc(O)c(O)c1)[C@@H](O)C2
REMARK SMILES IDX 21 1 19 2 10 3 9 4 7 5 8 6 2 7 3 8 4 9 6 10 20 11 11 13
REMARK SMILES IDX 18 14 12 15 16 16 13 17 14 18 17 19 15 21 5 23 1 25
REMARK H PARENT 20 12 17 20 15 22 5 24 1 26
REMARK Flexibility Score: inf
ROOT
ATOM      1  C   UNL     1     -17.976  38.503  -2.428  1.00  0.00     0.079 C 
ATOM      2  C   UNL     1     -17.820  38.509  -0.895  1.00  0.00     0.164 C 
ATOM      3  C   UNL     1     -17.769  37.061  -0.380  1.00  0.00     0.232 C 
ATOM      4  O   UNL     1     -16.697  36.359  -1.009  1.00  0.00    -0.482 OA
ATOM      5  C   UNL     1     -16.389  36.534  -2.363  1.00  0.00     0.131 A 
ATOM      6  C   UNL     1     -15.461  35.680  -2.965  1.00  0.00     0.093 A 
ATOM      7  C   UNL     1     -15.147  35.823  -4.320  1.00  0.00     0.122 A 
ATOM      8  C   UNL     1     -15.771  36.817  -5.077  1.00  0.00     0.092 A 
ATOM      9  C   UNL     1     -16.704  37.681  -4.492  1.00  0.00     0.126 A 
ATOM     10  C   UNL     1     -16.993  37.570  -3.110  1.00  0.00     0.039 A 
ENDROOT
BRANCH   2  11
ATOM     11  O   UNL     1     -16.641  39.186  -0.539  1.00  0.00    -0.389 OA
ATOM     12  H   UNL     1     -16.338  38.800   0.324  1.00  0.00     0.211 HD
ENDBRANCH   2  11
BRANCH   3  13
ATOM     13  C   UNL     1     -17.624  37.014   1.124  1.00  0.00    -0.001 A 
ATOM     14  C   UNL     1     -18.600  37.582   1.962  1.00  0.00     0.057 A 
ATOM     15  C   UNL     1     -16.537  36.342   1.701  1.00  0.00     0.012 A 
ATOM     16  C   UNL     1     -18.483  37.507   3.356  1.00  0.00     0.157 A 
ATOM     17  C   UNL     1     -16.412  36.264   3.090  1.00  0.00     0.050 A 
ATOM     18  C   UNL     1     -17.372  36.842   3.927  1.00  0.00     0.157 A 
BRANCH  16  19
ATOM     19  O   UNL     1     -19.485  38.099   4.127  1.00  0.00    -0.504 OA
ATOM     20  H   UNL     1     -19.665  37.868   5.094  1.00  0.00     0.293 HD
ENDBRANCH  16  19
BRANCH  18  21
ATOM     21  O   UNL     1     -17.186  36.731   5.307  1.00  0.00    -0.504 OA
ATOM     22  H   UNL     1     -17.903  36.924   5.991  1.00  0.00     0.293 HD
ENDBRANCH  18  21
ENDBRANCH   3  13
BRANCH   9  23
ATOM     23  O   UNL     1     -17.328  38.625  -5.310  1.00  0.00    -0.507 OA
ATOM     24  H   UNL     1     -17.633  38.429  -6.253  1.00  0.00     0.293 HD
ENDBRANCH   9  23
BRANCH   7  25
ATOM     25  O   UNL     1     -14.221  34.977  -4.927  1.00  0.00    -0.508 OA
ATOM     26  H   UNL     1     -14.333  33.969  -4.909  1.00  0.00     0.293 HD
ENDBRANCH   7  25
TORSDOF 6
ENDMDL
MODEL 8
REMARK VINA RESULT:    -6.829      1.902      2.814
REMARK INTER + INTRA:          -8.535
REMARK INTER:                  -8.151
REMARK INTRA:                  -0.385
REMARK UNBOUND:                -0.309
REMARK SMILES Oc1cc(O)c2c(c1)O[C@@H](c1ccc(O)c(O)c1)[C@@H](O)C2
REMARK SMILES IDX 21 1 19 2 10 3 9 4 7 5 8 6 2 7 3 8 4 9 6 10 20 11 11 13
REMARK SMILES IDX 18 14 12 15 16 16 13 17 14 18 17 19 15 21 5 23 1 25
REMARK H PARENT 20 12 17 20 15 22 5 24 1 26
REMARK Flexibility Score: inf
ROOT
ATOM      1  C   UNL     1     -10.914  39.071  -7.901  1.00  0.00     0.079 C 
ATOM      2  C   UNL     1     -10.806  38.524  -6.465  1.00  0.00     0.164 C 
ATOM      3  C   UNL     1     -11.013  39.671  -5.462  1.00  0.00     0.232 C 
ATOM      4  O   UNL     1     -12.278  40.292  -5.688  1.00  0.00    -0.482 OA
ATOM      5  C   UNL     1     -12.776  40.513  -6.977  1.00  0.00     0.131 A 
ATOM      6  C   UNL     1     -13.923  41.295  -7.138  1.00  0.00     0.093 A 
ATOM      7  C   UNL     1     -14.433  41.545  -8.415  1.00  0.00     0.122 A 
ATOM      8  C   UNL     1     -13.787  41.019  -9.536  1.00  0.00     0.092 A 
ATOM      9  C   UNL     1     -12.636  40.234  -9.395  1.00  0.00     0.126 A 
ATOM     10  C   UNL     1     -12.141  39.940  -8.102  1.00  0.00     0.039 A 
ENDROOT
BRANCH   2  11
ATOM     11  O   UNL     1     -11.777  37.528  -6.261  1.00  0.00    -0.389 OA
ATOM     12  H   UNL     1     -12.550  37.758  -6.840  1.00  0.00     0.211 HD
ENDBRANCH   2  11
BRANCH   3  13
ATOM     13  C   UNL     1     -10.908  39.184  -4.035  1.00  0.00    -0.001 A 
ATOM     14  C   UNL     1      -9.735  38.566  -3.566  1.00  0.00     0.057 A 
ATOM     15  C   UNL     1     -11.966  39.403  -3.141  1.00  0.00     0.012 A 
ATOM     16  C   UNL     1      -9.625  38.147  -2.235  1.00  0.00     0.157 A 
ATOM     17  C   UNL     1     -11.866  38.987  -1.812  1.00  0.00     0.050 A 
ATOM     18  C   UNL     1     -10.706  38.357  -1.347  1.00  0.00     0.157 A 
BRANCH  16  19
ATOM     19  O   UNL     1      -8.433  37.535  -1.839  1.00  0.00    -0.504 OA
ATOM     20  H   UNL     1      -8.019  36.747  -2.314  1.00  0.00     0.293 HD
ENDBRANCH  16  19
BRANCH  18  21
ATOM     21  O   UNL     1     -10.671  37.963  -0.007  1.00  0.00    -0.504 OA
ATOM     22  H   UNL     1     -11.494  37.775   0.548  1.00  0.00     0.293 HD
ENDBRANCH  18  21
ENDBRANCH   3  13
BRANCH   9  23
ATOM     23  O   UNL     1     -12.009  39.774 -10.555  1.00  0.00    -0.507 OA
ATOM     24  H   UNL     1     -12.471  39.718 -11.453  1.00  0.00     0.293 HD
ENDBRANCH   9  23
BRANCH   7  25
ATOM     25  O   UNL     1     -15.577  42.322  -8.584  1.00  0.00    -0.508 OA
ATOM     26  H   UNL     1     -16.459  41.911  -8.870  1.00  0.00     0.293 HD
ENDBRANCH   7  25
TORSDOF 6
ENDMDL
MODEL 9
REMARK VINA RESULT:    -6.726      1.589      2.879
REMARK INTER + INTRA:          -8.411
REMARK INTER:                  -8.061
REMARK INTRA:                  -0.350
REMARK UNBOUND:                -0.309
REMARK SMILES Oc1cc(O)c2c(c1)O[C@@H](c1ccc(O)c(O)c1)[C@@H](O)C2
REMARK SMILES IDX 21 1 19 2 10 3 9 4 7 5 8 6 2 7 3 8 4 9 6 10 20 11 11 13
REMARK SMILES IDX 18 14 12 15 16 16 13 17 14 18 17 19 15 21 5 23 1 25
REMARK H PARENT 20 12 17 20 15 22 5 24 1 26
REMARK Flexibility Score: inf
ROOT
ATOM      1  C   UNL     1     -11.448  39.532  -9.377  1.00  0.00     0.079 C 
ATOM      2  C   UNL     1     -10.844  38.844  -8.139  1.00  0.00     0.164 C 
ATOM      3  C   UNL     1     -11.223  39.635  -6.876  1.00  0.00     0.232 C 
ATOM      4  O   UNL     1     -12.643  39.737  -6.774  1.00  0.00    -0.482 OA
ATOM      5  C   UNL     1     -13.454  39.953  -7.894  1.00  0.00     0.131 A 
ATOM      6  C   UNL     1     -14.809  40.237  -7.707  1.00  0.00     0.093 A 
ATOM      7  C   UNL     1     -15.639  40.473  -8.808  1.00  0.00     0.122 A 
ATOM      8  C   UNL     1     -15.107  40.435 -10.099  1.00  0.00     0.092 A 
ATOM      9  C   UNL     1     -13.751  40.154 -10.306  1.00  0.00     0.126 A 
ATOM     10  C   UNL     1     -12.916  39.870  -9.198  1.00  0.00     0.039 A 
ENDROOT
BRANCH   2  11
ATOM     11  O   UNL     1     -11.329  37.528  -8.042  1.00  0.00    -0.389 OA
ATOM     12  H   UNL     1     -12.024  37.530  -7.332  1.00  0.00     0.211 HD
ENDBRANCH   2  11
BRANCH   3  13
ATOM     13  C   UNL     1     -10.645  39.002  -5.631  1.00  0.00    -0.001 A 
ATOM     14  C   UNL     1     -11.458  38.721  -4.519  1.00  0.00     0.057 A 
ATOM     15  C   UNL     1      -9.294  38.629  -5.599  1.00  0.00     0.012 A 
ATOM     16  C   UNL     1     -10.928  38.102  -3.379  1.00  0.00     0.157 A 
ATOM     17  C   UNL     1      -8.757  38.013  -4.467  1.00  0.00     0.050 A 
ATOM     18  C   UNL     1      -9.559  37.746  -3.352  1.00  0.00     0.157 A 
BRANCH  16  19
ATOM     19  O   UNL     1     -11.792  37.858  -2.309  1.00  0.00    -0.504 OA
ATOM     20  H   UNL     1     -11.853  36.976  -1.822  1.00  0.00     0.293 HD
ENDBRANCH  16  19
BRANCH  18  21
ATOM     21  O   UNL     1      -8.960  37.130  -2.250  1.00  0.00    -0.504 OA
ATOM     22  H   UNL     1      -8.477  36.245  -2.292  1.00  0.00     0.293 HD
ENDBRANCH  18  21
ENDBRANCH   3  13
BRANCH   9  23
ATOM     23  O   UNL     1     -13.268  40.175 -11.616  1.00  0.00    -0.507 OA
ATOM     24  H   UNL     1     -12.291  40.291 -11.847  1.00  0.00     0.293 HD
ENDBRANCH   9  23
BRANCH   7  25
ATOM     25  O   UNL     1     -16.992  40.754  -8.630  1.00  0.00    -0.508 OA
ATOM     26  H   UNL     1     -17.712  40.137  -8.990  1.00  0.00     0.293 HD
ENDBRANCH   7  25
TORSDOF 6
ENDMDL
