MODEL 1
REMARK VINA RESULT:    -3.037      0.000      0.000
REMARK INTER + INTRA:          -3.655
REMARK INTER:                  -3.570
REMARK INTRA:                  -0.085
REMARK UNBOUND:                -0.085
REMARK SMILES CCCCC(=O)[O-]
REMARK SMILES IDX 4 1 5 2 6 3 7 4 3 5 2 6 1 7
REMARK H PARENT
REMARK Flexibility Score: inf
ROOT
ATOM      1  C   UNL     1     162.979 157.856 165.216  1.00  0.00     0.053 C 
ENDROOT
BRANCH   1   2
ATOM      2  C   UNL     1     162.558 156.908 166.296  1.00  0.00     0.041 C 
ATOM      3  O   UNL     1     162.842 157.149 167.499  1.00  0.00    -0.550 OA
ATOM      4  O   UNL     1     161.880 155.739 165.971  1.00  0.00    -0.550 OA
ENDBRANCH   1   2
BRANCH   1   5
ATOM      5  C   UNL     1     162.138 159.139 165.224  1.00  0.00     0.006 C 
BRANCH   5   6
ATOM      6  C   UNL     1     160.677 158.879 164.833  1.00  0.00    -0.003 C 
ATOM      7  C   UNL     1     159.753 159.946 165.414  1.00  0.00     0.004 C 
ENDBRANCH   5   6
ENDBRANCH   1   5
TORSDOF 3
ENDMDL
MODEL 2
REMARK VINA RESULT:    -3.031      1.306      1.609
REMARK INTER + INTRA:          -3.648
REMARK INTER:                  -3.544
REMARK INTRA:                  -0.105
REMARK UNBOUND:                -0.085
REMARK SMILES CCCCC(=O)[O-]
REMARK SMILES IDX 4 1 5 2 6 3 7 4 3 5 2 6 1 7
REMARK H PARENT
REMARK Flexibility Score: inf
ROOT
ATOM      1  C   UNL     1     161.808 156.078 165.616  1.00  0.00     0.053 C 
ENDROOT
BRANCH   1   2
ATOM      2  C   UNL     1     162.929 156.291 166.585  1.00  0.00     0.041 C 
ATOM      3  O   UNL     1     162.796 157.102 167.540  1.00  0.00    -0.550 OA
ATOM      4  O   UNL     1     164.133 155.620 166.415  1.00  0.00    -0.550 OA
ENDBRANCH   1   2
BRANCH   1   5
ATOM      5  C   UNL     1     161.846 157.095 164.467  1.00  0.00     0.006 C 
BRANCH   5   6
ATOM      6  C   UNL     1     160.640 158.044 164.492  1.00  0.00    -0.003 C 
ATOM      7  C   UNL     1     160.968 159.330 165.246  1.00  0.00     0.004 C 
ENDBRANCH   5   6
ENDBRANCH   1   5
TORSDOF 3
ENDMDL
MODEL 3
REMARK VINA RESULT:    -2.942      1.699      2.404
REMARK INTER + INTRA:          -3.543
REMARK INTER:                  -3.526
REMARK INTRA:                  -0.017
REMARK UNBOUND:                -0.085
REMARK SMILES CCCCC(=O)[O-]
REMARK SMILES IDX 4 1 5 2 6 3 7 4 3 5 2 6 1 7
REMARK H PARENT
REMARK Flexibility Score: inf
ROOT
ATOM      1  C   UNL     1     161.093 158.673 164.931  1.00  0.00     0.053 C 
ENDROOT
BRANCH   1   2
ATOM      2  C   UNL     1     162.498 158.689 165.446  1.00  0.00     0.041 C 
ATOM      3  O   UNL     1     163.430 159.151 164.735  1.00  0.00    -0.550 OA
ATOM      4  O   UNL     1     162.787 158.163 166.699  1.00  0.00    -0.550 OA
ENDBRANCH   1   2
BRANCH   1   5
ATOM      5  C   UNL     1     160.285 159.875 165.438  1.00  0.00     0.006 C 
BRANCH   5   6
ATOM      6  C   UNL     1     158.778 159.699 165.210  1.00  0.00    -0.003 C 
ATOM      7  C   UNL     1     158.421 159.869 163.735  1.00  0.00     0.004 C 
ENDBRANCH   5   6
ENDBRANCH   1   5
TORSDOF 3
ENDMDL
MODEL 4
REMARK VINA RESULT:    -2.896      2.402      3.582
REMARK INTER + INTRA:          -3.489
REMARK INTER:                  -3.380
REMARK INTRA:                  -0.108
REMARK UNBOUND:                -0.085
REMARK SMILES CCCCC(=O)[O-]
REMARK SMILES IDX 4 1 5 2 6 3 7 4 3 5 2 6 1 7
REMARK H PARENT
REMARK Flexibility Score: inf
ROOT
ATOM      1  C   UNL     1     160.556 157.977 164.472  1.00  0.00     0.053 C 
ENDROOT
BRANCH   1   2
ATOM      2  C   UNL     1     160.777 159.302 165.132  1.00  0.00     0.041 C 
ATOM      3  O   UNL     1     161.946 159.749 165.283  1.00  0.00    -0.550 OA
ATOM      4  O   UNL     1     159.696 160.031 165.612  1.00  0.00    -0.550 OA
ENDBRANCH   1   2
BRANCH   1   5
ATOM      5  C   UNL     1     161.834 157.127 164.456  1.00  0.00     0.006 C 
BRANCH   5   6
ATOM      6  C   UNL     1     161.799 156.007 165.505  1.00  0.00    -0.003 C 
ATOM      7  C   UNL     1     162.616 156.384 166.738  1.00  0.00     0.004 C 
ENDBRANCH   5   6
ENDBRANCH   1   5
TORSDOF 3
ENDMDL
MODEL 5
REMARK VINA RESULT:    -2.866      1.253      2.174
REMARK INTER + INTRA:          -3.454
REMARK INTER:                  -3.373
REMARK INTRA:                  -0.081
REMARK UNBOUND:                -0.085
REMARK SMILES CCCCC(=O)[O-]
REMARK SMILES IDX 4 1 5 2 6 3 7 4 3 5 2 6 1 7
REMARK H PARENT
REMARK Flexibility Score: inf
ROOT
ATOM      1  C   UNL     1     161.640 157.160 164.347  1.00  0.00     0.053 C 
ENDROOT
BRANCH   1   2
ATOM      2  C   UNL     1     161.654 155.937 165.210  1.00  0.00     0.041 C 
ATOM      3  O   UNL     1     161.174 154.853 164.782  1.00  0.00    -0.550 OA
ATOM      4  O   UNL     1     162.165 156.000 166.500  1.00  0.00    -0.550 OA
ENDBRANCH   1   2
BRANCH   1   5
ATOM      5  C   UNL     1     160.371 157.995 164.560  1.00  0.00     0.006 C 
BRANCH   5   6
ATOM      6  C   UNL     1     160.683 159.399 165.096  1.00  0.00    -0.003 C 
ATOM      7  C   UNL     1     162.179 159.574 165.339  1.00  0.00     0.004 C 
ENDBRANCH   5   6
ENDBRANCH   1   5
TORSDOF 3
ENDMDL
MODEL 6
REMARK VINA RESULT:    -2.834     14.823     15.509
REMARK INTER + INTRA:          -3.417
REMARK INTER:                  -3.396
REMARK INTRA:                  -0.021
REMARK UNBOUND:                -0.085
REMARK SMILES CCCCC(=O)[O-]
REMARK SMILES IDX 4 1 5 2 6 3 7 4 3 5 2 6 1 7
REMARK H PARENT
REMARK Flexibility Score: inf
ROOT
ATOM      1  C   UNL     1     159.561 158.847 150.313  1.00  0.00     0.053 C 
ENDROOT
BRANCH   1   2
ATOM      2  C   UNL     1     158.391 158.228 151.014  1.00  0.00     0.041 C 
ATOM      3  O   UNL     1     158.544 157.185 151.703  1.00  0.00    -0.550 OA
ATOM      4  O   UNL     1     157.125 158.783 150.879  1.00  0.00    -0.550 OA
ENDBRANCH   1   2
BRANCH   1   5
ATOM      5  C   UNL     1     160.809 157.958 150.393  1.00  0.00     0.006 C 
BRANCH   5   6
ATOM      6  C   UNL     1     162.066 158.675 149.880  1.00  0.00    -0.003 C 
ATOM      7  C   UNL     1     163.081 158.874 151.001  1.00  0.00     0.004 C 
ENDBRANCH   5   6
ENDBRANCH   1   5
TORSDOF 3
ENDMDL
MODEL 7
REMARK VINA RESULT:    -2.800     14.938     15.483
REMARK INTER + INTRA:          -3.376
REMARK INTER:                  -3.349
REMARK INTRA:                  -0.027
REMARK UNBOUND:                -0.085
REMARK SMILES CCCCC(=O)[O-]
REMARK SMILES IDX 4 1 5 2 6 3 7 4 3 5 2 6 1 7
REMARK H PARENT
REMARK Flexibility Score: inf
ROOT
ATOM      1  C   UNL     1     161.489 158.298 150.908  1.00  0.00     0.053 C 
ENDROOT
BRANCH   1   2
ATOM      2  C   UNL     1     160.074 158.158 150.438  1.00  0.00     0.041 C 
ATOM      3  O   UNL     1     159.262 159.111 150.579  1.00  0.00    -0.550 OA
ATOM      4  O   UNL     1     159.641 156.964 149.876  1.00  0.00    -0.550 OA
ENDBRANCH   1   2
BRANCH   1   5
ATOM      5  C   UNL     1     162.262 159.341 150.090  1.00  0.00     0.006 C 
BRANCH   5   6
ATOM      6  C   UNL     1     163.329 160.060 150.926  1.00  0.00    -0.003 C 
ATOM      7  C   UNL     1     164.274 159.060 151.589  1.00  0.00     0.004 C 
ENDBRANCH   5   6
ENDBRANCH   1   5
TORSDOF 3
ENDMDL
MODEL 8
REMARK VINA RESULT:    -2.766      2.375      3.364
REMARK INTER + INTRA:          -3.337
REMARK INTER:                  -3.279
REMARK INTRA:                  -0.058
REMARK UNBOUND:                -0.085
REMARK SMILES CCCCC(=O)[O-]
REMARK SMILES IDX 4 1 5 2 6 3 7 4 3 5 2 6 1 7
REMARK H PARENT
REMARK Flexibility Score: inf
ROOT
ATOM      1  C   UNL     1     161.235 158.065 164.842  1.00  0.00     0.053 C 
ENDROOT
BRANCH   1   2
ATOM      2  C   UNL     1     162.501 158.563 165.468  1.00  0.00     0.041 C 
ATOM      3  O   UNL     1     163.315 159.249 164.795  1.00  0.00    -0.550 OA
ATOM      4  O   UNL     1     162.800 158.240 166.786  1.00  0.00    -0.550 OA
ENDBRANCH   1   2
BRANCH   1   5
ATOM      5  C   UNL     1     161.477 156.821 163.977  1.00  0.00     0.006 C 
BRANCH   5   6
ATOM      6  C   UNL     1     161.511 155.532 164.810  1.00  0.00    -0.003 C 
ATOM      7  C   UNL     1     160.784 154.397 164.094  1.00  0.00     0.004 C 
ENDBRANCH   5   6
ENDBRANCH   1   5
TORSDOF 3
ENDMDL
MODEL 9
REMARK VINA RESULT:    -2.752     14.089     14.518
REMARK INTER + INTRA:          -3.320
REMARK INTER:                  -3.302
REMARK INTRA:                  -0.018
REMARK UNBOUND:                -0.085
REMARK SMILES CCCCC(=O)[O-]
REMARK SMILES IDX 4 1 5 2 6 3 7 4 3 5 2 6 1 7
REMARK H PARENT
REMARK Flexibility Score: inf
ROOT
ATOM      1  C   UNL     1     165.084 159.955 151.742  1.00  0.00     0.053 C 
ENDROOT
BRANCH   1   2
ATOM      2  C   UNL     1     166.132 159.292 152.582  1.00  0.00     0.041 C 
ATOM      3  O   UNL     1     167.350 159.560 152.405  1.00  0.00    -0.550 OA
ATOM      4  O   UNL     1     165.767 158.353 153.538  1.00  0.00    -0.550 OA
ENDBRANCH   1   2
BRANCH   1   5
ATOM      5  C   UNL     1     163.934 158.997 151.404  1.00  0.00     0.006 C 
BRANCH   5   6
ATOM      6  C   UNL     1     162.791 159.702 150.660  1.00  0.00    -0.003 C 
ATOM      7  C   UNL     1     161.947 158.702 149.875  1.00  0.00     0.004 C 
ENDBRANCH   5   6
ENDBRANCH   1   5
TORSDOF 3
ENDMDL
