MODEL 1
REMARK VINA RESULT:    -3.985      0.000      0.000
REMARK INTER + INTRA:          -5.179
REMARK INTER:                  -4.684
REMARK INTRA:                  -0.495
REMARK UNBOUND:                -0.495
REMARK SMILES C=CC(C)=CCC=C(C)C
REMARK SMILES IDX 5 1 3 2 4 3 6 4 7 5 9 6 8 7 10 8 2 9 1 10
REMARK H PARENT
REMARK Flexibility Score: inf
ROOT
ATOM      1  C   UNL     1      18.459  64.845  14.891  1.00  0.00    -0.020 C 
ATOM      2  C   UNL     1      19.324  64.229  15.722  1.00  0.00    -0.055 C 
ATOM      3  C   UNL     1      19.436  64.598  17.184  1.00  0.00     0.044 C 
ENDROOT
BRANCH   1   4
ATOM      4  C   UNL     1      17.496  65.929  15.296  1.00  0.00     0.055 C 
BRANCH   4   5
ATOM      5  C   UNL     1      16.060  65.500  15.114  1.00  0.00    -0.024 C 
ATOM      6  C   UNL     1      15.768  64.873  17.522  1.00  0.00     0.039 C 
ATOM      7  C   UNL     1      15.271  65.021  16.103  1.00  0.00    -0.080 C 
ATOM      8  C   UNL     1      13.860  64.615  15.764  1.00  0.00     0.039 C 
ENDBRANCH   4   5
ENDBRANCH   1   4
BRANCH   2   9
ATOM      9  C   UNL     1      20.240  63.214  15.137  1.00  0.00    -0.005 C 
ATOM     10  C   UNL     1      20.029  62.615  13.965  1.00  0.00     0.009 C 
ENDBRANCH   2   9
TORSDOF 3
ENDMDL
MODEL 2
REMARK VINA RESULT:    -3.894      3.568      7.185
REMARK INTER + INTRA:          -5.071
REMARK INTER:                  -4.612
REMARK INTRA:                  -0.459
REMARK UNBOUND:                -0.495
REMARK SMILES C=CC(C)=CCC=C(C)C
REMARK SMILES IDX 5 1 3 2 4 3 6 4 7 5 9 6 8 7 10 8 2 9 1 10
REMARK H PARENT
REMARK Flexibility Score: inf
ROOT
ATOM      1  C   UNL     1      22.033  63.231  14.081  1.00  0.00    -0.020 C 
ATOM      2  C   UNL     1      21.224  63.412  15.145  1.00  0.00    -0.055 C 
ATOM      3  C   UNL     1      21.765  63.545  16.552  1.00  0.00     0.044 C 
ENDROOT
BRANCH   1   4
ATOM      4  C   UNL     1      23.536  63.169  14.139  1.00  0.00     0.055 C 
BRANCH   4   5
ATOM      5  C   UNL     1      24.064  61.864  13.594  1.00  0.00    -0.024 C 
ATOM      6  C   UNL     1      24.777  61.021  15.843  1.00  0.00     0.039 C 
ATOM      7  C   UNL     1      24.627  60.890  14.345  1.00  0.00    -0.080 C 
ATOM      8  C   UNL     1      25.125  59.647  13.654  1.00  0.00     0.039 C 
ENDBRANCH   4   5
ENDBRANCH   1   4
BRANCH   2   9
ATOM      9  C   UNL     1      19.757  63.395  14.909  1.00  0.00    -0.005 C 
ATOM     10  C   UNL     1      19.179  62.768  13.883  1.00  0.00     0.009 C 
ENDBRANCH   2   9
TORSDOF 3
ENDMDL
MODEL 3
REMARK VINA RESULT:    -3.822      1.180      2.166
REMARK INTER + INTRA:          -4.987
REMARK INTER:                  -4.655
REMARK INTRA:                  -0.332
REMARK UNBOUND:                -0.495
REMARK SMILES C=CC(C)=CCC=C(C)C
REMARK SMILES IDX 5 1 3 2 4 3 6 4 7 5 9 6 8 7 10 8 2 9 1 10
REMARK H PARENT
REMARK Flexibility Score: inf
ROOT
ATOM      1  C   UNL     1      19.880  64.824  15.151  1.00  0.00    -0.020 C 
ATOM      2  C   UNL     1      20.325  63.631  14.708  1.00  0.00    -0.055 C 
ATOM      3  C   UNL     1      19.448  62.694  13.906  1.00  0.00     0.044 C 
ENDROOT
BRANCH   1   4
ATOM      4  C   UNL     1      18.506  65.385  14.893  1.00  0.00     0.055 C 
BRANCH   4   5
ATOM      5  C   UNL     1      17.601  65.221  16.091  1.00  0.00    -0.024 C 
ATOM      6  C   UNL     1      15.548  64.866  14.699  1.00  0.00     0.039 C 
ATOM      7  C   UNL     1      16.271  64.991  16.020  1.00  0.00    -0.080 C 
ATOM      8  C   UNL     1      15.493  64.867  17.305  1.00  0.00     0.039 C 
ENDBRANCH   4   5
ENDBRANCH   1   4
BRANCH   2   9
ATOM      9  C   UNL     1      21.696  63.214  15.103  1.00  0.00    -0.005 C 
ATOM     10  C   UNL     1      22.640  62.855  14.231  1.00  0.00     0.009 C 
ENDBRANCH   2   9
TORSDOF 3
ENDMDL
MODEL 4
REMARK VINA RESULT:    -3.818      1.156      2.160
REMARK INTER + INTRA:          -4.982
REMARK INTER:                  -4.743
REMARK INTRA:                  -0.239
REMARK UNBOUND:                -0.495
REMARK SMILES C=CC(C)=CCC=C(C)C
REMARK SMILES IDX 5 1 3 2 4 3 6 4 7 5 9 6 8 7 10 8 2 9 1 10
REMARK H PARENT
REMARK Flexibility Score: inf
ROOT
ATOM      1  C   UNL     1      19.134  64.479  15.512  1.00  0.00    -0.020 C 
ATOM      2  C   UNL     1      19.950  63.504  15.062  1.00  0.00    -0.055 C 
ATOM      3  C   UNL     1      19.533  62.551  13.964  1.00  0.00     0.044 C 
ENDROOT
BRANCH   1   4
ATOM      4  C   UNL     1      17.754  64.764  14.984  1.00  0.00     0.055 C 
BRANCH   4   5
ATOM      5  C   UNL     1      16.776  65.055  16.097  1.00  0.00    -0.024 C 
ATOM      6  C   UNL     1      14.780  64.998  14.584  1.00  0.00     0.039 C 
ATOM      7  C   UNL     1      15.439  65.165  15.933  1.00  0.00    -0.080 C 
ATOM      8  C   UNL     1      14.590  65.476  17.140  1.00  0.00     0.039 C 
ENDBRANCH   4   5
ENDBRANCH   1   4
BRANCH   2   9
ATOM      9  C   UNL     1      21.263  63.334  15.738  1.00  0.00    -0.005 C 
ATOM     10  C   UNL     1      21.444  63.484  17.051  1.00  0.00     0.009 C 
ENDBRANCH   2   9
TORSDOF 3
ENDMDL
MODEL 5
REMARK VINA RESULT:    -3.804      1.002      5.183
REMARK INTER + INTRA:          -4.966
REMARK INTER:                  -4.707
REMARK INTRA:                  -0.259
REMARK UNBOUND:                -0.495
REMARK SMILES C=CC(C)=CCC=C(C)C
REMARK SMILES IDX 5 1 3 2 4 3 6 4 7 5 9 6 8 7 10 8 2 9 1 10
REMARK H PARENT
REMARK Flexibility Score: inf
ROOT
ATOM      1  C   UNL     1      17.169  65.025  15.924  1.00  0.00    -0.020 C 
ATOM      2  C   UNL     1      15.844  65.043  15.673  1.00  0.00    -0.055 C 
ATOM      3  C   UNL     1      15.294  65.223  14.275  1.00  0.00     0.044 C 
ENDROOT
BRANCH   1   4
ATOM      4  C   UNL     1      18.249  65.148  14.882  1.00  0.00     0.055 C 
BRANCH   4   5
ATOM      5  C   UNL     1      19.596  64.728  15.418  1.00  0.00    -0.024 C 
ATOM      6  C   UNL     1      19.658  62.615  14.073  1.00  0.00     0.039 C 
ATOM      7  C   UNL     1      20.241  63.592  15.067  1.00  0.00    -0.080 C 
ATOM      8  C   UNL     1      21.576  63.299  15.701  1.00  0.00     0.039 C 
ENDBRANCH   4   5
ENDBRANCH   1   4
BRANCH   2   9
ATOM      9  C   UNL     1      14.919  64.961  16.833  1.00  0.00    -0.005 C 
ATOM     10  C   UNL     1      13.946  65.844  17.067  1.00  0.00     0.009 C 
ENDBRANCH   2   9
TORSDOF 3
ENDMDL
MODEL 6
REMARK VINA RESULT:    -3.788      0.828      4.718
REMARK INTER + INTRA:          -4.947
REMARK INTER:                  -4.626
REMARK INTRA:                  -0.321
REMARK UNBOUND:                -0.495
REMARK SMILES C=CC(C)=CCC=C(C)C
REMARK SMILES IDX 5 1 3 2 4 3 6 4 7 5 9 6 8 7 10 8 2 9 1 10
REMARK H PARENT
REMARK Flexibility Score: inf
ROOT
ATOM      1  C   UNL     1      16.490  64.994  15.581  1.00  0.00    -0.020 C 
ATOM      2  C   UNL     1      15.679  65.050  16.657  1.00  0.00    -0.055 C 
ATOM      3  C   UNL     1      16.192  65.417  18.032  1.00  0.00     0.044 C 
ENDROOT
BRANCH   1   4
ATOM      4  C   UNL     1      17.963  65.308  15.592  1.00  0.00     0.055 C 
BRANCH   4   5
ATOM      5  C   UNL     1      18.740  64.380  14.689  1.00  0.00    -0.024 C 
ATOM      6  C   UNL     1      20.235  63.572  16.530  1.00  0.00     0.039 C 
ATOM      7  C   UNL     1      19.765  63.596  15.094  1.00  0.00    -0.080 C 
ATOM      8  C   UNL     1      20.457  62.732  14.071  1.00  0.00     0.039 C 
ENDBRANCH   4   5
ENDBRANCH   1   4
BRANCH   2   9
ATOM      9  C   UNL     1      14.258  64.655  16.472  1.00  0.00    -0.005 C 
ATOM     10  C   UNL     1      13.641  64.643  15.290  1.00  0.00     0.009 C 
ENDBRANCH   2   9
TORSDOF 3
ENDMDL
MODEL 7
REMARK VINA RESULT:    -3.593      3.230      5.462
REMARK INTER + INTRA:          -4.718
REMARK INTER:                  -4.409
REMARK INTRA:                  -0.309
REMARK UNBOUND:                -0.495
REMARK SMILES C=CC(C)=CCC=C(C)C
REMARK SMILES IDX 5 1 3 2 4 3 6 4 7 5 9 6 8 7 10 8 2 9 1 10
REMARK H PARENT
REMARK Flexibility Score: inf
ROOT
ATOM      1  C   UNL     1      23.209  62.933  14.967  1.00  0.00    -0.020 C 
ATOM      2  C   UNL     1      24.071  61.924  14.726  1.00  0.00    -0.055 C 
ATOM      3  C   UNL     1      24.183  61.270  13.366  1.00  0.00     0.044 C 
ENDROOT
BRANCH   1   4
ATOM      4  C   UNL     1      22.292  63.548  13.944  1.00  0.00     0.055 C 
BRANCH   4   5
ATOM      5  C   UNL     1      21.126  64.257  14.591  1.00  0.00    -0.024 C 
ATOM      6  C   UNL     1      19.495  62.440  14.031  1.00  0.00     0.039 C 
ATOM      7  C   UNL     1      19.864  63.774  14.637  1.00  0.00    -0.080 C 
ATOM      8  C   UNL     1      18.800  64.607  15.305  1.00  0.00     0.039 C 
ENDBRANCH   4   5
ENDBRANCH   1   4
BRANCH   2   9
ATOM      9  C   UNL     1      24.865  61.405  15.871  1.00  0.00    -0.005 C 
ATOM     10  C   UNL     1      24.335  61.070  17.047  1.00  0.00     0.009 C 
ENDBRANCH   2   9
TORSDOF 3
ENDMDL
MODEL 8
REMARK VINA RESULT:    -3.530      2.803      6.671
REMARK INTER + INTRA:          -4.644
REMARK INTER:                  -4.390
REMARK INTRA:                  -0.254
REMARK UNBOUND:                -0.495
REMARK SMILES C=CC(C)=CCC=C(C)C
REMARK SMILES IDX 5 1 3 2 4 3 6 4 7 5 9 6 8 7 10 8 2 9 1 10
REMARK H PARENT
REMARK Flexibility Score: inf
ROOT
ATOM      1  C   UNL     1      21.049  64.168  14.873  1.00  0.00    -0.020 C 
ATOM      2  C   UNL     1      19.762  63.782  14.748  1.00  0.00    -0.055 C 
ATOM      3  C   UNL     1      19.357  62.605  13.888  1.00  0.00     0.044 C 
ENDROOT
BRANCH   1   4
ATOM      4  C   UNL     1      22.223  63.487  14.220  1.00  0.00     0.055 C 
BRANCH   4   5
ATOM      5  C   UNL     1      23.098  62.787  15.232  1.00  0.00    -0.024 C 
ATOM      6  C   UNL     1      24.230  61.360  13.512  1.00  0.00     0.039 C 
ATOM      7  C   UNL     1      24.002  61.828  14.930  1.00  0.00    -0.080 C 
ATOM      8  C   UNL     1      24.793  61.207  16.053  1.00  0.00     0.039 C 
ENDBRANCH   4   5
ENDBRANCH   1   4
BRANCH   2   9
ATOM      9  C   UNL     1      18.725  64.605  15.423  1.00  0.00    -0.005 C 
ATOM     10  C   UNL     1      17.458  64.682  15.012  1.00  0.00     0.009 C 
ENDBRANCH   2   9
TORSDOF 3
ENDMDL
MODEL 9
REMARK VINA RESULT:    -1.833      3.231      5.165
REMARK INTER + INTRA:          -2.649
REMARK INTER:                  -2.171
REMARK INTRA:                  -0.479
REMARK UNBOUND:                -0.495
REMARK SMILES C=CC(C)=CCC=C(C)C
REMARK SMILES IDX 5 1 3 2 4 3 6 4 7 5 9 6 8 7 10 8 2 9 1 10
REMARK H PARENT
REMARK Flexibility Score: inf
ROOT
ATOM      1  C   UNL     1      23.485  63.004  15.694  1.00  0.00    -0.020 C 
ATOM      2  C   UNL     1      23.454  62.358  16.878  1.00  0.00    -0.055 C 
ATOM      3  C   UNL     1      22.367  62.607  17.900  1.00  0.00     0.044 C 
ENDROOT
BRANCH   1   4
ATOM      4  C   UNL     1      22.462  64.005  15.229  1.00  0.00     0.055 C 
BRANCH   4   5
ATOM      5  C   UNL     1      21.369  63.354  14.416  1.00  0.00    -0.024 C 
ATOM      6  C   UNL     1      19.532  64.224  15.881  1.00  0.00     0.039 C 
ATOM      7  C   UNL     1      20.049  63.441  14.697  1.00  0.00    -0.080 C 
ATOM      8  C   UNL     1      19.075  62.720  13.801  1.00  0.00     0.039 C 
ENDBRANCH   4   5
ENDBRANCH   1   4
BRANCH   2   9
ATOM      9  C   UNL     1      24.579  61.439  17.194  1.00  0.00    -0.005 C 
ATOM     10  C   UNL     1      25.125  60.606  16.307  1.00  0.00     0.009 C 
ENDBRANCH   2   9
TORSDOF 3
ENDMDL
