MODEL 1
REMARK VINA RESULT:    10.027      0.000      0.000
REMARK INTER + INTRA:          15.195
REMARK INTER:                  14.130
REMARK INTRA:                   1.066
REMARK UNBOUND:                 1.066
REMARK SMILES O=C(C=Cc1ccc(O)cc1)CC(=O)C=Cc1ccc(O)cc1
REMARK SMILES IDX 12 1 2 2 1 3 3 4 4 5 5 6 6 7 7 8 8 9 11 10 10 11 9 12 13 14
REMARK SMILES IDX 14 15 15 16 16 17 17 18 18 19 23 20 19 21 22 22 20 23 21 24
REMARK H PARENT 9 13 21 25
REMARK Flexibility Score: inf
ROOT
ATOM      1  C   UNL     1     -37.530  23.249   5.778  1.00  0.00     0.160 C 
ENDROOT
BRANCH   1   2
ATOM      2  C   UNL     1     -36.854  24.298   6.606  1.00  0.00     0.163 C 
ATOM      3  O   UNL     1     -37.209  25.503   6.490  1.00  0.00    -0.294 OA
BRANCH   2   4
ATOM      4  C   UNL     1     -35.799  23.910   7.568  1.00  0.00     0.048 C 
ATOM      5  C   UNL     1     -34.603  24.507   7.688  1.00  0.00     0.012 C 
BRANCH   5   6
ATOM      6  C   UNL     1     -34.062  25.531   6.768  1.00  0.00    -0.025 A 
ATOM      7  C   UNL     1     -34.051  26.874   7.169  1.00  0.00     0.012 A 
ATOM      8  C   UNL     1     -33.503  27.856   6.338  1.00  0.00     0.047 A 
ATOM      9  C   UNL     1     -32.939  27.502   5.108  1.00  0.00     0.115 A 
ATOM     10  C   UNL     1     -33.468  25.176   5.543  1.00  0.00     0.012 A 
ATOM     11  C   UNL     1     -32.920  26.158   4.714  1.00  0.00     0.047 A 
BRANCH   9  12
ATOM     12  O   UNL     1     -32.397  28.491   4.290  1.00  0.00    -0.508 OA
ATOM     13  H   UNL     1     -31.562  28.324   3.741  1.00  0.00     0.293 HD
ENDBRANCH   9  12
ENDBRANCH   5   6
ENDBRANCH   2   4
ENDBRANCH   1   2
BRANCH   1  14
ATOM     14  C   UNL     1     -38.709  22.694   6.521  1.00  0.00     0.163 C 
ATOM     15  O   UNL     1     -39.100  21.522   6.272  1.00  0.00    -0.294 OA
BRANCH  14  16
ATOM     16  C   UNL     1     -39.381  23.515   7.550  1.00  0.00     0.048 C 
ATOM     17  C   UNL     1     -40.071  24.641   7.313  1.00  0.00     0.012 C 
BRANCH  17  18
ATOM     18  C   UNL     1     -40.125  25.353   6.019  1.00  0.00    -0.025 A 
ATOM     19  C   UNL     1     -40.097  24.657   4.797  1.00  0.00     0.012 A 
ATOM     20  C   UNL     1     -40.100  26.756   6.007  1.00  0.00     0.012 A 
ATOM     21  C   UNL     1     -40.099  25.356   3.586  1.00  0.00     0.047 A 
ATOM     22  C   UNL     1     -40.101  27.453   4.796  1.00  0.00     0.047 A 
ATOM     23  C   UNL     1     -40.104  26.755   3.582  1.00  0.00     0.115 A 
BRANCH  23  24
ATOM     24  O   UNL     1     -40.106  27.438   2.368  1.00  0.00    -0.508 OA
ATOM     25  H   UNL     1     -40.958  27.826   1.980  1.00  0.00     0.293 HD
ENDBRANCH  23  24
ENDBRANCH  17  18
ENDBRANCH  14  16
ENDBRANCH   1  14
TORSDOF 8
ENDMDL
MODEL 2
REMARK VINA RESULT:    10.777      0.940      1.243
REMARK INTER + INTRA:          16.252
REMARK INTER:                  16.081
REMARK INTRA:                   0.171
REMARK UNBOUND:                 1.066
REMARK SMILES O=C(C=Cc1ccc(O)cc1)CC(=O)C=Cc1ccc(O)cc1
REMARK SMILES IDX 12 1 2 2 1 3 3 4 4 5 5 6 6 7 7 8 8 9 11 10 10 11 9 12 13 14
REMARK SMILES IDX 14 15 15 16 16 17 17 18 18 19 23 20 19 21 22 22 20 23 21 24
REMARK H PARENT 9 13 21 25
REMARK Flexibility Score: inf
ROOT
ATOM      1  C   UNL     1     -37.257  23.727   6.100  1.00  0.00     0.160 C 
ENDROOT
BRANCH   1   2
ATOM      2  C   UNL     1     -36.637  24.717   7.039  1.00  0.00     0.163 C 
ATOM      3  O   UNL     1     -37.157  25.858   7.166  1.00  0.00    -0.294 OA
BRANCH   2   4
ATOM      4  C   UNL     1     -35.442  24.338   7.823  1.00  0.00     0.048 C 
ATOM      5  C   UNL     1     -34.228  24.898   7.705  1.00  0.00     0.012 C 
BRANCH   5   6
ATOM      6  C   UNL     1     -33.829  25.859   6.654  1.00  0.00    -0.025 A 
ATOM      7  C   UNL     1     -33.648  27.208   6.993  1.00  0.00     0.012 A 
ATOM      8  C   UNL     1     -33.226  28.129   6.029  1.00  0.00     0.047 A 
ATOM      9  C   UNL     1     -32.957  27.707   4.723  1.00  0.00     0.115 A 
ATOM     10  C   UNL     1     -33.530  25.434   5.347  1.00  0.00     0.012 A 
ATOM     11  C   UNL     1     -33.108  26.356   4.384  1.00  0.00     0.047 A 
BRANCH   9  12
ATOM     12  O   UNL     1     -32.538  28.635   3.772  1.00  0.00    -0.508 OA
ATOM     13  H   UNL     1     -32.466  28.392   2.791  1.00  0.00     0.293 HD
ENDBRANCH   9  12
ENDBRANCH   5   6
ENDBRANCH   2   4
ENDBRANCH   1   2
BRANCH   1  14
ATOM     14  C   UNL     1     -38.123  22.772   6.865  1.00  0.00     0.163 C 
ATOM     15  O   UNL     1     -37.893  22.572   8.089  1.00  0.00    -0.294 OA
BRANCH  14  16
ATOM     16  C   UNL     1     -39.248  22.095   6.186  1.00  0.00     0.048 C 
ATOM     17  C   UNL     1     -40.072  22.669   5.295  1.00  0.00     0.012 C 
BRANCH  17  18
ATOM     18  C   UNL     1     -40.114  24.112   4.976  1.00  0.00    -0.025 A 
ATOM     19  C   UNL     1     -40.041  24.573   3.649  1.00  0.00     0.012 A 
ATOM     20  C   UNL     1     -40.125  25.045   6.024  1.00  0.00     0.012 A 
ATOM     21  C   UNL     1     -40.033  25.944   3.377  1.00  0.00     0.047 A 
ATOM     22  C   UNL     1     -40.116  26.415   5.751  1.00  0.00     0.047 A 
ATOM     23  C   UNL     1     -40.073  26.869   4.426  1.00  0.00     0.115 A 
BRANCH  23  24
ATOM     24  O   UNL     1     -40.064  28.232   4.141  1.00  0.00    -0.508 OA
ATOM     25  H   UNL     1     -40.725  28.868   4.573  1.00  0.00     0.293 HD
ENDBRANCH  23  24
ENDBRANCH  17  18
ENDBRANCH  14  16
ENDBRANCH   1  14
TORSDOF 8
ENDMDL
MODEL 3
REMARK VINA RESULT:    11.265      0.489      6.040
REMARK INTER + INTRA:          16.940
REMARK INTER:                  16.369
REMARK INTRA:                   0.571
REMARK UNBOUND:                 1.066
REMARK SMILES O=C(C=Cc1ccc(O)cc1)CC(=O)C=Cc1ccc(O)cc1
REMARK SMILES IDX 12 1 2 2 1 3 3 4 4 5 5 6 6 7 7 8 8 9 11 10 10 11 9 12 13 14
REMARK SMILES IDX 14 15 15 16 16 17 17 18 18 19 23 20 19 21 22 22 20 23 21 24
REMARK H PARENT 9 13 21 25
REMARK Flexibility Score: inf
ROOT
ATOM      1  C   UNL     1     -37.530  23.359   5.950  1.00  0.00     0.160 C 
ENDROOT
BRANCH   1   2
ATOM      2  C   UNL     1     -38.293  22.529   6.937  1.00  0.00     0.163 C 
ATOM      3  O   UNL     1     -38.103  21.283   6.976  1.00  0.00    -0.294 OA
BRANCH   2   4
ATOM      4  C   UNL     1     -39.236  23.180   7.872  1.00  0.00     0.048 C 
ATOM      5  C   UNL     1     -40.095  24.159   7.548  1.00  0.00     0.012 C 
BRANCH   5   6
ATOM      6  C   UNL     1     -40.125  24.878   6.256  1.00  0.00    -0.025 A 
ATOM      7  C   UNL     1     -40.054  26.279   6.251  1.00  0.00     0.012 A 
ATOM      8  C   UNL     1     -40.034  26.981   5.042  1.00  0.00     0.047 A 
ATOM      9  C   UNL     1     -40.059  26.290   3.826  1.00  0.00     0.115 A 
ATOM     10  C   UNL     1     -40.122  24.186   5.031  1.00  0.00     0.012 A 
ATOM     11  C   UNL     1     -40.100  24.889   3.824  1.00  0.00     0.047 A 
BRANCH   9  12
ATOM     12  O   UNL     1     -40.039  27.003   2.629  1.00  0.00    -0.508 OA
ATOM     13  H   UNL     1     -40.167  28.007   2.610  1.00  0.00     0.293 HD
ENDBRANCH   9  12
ENDBRANCH   5   6
ENDBRANCH   2   4
ENDBRANCH   1   2
BRANCH   1  14
ATOM     14  C   UNL     1     -36.653  24.336   6.674  1.00  0.00     0.163 C 
ATOM     15  O   UNL     1     -36.901  25.569   6.591  1.00  0.00    -0.294 OA
BRANCH  14  16
ATOM     16  C   UNL     1     -35.525  23.843   7.492  1.00  0.00     0.048 C 
ATOM     17  C   UNL     1     -34.300  24.390   7.531  1.00  0.00     0.012 C 
BRANCH  17  18
ATOM     18  C   UNL     1     -33.812  25.458   6.632  1.00  0.00    -0.025 A 
ATOM     19  C   UNL     1     -33.723  26.794   7.062  1.00  0.00     0.012 A 
ATOM     20  C   UNL     1     -33.530  25.150   5.293  1.00  0.00     0.012 A 
ATOM     21  C   UNL     1     -33.306  27.794   6.178  1.00  0.00     0.047 A 
ATOM     22  C   UNL     1     -33.114  26.151   4.410  1.00  0.00     0.047 A 
ATOM     23  C   UNL     1     -32.998  27.475   4.851  1.00  0.00     0.115 A 
BRANCH  23  24
ATOM     24  O   UNL     1     -32.584  28.481   3.981  1.00  0.00    -0.508 OA
ATOM     25  H   UNL     1     -33.151  29.305   3.816  1.00  0.00     0.293 HD
ENDBRANCH  23  24
ENDBRANCH  17  18
ENDBRANCH  14  16
ENDBRANCH   1  14
TORSDOF 8
ENDMDL
