MODEL 1
REMARK VINA RESULT:    -5.987      0.000      0.000
REMARK INTER + INTRA:          -6.434
REMARK INTER:                  -6.337
REMARK INTRA:                  -0.097
REMARK UNBOUND:                -0.097
REMARK SMILES C=C(C)[C@H]1CC=C(C)C(=O)C1
REMARK SMILES IDX 8 1 7 2 6 3 5 4 4 5 11 6 9 7 10 8 2 9 1 10 3 11
REMARK H PARENT
REMARK Flexibility Score: inf
ROOT
ATOM      1  C   UNL     1     -18.254  38.188  16.792  1.00  0.00     0.048 C 
ATOM      2  C   UNL     1     -18.287  37.345  15.548  1.00  0.00    -0.012 C 
ATOM      3  C   UNL     1     -19.417  36.701  15.206  1.00  0.00    -0.019 C 
ATOM      4  C   UNL     1     -19.499  35.829  13.982  1.00  0.00     0.036 C 
ATOM      5  C   UNL     1     -18.592  36.364  12.859  1.00  0.00     0.025 C 
ATOM      6  C   UNL     1     -17.146  36.518  13.367  1.00  0.00     0.089 C 
ATOM      7  C   UNL     1     -17.116  37.325  14.636  1.00  0.00     0.158 C 
ATOM      8  O   UNL     1     -16.068  37.957  14.936  1.00  0.00    -0.295 OA
ENDROOT
BRANCH   5   9
ATOM      9  C   UNL     1     -18.655  35.478  11.622  1.00  0.00    -0.077 C 
ATOM     10  C   UNL     1     -18.509  34.149  11.738  1.00  0.00     0.008 C 
ATOM     11  C   UNL     1     -18.885  36.060  10.248  1.00  0.00     0.039 C 
ENDBRANCH   5   9
TORSDOF 1
ENDMDL
MODEL 2
REMARK VINA RESULT:    -5.986     15.704     17.190
REMARK INTER + INTRA:          -6.433
REMARK INTER:                  -6.345
REMARK INTRA:                  -0.088
REMARK UNBOUND:                -0.097
REMARK SMILES C=C(C)[C@H]1CC=C(C)C(=O)C1
REMARK SMILES IDX 8 1 7 2 6 3 5 4 4 5 11 6 9 7 10 8 2 9 1 10 3 11
REMARK H PARENT
REMARK Flexibility Score: inf
ROOT
ATOM      1  C   UNL     1     -28.311  21.405  16.770  1.00  0.00     0.048 C 
ATOM      2  C   UNL     1     -28.297  22.216  15.504  1.00  0.00    -0.012 C 
ATOM      3  C   UNL     1     -27.167  22.834  15.118  1.00  0.00    -0.019 C 
ATOM      4  C   UNL     1     -27.103  23.673  13.870  1.00  0.00     0.036 C 
ATOM      5  C   UNL     1     -28.046  23.123  12.783  1.00  0.00     0.025 C 
ATOM      6  C   UNL     1     -29.480  23.003  13.331  1.00  0.00     0.089 C 
ATOM      7  C   UNL     1     -29.490  22.229  14.620  1.00  0.00     0.158 C 
ATOM      8  O   UNL     1     -30.539  21.620  14.962  1.00  0.00    -0.295 OA
ENDROOT
BRANCH   5   9
ATOM      9  C   UNL     1     -28.001  23.976  11.523  1.00  0.00    -0.077 C 
ATOM     10  C   UNL     1     -27.891  23.393  10.319  1.00  0.00     0.008 C 
ATOM     11  C   UNL     1     -28.081  25.482  11.589  1.00  0.00     0.039 C 
ENDBRANCH   5   9
TORSDOF 1
ENDMDL
MODEL 3
REMARK VINA RESULT:    -5.899      1.627      4.347
REMARK INTER + INTRA:          -6.341
REMARK INTER:                  -6.244
REMARK INTRA:                  -0.097
REMARK UNBOUND:                -0.097
REMARK SMILES C=C(C)[C@H]1CC=C(C)C(=O)C1
REMARK SMILES IDX 8 1 7 2 6 3 5 4 4 5 11 6 9 7 10 8 2 9 1 10 3 11
REMARK H PARENT
REMARK Flexibility Score: inf
ROOT
ATOM      1  C   UNL     1     -18.886  35.066  11.248  1.00  0.00     0.048 C 
ATOM      2  C   UNL     1     -18.641  36.027  12.378  1.00  0.00    -0.012 C 
ATOM      3  C   UNL     1     -19.253  35.840  13.560  1.00  0.00    -0.019 C 
ATOM      4  C   UNL     1     -19.059  36.782  14.718  1.00  0.00     0.036 C 
ATOM      5  C   UNL     1     -17.639  37.379  14.714  1.00  0.00     0.025 C 
ATOM      6  C   UNL     1     -17.346  38.052  13.360  1.00  0.00     0.089 C 
ATOM      7  C   UNL     1     -17.632  37.106  12.227  1.00  0.00     0.158 C 
ATOM      8  O   UNL     1     -17.030  37.262  11.131  1.00  0.00    -0.295 OA
ENDROOT
BRANCH   5   9
ATOM      9  C   UNL     1     -17.439  38.347  15.872  1.00  0.00    -0.077 C 
ATOM     10  C   UNL     1     -18.118  38.177  17.017  1.00  0.00     0.008 C 
ATOM     11  C   UNL     1     -16.480  39.508  15.769  1.00  0.00     0.039 C 
ENDBRANCH   5   9
TORSDOF 1
ENDMDL
MODEL 4
REMARK VINA RESULT:    -5.838     16.587     18.277
REMARK INTER + INTRA:          -6.276
REMARK INTER:                  -6.178
REMARK INTRA:                  -0.098
REMARK UNBOUND:                -0.097
REMARK SMILES C=C(C)[C@H]1CC=C(C)C(=O)C1
REMARK SMILES IDX 8 1 7 2 6 3 5 4 4 5 11 6 9 7 10 8 2 9 1 10 3 11
REMARK H PARENT
REMARK Flexibility Score: inf
ROOT
ATOM      1  C   UNL     1     -27.752  24.359  11.350  1.00  0.00     0.048 C 
ATOM      2  C   UNL     1     -28.016  23.381  12.460  1.00  0.00    -0.012 C 
ATOM      3  C   UNL     1     -27.461  23.574  13.669  1.00  0.00    -0.019 C 
ATOM      4  C   UNL     1     -27.678  22.616  14.810  1.00  0.00     0.036 C 
ATOM      5  C   UNL     1     -29.078  21.979  14.740  1.00  0.00     0.025 C 
ATOM      6  C   UNL     1     -29.293  21.310  13.370  1.00  0.00     0.089 C 
ATOM      7  C   UNL     1     -28.986  22.275  12.257  1.00  0.00     0.158 C 
ATOM      8  O   UNL     1     -29.536  22.113  11.135  1.00  0.00    -0.295 OA
ENDROOT
BRANCH   5   9
ATOM      9  C   UNL     1     -29.299  20.995  15.880  1.00  0.00    -0.077 C 
ATOM     10  C   UNL     1     -28.558  21.079  16.996  1.00  0.00     0.008 C 
ATOM     11  C   UNL     1     -30.348  19.912  15.792  1.00  0.00     0.039 C 
ENDBRANCH   5   9
TORSDOF 1
ENDMDL
MODEL 5
REMARK VINA RESULT:    -5.799     16.531     18.045
REMARK INTER + INTRA:          -6.234
REMARK INTER:                  -6.138
REMARK INTRA:                  -0.096
REMARK UNBOUND:                -0.097
REMARK SMILES C=C(C)[C@H]1CC=C(C)C(=O)C1
REMARK SMILES IDX 8 1 7 2 6 3 5 4 4 5 11 6 9 7 10 8 2 9 1 10 3 11
REMARK H PARENT
REMARK Flexibility Score: inf
ROOT
ATOM      1  C   UNL     1     -26.145  23.413  15.226  1.00  0.00     0.048 C 
ATOM      2  C   UNL     1     -27.329  22.807  14.526  1.00  0.00    -0.012 C 
ATOM      3  C   UNL     1     -27.856  21.655  14.976  1.00  0.00    -0.019 C 
ATOM      4  C   UNL     1     -29.029  20.995  14.301  1.00  0.00     0.036 C 
ATOM      5  C   UNL     1     -29.976  22.043  13.687  1.00  0.00     0.025 C 
ATOM      6  C   UNL     1     -29.201  22.970  12.732  1.00  0.00     0.089 C 
ATOM      7  C   UNL     1     -27.991  23.543  13.418  1.00  0.00     0.158 C 
ATOM      8  O   UNL     1     -27.521  24.641  13.018  1.00  0.00    -0.295 OA
ENDROOT
BRANCH   5   9
ATOM      9  C   UNL     1     -31.156  21.385  12.986  1.00  0.00    -0.077 C 
ATOM     10  C   UNL     1     -32.026  22.131  12.287  1.00  0.00     0.008 C 
ATOM     11  C   UNL     1     -31.379  19.893  13.054  1.00  0.00     0.039 C 
ENDBRANCH   5   9
TORSDOF 1
ENDMDL
MODEL 6
REMARK VINA RESULT:    -5.792     15.802     16.766
REMARK INTER + INTRA:          -6.227
REMARK INTER:                  -6.140
REMARK INTRA:                  -0.087
REMARK UNBOUND:                -0.097
REMARK SMILES C=C(C)[C@H]1CC=C(C)C(=O)C1
REMARK SMILES IDX 8 1 7 2 6 3 5 4 4 5 11 6 9 7 10 8 2 9 1 10 3 11
REMARK H PARENT
REMARK Flexibility Score: inf
ROOT
ATOM      1  C   UNL     1     -28.257  21.742  16.755  1.00  0.00     0.048 C 
ATOM      2  C   UNL     1     -28.255  22.232  15.333  1.00  0.00    -0.012 C 
ATOM      3  C   UNL     1     -29.339  22.048  14.560  1.00  0.00    -0.019 C 
ATOM      4  C   UNL     1     -29.383  22.502  13.126  1.00  0.00     0.036 C 
ATOM      5  C   UNL     1     -28.545  23.779  12.922  1.00  0.00     0.025 C 
ATOM      6  C   UNL     1     -27.105  23.557  13.419  1.00  0.00     0.089 C 
ATOM      7  C   UNL     1     -27.107  23.025  14.826  1.00  0.00     0.158 C 
ATOM      8  O   UNL     1     -26.104  23.230  15.561  1.00  0.00    -0.295 OA
ENDROOT
BRANCH   5   9
ATOM      9  C   UNL     1     -28.569  24.235  11.470  1.00  0.00    -0.077 C 
ATOM     10  C   UNL     1     -29.106  25.422  11.146  1.00  0.00     0.008 C 
ATOM     11  C   UNL     1     -27.995  23.380  10.367  1.00  0.00     0.039 C 
ENDBRANCH   5   9
TORSDOF 1
ENDMDL
MODEL 7
REMARK VINA RESULT:    -5.757     16.418     17.912
REMARK INTER + INTRA:          -6.191
REMARK INTER:                  -6.094
REMARK INTRA:                  -0.096
REMARK UNBOUND:                -0.097
REMARK SMILES C=C(C)[C@H]1CC=C(C)C(=O)C1
REMARK SMILES IDX 8 1 7 2 6 3 5 4 4 5 11 6 9 7 10 8 2 9 1 10 3 11
REMARK H PARENT
REMARK Flexibility Score: inf
ROOT
ATOM      1  C   UNL     1     -30.411  20.018  16.388  1.00  0.00     0.048 C 
ATOM      2  C   UNL     1     -29.673  20.908  15.426  1.00  0.00    -0.012 C 
ATOM      3  C   UNL     1     -30.076  20.989  14.146  1.00  0.00    -0.019 C 
ATOM      4  C   UNL     1     -29.362  21.850  13.138  1.00  0.00     0.036 C 
ATOM      5  C   UNL     1     -28.772  23.108  13.802  1.00  0.00     0.025 C 
ATOM      6  C   UNL     1     -27.861  22.713  14.980  1.00  0.00     0.089 C 
ATOM      7  C   UNL     1     -28.584  21.787  15.919  1.00  0.00     0.158 C 
ATOM      8  O   UNL     1     -28.229  21.740  17.127  1.00  0.00    -0.295 OA
ENDROOT
BRANCH   5   9
ATOM      9  C   UNL     1     -28.032  23.975  12.794  1.00  0.00    -0.077 C 
ATOM     10  C   UNL     1     -26.997  23.472  12.104  1.00  0.00     0.008 C 
ATOM     11  C   UNL     1     -28.439  25.407  12.540  1.00  0.00     0.039 C 
ENDBRANCH   5   9
TORSDOF 1
ENDMDL
MODEL 8
REMARK VINA RESULT:    -5.743      1.557      2.151
REMARK INTER + INTRA:          -6.176
REMARK INTER:                  -6.089
REMARK INTRA:                  -0.087
REMARK UNBOUND:                -0.097
REMARK SMILES C=C(C)[C@H]1CC=C(C)C(=O)C1
REMARK SMILES IDX 8 1 7 2 6 3 5 4 4 5 11 6 9 7 10 8 2 9 1 10 3 11
REMARK H PARENT
REMARK Flexibility Score: inf
ROOT
ATOM      1  C   UNL     1     -18.386  37.868  16.690  1.00  0.00     0.048 C 
ATOM      2  C   UNL     1     -18.406  37.375  15.270  1.00  0.00    -0.012 C 
ATOM      3  C   UNL     1     -17.352  37.603  14.466  1.00  0.00    -0.019 C 
ATOM      4  C   UNL     1     -17.328  37.147  13.032  1.00  0.00     0.036 C 
ATOM      5  C   UNL     1     -18.116  35.836  12.854  1.00  0.00     0.025 C 
ATOM      6  C   UNL     1     -19.550  35.996  13.390  1.00  0.00     0.089 C 
ATOM      7  C   UNL     1     -19.532  36.531  14.795  1.00  0.00     0.158 C 
ATOM      8  O   UNL     1     -20.504  36.285  15.558  1.00  0.00    -0.295 OA
ENDROOT
BRANCH   5   9
ATOM      9  C   UNL     1     -18.112  35.377  11.402  1.00  0.00    -0.077 C 
ATOM     10  C   UNL     1     -17.554  34.203  11.068  1.00  0.00     0.008 C 
ATOM     11  C   UNL     1     -18.731  36.216  10.310  1.00  0.00     0.039 C 
ENDBRANCH   5   9
TORSDOF 1
ENDMDL
MODEL 9
REMARK VINA RESULT:    -5.721      1.806      3.150
REMARK INTER + INTRA:          -6.153
REMARK INTER:                  -6.054
REMARK INTRA:                  -0.099
REMARK UNBOUND:                -0.097
REMARK SMILES C=C(C)[C@H]1CC=C(C)C(=O)C1
REMARK SMILES IDX 8 1 7 2 6 3 5 4 4 5 11 6 9 7 10 8 2 9 1 10 3 11
REMARK H PARENT
REMARK Flexibility Score: inf
ROOT
ATOM      1  C   UNL     1     -20.750  36.032  15.251  1.00  0.00     0.048 C 
ATOM      2  C   UNL     1     -19.415  36.373  14.650  1.00  0.00    -0.012 C 
ATOM      3  C   UNL     1     -19.154  36.051  13.371  1.00  0.00    -0.019 C 
ATOM      4  C   UNL     1     -17.828  36.353  12.726  1.00  0.00     0.036 C 
ATOM      5  C   UNL     1     -17.217  37.647  13.295  1.00  0.00     0.025 C 
ATOM      6  C   UNL     1     -17.111  37.559  14.829  1.00  0.00     0.089 C 
ATOM      7  C   UNL     1     -18.436  37.174  15.428  1.00  0.00     0.158 C 
ATOM      8  O   UNL     1     -18.693  37.509  16.616  1.00  0.00    -0.295 OA
ENDROOT
BRANCH   5   9
ATOM      9  C   UNL     1     -15.867  37.950  12.661  1.00  0.00    -0.077 C 
ATOM     10  C   UNL     1     -15.292  37.058  11.839  1.00  0.00     0.008 C 
ATOM     11  C   UNL     1     -15.144  39.248  12.931  1.00  0.00     0.039 C 
ENDBRANCH   5   9
TORSDOF 1
ENDMDL
