MODEL 1
REMARK VINA RESULT:    15.300      0.000      0.000
REMARK INTER + INTRA:          39.029
REMARK INTER:                  40.344
REMARK INTRA:                  -1.315
REMARK UNBOUND:                -1.315
REMARK SMILES CCCCCCCCCCCCCCCCCCCCCCCCCCCCCC(=O)[O-]
REMARK SMILES IDX 16 1 17 2 18 3 19 4 20 5 21 6 22 7 23 8 24 9 25 10 26 11
REMARK SMILES IDX 27 12 28 13 29 14 30 15 31 16 32 17 15 18 14 19 13 20 12 21
REMARK SMILES IDX 11 22 10 23 9 24 8 25 7 26 6 27 5 28 4 29 3 30 2 31 1 32
REMARK H PARENT
REMARK Flexibility Score: inf
ROOT
ATOM      1  C   UNL     1      14.753  30.946  50.139  1.00  0.00     0.000 C 
ENDROOT
BRANCH   1   2
ATOM      2  C   UNL     1      13.976  29.856  50.904  1.00  0.00     0.000 C 
BRANCH   2   3
ATOM      3  C   UNL     1      13.146  28.910  50.017  1.00  0.00     0.000 C 
BRANCH   3   4
ATOM      4  C   UNL     1      13.611  27.437  50.071  1.00  0.00     0.000 C 
BRANCH   4   5
ATOM      5  C   UNL     1      14.337  27.097  51.384  1.00  0.00     0.000 C 
BRANCH   5   6
ATOM      6  C   UNL     1      14.203  25.606  51.757  1.00  0.00     0.000 C 
BRANCH   6   7
ATOM      7  C   UNL     1      15.189  24.692  51.008  1.00  0.00     0.000 C 
BRANCH   7   8
ATOM      8  C   UNL     1      14.543  23.380  50.537  1.00  0.00     0.000 C 
BRANCH   8   9
ATOM      9  C   UNL     1      15.429  22.155  50.814  1.00  0.00     0.000 C 
BRANCH   9  10
ATOM     10  C   UNL     1      16.808  22.261  50.141  1.00  0.00     0.000 C 
BRANCH  10  11
ATOM     11  C   UNL     1      17.140  21.037  49.269  1.00  0.00     0.000 C 
BRANCH  11  12
ATOM     12  C   UNL     1      18.067  19.998  49.932  1.00  0.00     0.000 C 
BRANCH  12  13
ATOM     13  C   UNL     1      19.566  20.363  49.931  1.00  0.00     0.006 C 
BRANCH  13  14
ATOM     14  C   UNL     1      20.334  19.899  51.179  1.00  0.00     0.053 C 
BRANCH  14  15
ATOM     15  C   UNL     1      21.469  20.818  51.511  1.00  0.00     0.041 C 
ATOM     16  O   UNL     1      21.841  20.960  52.705  1.00  0.00    -0.550 OA
ATOM     17  O   UNL     1      22.135  21.497  50.498  1.00  0.00    -0.550 OA
ENDBRANCH  14  15
ENDBRANCH  13  14
ENDBRANCH  12  13
ENDBRANCH  11  12
ENDBRANCH  10  11
ENDBRANCH   9  10
ENDBRANCH   8   9
ENDBRANCH   7   8
ENDBRANCH   6   7
ENDBRANCH   5   6
ENDBRANCH   4   5
ENDBRANCH   3   4
ENDBRANCH   2   3
ENDBRANCH   1   2
BRANCH   1  18
ATOM     18  C   UNL     1      15.824  31.682  50.970  1.00  0.00     0.000 C 
BRANCH  18  19
ATOM     19  C   UNL     1      15.820  33.218  50.832  1.00  0.00     0.000 C 
BRANCH  19  20
ATOM     20  C   UNL     1      15.265  33.758  49.501  1.00  0.00     0.000 C 
BRANCH  20  21
ATOM     21  C   UNL     1      14.884  35.246  49.569  1.00  0.00     0.000 C 
BRANCH  21  22
ATOM     22  C   UNL     1      13.938  35.671  48.433  1.00  0.00     0.000 C 
BRANCH  22  23
ATOM     23  C   UNL     1      13.800  37.201  48.276  1.00  0.00     0.000 C 
BRANCH  23  24
ATOM     24  C   UNL     1      13.192  37.596  46.919  1.00  0.00    -0.000 C 
BRANCH  24  25
ATOM     25  C   UNL     1      13.610  39.005  46.461  1.00  0.00    -0.000 C 
BRANCH  25  26
ATOM     26  C   UNL     1      14.493  39.787  47.457  1.00  0.00    -0.000 C 
BRANCH  26  27
ATOM     27  C   UNL     1      15.993  39.822  47.116  1.00  0.00    -0.000 C 
BRANCH  27  28
ATOM     28  C   UNL     1      16.653  38.437  47.171  1.00  0.00    -0.000 C 
BRANCH  28  29
ATOM     29  C   UNL     1      17.576  38.223  45.963  1.00  0.00    -0.000 C 
BRANCH  29  30
ATOM     30  C   UNL     1      18.834  37.406  46.306  1.00  0.00    -0.000 C 
BRANCH  30  31
ATOM     31  C   UNL     1      19.915  38.175  47.086  1.00  0.00    -0.003 C 
ATOM     32  C   UNL     1      19.997  39.652  46.702  1.00  0.00     0.004 C 
ENDBRANCH  30  31
ENDBRANCH  29  30
ENDBRANCH  28  29
ENDBRANCH  27  28
ENDBRANCH  26  27
ENDBRANCH  25  26
ENDBRANCH  24  25
ENDBRANCH  23  24
ENDBRANCH  22  23
ENDBRANCH  21  22
ENDBRANCH  20  21
ENDBRANCH  19  20
ENDBRANCH  18  19
ENDBRANCH   1  18
TORSDOF 28
ENDMDL
MODEL 2
REMARK VINA RESULT:    15.554      2.087      2.802
REMARK INTER + INTRA:          39.700
REMARK INTER:                  40.150
REMARK INTRA:                  -0.451
REMARK UNBOUND:                -1.315
REMARK SMILES CCCCCCCCCCCCCCCCCCCCCCCCCCCCCC(=O)[O-]
REMARK SMILES IDX 16 1 17 2 18 3 19 4 20 5 21 6 22 7 23 8 24 9 25 10 26 11
REMARK SMILES IDX 27 12 28 13 29 14 30 15 31 16 32 17 15 18 14 19 13 20 12 21
REMARK SMILES IDX 11 22 10 23 9 24 8 25 7 26 6 27 5 28 4 29 3 30 2 31 1 32
REMARK H PARENT
REMARK Flexibility Score: inf
ROOT
ATOM      1  C   UNL     1      16.119  32.185  50.742  1.00  0.00     0.000 C 
ENDROOT
BRANCH   1   2
ATOM      2  C   UNL     1      15.648  30.822  51.285  1.00  0.00     0.000 C 
BRANCH   2   3
ATOM      3  C   UNL     1      14.258  30.375  50.796  1.00  0.00     0.000 C 
BRANCH   3   4
ATOM      4  C   UNL     1      14.110  28.844  50.655  1.00  0.00     0.000 C 
BRANCH   4   5
ATOM      5  C   UNL     1      13.145  28.247  51.693  1.00  0.00     0.000 C 
BRANCH   5   6
ATOM      6  C   UNL     1      13.527  26.804  52.086  1.00  0.00     0.000 C 
BRANCH   6   7
ATOM      7  C   UNL     1      14.825  26.309  51.425  1.00  0.00     0.000 C 
BRANCH   7   8
ATOM      8  C   UNL     1      14.906  24.776  51.348  1.00  0.00     0.000 C 
BRANCH   8   9
ATOM      9  C   UNL     1      16.098  24.291  50.507  1.00  0.00     0.000 C 
BRANCH   9  10
ATOM     10  C   UNL     1      16.393  22.795  50.711  1.00  0.00     0.000 C 
BRANCH  10  11
ATOM     11  C   UNL     1      17.207  22.187  49.556  1.00  0.00     0.000 C 
BRANCH  11  12
ATOM     12  C   UNL     1      17.312  20.648  49.572  1.00  0.00     0.000 C 
BRANCH  12  13
ATOM     13  C   UNL     1      17.080  19.991  50.949  1.00  0.00     0.006 C 
BRANCH  13  14
ATOM     14  C   UNL     1      15.603  19.875  51.356  1.00  0.00     0.053 C 
BRANCH  14  15
ATOM     15  C   UNL     1      15.429  19.896  52.844  1.00  0.00     0.041 C 
ATOM     16  O   UNL     1      16.436  19.895  53.600  1.00  0.00    -0.550 OA
ATOM     17  O   UNL     1      14.154  19.942  53.396  1.00  0.00    -0.550 OA
ENDBRANCH  14  15
ENDBRANCH  13  14
ENDBRANCH  12  13
ENDBRANCH  11  12
ENDBRANCH  10  11
ENDBRANCH   9  10
ENDBRANCH   8   9
ENDBRANCH   7   8
ENDBRANCH   6   7
ENDBRANCH   5   6
ENDBRANCH   4   5
ENDBRANCH   3   4
ENDBRANCH   2   3
ENDBRANCH   1   2
BRANCH   1  18
ATOM     18  C   UNL     1      15.045  32.982  49.973  1.00  0.00     0.000 C 
BRANCH  18  19
ATOM     19  C   UNL     1      15.245  34.511  49.962  1.00  0.00     0.000 C 
BRANCH  19  20
ATOM     20  C   UNL     1      15.003  35.197  48.606  1.00  0.00     0.000 C 
BRANCH  20  21
ATOM     21  C   UNL     1      13.581  34.972  48.065  1.00  0.00     0.000 C 
BRANCH  21  22
ATOM     22  C   UNL     1      12.827  36.288  47.804  1.00  0.00     0.000 C 
BRANCH  22  23
ATOM     23  C   UNL     1      13.742  37.531  47.766  1.00  0.00     0.000 C 
BRANCH  23  24
ATOM     24  C   UNL     1      13.140  38.672  46.928  1.00  0.00    -0.000 C 
BRANCH  24  25
ATOM     25  C   UNL     1      14.063  39.901  46.834  1.00  0.00    -0.000 C 
BRANCH  25  26
ATOM     26  C   UNL     1      15.342  39.702  45.994  1.00  0.00    -0.000 C 
BRANCH  26  27
ATOM     27  C   UNL     1      15.951  38.290  46.048  1.00  0.00    -0.000 C 
BRANCH  27  28
ATOM     28  C   UNL     1      17.470  38.284  45.827  1.00  0.00    -0.000 C 
BRANCH  28  29
ATOM     29  C   UNL     1      18.206  38.782  47.079  1.00  0.00    -0.000 C 
BRANCH  29  30
ATOM     30  C   UNL     1      19.732  38.851  46.890  1.00  0.00    -0.000 C 
BRANCH  30  31
ATOM     31  C   UNL     1      20.498  37.592  47.333  1.00  0.00    -0.003 C 
ATOM     32  C   UNL     1      20.080  36.335  46.571  1.00  0.00     0.004 C 
ENDBRANCH  30  31
ENDBRANCH  29  30
ENDBRANCH  28  29
ENDBRANCH  27  28
ENDBRANCH  26  27
ENDBRANCH  25  26
ENDBRANCH  24  25
ENDBRANCH  23  24
ENDBRANCH  22  23
ENDBRANCH  21  22
ENDBRANCH  20  21
ENDBRANCH  19  20
ENDBRANCH  18  19
ENDBRANCH   1  18
TORSDOF 28
ENDMDL
MODEL 3
REMARK VINA RESULT:    15.579      3.756     13.957
REMARK INTER + INTRA:          39.765
REMARK INTER:                  40.917
REMARK INTRA:                  -1.152
REMARK UNBOUND:                -1.315
REMARK SMILES CCCCCCCCCCCCCCCCCCCCCCCCCCCCCC(=O)[O-]
REMARK SMILES IDX 16 1 17 2 18 3 19 4 20 5 21 6 22 7 23 8 24 9 25 10 26 11
REMARK SMILES IDX 27 12 28 13 29 14 30 15 31 16 32 17 15 18 14 19 13 20 12 21
REMARK SMILES IDX 11 22 10 23 9 24 8 25 7 26 6 27 5 28 4 29 3 30 2 31 1 32
REMARK H PARENT
REMARK Flexibility Score: inf
ROOT
ATOM      1  C   UNL     1      14.935  34.768  49.384  1.00  0.00     0.000 C 
ENDROOT
BRANCH   1   2
ATOM      2  C   UNL     1      13.643  34.509  48.585  1.00  0.00     0.000 C 
BRANCH   2   3
ATOM      3  C   UNL     1      13.361  35.525  47.462  1.00  0.00     0.000 C 
BRANCH   3   4
ATOM      4  C   UNL     1      13.670  36.987  47.855  1.00  0.00     0.000 C 
BRANCH   4   5
ATOM      5  C   UNL     1      12.967  38.004  46.938  1.00  0.00     0.000 C 
BRANCH   5   6
ATOM      6  C   UNL     1      13.922  39.118  46.461  1.00  0.00     0.000 C 
BRANCH   6   7
ATOM      7  C   UNL     1      14.816  39.685  47.577  1.00  0.00     0.000 C 
BRANCH   7   8
ATOM      8  C   UNL     1      16.167  38.959  47.683  1.00  0.00     0.000 C 
BRANCH   8   9
ATOM      9  C   UNL     1      16.577  38.283  46.365  1.00  0.00     0.000 C 
BRANCH   9  10
ATOM     10  C   UNL     1      18.006  38.654  45.933  1.00  0.00     0.000 C 
BRANCH  10  11
ATOM     11  C   UNL     1      18.999  38.664  47.109  1.00  0.00     0.000 C 
BRANCH  11  12
ATOM     12  C   UNL     1      20.110  37.597  47.032  1.00  0.00     0.000 C 
BRANCH  12  13
ATOM     13  C   UNL     1      19.764  36.351  46.191  1.00  0.00     0.006 C 
BRANCH  13  14
ATOM     14  C   UNL     1      20.445  36.304  44.814  1.00  0.00     0.053 C 
BRANCH  14  15
ATOM     15  C   UNL     1      20.853  34.913  44.438  1.00  0.00     0.041 C 
ATOM     16  O   UNL     1      20.828  33.991  45.295  1.00  0.00    -0.550 OA
ATOM     17  O   UNL     1      21.237  34.629  43.133  1.00  0.00    -0.550 OA
ENDBRANCH  14  15
ENDBRANCH  13  14
ENDBRANCH  12  13
ENDBRANCH  11  12
ENDBRANCH  10  11
ENDBRANCH   9  10
ENDBRANCH   8   9
ENDBRANCH   7   8
ENDBRANCH   6   7
ENDBRANCH   5   6
ENDBRANCH   4   5
ENDBRANCH   3   4
ENDBRANCH   2   3
ENDBRANCH   1   2
BRANCH   1  18
ATOM     18  C   UNL     1      15.585  33.508  49.991  1.00  0.00     0.000 C 
BRANCH  18  19
ATOM     19  C   UNL     1      14.736  32.223  49.901  1.00  0.00     0.000 C 
BRANCH  19  20
ATOM     20  C   UNL     1      15.207  31.060  50.792  1.00  0.00     0.000 C 
BRANCH  20  21
ATOM     21  C   UNL     1      14.073  30.088  51.160  1.00  0.00     0.000 C 
BRANCH  21  22
ATOM     22  C   UNL     1      13.916  28.943  50.144  1.00  0.00     0.000 C 
BRANCH  22  23
ATOM     23  C   UNL     1      13.326  27.651  50.749  1.00  0.00     0.000 C 
BRANCH  23  24
ATOM     24  C   UNL     1      14.403  26.772  51.410  1.00  0.00    -0.000 C 
BRANCH  24  25
ATOM     25  C   UNL     1      14.484  25.362  50.800  1.00  0.00    -0.000 C 
BRANCH  25  26
ATOM     26  C   UNL     1      15.752  24.559  51.162  1.00  0.00    -0.000 C 
BRANCH  26  27
ATOM     27  C   UNL     1      15.558  23.036  51.261  1.00  0.00    -0.000 C 
BRANCH  27  28
ATOM     28  C   UNL     1      16.473  22.252  50.309  1.00  0.00    -0.000 C 
BRANCH  28  29
ATOM     29  C   UNL     1      16.751  20.844  50.854  1.00  0.00    -0.000 C 
BRANCH  29  30
ATOM     30  C   UNL     1      17.674  20.018  49.940  1.00  0.00    -0.000 C 
BRANCH  30  31
ATOM     31  C   UNL     1      19.054  20.647  49.672  1.00  0.00    -0.003 C 
ATOM     32  C   UNL     1      20.165  20.049  50.535  1.00  0.00     0.004 C 
ENDBRANCH  30  31
ENDBRANCH  29  30
ENDBRANCH  28  29
ENDBRANCH  27  28
ENDBRANCH  26  27
ENDBRANCH  25  26
ENDBRANCH  24  25
ENDBRANCH  23  24
ENDBRANCH  22  23
ENDBRANCH  21  22
ENDBRANCH  20  21
ENDBRANCH  19  20
ENDBRANCH  18  19
ENDBRANCH   1  18
TORSDOF 28
ENDMDL
MODEL 4
REMARK VINA RESULT:    15.870      4.097     14.516
REMARK INTER + INTRA:          40.533
REMARK INTER:                  42.528
REMARK INTRA:                  -1.995
REMARK UNBOUND:                -1.315
REMARK SMILES CCCCCCCCCCCCCCCCCCCCCCCCCCCCCC(=O)[O-]
REMARK SMILES IDX 16 1 17 2 18 3 19 4 20 5 21 6 22 7 23 8 24 9 25 10 26 11
REMARK SMILES IDX 27 12 28 13 29 14 30 15 31 16 32 17 15 18 14 19 13 20 12 21
REMARK SMILES IDX 11 22 10 23 9 24 8 25 7 26 6 27 5 28 4 29 3 30 2 31 1 32
REMARK H PARENT
REMARK Flexibility Score: inf
ROOT
ATOM      1  C   UNL     1      15.448  31.662  50.346  1.00  0.00     0.000 C 
ENDROOT
BRANCH   1   2
ATOM      2  C   UNL     1      15.481  32.805  51.379  1.00  0.00     0.000 C 
BRANCH   2   3
ATOM      3  C   UNL     1      15.580  34.220  50.777  1.00  0.00     0.000 C 
BRANCH   3   4
ATOM      4  C   UNL     1      15.255  34.278  49.268  1.00  0.00     0.000 C 
BRANCH   4   5
ATOM      5  C   UNL     1      15.008  35.714  48.774  1.00  0.00     0.000 C 
BRANCH   5   6
ATOM      6  C   UNL     1      13.709  35.834  47.950  1.00  0.00     0.000 C 
BRANCH   6   7
ATOM      7  C   UNL     1      13.414  37.265  47.468  1.00  0.00     0.000 C 
BRANCH   7   8
ATOM      8  C   UNL     1      14.016  38.339  48.389  1.00  0.00     0.000 C 
BRANCH   8   9
ATOM      9  C   UNL     1      14.538  39.557  47.611  1.00  0.00     0.000 C 
BRANCH   9  10
ATOM     10  C   UNL     1      14.672  39.279  46.103  1.00  0.00     0.000 C 
BRANCH  10  11
ATOM     11  C   UNL     1      16.132  39.073  45.665  1.00  0.00     0.000 C 
BRANCH  11  12
ATOM     12  C   UNL     1      16.915  38.024  46.482  1.00  0.00     0.000 C 
BRANCH  12  13
ATOM     13  C   UNL     1      18.324  38.463  46.933  1.00  0.00     0.006 C 
BRANCH  13  14
ATOM     14  C   UNL     1      19.454  38.046  45.979  1.00  0.00     0.053 C 
BRANCH  14  15
ATOM     15  C   UNL     1      20.024  36.708  46.337  1.00  0.00     0.041 C 
ATOM     16  O   UNL     1      20.518  36.514  47.478  1.00  0.00    -0.550 OA
ATOM     17  O   UNL     1      19.987  35.667  45.417  1.00  0.00    -0.550 OA
ENDBRANCH  14  15
ENDBRANCH  13  14
ENDBRANCH  12  13
ENDBRANCH  11  12
ENDBRANCH  10  11
ENDBRANCH   9  10
ENDBRANCH   8   9
ENDBRANCH   7   8
ENDBRANCH   6   7
ENDBRANCH   5   6
ENDBRANCH   4   5
ENDBRANCH   3   4
ENDBRANCH   2   3
ENDBRANCH   1   2
BRANCH   1  18
ATOM     18  C   UNL     1      14.087  30.950  50.211  1.00  0.00     0.000 C 
BRANCH  18  19
ATOM     19  C   UNL     1      14.074  29.470  50.649  1.00  0.00     0.000 C 
BRANCH  19  20
ATOM     20  C   UNL     1      13.088  28.567  49.887  1.00  0.00     0.000 C 
BRANCH  20  21
ATOM     21  C   UNL     1      13.314  27.070  50.156  1.00  0.00     0.000 C 
BRANCH  21  22
ATOM     22  C   UNL     1      14.297  26.815  51.312  1.00  0.00     0.000 C 
BRANCH  22  23
ATOM     23  C   UNL     1      14.490  25.320  51.647  1.00  0.00     0.000 C 
BRANCH  23  24
ATOM     24  C   UNL     1      15.196  24.555  50.514  1.00  0.00    -0.000 C 
BRANCH  24  25
ATOM     25  C   UNL     1      15.975  23.326  51.014  1.00  0.00    -0.000 C 
BRANCH  25  26
ATOM     26  C   UNL     1      15.160  22.018  51.100  1.00  0.00    -0.000 C 
BRANCH  26  27
ATOM     27  C   UNL     1      15.692  20.977  52.100  1.00  0.00    -0.000 C 
BRANCH  27  28
ATOM     28  C   UNL     1      16.571  19.905  51.438  1.00  0.00    -0.000 C 
BRANCH  28  29
ATOM     29  C   UNL     1      18.039  20.071  51.852  1.00  0.00    -0.000 C 
BRANCH  29  30
ATOM     30  C   UNL     1      19.018  19.877  50.680  1.00  0.00    -0.000 C 
BRANCH  30  31
ATOM     31  C   UNL     1      18.923  20.940  49.571  1.00  0.00    -0.003 C 
ATOM     32  C   UNL     1      18.114  20.475  48.361  1.00  0.00     0.004 C 
ENDBRANCH  30  31
ENDBRANCH  29  30
ENDBRANCH  28  29
ENDBRANCH  27  28
ENDBRANCH  26  27
ENDBRANCH  25  26
ENDBRANCH  24  25
ENDBRANCH  23  24
ENDBRANCH  22  23
ENDBRANCH  21  22
ENDBRANCH  20  21
ENDBRANCH  19  20
ENDBRANCH  18  19
ENDBRANCH   1  18
TORSDOF 28
ENDMDL
MODEL 5
REMARK VINA RESULT:    15.970      1.221      1.992
REMARK INTER + INTRA:          40.797
REMARK INTER:                  42.192
REMARK INTRA:                  -1.395
REMARK UNBOUND:                -1.315
REMARK SMILES CCCCCCCCCCCCCCCCCCCCCCCCCCCCCC(=O)[O-]
REMARK SMILES IDX 16 1 17 2 18 3 19 4 20 5 21 6 22 7 23 8 24 9 25 10 26 11
REMARK SMILES IDX 27 12 28 13 29 14 30 15 31 16 32 17 15 18 14 19 13 20 12 21
REMARK SMILES IDX 11 22 10 23 9 24 8 25 7 26 6 27 5 28 4 29 3 30 2 31 1 32
REMARK H PARENT
REMARK Flexibility Score: inf
ROOT
ATOM      1  C   UNL     1      16.047  32.465  50.296  1.00  0.00     0.000 C 
ENDROOT
BRANCH   1   2
ATOM      2  C   UNL     1      15.536  31.295  51.158  1.00  0.00     0.000 C 
BRANCH   2   3
ATOM      3  C   UNL     1      14.284  30.585  50.608  1.00  0.00     0.000 C 
BRANCH   3   4
ATOM      4  C   UNL     1      13.689  29.536  51.574  1.00  0.00     0.000 C 
BRANCH   4   5
ATOM      5  C   UNL     1      13.312  28.226  50.861  1.00  0.00     0.000 C 
BRANCH   5   6
ATOM      6  C   UNL     1      13.731  26.979  51.668  1.00  0.00     0.000 C 
BRANCH   6   7
ATOM      7  C   UNL     1      14.741  26.081  50.933  1.00  0.00     0.000 C 
BRANCH   7   8
ATOM      8  C   UNL     1      15.071  24.797  51.712  1.00  0.00     0.000 C 
BRANCH   8   9
ATOM      9  C   UNL     1      15.032  23.543  50.824  1.00  0.00     0.000 C 
BRANCH   9  10
ATOM     10  C   UNL     1      16.033  22.468  51.279  1.00  0.00     0.000 C 
BRANCH  10  11
ATOM     11  C   UNL     1      15.341  21.214  51.843  1.00  0.00     0.000 C 
BRANCH  11  12
ATOM     12  C   UNL     1      16.003  19.875  51.455  1.00  0.00     0.000 C 
BRANCH  12  13
ATOM     13  C   UNL     1      17.172  19.989  50.454  1.00  0.00     0.006 C 
BRANCH  13  14
ATOM     14  C   UNL     1      18.560  20.080  51.106  1.00  0.00     0.053 C 
BRANCH  14  15
ATOM     15  C   UNL     1      19.640  20.309  50.094  1.00  0.00     0.041 C 
ATOM     16  O   UNL     1      19.383  20.233  48.864  1.00  0.00    -0.550 OA
ATOM     17  O   UNL     1      20.926  20.634  50.510  1.00  0.00    -0.550 OA
ENDBRANCH  14  15
ENDBRANCH  13  14
ENDBRANCH  12  13
ENDBRANCH  11  12
ENDBRANCH  10  11
ENDBRANCH   9  10
ENDBRANCH   8   9
ENDBRANCH   7   8
ENDBRANCH   6   7
ENDBRANCH   5   6
ENDBRANCH   4   5
ENDBRANCH   3   4
ENDBRANCH   2   3
ENDBRANCH   1   2
BRANCH   1  18
ATOM     18  C   UNL     1      14.981  33.521  49.938  1.00  0.00     0.000 C 
BRANCH  18  19
ATOM     19  C   UNL     1      15.493  34.975  49.869  1.00  0.00     0.000 C 
BRANCH  19  20
ATOM     20  C   UNL     1      15.191  35.717  48.555  1.00  0.00     0.000 C 
BRANCH  20  21
ATOM     21  C   UNL     1      13.879  35.261  47.895  1.00  0.00     0.000 C 
BRANCH  21  22
ATOM     22  C   UNL     1      12.863  36.405  47.736  1.00  0.00     0.000 C 
BRANCH  22  23
ATOM     23  C   UNL     1      13.359  37.556  46.834  1.00  0.00     0.000 C 
BRANCH  23  24
ATOM     24  C   UNL     1      12.615  38.875  47.111  1.00  0.00    -0.000 C 
BRANCH  24  25
ATOM     25  C   UNL     1      13.476  40.120  46.830  1.00  0.00    -0.000 C 
BRANCH  25  26
ATOM     26  C   UNL     1      14.600  39.923  45.790  1.00  0.00    -0.000 C 
BRANCH  26  27
ATOM     27  C   UNL     1      15.965  39.512  46.370  1.00  0.00    -0.000 C 
BRANCH  27  28
ATOM     28  C   UNL     1      16.831  38.734  45.368  1.00  0.00    -0.000 C 
BRANCH  28  29
ATOM     29  C   UNL     1      17.666  37.663  46.084  1.00  0.00    -0.000 C 
BRANCH  29  30
ATOM     30  C   UNL     1      18.335  38.185  47.368  1.00  0.00    -0.000 C 
BRANCH  30  31
ATOM     31  C   UNL     1      19.602  39.030  47.144  1.00  0.00    -0.003 C 
ATOM     32  C   UNL     1      20.420  38.576  45.935  1.00  0.00     0.004 C 
ENDBRANCH  30  31
ENDBRANCH  29  30
ENDBRANCH  28  29
ENDBRANCH  27  28
ENDBRANCH  26  27
ENDBRANCH  25  26
ENDBRANCH  24  25
ENDBRANCH  23  24
ENDBRANCH  22  23
ENDBRANCH  21  22
ENDBRANCH  20  21
ENDBRANCH  19  20
ENDBRANCH  18  19
ENDBRANCH   1  18
TORSDOF 28
ENDMDL
MODEL 6
REMARK VINA RESULT:    16.197      5.153      7.351
REMARK INTER + INTRA:          41.396
REMARK INTER:                  41.733
REMARK INTRA:                  -0.337
REMARK UNBOUND:                -1.315
REMARK SMILES CCCCCCCCCCCCCCCCCCCCCCCCCCCCCC(=O)[O-]
REMARK SMILES IDX 16 1 17 2 18 3 19 4 20 5 21 6 22 7 23 8 24 9 25 10 26 11
REMARK SMILES IDX 27 12 28 13 29 14 30 15 31 16 32 17 15 18 14 19 13 20 12 21
REMARK SMILES IDX 11 22 10 23 9 24 8 25 7 26 6 27 5 28 4 29 3 30 2 31 1 32
REMARK H PARENT
REMARK Flexibility Score: inf
ROOT
ATOM      1  C   UNL     1      15.593  35.882  48.792  1.00  0.00     0.000 C 
ENDROOT
BRANCH   1   2
ATOM      2  C   UNL     1      15.069  34.984  49.929  1.00  0.00     0.000 C 
BRANCH   2   3
ATOM      3  C   UNL     1      15.213  33.471  49.677  1.00  0.00     0.000 C 
BRANCH   3   4
ATOM      4  C   UNL     1      16.432  32.835  50.381  1.00  0.00     0.000 C 
BRANCH   4   5
ATOM      5  C   UNL     1      16.100  31.477  51.023  1.00  0.00     0.000 C 
BRANCH   5   6
ATOM      6  C   UNL     1      14.582  31.273  51.207  1.00  0.00     0.000 C 
BRANCH   6   7
ATOM      7  C   UNL     1      14.074  29.919  50.684  1.00  0.00     0.000 C 
BRANCH   7   8
ATOM      8  C   UNL     1      13.455  29.048  51.789  1.00  0.00     0.000 C 
BRANCH   8   9
ATOM      9  C   UNL     1      13.086  27.641  51.293  1.00  0.00     0.000 C 
BRANCH   9  10
ATOM     10  C   UNL     1      13.763  27.291  49.956  1.00  0.00     0.000 C 
BRANCH  10  11
ATOM     11  C   UNL     1      12.866  27.586  48.741  1.00  0.00     0.000 C 
BRANCH  11  12
ATOM     12  C   UNL     1      11.385  27.855  49.075  1.00  0.00     0.000 C 
BRANCH  12  13
ATOM     13  C   UNL     1      10.403  27.659  47.902  1.00  0.00     0.006 C 
BRANCH  13  14
ATOM     14  C   UNL     1       9.111  26.914  48.272  1.00  0.00     0.053 C 
BRANCH  14  15
ATOM     15  C   UNL     1       9.167  25.468  47.884  1.00  0.00     0.041 C 
ATOM     16  O   UNL     1      10.140  24.753  48.241  1.00  0.00    -0.550 OA
ATOM     17  O   UNL     1       8.132  24.904  47.148  1.00  0.00    -0.550 OA
ENDBRANCH  14  15
ENDBRANCH  13  14
ENDBRANCH  12  13
ENDBRANCH  11  12
ENDBRANCH  10  11
ENDBRANCH   9  10
ENDBRANCH   8   9
ENDBRANCH   7   8
ENDBRANCH   6   7
ENDBRANCH   5   6
ENDBRANCH   4   5
ENDBRANCH   3   4
ENDBRANCH   2   3
ENDBRANCH   1   2
BRANCH   1  18
ATOM     18  C   UNL     1      14.802  37.190  48.583  1.00  0.00     0.000 C 
BRANCH  18  19
ATOM     19  C   UNL     1      13.563  37.069  47.673  1.00  0.00     0.000 C 
BRANCH  19  20
ATOM     20  C   UNL     1      13.275  38.294  46.787  1.00  0.00     0.000 C 
BRANCH  20  21
ATOM     21  C   UNL     1      14.088  39.535  47.195  1.00  0.00     0.000 C 
BRANCH  21  22
ATOM     22  C   UNL     1      15.178  39.895  46.172  1.00  0.00     0.000 C 
BRANCH  22  23
ATOM     23  C   UNL     1      16.003  38.683  45.687  1.00  0.00     0.000 C 
BRANCH  23  24
ATOM     24  C   UNL     1      17.241  38.431  46.566  1.00  0.00    -0.000 C 
BRANCH  24  25
ATOM     25  C   UNL     1      18.327  39.509  46.395  1.00  0.00    -0.000 C 
BRANCH  25  26
ATOM     26  C   UNL     1      19.661  39.220  47.116  1.00  0.00    -0.000 C 
BRANCH  26  27
ATOM     27  C   UNL     1      20.113  37.750  47.097  1.00  0.00    -0.000 C 
BRANCH  27  28
ATOM     28  C   UNL     1      19.171  36.844  46.291  1.00  0.00    -0.000 C 
BRANCH  28  29
ATOM     29  C   UNL     1      19.877  35.541  45.890  1.00  0.00    -0.000 C 
BRANCH  29  30
ATOM     30  C   UNL     1      20.801  35.711  44.671  1.00  0.00    -0.000 C 
BRANCH  30  31
ATOM     31  C   UNL     1      21.247  34.396  44.006  1.00  0.00    -0.003 C 
ATOM     32  C   UNL     1      21.751  34.586  42.576  1.00  0.00     0.004 C 
ENDBRANCH  30  31
ENDBRANCH  29  30
ENDBRANCH  28  29
ENDBRANCH  27  28
ENDBRANCH  26  27
ENDBRANCH  25  26
ENDBRANCH  24  25
ENDBRANCH  23  24
ENDBRANCH  22  23
ENDBRANCH  21  22
ENDBRANCH  20  21
ENDBRANCH  19  20
ENDBRANCH  18  19
ENDBRANCH   1  18
TORSDOF 28
ENDMDL
MODEL 7
REMARK VINA RESULT:    16.205      1.981      4.217
REMARK INTER + INTRA:          41.417
REMARK INTER:                  41.666
REMARK INTRA:                  -0.249
REMARK UNBOUND:                -1.315
REMARK SMILES CCCCCCCCCCCCCCCCCCCCCCCCCCCCCC(=O)[O-]
REMARK SMILES IDX 16 1 17 2 18 3 19 4 20 5 21 6 22 7 23 8 24 9 25 10 26 11
REMARK SMILES IDX 27 12 28 13 29 14 30 15 31 16 32 17 15 18 14 19 13 20 12 21
REMARK SMILES IDX 11 22 10 23 9 24 8 25 7 26 6 27 5 28 4 29 3 30 2 31 1 32
REMARK H PARENT
REMARK Flexibility Score: inf
ROOT
ATOM      1  C   UNL     1      15.215  34.751  50.033  1.00  0.00     0.000 C 
ENDROOT
BRANCH   1   2
ATOM      2  C   UNL     1      15.533  33.268  49.761  1.00  0.00     0.000 C 
BRANCH   2   3
ATOM      3  C   UNL     1      15.274  32.322  50.949  1.00  0.00     0.000 C 
BRANCH   3   4
ATOM      4  C   UNL     1      15.302  30.825  50.570  1.00  0.00     0.000 C 
BRANCH   4   5
ATOM      5  C   UNL     1      13.904  30.183  50.599  1.00  0.00     0.000 C 
BRANCH   5   6
ATOM      6  C   UNL     1      13.804  28.957  49.669  1.00  0.00     0.000 C 
BRANCH   6   7
ATOM      7  C   UNL     1      13.163  27.728  50.337  1.00  0.00     0.000 C 
BRANCH   7   8
ATOM      8  C   UNL     1      13.416  27.673  51.852  1.00  0.00     0.000 C 
BRANCH   8   9
ATOM      9  C   UNL     1      14.124  26.380  52.284  1.00  0.00     0.000 C 
BRANCH   9  10
ATOM     10  C   UNL     1      14.531  25.503  51.087  1.00  0.00     0.000 C 
BRANCH  10  11
ATOM     11  C   UNL     1      15.690  24.546  51.419  1.00  0.00     0.000 C 
BRANCH  11  12
ATOM     12  C   UNL     1      15.753  23.274  50.549  1.00  0.00     0.000 C 
BRANCH  12  13
ATOM     13  C   UNL     1      15.549  21.948  51.311  1.00  0.00     0.006 C 
BRANCH  13  14
ATOM     14  C   UNL     1      16.631  20.890  51.048  1.00  0.00     0.053 C 
BRANCH  14  15
ATOM     15  C   UNL     1      17.544  21.289  49.929  1.00  0.00     0.041 C 
ATOM     16  O   UNL     1      17.260  22.276  49.200  1.00  0.00    -0.550 OA
ATOM     17  O   UNL     1      18.722  20.586  49.707  1.00  0.00    -0.550 OA
ENDBRANCH  14  15
ENDBRANCH  13  14
ENDBRANCH  12  13
ENDBRANCH  11  12
ENDBRANCH  10  11
ENDBRANCH   9  10
ENDBRANCH   8   9
ENDBRANCH   7   8
ENDBRANCH   6   7
ENDBRANCH   5   6
ENDBRANCH   4   5
ENDBRANCH   3   4
ENDBRANCH   2   3
ENDBRANCH   1   2
BRANCH   1  18
ATOM     18  C   UNL     1      15.270  35.665  48.791  1.00  0.00     0.000 C 
BRANCH  18  19
ATOM     19  C   UNL     1      13.948  35.785  48.006  1.00  0.00     0.000 C 
BRANCH  19  20
ATOM     20  C   UNL     1      13.242  37.148  48.111  1.00  0.00     0.000 C 
BRANCH  20  21
ATOM     21  C   UNL     1      13.131  37.873  46.759  1.00  0.00     0.000 C 
BRANCH  21  22
ATOM     22  C   UNL     1      13.649  39.321  46.816  1.00  0.00     0.000 C 
BRANCH  22  23
ATOM     23  C   UNL     1      15.124  39.437  47.258  1.00  0.00     0.000 C 
BRANCH  23  24
ATOM     24  C   UNL     1      16.102  39.106  46.116  1.00  0.00    -0.000 C 
BRANCH  24  25
ATOM     25  C   UNL     1      17.190  38.100  46.531  1.00  0.00    -0.000 C 
BRANCH  25  26
ATOM     26  C   UNL     1      18.585  38.708  46.793  1.00  0.00    -0.000 C 
BRANCH  26  27
ATOM     27  C   UNL     1      19.736  37.692  46.890  1.00  0.00    -0.000 C 
BRANCH  27  28
ATOM     28  C   UNL     1      19.724  36.663  45.750  1.00  0.00    -0.000 C 
BRANCH  28  29
ATOM     29  C   UNL     1      20.713  35.523  46.032  1.00  0.00    -0.000 C 
BRANCH  29  30
ATOM     30  C   UNL     1      20.600  34.367  45.023  1.00  0.00    -0.000 C 
BRANCH  30  31
ATOM     31  C   UNL     1      20.649  34.790  43.543  1.00  0.00    -0.003 C 
ATOM     32  C   UNL     1      22.073  34.925  43.004  1.00  0.00     0.004 C 
ENDBRANCH  30  31
ENDBRANCH  29  30
ENDBRANCH  28  29
ENDBRANCH  27  28
ENDBRANCH  26  27
ENDBRANCH  25  26
ENDBRANCH  24  25
ENDBRANCH  23  24
ENDBRANCH  22  23
ENDBRANCH  21  22
ENDBRANCH  20  21
ENDBRANCH  19  20
ENDBRANCH  18  19
ENDBRANCH   1  18
TORSDOF 28
ENDMDL
MODEL 8
REMARK VINA RESULT:    16.851      4.356     14.856
REMARK INTER + INTRA:          43.120
REMARK INTER:                  43.963
REMARK INTRA:                  -0.844
REMARK UNBOUND:                -1.315
REMARK SMILES CCCCCCCCCCCCCCCCCCCCCCCCCCCCCC(=O)[O-]
REMARK SMILES IDX 16 1 17 2 18 3 19 4 20 5 21 6 22 7 23 8 24 9 25 10 26 11
REMARK SMILES IDX 27 12 28 13 29 14 30 15 31 16 32 17 15 18 14 19 13 20 12 21
REMARK SMILES IDX 11 22 10 23 9 24 8 25 7 26 6 27 5 28 4 29 3 30 2 31 1 32
REMARK H PARENT
REMARK Flexibility Score: inf
ROOT
ATOM      1  C   UNL     1      15.408  30.735  50.760  1.00  0.00     0.000 C 
ENDROOT
BRANCH   1   2
ATOM      2  C   UNL     1      15.677  32.238  50.968  1.00  0.00     0.000 C 
BRANCH   2   3
ATOM      3  C   UNL     1      15.348  33.129  49.755  1.00  0.00     0.000 C 
BRANCH   3   4
ATOM      4  C   UNL     1      15.598  34.633  50.001  1.00  0.00     0.000 C 
BRANCH   4   5
ATOM      5  C   UNL     1      15.089  35.512  48.845  1.00  0.00     0.000 C 
BRANCH   5   6
ATOM      6  C   UNL     1      13.829  34.925  48.175  1.00  0.00     0.000 C 
BRANCH   6   7
ATOM      7  C   UNL     1      12.894  35.991  47.578  1.00  0.00     0.000 C 
BRANCH   7   8
ATOM      8  C   UNL     1      13.524  37.393  47.563  1.00  0.00     0.000 C 
BRANCH   8   9
ATOM      9  C   UNL     1      12.749  38.376  46.671  1.00  0.00     0.000 C 
BRANCH   9  10
ATOM     10  C   UNL     1      13.331  39.800  46.720  1.00  0.00     0.000 C 
BRANCH  10  11
ATOM     11  C   UNL     1      14.724  39.893  46.072  1.00  0.00     0.000 C 
BRANCH  11  12
ATOM     12  C   UNL     1      15.879  39.331  46.927  1.00  0.00     0.000 C 
BRANCH  12  13
ATOM     13  C   UNL     1      16.978  38.591  46.136  1.00  0.00     0.006 C 
BRANCH  13  14
ATOM     14  C   UNL     1      17.733  37.525  46.945  1.00  0.00     0.053 C 
BRANCH  14  15
ATOM     15  C   UNL     1      19.185  37.472  46.582  1.00  0.00     0.041 C 
ATOM     16  O   UNL     1      19.955  38.414  46.906  1.00  0.00    -0.550 OA
ATOM     17  O   UNL     1      19.696  36.368  45.909  1.00  0.00    -0.550 OA
ENDBRANCH  14  15
ENDBRANCH  13  14
ENDBRANCH  12  13
ENDBRANCH  11  12
ENDBRANCH  10  11
ENDBRANCH   9  10
ENDBRANCH   8   9
ENDBRANCH   7   8
ENDBRANCH   6   7
ENDBRANCH   5   6
ENDBRANCH   4   5
ENDBRANCH   3   4
ENDBRANCH   2   3
ENDBRANCH   1   2
BRANCH   1  18
ATOM     18  C   UNL     1      13.984  30.393  50.275  1.00  0.00     0.000 C 
BRANCH  18  19
ATOM     19  C   UNL     1      13.561  28.922  50.468  1.00  0.00     0.000 C 
BRANCH  19  20
ATOM     20  C   UNL     1      13.907  28.313  51.839  1.00  0.00     0.000 C 
BRANCH  20  21
ATOM     21  C   UNL     1      13.882  26.775  51.836  1.00  0.00     0.000 C 
BRANCH  21  22
ATOM     22  C   UNL     1      15.066  26.162  51.068  1.00  0.00     0.000 C 
BRANCH  22  23
ATOM     23  C   UNL     1      14.837  24.698  50.635  1.00  0.00     0.000 C 
BRANCH  23  24
ATOM     24  C   UNL     1      16.058  23.807  50.921  1.00  0.00    -0.000 C 
BRANCH  24  25
ATOM     25  C   UNL     1      16.106  22.550  50.033  1.00  0.00    -0.000 C 
BRANCH  25  26
ATOM     26  C   UNL     1      17.407  22.362  49.225  1.00  0.00    -0.000 C 
BRANCH  26  27
ATOM     27  C   UNL     1      18.294  21.188  49.673  1.00  0.00    -0.000 C 
BRANCH  27  28
ATOM     28  C   UNL     1      17.486  19.944  50.071  1.00  0.00    -0.000 C 
BRANCH  28  29
ATOM     29  C   UNL     1      16.983  20.059  51.517  1.00  0.00    -0.000 C 
BRANCH  29  30
ATOM     30  C   UNL     1      15.460  19.876  51.638  1.00  0.00    -0.000 C 
BRANCH  30  31
ATOM     31  C   UNL     1      14.795  20.698  52.758  1.00  0.00    -0.003 C 
ATOM     32  C   UNL     1      14.494  19.875  54.009  1.00  0.00     0.004 C 
ENDBRANCH  30  31
ENDBRANCH  29  30
ENDBRANCH  28  29
ENDBRANCH  27  28
ENDBRANCH  26  27
ENDBRANCH  25  26
ENDBRANCH  24  25
ENDBRANCH  23  24
ENDBRANCH  22  23
ENDBRANCH  21  22
ENDBRANCH  20  21
ENDBRANCH  19  20
ENDBRANCH  18  19
ENDBRANCH   1  18
TORSDOF 28
ENDMDL
