MODEL 1
REMARK VINA RESULT:    -3.391      0.000      0.000
REMARK INTER + INTRA:          -4.256
REMARK INTER:                  -4.184
REMARK INTRA:                  -0.072
REMARK UNBOUND:                -0.072
REMARK SMILES CCCCCC(=O)[O-]
REMARK SMILES IDX 4 1 5 2 6 3 7 4 8 5 3 6 2 7 1 8
REMARK H PARENT
REMARK Flexibility Score: inf
ROOT
ATOM      1  C   UNL     1      36.380 105.390 261.176  1.00  0.00     0.006 C 
ENDROOT
BRANCH   1   2
ATOM      2  C   UNL     1      36.582 106.124 262.508  1.00  0.00     0.053 C 
BRANCH   2   3
ATOM      3  C   UNL     1      35.519 105.735 263.486  1.00  0.00     0.041 C 
ATOM      4  O   UNL     1      35.235 104.522 263.665  1.00  0.00    -0.550 OA
ATOM      5  O   UNL     1      34.876 106.711 264.237  1.00  0.00    -0.550 OA
ENDBRANCH   2   3
ENDBRANCH   1   2
BRANCH   1   6
ATOM      6  C   UNL     1      37.503 105.699 260.163  1.00  0.00     0.000 C 
BRANCH   6   7
ATOM      7  C   UNL     1      37.128 105.372 258.708  1.00  0.00    -0.003 C 
ATOM      8  C   UNL     1      36.074 106.319 258.136  1.00  0.00     0.004 C 
ENDBRANCH   6   7
ENDBRANCH   1   6
TORSDOF 4
ENDMDL
MODEL 2
REMARK VINA RESULT:    -3.338      0.306      1.172
REMARK INTER + INTRA:          -4.191
REMARK INTER:                  -4.119
REMARK INTRA:                  -0.072
REMARK UNBOUND:                -0.072
REMARK SMILES CCCCCC(=O)[O-]
REMARK SMILES IDX 4 1 5 2 6 3 7 4 8 5 3 6 2 7 1 8
REMARK H PARENT
REMARK Flexibility Score: inf
ROOT
ATOM      1  C   UNL     1      36.377 105.500 261.283  1.00  0.00     0.006 C 
ENDROOT
BRANCH   1   2
ATOM      2  C   UNL     1      36.516 106.122 262.679  1.00  0.00     0.053 C 
BRANCH   2   3
ATOM      3  C   UNL     1      35.395 105.677 263.564  1.00  0.00     0.041 C 
ATOM      4  O   UNL     1      34.877 106.481 264.383  1.00  0.00    -0.550 OA
ATOM      5  O   UNL     1      34.889 104.388 263.450  1.00  0.00    -0.550 OA
ENDBRANCH   2   3
ENDBRANCH   1   2
BRANCH   1   6
ATOM      6  C   UNL     1      37.651 105.687 260.432  1.00  0.00     0.000 C 
BRANCH   6   7
ATOM      7  C   UNL     1      37.462 105.317 258.951  1.00  0.00    -0.003 C 
ATOM      8  C   UNL     1      36.373 106.139 258.264  1.00  0.00     0.004 C 
ENDBRANCH   6   7
ENDBRANCH   1   6
TORSDOF 4
ENDMDL
MODEL 3
REMARK VINA RESULT:    -3.320      1.619      2.191
REMARK INTER + INTRA:          -4.169
REMARK INTER:                  -4.033
REMARK INTRA:                  -0.135
REMARK UNBOUND:                -0.072
REMARK SMILES CCCCCC(=O)[O-]
REMARK SMILES IDX 4 1 5 2 6 3 7 4 8 5 3 6 2 7 1 8
REMARK H PARENT
REMARK Flexibility Score: inf
ROOT
ATOM      1  C   UNL     1      37.867 105.058 259.696  1.00  0.00     0.006 C 
ENDROOT
BRANCH   1   2
ATOM      2  C   UNL     1      36.648 105.029 260.626  1.00  0.00     0.053 C 
BRANCH   2   3
ATOM      3  C   UNL     1      36.908 105.838 261.857  1.00  0.00     0.041 C 
ATOM      4  O   UNL     1      37.985 106.478 261.979  1.00  0.00    -0.550 OA
ATOM      5  O   UNL     1      35.939 105.924 262.849  1.00  0.00    -0.550 OA
ENDBRANCH   2   3
ENDBRANCH   1   2
BRANCH   1   6
ATOM      6  C   UNL     1      37.490 105.446 258.251  1.00  0.00     0.000 C 
BRANCH   6   7
ATOM      7  C   UNL     1      35.996 105.761 258.068  1.00  0.00    -0.003 C 
ATOM      8  C   UNL     1      35.717 107.250 257.875  1.00  0.00     0.004 C 
ENDBRANCH   6   7
ENDBRANCH   1   6
TORSDOF 4
ENDMDL
MODEL 4
REMARK VINA RESULT:    -3.222      2.916      4.615
REMARK INTER + INTRA:          -4.048
REMARK INTER:                  -3.990
REMARK INTRA:                  -0.059
REMARK UNBOUND:                -0.072
REMARK SMILES CCCCCC(=O)[O-]
REMARK SMILES IDX 4 1 5 2 6 3 7 4 8 5 3 6 2 7 1 8
REMARK H PARENT
REMARK Flexibility Score: inf
ROOT
ATOM      1  C   UNL     1      36.399 105.336 261.400  1.00  0.00     0.006 C 
ENDROOT
BRANCH   1   2
ATOM      2  C   UNL     1      37.490 105.758 260.407  1.00  0.00     0.053 C 
BRANCH   2   3
ATOM      3  C   UNL     1      36.937 105.823 259.018  1.00  0.00     0.041 C 
ATOM      4  O   UNL     1      37.155 104.886 258.205  1.00  0.00    -0.550 OA
ATOM      5  O   UNL     1      36.141 106.895 258.637  1.00  0.00    -0.550 OA
ENDBRANCH   2   3
ENDBRANCH   1   2
BRANCH   1   6
ATOM      6  C   UNL     1      36.521 106.075 262.749  1.00  0.00     0.000 C 
BRANCH   6   7
ATOM      7  C   UNL     1      35.216 106.091 263.563  1.00  0.00    -0.003 C 
ATOM      8  C   UNL     1      34.901 104.746 264.215  1.00  0.00     0.004 C 
ENDBRANCH   6   7
ENDBRANCH   1   6
TORSDOF 4
ENDMDL
MODEL 5
REMARK VINA RESULT:    -3.026      1.689      2.342
REMARK INTER + INTRA:          -3.807
REMARK INTER:                  -3.754
REMARK INTRA:                  -0.052
REMARK UNBOUND:                -0.072
REMARK SMILES CCCCCC(=O)[O-]
REMARK SMILES IDX 4 1 5 2 6 3 7 4 8 5 3 6 2 7 1 8
REMARK H PARENT
REMARK Flexibility Score: inf
ROOT
ATOM      1  C   UNL     1      35.791 105.537 263.257  1.00  0.00     0.006 C 
ENDROOT
BRANCH   1   2
ATOM      2  C   UNL     1      34.883 106.623 263.847  1.00  0.00     0.053 C 
BRANCH   2   3
ATOM      3  C   UNL     1      34.878 106.546 265.341  1.00  0.00     0.041 C 
ATOM      4  O   UNL     1      34.881 105.427 265.918  1.00  0.00    -0.550 OA
ATOM      5  O   UNL     1      34.918 107.711 266.097  1.00  0.00    -0.550 OA
ENDBRANCH   2   3
ENDBRANCH   1   2
BRANCH   1   6
ATOM      6  C   UNL     1      36.888 106.125 262.344  1.00  0.00     0.000 C 
BRANCH   6   7
ATOM      7  C   UNL     1      36.736 105.732 260.865  1.00  0.00    -0.003 C 
ATOM      8  C   UNL     1      38.070 105.424 260.187  1.00  0.00     0.004 C 
ENDBRANCH   6   7
ENDBRANCH   1   6
TORSDOF 4
ENDMDL
MODEL 6
REMARK VINA RESULT:    -2.767      3.413      6.200
REMARK INTER + INTRA:          -3.486
REMARK INTER:                  -3.398
REMARK INTRA:                  -0.088
REMARK UNBOUND:                -0.072
REMARK SMILES CCCCCC(=O)[O-]
REMARK SMILES IDX 4 1 5 2 6 3 7 4 8 5 3 6 2 7 1 8
REMARK H PARENT
REMARK Flexibility Score: inf
ROOT
ATOM      1  C   UNL     1      35.601 106.814 265.937  1.00  0.00     0.006 C 
ENDROOT
BRANCH   1   2
ATOM      2  C   UNL     1      34.875 106.805 264.585  1.00  0.00     0.053 C 
BRANCH   2   3
ATOM      3  C   UNL     1      35.377 105.686 263.728  1.00  0.00     0.041 C 
ATOM      4  O   UNL     1      36.096 105.929 262.724  1.00  0.00    -0.550 OA
ATOM      5  O   UNL     1      35.090 104.370 264.068  1.00  0.00    -0.550 OA
ENDBRANCH   2   3
ENDBRANCH   1   2
BRANCH   1   6
ATOM      6  C   UNL     1      35.399 108.141 266.699  1.00  0.00     0.000 C 
BRANCH   6   7
ATOM      7  C   UNL     1      34.882 107.953 268.135  1.00  0.00    -0.003 C 
ATOM      8  C   UNL     1      35.041 106.522 268.646  1.00  0.00     0.004 C 
ENDBRANCH   6   7
ENDBRANCH   1   6
TORSDOF 4
ENDMDL
MODEL 7
REMARK VINA RESULT:    -2.564      3.989      5.270
REMARK INTER + INTRA:          -3.237
REMARK INTER:                  -3.143
REMARK INTRA:                  -0.094
REMARK UNBOUND:                -0.072
REMARK SMILES CCCCCC(=O)[O-]
REMARK SMILES IDX 4 1 5 2 6 3 7 4 8 5 3 6 2 7 1 8
REMARK H PARENT
REMARK Flexibility Score: inf
ROOT
ATOM      1  C   UNL     1      35.100 107.028 266.004  1.00  0.00     0.006 C 
ENDROOT
BRANCH   1   2
ATOM      2  C   UNL     1      34.875 105.924 267.045  1.00  0.00     0.053 C 
BRANCH   2   3
ATOM      3  C   UNL     1      35.031 106.470 268.430  1.00  0.00     0.041 C 
ATOM      4  O   UNL     1      35.277 105.697 269.392  1.00  0.00    -0.550 OA
ATOM      5  O   UNL     1      34.953 107.840 268.649  1.00  0.00    -0.550 OA
ENDBRANCH   2   3
ENDBRANCH   1   2
BRANCH   1   6
ATOM      6  C   UNL     1      34.892 106.521 264.561  1.00  0.00     0.000 C 
BRANCH   6   7
ATOM      7  C   UNL     1      35.064 105.000 264.412  1.00  0.00    -0.003 C 
ATOM      8  C   UNL     1      35.503 104.582 263.010  1.00  0.00     0.004 C 
ENDBRANCH   6   7
ENDBRANCH   1   6
TORSDOF 4
ENDMDL
MODEL 8
REMARK VINA RESULT:    -2.543      2.735      4.740
REMARK INTER + INTRA:          -3.211
REMARK INTER:                  -3.130
REMARK INTRA:                  -0.081
REMARK UNBOUND:                -0.072
REMARK SMILES CCCCCC(=O)[O-]
REMARK SMILES IDX 4 1 5 2 6 3 7 4 8 5 3 6 2 7 1 8
REMARK H PARENT
REMARK Flexibility Score: inf
ROOT
ATOM      1  C   UNL     1      36.658 106.131 262.433  1.00  0.00     0.006 C 
ENDROOT
BRANCH   1   2
ATOM      2  C   UNL     1      36.376 105.196 261.250  1.00  0.00     0.053 C 
BRANCH   2   3
ATOM      3  C   UNL     1      37.049 105.700 260.012  1.00  0.00     0.041 C 
ATOM      4  O   UNL     1      36.421 106.434 259.204  1.00  0.00    -0.550 OA
ATOM      5  O   UNL     1      38.384 105.400 259.776  1.00  0.00    -0.550 OA
ENDBRANCH   2   3
ENDBRANCH   1   2
BRANCH   1   6
ATOM      6  C   UNL     1      35.535 106.086 263.492  1.00  0.00     0.000 C 
BRANCH   6   7
ATOM      7  C   UNL     1      35.008 104.669 263.770  1.00  0.00    -0.003 C 
ATOM      8  C   UNL     1      34.875 104.362 265.261  1.00  0.00     0.004 C 
ENDBRANCH   6   7
ENDBRANCH   1   6
TORSDOF 4
ENDMDL
MODEL 9
REMARK VINA RESULT:    -2.347      2.423      4.837
REMARK INTER + INTRA:          -2.968
REMARK INTER:                  -2.862
REMARK INTRA:                  -0.106
REMARK UNBOUND:                -0.072
REMARK SMILES CCCCCC(=O)[O-]
REMARK SMILES IDX 4 1 5 2 6 3 7 4 8 5 3 6 2 7 1 8
REMARK H PARENT
REMARK Flexibility Score: inf
ROOT
ATOM      1  C   UNL     1      35.340 105.951 263.303  1.00  0.00     0.006 C 
ENDROOT
BRANCH   1   2
ATOM      2  C   UNL     1      36.795 106.115 262.844  1.00  0.00     0.053 C 
BRANCH   2   3
ATOM      3  C   UNL     1      36.935 105.737 261.403  1.00  0.00     0.041 C 
ATOM      4  O   UNL     1      37.924 106.139 260.735  1.00  0.00    -0.550 OA
ATOM      5  O   UNL     1      35.997 104.900 260.810  1.00  0.00    -0.550 OA
ENDBRANCH   2   3
ENDBRANCH   1   2
BRANCH   1   6
ATOM      6  C   UNL     1      35.187 104.850 264.374  1.00  0.00     0.000 C 
BRANCH   6   7
ATOM      7  C   UNL     1      34.875 105.396 265.778  1.00  0.00    -0.003 C 
ATOM      8  C   UNL     1      34.891 106.922 265.843  1.00  0.00     0.004 C 
ENDBRANCH   6   7
ENDBRANCH   1   6
TORSDOF 4
ENDMDL
