MODEL 1
REMARK VINA RESULT:     2.746      0.000      0.000
REMARK INTER + INTRA:           2.938
REMARK INTER:                   3.228
REMARK INTRA:                  -0.290
REMARK UNBOUND:                -0.290
REMARK SMILES O=c1c(O)c(-c2ccc(O)cc2)oc2cc(O)cc(O)c12
REMARK SMILES IDX 5 1 3 2 2 3 1 4 21 5 19 6 18 7 16 8 15 9 14 10 13 11 6 12
REMARK SMILES IDX 7 13 8 14 9 15 12 16 11 17 10 18 4 20 20 22 17 24
REMARK H PARENT 10 19 4 21 20 23 17 25
REMARK Flexibility Score: inf
ROOT
ATOM      1  C   UNL     1     156.867 162.381 155.935  1.00  0.00     0.180 A 
ATOM      2  C   UNL     1     156.328 163.213 156.931  1.00  0.00     0.208 A 
ATOM      3  C   UNL     1     155.182 162.790 157.625  1.00  0.00     0.238 A 
ATOM      4  O   UNL     1     154.672 163.563 158.477  1.00  0.00    -0.285 OA
ATOM      5  C   UNL     1     154.600 161.534 157.324  1.00  0.00     0.111 A 
ATOM      6  C   UNL     1     153.463 160.988 157.991  1.00  0.00     0.134 A 
ATOM      7  C   UNL     1     152.893 159.798 157.523  1.00  0.00     0.093 A 
ATOM      8  C   UNL     1     153.458 159.100 156.455  1.00  0.00     0.123 A 
ATOM      9  C   UNL     1     154.606 159.594 155.834  1.00  0.00     0.094 A 
ATOM     10  C   UNL     1     155.176 160.799 156.255  1.00  0.00     0.146 A 
ATOM     11  O   UNL     1     156.260 161.240 155.631  1.00  0.00    -0.452 OA
ENDROOT
BRANCH   1  12
ATOM     12  C   UNL     1     158.087 162.746 155.179  1.00  0.00     0.021 A 
ATOM     13  C   UNL     1     157.965 163.302 153.895  1.00  0.00     0.016 A 
ATOM     14  C   UNL     1     159.104 163.634 153.154  1.00  0.00     0.047 A 
ATOM     15  C   UNL     1     160.379 163.400 153.683  1.00  0.00     0.115 A 
ATOM     16  C   UNL     1     159.372 162.496 155.695  1.00  0.00     0.016 A 
ATOM     17  C   UNL     1     160.510 162.828 154.952  1.00  0.00     0.047 A 
BRANCH  15  18
ATOM     18  O   UNL     1     161.521 163.726 152.955  1.00  0.00    -0.508 OA
ATOM     19  H   UNL     1     161.901 164.666 152.959  1.00  0.00     0.293 HD
ENDBRANCH  15  18
ENDBRANCH   1  12
BRANCH   2  20
ATOM     20  O   UNL     1     156.905 164.458 157.197  1.00  0.00    -0.502 OA
ATOM     21  H   UNL     1     156.364 165.313 157.232  1.00  0.00     0.293 HD
ENDBRANCH   2  20
BRANCH   6  22
ATOM     22  O   UNL     1     152.875 161.557 159.124  1.00  0.00    -0.507 OA
ATOM     23  H   UNL     1     152.731 162.547 159.262  1.00  0.00     0.293 HD
ENDBRANCH   6  22
BRANCH   8  24
ATOM     24  O   UNL     1     152.875 157.910 156.026  1.00  0.00    -0.508 OA
ATOM     25  H   UNL     1     151.885 157.849 155.821  1.00  0.00     0.293 HD
ENDBRANCH   8  24
TORSDOF 5
ENDMDL
MODEL 2
REMARK VINA RESULT:     4.196     10.905     11.704
REMARK INTER + INTRA:           4.642
REMARK INTER:                   4.895
REMARK INTRA:                  -0.253
REMARK UNBOUND:                -0.290
REMARK SMILES O=c1c(O)c(-c2ccc(O)cc2)oc2cc(O)cc(O)c12
REMARK SMILES IDX 5 1 3 2 2 3 1 4 21 5 19 6 18 7 16 8 15 9 14 10 13 11 6 12
REMARK SMILES IDX 7 13 8 14 9 15 12 16 11 17 10 18 4 20 20 22 17 24
REMARK H PARENT 10 19 4 21 20 23 17 25
REMARK Flexibility Score: inf
ROOT
ATOM      1  C   UNL     1     167.373 163.684 153.616  1.00  0.00     0.180 A 
ATOM      2  C   UNL     1     167.451 164.876 154.355  1.00  0.00     0.208 A 
ATOM      3  C   UNL     1     167.373 164.814 155.757  1.00  0.00     0.238 A 
ATOM      4  O   UNL     1     167.389 165.890 156.411  1.00  0.00    -0.285 OA
ATOM      5  C   UNL     1     167.233 163.561 156.400  1.00  0.00     0.111 A 
ATOM      6  C   UNL     1     167.184 163.377 157.814  1.00  0.00     0.134 A 
ATOM      7  C   UNL     1     166.912 162.107 158.337  1.00  0.00     0.093 A 
ATOM      8  C   UNL     1     166.753 161.002 157.499  1.00  0.00     0.123 A 
ATOM      9  C   UNL     1     166.859 161.160 156.117  1.00  0.00     0.094 A 
ATOM     10  C   UNL     1     167.093 162.422 155.564  1.00  0.00     0.146 A 
ATOM     11  O   UNL     1     167.176 162.531 154.244  1.00  0.00    -0.452 OA
ENDROOT
BRANCH   1  12
ATOM     12  C   UNL     1     167.474 163.666 152.138  1.00  0.00     0.021 A 
ATOM     13  C   UNL     1     168.700 163.343 151.533  1.00  0.00     0.016 A 
ATOM     14  C   UNL     1     168.823 163.342 150.139  1.00  0.00     0.047 A 
ATOM     15  C   UNL     1     167.727 163.678 149.336  1.00  0.00     0.115 A 
ATOM     16  C   UNL     1     166.383 164.020 151.324  1.00  0.00     0.016 A 
ATOM     17  C   UNL     1     166.509 164.020 149.932  1.00  0.00     0.047 A 
BRANCH  15  18
ATOM     18  O   UNL     1     167.838 163.680 147.947  1.00  0.00    -0.508 OA
ATOM     19  H   UNL     1     167.123 164.095 147.360  1.00  0.00     0.293 HD
ENDBRANCH  15  18
ENDBRANCH   1  12
BRANCH   2  20
ATOM     20  O   UNL     1     167.567 166.105 153.700  1.00  0.00    -0.502 OA
ATOM     21  H   UNL     1     166.776 166.571 153.273  1.00  0.00     0.293 HD
ENDBRANCH   2  20
BRANCH   6  22
ATOM     22  O   UNL     1     167.419 164.395 158.742  1.00  0.00    -0.507 OA
ATOM     23  H   UNL     1     168.061 164.330 159.518  1.00  0.00     0.293 HD
ENDBRANCH   6  22
BRANCH   8  24
ATOM     24  O   UNL     1     166.500 159.750 158.054  1.00  0.00    -0.508 OA
ATOM     25  H   UNL     1     165.756 159.609 158.726  1.00  0.00     0.293 HD
ENDBRANCH   8  24
TORSDOF 5
ENDMDL
MODEL 3
REMARK VINA RESULT:     4.983     11.379     13.439
REMARK INTER + INTRA:           5.567
REMARK INTER:                   5.619
REMARK INTRA:                  -0.052
REMARK UNBOUND:                -0.290
REMARK SMILES O=c1c(O)c(-c2ccc(O)cc2)oc2cc(O)cc(O)c12
REMARK SMILES IDX 5 1 3 2 2 3 1 4 21 5 19 6 18 7 16 8 15 9 14 10 13 11 6 12
REMARK SMILES IDX 7 13 8 14 9 15 12 16 11 17 10 18 4 20 20 22 17 24
REMARK H PARENT 10 19 4 21 20 23 17 25
REMARK Flexibility Score: inf
ROOT
ATOM      1  C   UNL     1     167.425 163.933 152.082  1.00  0.00     0.180 A 
ATOM      2  C   UNL     1     168.428 163.260 151.365  1.00  0.00     0.208 A 
ATOM      3  C   UNL     1     168.455 163.370 149.965  1.00  0.00     0.238 A 
ATOM      4  O   UNL     1     169.322 162.721 149.324  1.00  0.00    -0.285 OA
ATOM      5  C   UNL     1     167.486 164.163 149.302  1.00  0.00     0.111 A 
ATOM      6  C   UNL     1     167.442 164.377 147.892  1.00  0.00     0.134 A 
ATOM      7  C   UNL     1     166.364 165.073 147.333  1.00  0.00     0.093 A 
ATOM      8  C   UNL     1     165.363 165.618 148.137  1.00  0.00     0.123 A 
ATOM      9  C   UNL     1     165.429 165.466 149.523  1.00  0.00     0.094 A 
ATOM     10  C   UNL     1     166.473 164.745 150.108  1.00  0.00     0.146 A 
ATOM     11  O   UNL     1     166.493 164.614 151.428  1.00  0.00    -0.452 OA
ENDROOT
BRANCH   1  12
ATOM     12  C   UNL     1     167.347 163.886 153.561  1.00  0.00     0.021 A 
ATOM     13  C   UNL     1     167.447 165.078 154.297  1.00  0.00     0.016 A 
ATOM     14  C   UNL     1     167.399 165.054 155.694  1.00  0.00     0.047 A 
ATOM     15  C   UNL     1     167.267 163.837 156.373  1.00  0.00     0.115 A 
ATOM     16  C   UNL     1     167.233 162.665 154.251  1.00  0.00     0.016 A 
ATOM     17  C   UNL     1     167.187 162.644 155.648  1.00  0.00     0.047 A 
BRANCH  15  18
ATOM     18  O   UNL     1     167.217 163.801 157.765  1.00  0.00    -0.508 OA
ATOM     19  H   UNL     1     166.825 164.566 158.301  1.00  0.00     0.293 HD
ENDBRANCH  15  18
ENDBRANCH   1  12
BRANCH   2  20
ATOM     20  O   UNL     1     169.361 162.464 152.037  1.00  0.00    -0.502 OA
ATOM     21  H   UNL     1     169.088 161.710 152.655  1.00  0.00     0.293 HD
ENDBRANCH   2  20
BRANCH   6  22
ATOM     22  O   UNL     1     168.437 163.953 147.007  1.00  0.00    -0.507 OA
ATOM     23  H   UNL     1     169.418 163.879 147.236  1.00  0.00     0.293 HD
ENDBRANCH   6  22
BRANCH   8  24
ATOM     24  O   UNL     1     164.313 166.319 147.548  1.00  0.00    -0.508 OA
ATOM     25  H   UNL     1     163.920 166.036 146.658  1.00  0.00     0.293 HD
ENDBRANCH   8  24
TORSDOF 5
ENDMDL
MODEL 4
REMARK VINA RESULT:     4.999     11.537     12.661
REMARK INTER + INTRA:           5.585
REMARK INTER:                   5.664
REMARK INTRA:                  -0.078
REMARK UNBOUND:                -0.290
REMARK SMILES O=c1c(O)c(-c2ccc(O)cc2)oc2cc(O)cc(O)c12
REMARK SMILES IDX 5 1 3 2 2 3 1 4 21 5 19 6 18 7 16 8 15 9 14 10 13 11 6 12
REMARK SMILES IDX 7 13 8 14 9 15 12 16 11 17 10 18 4 20 20 22 17 24
REMARK H PARENT 10 19 4 21 20 23 17 25
REMARK Flexibility Score: inf
ROOT
ATOM      1  C   UNL     1     167.169 164.564 152.182  1.00  0.00     0.180 A 
ATOM      2  C   UNL     1     167.150 163.463 153.056  1.00  0.00     0.208 A 
ATOM      3  C   UNL     1     167.212 163.693 154.441  1.00  0.00     0.238 A 
ATOM      4  O   UNL     1     167.250 162.702 155.216  1.00  0.00    -0.285 OA
ATOM      5  C   UNL     1     167.277 165.019 154.932  1.00  0.00     0.111 A 
ATOM      6  C   UNL     1     167.304 165.369 156.316  1.00  0.00     0.134 A 
ATOM      7  C   UNL     1     167.501 166.705 156.686  1.00  0.00     0.093 A 
ATOM      8  C   UNL     1     167.606 167.711 155.725  1.00  0.00     0.123 A 
ATOM      9  C   UNL     1     167.521 167.387 154.371  1.00  0.00     0.094 A 
ATOM     10  C   UNL     1     167.362 166.058 153.969  1.00  0.00     0.146 A 
ATOM     11  O   UNL     1     167.296 165.791 152.671  1.00  0.00    -0.452 OA
ENDROOT
BRANCH   1  12
ATOM     12  C   UNL     1     167.080 164.403 150.712  1.00  0.00     0.021 A 
ATOM     13  C   UNL     1     165.983 164.946 150.022  1.00  0.00     0.016 A 
ATOM     14  C   UNL     1     165.868 164.787 148.637  1.00  0.00     0.047 A 
ATOM     15  C   UNL     1     166.840 164.070 147.928  1.00  0.00     0.115 A 
ATOM     16  C   UNL     1     168.042 163.668 149.995  1.00  0.00     0.016 A 
ATOM     17  C   UNL     1     167.924 163.509 148.611  1.00  0.00     0.047 A 
BRANCH  15  18
ATOM     18  O   UNL     1     166.736 163.905 146.549  1.00  0.00    -0.508 OA
ATOM     19  H   UNL     1     166.349 164.631 145.957  1.00  0.00     0.293 HD
ENDBRANCH  15  18
ENDBRANCH   1  12
BRANCH   2  20
ATOM     20  O   UNL     1     167.108 162.162 152.549  1.00  0.00    -0.502 OA
ATOM     21  H   UNL     1     167.217 161.344 153.136  1.00  0.00     0.293 HD
ENDBRANCH   2  20
BRANCH   6  22
ATOM     22  O   UNL     1     167.117 164.455 157.356  1.00  0.00    -0.507 OA
ATOM     23  H   UNL     1     167.158 163.451 157.254  1.00  0.00     0.293 HD
ENDBRANCH   6  22
BRANCH   8  24
ATOM     24  O   UNL     1     167.785 169.032 156.130  1.00  0.00    -0.508 OA
ATOM     25  H   UNL     1     168.433 169.649 155.655  1.00  0.00     0.293 HD
ENDBRANCH   8  24
TORSDOF 5
ENDMDL
