MODEL 1
REMARK VINA RESULT:    -3.521      0.000      0.000
REMARK INTER + INTRA:         -10.963
REMARK INTER:                  -7.639
REMARK INTRA:                  -3.324
REMARK UNBOUND:                -3.324
REMARK SMILES CCCCCCCCCCCCCCCCCCCCCC(=O)[O-]
REMARK SMILES IDX 12 1 11 2 10 3 9 4 8 5 7 6 6 7 5 8 4 9 3 10 2 11 1 12 13 13
REMARK SMILES IDX 14 14 15 15 16 16 17 17 18 18 19 19 20 20 21 21 22 22 23 23
REMARK SMILES IDX 24 24
REMARK H PARENT
REMARK Flexibility Score: inf
ROOT
ATOM      1  C   UNL     1      45.321  31.521  91.725  1.00  0.00     0.000 C 
ENDROOT
BRANCH   1   2
ATOM      2  C   UNL     1      44.343  31.386  92.906  1.00  0.00     0.000 C 
BRANCH   2   3
ATOM      3  C   UNL     1      43.373  30.191  92.819  1.00  0.00     0.000 C 
BRANCH   3   4
ATOM      4  C   UNL     1      43.909  28.868  93.398  1.00  0.00    -0.000 C 
BRANCH   4   5
ATOM      5  C   UNL     1      44.504  27.894  92.363  1.00  0.00    -0.000 C 
BRANCH   5   6
ATOM      6  C   UNL     1      46.028  27.732  92.505  1.00  0.00    -0.000 C 
BRANCH   6   7
ATOM      7  C   UNL     1      46.779  28.060  91.203  1.00  0.00    -0.000 C 
BRANCH   7   8
ATOM      8  C   UNL     1      48.267  28.374  91.444  1.00  0.00    -0.000 C 
BRANCH   8   9
ATOM      9  C   UNL     1      48.765  29.560  90.604  1.00  0.00    -0.000 C 
BRANCH   9  10
ATOM     10  C   UNL     1      49.063  30.807  91.454  1.00  0.00    -0.000 C 
BRANCH  10  11
ATOM     11  C   UNL     1      50.517  30.847  91.950  1.00  0.00    -0.003 C 
ATOM     12  C   UNL     1      50.776  31.983  92.940  1.00  0.00     0.004 C 
ENDBRANCH  10  11
ENDBRANCH   9  10
ENDBRANCH   8   9
ENDBRANCH   7   8
ENDBRANCH   6   7
ENDBRANCH   5   6
ENDBRANCH   4   5
ENDBRANCH   3   4
ENDBRANCH   2   3
ENDBRANCH   1   2
BRANCH   1  13
ATOM     13  C   UNL     1      44.703  31.078  90.386  1.00  0.00     0.000 C 
BRANCH  13  14
ATOM     14  C   UNL     1      45.718  31.092  89.233  1.00  0.00     0.000 C 
BRANCH  14  15
ATOM     15  C   UNL     1      45.508  29.936  88.239  1.00  0.00     0.000 C 
BRANCH  15  16
ATOM     16  C   UNL     1      46.777  29.612  87.434  1.00  0.00     0.000 C 
BRANCH  16  17
ATOM     17  C   UNL     1      47.356  30.848  86.722  1.00  0.00     0.000 C 
BRANCH  17  18
ATOM     18  C   UNL     1      48.844  31.072  87.034  1.00  0.00     0.000 C 
BRANCH  18  19
ATOM     19  C   UNL     1      49.127  32.179  88.068  1.00  0.00     0.000 C 
BRANCH  19  20
ATOM     20  C   UNL     1      48.228  33.427  87.908  1.00  0.00     0.006 C 
BRANCH  20  21
ATOM     21  C   UNL     1      48.667  34.362  86.770  1.00  0.00     0.053 C 
BRANCH  21  22
ATOM     22  C   UNL     1      50.117  34.725  86.874  1.00  0.00     0.041 C 
ATOM     23  O   UNL     1      50.921  34.398  85.962  1.00  0.00    -0.550 OA
ATOM     24  O   UNL     1      50.576  35.455  87.963  1.00  0.00    -0.550 OA
ENDBRANCH  21  22
ENDBRANCH  20  21
ENDBRANCH  19  20
ENDBRANCH  18  19
ENDBRANCH  17  18
ENDBRANCH  16  17
ENDBRANCH  15  16
ENDBRANCH  14  15
ENDBRANCH  13  14
ENDBRANCH   1  13
TORSDOF 20
ENDMDL
MODEL 2
REMARK VINA RESULT:    -3.496      3.155      7.439
REMARK INTER + INTRA:         -10.907
REMARK INTER:                  -7.173
REMARK INTRA:                  -3.734
REMARK UNBOUND:                -3.324
REMARK SMILES CCCCCCCCCCCCCCCCCCCCCC(=O)[O-]
REMARK SMILES IDX 12 1 11 2 10 3 9 4 8 5 7 6 6 7 5 8 4 9 3 10 2 11 1 12 13 13
REMARK SMILES IDX 14 14 15 15 16 16 17 17 18 18 19 19 20 20 21 21 22 22 23 23
REMARK SMILES IDX 24 24
REMARK H PARENT
REMARK Flexibility Score: inf
ROOT
ATOM      1  C   UNL     1      50.688  31.947  88.101  1.00  0.00     0.000 C 
ENDROOT
BRANCH   1   2
ATOM      2  C   UNL     1      49.301  31.397  87.724  1.00  0.00     0.000 C 
BRANCH   2   3
ATOM      3  C   UNL     1      48.184  32.454  87.623  1.00  0.00     0.000 C 
BRANCH   3   4
ATOM      4  C   UNL     1      48.654  33.918  87.723  1.00  0.00    -0.000 C 
BRANCH   4   5
ATOM      5  C   UNL     1      48.509  34.741  86.428  1.00  0.00    -0.000 C 
BRANCH   5   6
ATOM      6  C   UNL     1      48.969  33.970  85.178  1.00  0.00    -0.000 C 
BRANCH   6   7
ATOM      7  C   UNL     1      50.467  34.158  84.887  1.00  0.00    -0.000 C 
BRANCH   7   8
ATOM      8  C   UNL     1      51.188  32.824  84.619  1.00  0.00    -0.000 C 
BRANCH   8   9
ATOM      9  C   UNL     1      52.633  32.817  85.142  1.00  0.00    -0.000 C 
BRANCH   9  10
ATOM     10  C   UNL     1      53.076  34.187  85.686  1.00  0.00    -0.000 C 
BRANCH  10  11
ATOM     11  C   UNL     1      53.386  34.149  87.191  1.00  0.00    -0.003 C 
ATOM     12  C   UNL     1      52.505  35.099  88.002  1.00  0.00     0.004 C 
ENDBRANCH  10  11
ENDBRANCH   9  10
ENDBRANCH   8   9
ENDBRANCH   7   8
ENDBRANCH   6   7
ENDBRANCH   5   6
ENDBRANCH   4   5
ENDBRANCH   3   4
ENDBRANCH   2   3
ENDBRANCH   1   2
BRANCH   1  13
ATOM     13  C   UNL     1      51.711  30.834  88.393  1.00  0.00     0.000 C 
BRANCH  13  14
ATOM     14  C   UNL     1      52.466  31.056  89.712  1.00  0.00     0.000 C 
BRANCH  14  15
ATOM     15  C   UNL     1      51.881  32.209  90.548  1.00  0.00     0.000 C 
BRANCH  15  16
ATOM     16  C   UNL     1      51.104  31.711  91.777  1.00  0.00     0.000 C 
BRANCH  16  17
ATOM     17  C   UNL     1      50.999  30.176  91.827  1.00  0.00     0.000 C 
BRANCH  17  18
ATOM     18  C   UNL     1      49.597  29.663  91.462  1.00  0.00     0.000 C 
BRANCH  18  19
ATOM     19  C   UNL     1      48.569  30.767  91.148  1.00  0.00     0.000 C 
BRANCH  19  20
ATOM     20  C   UNL     1      47.136  30.236  90.910  1.00  0.00     0.006 C 
BRANCH  20  21
ATOM     21  C   UNL     1      46.120  31.336  90.563  1.00  0.00     0.053 C 
BRANCH  21  22
ATOM     22  C   UNL     1      44.971  31.359  91.524  1.00  0.00     0.041 C 
ATOM     23  O   UNL     1      45.075  31.967  92.622  1.00  0.00    -0.550 OA
ATOM     24  O   UNL     1      43.774  30.736  91.195  1.00  0.00    -0.550 OA
ENDBRANCH  21  22
ENDBRANCH  20  21
ENDBRANCH  19  20
ENDBRANCH  18  19
ENDBRANCH  17  18
ENDBRANCH  16  17
ENDBRANCH  15  16
ENDBRANCH  14  15
ENDBRANCH  13  14
ENDBRANCH   1  13
TORSDOF 20
ENDMDL
MODEL 3
REMARK VINA RESULT:    -3.452      3.651      8.115
REMARK INTER + INTRA:         -10.813
REMARK INTER:                  -7.516
REMARK INTRA:                  -3.297
REMARK UNBOUND:                -3.324
REMARK SMILES CCCCCCCCCCCCCCCCCCCCCC(=O)[O-]
REMARK SMILES IDX 12 1 11 2 10 3 9 4 8 5 7 6 6 7 5 8 4 9 3 10 2 11 1 12 13 13
REMARK SMILES IDX 14 14 15 15 16 16 17 17 18 18 19 19 20 20 21 21 22 22 23 23
REMARK SMILES IDX 24 24
REMARK H PARENT
REMARK Flexibility Score: inf
ROOT
ATOM      1  C   UNL     1      53.033  31.606  88.333  1.00  0.00     0.000 C 
ENDROOT
BRANCH   1   2
ATOM      2  C   UNL     1      53.356  33.108  88.425  1.00  0.00     0.000 C 
BRANCH   2   3
ATOM      3  C   UNL     1      53.467  33.837  87.071  1.00  0.00     0.000 C 
BRANCH   3   4
ATOM      4  C   UNL     1      52.263  34.726  86.703  1.00  0.00    -0.000 C 
BRANCH   4   5
ATOM      5  C   UNL     1      51.507  35.331  87.902  1.00  0.00    -0.000 C 
BRANCH   5   6
ATOM      6  C   UNL     1      50.013  34.963  87.910  1.00  0.00    -0.000 C 
BRANCH   6   7
ATOM      7  C   UNL     1      49.503  34.537  86.524  1.00  0.00    -0.000 C 
BRANCH   7   8
ATOM      8  C   UNL     1      48.711  33.217  86.567  1.00  0.00    -0.000 C 
BRANCH   8   9
ATOM      9  C   UNL     1      48.095  32.941  87.948  1.00  0.00    -0.000 C 
BRANCH   9  10
ATOM     10  C   UNL     1      47.385  31.578  88.020  1.00  0.00    -0.000 C 
BRANCH  10  11
ATOM     11  C   UNL     1      48.192  30.458  87.345  1.00  0.00    -0.003 C 
ATOM     12  C   UNL     1      47.349  29.220  87.038  1.00  0.00     0.004 C 
ENDBRANCH  10  11
ENDBRANCH   9  10
ENDBRANCH   8   9
ENDBRANCH   7   8
ENDBRANCH   6   7
ENDBRANCH   5   6
ENDBRANCH   4   5
ENDBRANCH   3   4
ENDBRANCH   2   3
ENDBRANCH   1   2
BRANCH   1  13
ATOM     13  C   UNL     1      51.566  31.291  88.680  1.00  0.00     0.000 C 
BRANCH  13  14
ATOM     14  C   UNL     1      51.104  31.979  89.974  1.00  0.00     0.000 C 
BRANCH  14  15
ATOM     15  C   UNL     1      50.687  30.977  91.066  1.00  0.00     0.000 C 
BRANCH  15  16
ATOM     16  C   UNL     1      49.169  30.965  91.307  1.00  0.00     0.000 C 
BRANCH  16  17
ATOM     17  C   UNL     1      48.527  29.610  90.957  1.00  0.00     0.000 C 
BRANCH  17  18
ATOM     18  C   UNL     1      47.022  29.568  91.268  1.00  0.00     0.000 C 
BRANCH  18  19
ATOM     19  C   UNL     1      46.325  30.942  91.276  1.00  0.00     0.000 C 
BRANCH  19  20
ATOM     20  C   UNL     1      44.795  30.867  91.069  1.00  0.00     0.006 C 
BRANCH  20  21
ATOM     21  C   UNL     1      43.992  30.944  92.377  1.00  0.00     0.053 C 
BRANCH  21  22
ATOM     22  C   UNL     1      43.475  29.601  92.794  1.00  0.00     0.041 C 
ATOM     23  O   UNL     1      42.272  29.292  92.589  1.00  0.00    -0.550 OA
ATOM     24  O   UNL     1      44.331  28.675  93.379  1.00  0.00    -0.550 OA
ENDBRANCH  21  22
ENDBRANCH  20  21
ENDBRANCH  19  20
ENDBRANCH  18  19
ENDBRANCH  17  18
ENDBRANCH  16  17
ENDBRANCH  15  16
ENDBRANCH  14  15
ENDBRANCH  13  14
ENDBRANCH   1  13
TORSDOF 20
ENDMDL
MODEL 4
REMARK VINA RESULT:    -3.443      3.389      7.848
REMARK INTER + INTRA:         -10.792
REMARK INTER:                  -6.914
REMARK INTRA:                  -3.878
REMARK UNBOUND:                -3.324
REMARK SMILES CCCCCCCCCCCCCCCCCCCCCC(=O)[O-]
REMARK SMILES IDX 12 1 11 2 10 3 9 4 8 5 7 6 6 7 5 8 4 9 3 10 2 11 1 12 13 13
REMARK SMILES IDX 14 14 15 15 16 16 17 17 18 18 19 19 20 20 21 21 22 22 23 23
REMARK SMILES IDX 24 24
REMARK H PARENT
REMARK Flexibility Score: inf
ROOT
ATOM      1  C   UNL     1      49.982  31.182  85.693  1.00  0.00     0.000 C 
ENDROOT
BRANCH   1   2
ATOM      2  C   UNL     1      49.063  32.413  85.602  1.00  0.00     0.000 C 
BRANCH   2   3
ATOM      3  C   UNL     1      48.299  32.756  86.896  1.00  0.00     0.000 C 
BRANCH   3   4
ATOM      4  C   UNL     1      48.674  34.104  87.543  1.00  0.00    -0.000 C 
BRANCH   4   5
ATOM      5  C   UNL     1      49.920  34.789  86.949  1.00  0.00    -0.000 C 
BRANCH   5   6
ATOM      6  C   UNL     1      51.025  35.023  87.994  1.00  0.00    -0.000 C 
BRANCH   6   7
ATOM      7  C   UNL     1      52.400  34.526  87.518  1.00  0.00    -0.000 C 
BRANCH   7   8
ATOM      8  C   UNL     1      52.559  34.607  85.988  1.00  0.00    -0.000 C 
BRANCH   8   9
ATOM      9  C   UNL     1      53.102  33.305  85.379  1.00  0.00    -0.000 C 
BRANCH   9  10
ATOM     10  C   UNL     1      52.717  33.136  83.898  1.00  0.00    -0.000 C 
BRANCH  10  11
ATOM     11  C   UNL     1      51.540  34.036  83.491  1.00  0.00    -0.003 C 
ATOM     12  C   UNL     1      50.672  33.417  82.395  1.00  0.00     0.004 C 
ENDBRANCH  10  11
ENDBRANCH   9  10
ENDBRANCH   8   9
ENDBRANCH   7   8
ENDBRANCH   6   7
ENDBRANCH   5   6
ENDBRANCH   4   5
ENDBRANCH   3   4
ENDBRANCH   2   3
ENDBRANCH   1   2
BRANCH   1  13
ATOM     13  C   UNL     1      50.195  30.703  87.140  1.00  0.00     0.000 C 
BRANCH  13  14
ATOM     14  C   UNL     1      51.630  30.943  87.637  1.00  0.00     0.000 C 
BRANCH  14  15
ATOM     15  C   UNL     1      51.726  31.018  89.171  1.00  0.00     0.000 C 
BRANCH  15  16
ATOM     16  C   UNL     1      50.557  31.795  89.798  1.00  0.00     0.000 C 
BRANCH  16  17
ATOM     17  C   UNL     1      50.131  31.221  91.162  1.00  0.00     0.000 C 
BRANCH  17  18
ATOM     18  C   UNL     1      48.725  30.602  91.133  1.00  0.00     0.000 C 
BRANCH  18  19
ATOM     19  C   UNL     1      47.950  30.820  89.819  1.00  0.00     0.000 C 
BRANCH  19  20
ATOM     20  C   UNL     1      46.526  31.387  90.020  1.00  0.00     0.006 C 
BRANCH  20  21
ATOM     21  C   UNL     1      46.020  31.281  91.468  1.00  0.00     0.053 C 
BRANCH  21  22
ATOM     22  C   UNL     1      44.523  31.241  91.535  1.00  0.00     0.041 C 
ATOM     23  O   UNL     1      43.943  30.997  92.625  1.00  0.00    -0.550 OA
ATOM     24  O   UNL     1      43.768  31.508  90.400  1.00  0.00    -0.550 OA
ENDBRANCH  21  22
ENDBRANCH  20  21
ENDBRANCH  19  20
ENDBRANCH  18  19
ENDBRANCH  17  18
ENDBRANCH  16  17
ENDBRANCH  15  16
ENDBRANCH  14  15
ENDBRANCH  13  14
ENDBRANCH   1  13
TORSDOF 20
ENDMDL
MODEL 5
REMARK VINA RESULT:    -3.420      3.613      8.295
REMARK INTER + INTRA:         -10.744
REMARK INTER:                  -7.303
REMARK INTRA:                  -3.441
REMARK UNBOUND:                -3.324
REMARK SMILES CCCCCCCCCCCCCCCCCCCCCC(=O)[O-]
REMARK SMILES IDX 12 1 11 2 10 3 9 4 8 5 7 6 6 7 5 8 4 9 3 10 2 11 1 12 13 13
REMARK SMILES IDX 14 14 15 15 16 16 17 17 18 18 19 19 20 20 21 21 22 22 23 23
REMARK SMILES IDX 24 24
REMARK H PARENT
REMARK Flexibility Score: inf
ROOT
ATOM      1  C   UNL     1      52.149  31.115  86.752  1.00  0.00     0.000 C 
ENDROOT
BRANCH   1   2
ATOM      2  C   UNL     1      53.049  32.315  87.096  1.00  0.00     0.000 C 
BRANCH   2   3
ATOM      3  C   UNL     1      53.109  33.416  86.019  1.00  0.00     0.000 C 
BRANCH   3   4
ATOM      4  C   UNL     1      52.582  34.796  86.460  1.00  0.00    -0.000 C 
BRANCH   4   5
ATOM      5  C   UNL     1      51.946  34.834  87.864  1.00  0.00    -0.000 C 
BRANCH   5   6
ATOM      6  C   UNL     1      50.500  35.360  87.848  1.00  0.00    -0.000 C 
BRANCH   6   7
ATOM      7  C   UNL     1      49.462  34.227  87.808  1.00  0.00    -0.000 C 
BRANCH   7   8
ATOM      8  C   UNL     1      48.599  34.263  86.532  1.00  0.00    -0.000 C 
BRANCH   8   9
ATOM      9  C   UNL     1      48.572  32.913  85.798  1.00  0.00    -0.000 C 
BRANCH   9  10
ATOM     10  C   UNL     1      49.613  32.830  84.668  1.00  0.00    -0.000 C 
BRANCH  10  11
ATOM     11  C   UNL     1      49.940  34.207  84.068  1.00  0.00    -0.003 C 
ATOM     12  C   UNL     1      49.426  34.368  82.638  1.00  0.00     0.004 C 
ENDBRANCH  10  11
ENDBRANCH   9  10
ENDBRANCH   8   9
ENDBRANCH   7   8
ENDBRANCH   6   7
ENDBRANCH   5   6
ENDBRANCH   4   5
ENDBRANCH   3   4
ENDBRANCH   2   3
ENDBRANCH   1   2
BRANCH   1  13
ATOM     13  C   UNL     1      51.016  30.908  87.774  1.00  0.00     0.000 C 
BRANCH  13  14
ATOM     14  C   UNL     1      51.459  31.203  89.215  1.00  0.00     0.000 C 
BRANCH  14  15
ATOM     15  C   UNL     1      50.273  31.460  90.163  1.00  0.00     0.000 C 
BRANCH  15  16
ATOM     16  C   UNL     1      49.016  30.673  89.761  1.00  0.00     0.000 C 
BRANCH  16  17
ATOM     17  C   UNL     1      47.774  31.574  89.627  1.00  0.00     0.000 C 
BRANCH  17  18
ATOM     18  C   UNL     1      46.727  31.003  88.657  1.00  0.00     0.000 C 
BRANCH  18  19
ATOM     19  C   UNL     1      45.311  30.858  89.249  1.00  0.00     0.000 C 
BRANCH  19  20
ATOM     20  C   UNL     1      45.264  30.977  90.789  1.00  0.00     0.006 C 
BRANCH  20  21
ATOM     21  C   UNL     1      44.119  30.179  91.434  1.00  0.00     0.053 C 
BRANCH  21  22
ATOM     22  C   UNL     1      43.951  30.516  92.885  1.00  0.00     0.041 C 
ATOM     23  O   UNL     1      43.686  29.612  93.719  1.00  0.00    -0.550 OA
ATOM     24  O   UNL     1      44.122  31.824  93.321  1.00  0.00    -0.550 OA
ENDBRANCH  21  22
ENDBRANCH  20  21
ENDBRANCH  19  20
ENDBRANCH  18  19
ENDBRANCH  17  18
ENDBRANCH  16  17
ENDBRANCH  15  16
ENDBRANCH  14  15
ENDBRANCH  13  14
ENDBRANCH   1  13
TORSDOF 20
ENDMDL
MODEL 6
REMARK VINA RESULT:    -3.366      3.263      7.919
REMARK INTER + INTRA:         -10.626
REMARK INTER:                  -7.055
REMARK INTRA:                  -3.571
REMARK UNBOUND:                -3.324
REMARK SMILES CCCCCCCCCCCCCCCCCCCCCC(=O)[O-]
REMARK SMILES IDX 12 1 11 2 10 3 9 4 8 5 7 6 6 7 5 8 4 9 3 10 2 11 1 12 13 13
REMARK SMILES IDX 14 14 15 15 16 16 17 17 18 18 19 19 20 20 21 21 22 22 23 23
REMARK SMILES IDX 24 24
REMARK H PARENT
REMARK Flexibility Score: inf
ROOT
ATOM      1  C   UNL     1      53.260  33.352  88.310  1.00  0.00     0.000 C 
ENDROOT
BRANCH   1   2
ATOM      2  C   UNL     1      53.253  34.253  87.061  1.00  0.00     0.000 C 
BRANCH   2   3
ATOM      3  C   UNL     1      51.856  34.681  86.572  1.00  0.00     0.000 C 
BRANCH   3   4
ATOM      4  C   UNL     1      50.875  35.111  87.680  1.00  0.00    -0.000 C 
BRANCH   4   5
ATOM      5  C   UNL     1      49.383  34.963  87.325  1.00  0.00    -0.000 C 
BRANCH   5   6
ATOM      6  C   UNL     1      48.727  33.746  88.001  1.00  0.00    -0.000 C 
BRANCH   6   7
ATOM      7  C   UNL     1      48.238  32.701  86.986  1.00  0.00    -0.000 C 
BRANCH   7   8
ATOM      8  C   UNL     1      49.399  31.962  86.295  1.00  0.00    -0.000 C 
BRANCH   8   9
ATOM      9  C   UNL     1      49.332  32.057  84.762  1.00  0.00    -0.000 C 
BRANCH   9  10
ATOM     10  C   UNL     1      48.305  33.094  84.275  1.00  0.00    -0.000 C 
BRANCH  10  11
ATOM     11  C   UNL     1      48.971  34.372  83.739  1.00  0.00    -0.003 C 
ATOM     12  C   UNL     1      50.418  34.147  83.300  1.00  0.00     0.004 C 
ENDBRANCH  10  11
ENDBRANCH   9  10
ENDBRANCH   8   9
ENDBRANCH   7   8
ENDBRANCH   6   7
ENDBRANCH   5   6
ENDBRANCH   4   5
ENDBRANCH   3   4
ENDBRANCH   2   3
ENDBRANCH   1   2
BRANCH   1  13
ATOM     13  C   UNL     1      52.846  31.903  88.000  1.00  0.00     0.000 C 
BRANCH  13  14
ATOM     14  C   UNL     1      51.811  31.358  88.997  1.00  0.00     0.000 C 
BRANCH  14  15
ATOM     15  C   UNL     1      51.497  32.349  90.133  1.00  0.00     0.000 C 
BRANCH  15  16
ATOM     16  C   UNL     1      51.637  31.714  91.525  1.00  0.00     0.000 C 
BRANCH  16  17
ATOM     17  C   UNL     1      50.290  31.228  92.090  1.00  0.00     0.000 C 
BRANCH  17  18
ATOM     18  C   UNL     1      49.992  29.762  91.740  1.00  0.00     0.000 C 
BRANCH  18  19
ATOM     19  C   UNL     1      48.678  29.537  90.967  1.00  0.00     0.000 C 
BRANCH  19  20
ATOM     20  C   UNL     1      48.077  30.831  90.369  1.00  0.00     0.006 C 
BRANCH  20  21
ATOM     21  C   UNL     1      46.760  31.263  91.033  1.00  0.00     0.053 C 
BRANCH  21  22
ATOM     22  C   UNL     1      45.768  30.142  91.088  1.00  0.00     0.041 C 
ATOM     23  O   UNL     1      45.260  29.692  90.027  1.00  0.00    -0.550 OA
ATOM     24  O   UNL     1      45.429  29.569  92.307  1.00  0.00    -0.550 OA
ENDBRANCH  21  22
ENDBRANCH  20  21
ENDBRANCH  19  20
ENDBRANCH  18  19
ENDBRANCH  17  18
ENDBRANCH  16  17
ENDBRANCH  15  16
ENDBRANCH  14  15
ENDBRANCH  13  14
ENDBRANCH   1  13
TORSDOF 20
ENDMDL
MODEL 7
REMARK VINA RESULT:    -3.363      2.435      5.102
REMARK INTER + INTRA:         -10.619
REMARK INTER:                  -6.933
REMARK INTRA:                  -3.686
REMARK UNBOUND:                -3.324
REMARK SMILES CCCCCCCCCCCCCCCCCCCCCC(=O)[O-]
REMARK SMILES IDX 12 1 11 2 10 3 9 4 8 5 7 6 6 7 5 8 4 9 3 10 2 11 1 12 13 13
REMARK SMILES IDX 14 14 15 15 16 16 17 17 18 18 19 19 20 20 21 21 22 22 23 23
REMARK SMILES IDX 24 24
REMARK H PARENT
REMARK Flexibility Score: inf
ROOT
ATOM      1  C   UNL     1      48.064  32.205  87.213  1.00  0.00     0.000 C 
ENDROOT
BRANCH   1   2
ATOM      2  C   UNL     1      47.541  32.467  88.637  1.00  0.00     0.000 C 
BRANCH   2   3
ATOM      3  C   UNL     1      46.736  31.310  89.260  1.00  0.00     0.000 C 
BRANCH   3   4
ATOM      4  C   UNL     1      46.960  31.092  90.769  1.00  0.00    -0.000 C 
BRANCH   4   5
ATOM      5  C   UNL     1      47.431  29.678  91.162  1.00  0.00    -0.000 C 
BRANCH   5   6
ATOM      6  C   UNL     1      48.963  29.532  91.137  1.00  0.00    -0.000 C 
BRANCH   6   7
ATOM      7  C   UNL     1      49.686  30.840  91.498  1.00  0.00    -0.000 C 
BRANCH   7   8
ATOM      8  C   UNL     1      50.652  31.305  90.393  1.00  0.00    -0.000 C 
BRANCH   8   9
ATOM      9  C   UNL     1      50.593  30.415  89.141  1.00  0.00    -0.000 C 
BRANCH   9  10
ATOM     10  C   UNL     1      51.498  30.924  88.006  1.00  0.00    -0.000 C 
BRANCH  10  11
ATOM     11  C   UNL     1      51.586  29.933  86.835  1.00  0.00    -0.003 C 
ATOM     12  C   UNL     1      50.970  30.480  85.547  1.00  0.00     0.004 C 
ENDBRANCH  10  11
ENDBRANCH   9  10
ENDBRANCH   8   9
ENDBRANCH   7   8
ENDBRANCH   6   7
ENDBRANCH   5   6
ENDBRANCH   4   5
ENDBRANCH   3   4
ENDBRANCH   2   3
ENDBRANCH   1   2
BRANCH   1  13
ATOM     13  C   UNL     1      48.915  33.367  86.668  1.00  0.00     0.000 C 
BRANCH  13  14
ATOM     14  C   UNL     1      48.634  34.694  87.391  1.00  0.00     0.000 C 
BRANCH  14  15
ATOM     15  C   UNL     1      49.919  35.465  87.743  1.00  0.00     0.000 C 
BRANCH  15  16
ATOM     16  C   UNL     1      51.085  34.533  88.107  1.00  0.00     0.000 C 
BRANCH  16  17
ATOM     17  C   UNL     1      52.426  35.007  87.518  1.00  0.00     0.000 C 
BRANCH  17  18
ATOM     18  C   UNL     1      53.314  33.843  87.048  1.00  0.00     0.000 C 
BRANCH  18  19
ATOM     19  C   UNL     1      53.115  33.433  85.576  1.00  0.00     0.000 C 
BRANCH  19  20
ATOM     20  C   UNL     1      52.047  34.270  84.835  1.00  0.00     0.006 C 
BRANCH  20  21
ATOM     21  C   UNL     1      51.648  33.690  83.468  1.00  0.00     0.053 C 
BRANCH  21  22
ATOM     22  C   UNL     1      50.162  33.679  83.278  1.00  0.00     0.041 C 
ATOM     23  O   UNL     1      49.508  34.754  83.333  1.00  0.00    -0.550 OA
ATOM     24  O   UNL     1      49.502  32.487  83.005  1.00  0.00    -0.550 OA
ENDBRANCH  21  22
ENDBRANCH  20  21
ENDBRANCH  19  20
ENDBRANCH  18  19
ENDBRANCH  17  18
ENDBRANCH  16  17
ENDBRANCH  15  16
ENDBRANCH  14  15
ENDBRANCH  13  14
ENDBRANCH   1  13
TORSDOF 20
ENDMDL
MODEL 8
REMARK VINA RESULT:    -3.310      2.241      4.377
REMARK INTER + INTRA:         -10.503
REMARK INTER:                  -6.400
REMARK INTRA:                  -4.103
REMARK UNBOUND:                -3.324
REMARK SMILES CCCCCCCCCCCCCCCCCCCCCC(=O)[O-]
REMARK SMILES IDX 12 1 11 2 10 3 9 4 8 5 7 6 6 7 5 8 4 9 3 10 2 11 1 12 13 13
REMARK SMILES IDX 14 14 15 15 16 16 17 17 18 18 19 19 20 20 21 21 22 22 23 23
REMARK SMILES IDX 24 24
REMARK H PARENT
REMARK Flexibility Score: inf
ROOT
ATOM      1  C   UNL     1      48.947  30.601  87.269  1.00  0.00     0.000 C 
ENDROOT
BRANCH   1   2
ATOM      2  C   UNL     1      47.594  31.299  87.498  1.00  0.00     0.000 C 
BRANCH   2   3
ATOM      3  C   UNL     1      47.459  32.039  88.843  1.00  0.00     0.000 C 
BRANCH   3   4
ATOM      4  C   UNL     1      46.392  31.473  89.800  1.00  0.00    -0.000 C 
BRANCH   4   5
ATOM      5  C   UNL     1      46.945  30.783  91.061  1.00  0.00    -0.000 C 
BRANCH   5   6
ATOM      6  C   UNL     1      47.758  29.516  90.740  1.00  0.00    -0.000 C 
BRANCH   6   7
ATOM      7  C   UNL     1      49.127  29.502  91.438  1.00  0.00    -0.000 C 
BRANCH   7   8
ATOM      8  C   UNL     1      50.267  29.966  90.512  1.00  0.00    -0.000 C 
BRANCH   8   9
ATOM      9  C   UNL     1      50.566  31.467  90.647  1.00  0.00    -0.000 C 
BRANCH   9  10
ATOM     10  C   UNL     1      51.333  31.807  91.937  1.00  0.00    -0.000 C 
BRANCH  10  11
ATOM     11  C   UNL     1      52.833  31.492  91.829  1.00  0.00    -0.003 C 
ATOM     12  C   UNL     1      53.623  32.599  91.130  1.00  0.00     0.004 C 
ENDBRANCH  10  11
ENDBRANCH   9  10
ENDBRANCH   8   9
ENDBRANCH   7   8
ENDBRANCH   6   7
ENDBRANCH   5   6
ENDBRANCH   4   5
ENDBRANCH   3   4
ENDBRANCH   2   3
ENDBRANCH   1   2
BRANCH   1  13
ATOM     13  C   UNL     1      49.467  30.767  85.830  1.00  0.00     0.000 C 
BRANCH  13  14
ATOM     14  C   UNL     1      50.974  31.062  85.776  1.00  0.00     0.000 C 
BRANCH  14  15
ATOM     15  C   UNL     1      51.751  30.414  86.937  1.00  0.00     0.000 C 
BRANCH  15  16
ATOM     16  C   UNL     1      52.612  31.426  87.708  1.00  0.00     0.000 C 
BRANCH  16  17
ATOM     17  C   UNL     1      52.583  32.829  87.076  1.00  0.00     0.000 C 
BRANCH  17  18
ATOM     18  C   UNL     1      52.032  33.901  88.031  1.00  0.00     0.000 C 
BRANCH  18  19
ATOM     19  C   UNL     1      50.495  33.941  88.137  1.00  0.00     0.000 C 
BRANCH  19  20
ATOM     20  C   UNL     1      49.837  35.029  87.257  1.00  0.00     0.006 C 
BRANCH  20  21
ATOM     21  C   UNL     1      48.702  34.498  86.366  1.00  0.00     0.053 C 
BRANCH  21  22
ATOM     22  C   UNL     1      49.133  34.355  84.938  1.00  0.00     0.041 C 
ATOM     23  O   UNL     1      50.357  34.364  84.641  1.00  0.00    -0.550 OA
ATOM     24  O   UNL     1      48.185  34.177  83.939  1.00  0.00    -0.550 OA
ENDBRANCH  21  22
ENDBRANCH  20  21
ENDBRANCH  19  20
ENDBRANCH  18  19
ENDBRANCH  17  18
ENDBRANCH  16  17
ENDBRANCH  15  16
ENDBRANCH  14  15
ENDBRANCH  13  14
ENDBRANCH   1  13
TORSDOF 20
ENDMDL
MODEL 9
REMARK VINA RESULT:    -3.300      2.045      5.382
REMARK INTER + INTRA:         -10.482
REMARK INTER:                  -7.231
REMARK INTRA:                  -3.252
REMARK UNBOUND:                -3.324
REMARK SMILES CCCCCCCCCCCCCCCCCCCCCC(=O)[O-]
REMARK SMILES IDX 12 1 11 2 10 3 9 4 8 5 7 6 6 7 5 8 4 9 3 10 2 11 1 12 13 13
REMARK SMILES IDX 14 14 15 15 16 16 17 17 18 18 19 19 20 20 21 21 22 22 23 23
REMARK SMILES IDX 24 24
REMARK H PARENT
REMARK Flexibility Score: inf
ROOT
ATOM      1  C   UNL     1      51.032  32.004  90.300  1.00  0.00     0.000 C 
ENDROOT
BRANCH   1   2
ATOM      2  C   UNL     1      50.505  31.219  91.515  1.00  0.00     0.000 C 
BRANCH   2   3
ATOM      3  C   UNL     1      50.089  29.764  91.223  1.00  0.00     0.000 C 
BRANCH   3   4
ATOM      4  C   UNL     1      48.569  29.519  91.145  1.00  0.00    -0.000 C 
BRANCH   4   5
ATOM      5  C   UNL     1      48.002  29.385  89.718  1.00  0.00    -0.000 C 
BRANCH   5   6
ATOM      6  C   UNL     1      47.640  30.743  89.091  1.00  0.00    -0.000 C 
BRANCH   6   7
ATOM      7  C   UNL     1      46.726  31.585  89.996  1.00  0.00    -0.000 C 
BRANCH   7   8
ATOM      8  C   UNL     1      45.244  31.184  89.873  1.00  0.00    -0.000 C 
BRANCH   8   9
ATOM      9  C   UNL     1      44.529  31.135  91.233  1.00  0.00    -0.000 C 
BRANCH   9  10
ATOM     10  C   UNL     1      44.166  29.703  91.663  1.00  0.00    -0.000 C 
BRANCH  10  11
ATOM     11  C   UNL     1      45.241  29.069  92.561  1.00  0.00    -0.003 C 
ATOM     12  C   UNL     1      45.496  27.598  92.233  1.00  0.00     0.004 C 
ENDBRANCH  10  11
ENDBRANCH   9  10
ENDBRANCH   8   9
ENDBRANCH   7   8
ENDBRANCH   6   7
ENDBRANCH   5   6
ENDBRANCH   4   5
ENDBRANCH   3   4
ENDBRANCH   2   3
ENDBRANCH   1   2
BRANCH   1  13
ATOM     13  C   UNL     1      51.647  31.091  89.223  1.00  0.00     0.000 C 
BRANCH  13  14
ATOM     14  C   UNL     1      52.782  31.776  88.446  1.00  0.00     0.000 C 
BRANCH  14  15
ATOM     15  C   UNL     1      53.082  33.197  88.956  1.00  0.00     0.000 C 
BRANCH  15  16
ATOM     16  C   UNL     1      53.476  34.159  87.824  1.00  0.00     0.000 C 
BRANCH  16  17
ATOM     17  C   UNL     1      52.254  34.724  87.077  1.00  0.00     0.000 C 
BRANCH  17  18
ATOM     18  C   UNL     1      51.227  35.370  88.020  1.00  0.00     0.000 C 
BRANCH  18  19
ATOM     19  C   UNL     1      49.759  35.016  87.714  1.00  0.00     0.000 C 
BRANCH  19  20
ATOM     20  C   UNL     1      49.538  33.529  87.352  1.00  0.00     0.006 C 
BRANCH  20  21
ATOM     21  C   UNL     1      48.494  33.313  86.245  1.00  0.00     0.053 C 
BRANCH  21  22
ATOM     22  C   UNL     1      48.975  33.816  84.917  1.00  0.00     0.041 C 
ATOM     23  O   UNL     1      50.133  33.531  84.513  1.00  0.00    -0.550 OA
ATOM     24  O   UNL     1      48.132  34.570  84.111  1.00  0.00    -0.550 OA
ENDBRANCH  21  22
ENDBRANCH  20  21
ENDBRANCH  19  20
ENDBRANCH  18  19
ENDBRANCH  17  18
ENDBRANCH  16  17
ENDBRANCH  15  16
ENDBRANCH  14  15
ENDBRANCH  13  14
ENDBRANCH   1  13
TORSDOF 20
ENDMDL
