MODEL 1
REMARK VINA RESULT:    -5.354      0.000      0.000
REMARK INTER + INTRA:          -6.877
REMARK INTER:                  -6.605
REMARK INTRA:                  -0.272
REMARK UNBOUND:                -0.272
REMARK SMILES O=C1c2c(O)cc(O)cc2O[C@H](c2cc(O)c(O)c(O)c2)[C@H]1O
REMARK SMILES IDX 12 1 22 2 2 3 1 4 3 5 4 6 6 7 7 8 9 9 10 10 11 11 13 12
REMARK SMILES IDX 14 13 15 14 21 15 17 16 19 17 16 18 18 20 20 22 23 24 5 26
REMARK SMILES IDX 8 28
REMARK H PARENT 16 19 18 21 20 23 23 25 5 27 8 29
REMARK Flexibility Score: inf
ROOT
ATOM      1  C   UNL     1      45.496  16.241  -3.262  1.00  0.00     0.240 C 
ATOM      2  C   UNL     1      45.430  15.691  -4.702  1.00  0.00     0.231 C 
ATOM      3  C   UNL     1      46.717  14.971  -5.019  1.00  0.00     0.202 C 
ATOM      4  O   UNL     1      47.289  15.168  -6.125  1.00  0.00    -0.291 OA
ATOM      5  C   UNL     1      47.304  14.076  -3.990  1.00  0.00     0.105 A 
ATOM      6  C   UNL     1      48.269  13.071  -4.268  1.00  0.00     0.133 A 
ATOM      7  C   UNL     1      48.813  12.328  -3.214  1.00  0.00     0.093 A 
ATOM      8  C   UNL     1      48.377  12.520  -1.902  1.00  0.00     0.123 A 
ATOM      9  C   UNL     1      47.391  13.473  -1.630  1.00  0.00     0.093 A 
ATOM     10  C   UNL     1      46.864  14.254  -2.660  1.00  0.00     0.138 A 
ATOM     11  O   UNL     1      45.886  15.209  -2.351  1.00  0.00    -0.481 OA
ENDROOT
BRANCH   1  12
ATOM     12  C   UNL     1      44.165  16.818  -2.841  1.00  0.00     0.003 A 
ATOM     13  C   UNL     1      43.890  18.183  -3.021  1.00  0.00     0.058 A 
ATOM     14  C   UNL     1      42.666  18.724  -2.604  1.00  0.00     0.161 A 
ATOM     15  C   UNL     1      43.209  16.002  -2.215  1.00  0.00     0.058 A 
ATOM     16  C   UNL     1      41.709  17.898  -1.991  1.00  0.00     0.200 A 
ATOM     17  C   UNL     1      41.984  16.538  -1.795  1.00  0.00     0.161 A 
BRANCH  14  18
ATOM     18  O   UNL     1      42.399  20.079  -2.793  1.00  0.00    -0.504 OA
ATOM     19  H   UNL     1      41.449  20.431  -2.844  1.00  0.00     0.293 HD
ENDBRANCH  14  18
BRANCH  16  20
ATOM     20  O   UNL     1      40.483  18.413  -1.567  1.00  0.00    -0.502 OA
ATOM     21  H   UNL     1      40.291  18.616  -0.593  1.00  0.00     0.293 HD
ENDBRANCH  16  20
BRANCH  17  22
ATOM     22  O   UNL     1      41.034  15.725  -1.180  1.00  0.00    -0.504 OA
ATOM     23  H   UNL     1      41.263  15.161  -0.370  1.00  0.00     0.293 HD
ENDBRANCH  17  22
ENDBRANCH   1  12
BRANCH   2  24
ATOM     24  O   UNL     1      45.173  16.721  -5.628  1.00  0.00    -0.381 OA
ATOM     25  H   UNL     1      45.234  16.330  -6.539  1.00  0.00     0.211 HD
ENDBRANCH   2  24
BRANCH   6  26
ATOM     26  O   UNL     1      48.689  12.750  -5.561  1.00  0.00    -0.507 OA
ATOM     27  H   UNL     1      49.277  13.344  -6.128  1.00  0.00     0.293 HD
ENDBRANCH   6  26
BRANCH   8  28
ATOM     28  O   UNL     1      48.924  11.752  -0.876  1.00  0.00    -0.508 OA
ATOM     29  H   UNL     1      48.617  10.801  -0.705  1.00  0.00     0.293 HD
ENDBRANCH   8  28
TORSDOF 7
ENDMDL
MODEL 2
REMARK VINA RESULT:    -5.350      2.031      3.268
REMARK INTER + INTRA:          -6.873
REMARK INTER:                  -7.067
REMARK INTRA:                   0.194
REMARK UNBOUND:                -0.272
REMARK SMILES O=C1c2c(O)cc(O)cc2O[C@H](c2cc(O)c(O)c(O)c2)[C@H]1O
REMARK SMILES IDX 12 1 22 2 2 3 1 4 3 5 4 6 6 7 7 8 9 9 10 10 11 11 13 12
REMARK SMILES IDX 14 13 15 14 21 15 17 16 19 17 16 18 18 20 20 22 23 24 5 26
REMARK SMILES IDX 8 28
REMARK H PARENT 16 19 18 21 20 23 23 25 5 27 8 29
REMARK Flexibility Score: inf
ROOT
ATOM      1  C   UNL     1      45.636  15.845  -3.977  1.00  0.00     0.240 C 
ATOM      2  C   UNL     1      45.759  14.763  -2.883  1.00  0.00     0.231 C 
ATOM      3  C   UNL     1      46.896  13.834  -3.227  1.00  0.00     0.202 C 
ATOM      4  O   UNL     1      46.741  12.587  -3.121  1.00  0.00    -0.291 OA
ATOM      5  C   UNL     1      48.164  14.418  -3.732  1.00  0.00     0.105 A 
ATOM      6  C   UNL     1      49.409  13.732  -3.737  1.00  0.00     0.133 A 
ATOM      7  C   UNL     1      50.532  14.347  -4.302  1.00  0.00     0.093 A 
ATOM      8  C   UNL     1      50.460  15.646  -4.807  1.00  0.00     0.123 A 
ATOM      9  C   UNL     1      49.250  16.343  -4.758  1.00  0.00     0.093 A 
ATOM     10  C   UNL     1      48.107  15.735  -4.237  1.00  0.00     0.138 A 
ATOM     11  O   UNL     1      46.907  16.458  -4.216  1.00  0.00    -0.481 OA
ENDROOT
BRANCH   1  12
ATOM     12  C   UNL     1      44.626  16.897  -3.587  1.00  0.00     0.003 A 
ATOM     13  C   UNL     1      43.861  16.753  -2.418  1.00  0.00     0.058 A 
ATOM     14  C   UNL     1      42.903  17.716  -2.072  1.00  0.00     0.161 A 
ATOM     15  C   UNL     1      44.405  18.006  -4.419  1.00  0.00     0.058 A 
ATOM     16  C   UNL     1      42.697  18.829  -2.903  1.00  0.00     0.200 A 
ATOM     17  C   UNL     1      43.448  18.971  -4.077  1.00  0.00     0.161 A 
BRANCH  14  18
ATOM     18  O   UNL     1      42.152  17.567  -0.906  1.00  0.00    -0.504 OA
ATOM     19  H   UNL     1      42.418  16.907  -0.184  1.00  0.00     0.293 HD
ENDBRANCH  14  18
BRANCH  16  20
ATOM     20  O   UNL     1      41.750  19.801  -2.579  1.00  0.00    -0.502 OA
ATOM     21  H   UNL     1      40.754  19.621  -2.629  1.00  0.00     0.293 HD
ENDBRANCH  16  20
BRANCH  17  22
ATOM     22  O   UNL     1      43.236  20.074  -4.902  1.00  0.00    -0.504 OA
ATOM     23  H   UNL     1      43.528  20.075  -5.873  1.00  0.00     0.293 HD
ENDBRANCH  17  22
ENDBRANCH   1  12
BRANCH   2  24
ATOM     24  O   UNL     1      44.549  14.061  -2.725  1.00  0.00    -0.381 OA
ATOM     25  H   UNL     1      43.867  14.704  -2.397  1.00  0.00     0.211 HD
ENDBRANCH   2  24
BRANCH   6  26
ATOM     26  O   UNL     1      49.589  12.470  -3.167  1.00  0.00    -0.507 OA
ATOM     27  H   UNL     1      49.881  11.652  -3.684  1.00  0.00     0.293 HD
ENDBRANCH   6  26
BRANCH   8  28
ATOM     28  O   UNL     1      51.600  16.238  -5.346  1.00  0.00    -0.508 OA
ATOM     29  H   UNL     1      52.015  17.065  -4.931  1.00  0.00     0.293 HD
ENDBRANCH   8  28
TORSDOF 7
ENDMDL
MODEL 3
REMARK VINA RESULT:    -5.334      2.001      2.816
REMARK INTER + INTRA:          -6.853
REMARK INTER:                  -7.058
REMARK INTRA:                   0.204
REMARK UNBOUND:                -0.272
REMARK SMILES O=C1c2c(O)cc(O)cc2O[C@H](c2cc(O)c(O)c(O)c2)[C@H]1O
REMARK SMILES IDX 12 1 22 2 2 3 1 4 3 5 4 6 6 7 7 8 9 9 10 10 11 11 13 12
REMARK SMILES IDX 14 13 15 14 21 15 17 16 19 17 16 18 18 20 20 22 23 24 5 26
REMARK SMILES IDX 8 28
REMARK H PARENT 16 19 18 21 20 23 23 25 5 27 8 29
REMARK Flexibility Score: inf
ROOT
ATOM      1  C   UNL     1      45.566  15.823  -3.976  1.00  0.00     0.240 C 
ATOM      2  C   UNL     1      45.658  14.724  -2.896  1.00  0.00     0.231 C 
ATOM      3  C   UNL     1      46.795  13.791  -3.230  1.00  0.00     0.202 C 
ATOM      4  O   UNL     1      46.628  12.545  -3.146  1.00  0.00    -0.291 OA
ATOM      5  C   UNL     1      48.077  14.373  -3.700  1.00  0.00     0.105 A 
ATOM      6  C   UNL     1      49.317  13.678  -3.688  1.00  0.00     0.133 A 
ATOM      7  C   UNL     1      50.457  14.292  -4.220  1.00  0.00     0.093 A 
ATOM      8  C   UNL     1      50.405  15.599  -4.707  1.00  0.00     0.123 A 
ATOM      9  C   UNL     1      49.199  16.305  -4.674  1.00  0.00     0.093 A 
ATOM     10  C   UNL     1      48.040  15.698  -4.185  1.00  0.00     0.138 A 
ATOM     11  O   UNL     1      46.846  16.430  -4.179  1.00  0.00    -0.481 OA
ENDROOT
BRANCH   1  12
ATOM     12  C   UNL     1      44.556  16.877  -3.592  1.00  0.00     0.003 A 
ATOM     13  C   UNL     1      44.429  18.053  -4.349  1.00  0.00     0.058 A 
ATOM     14  C   UNL     1      43.511  19.045  -3.976  1.00  0.00     0.161 A 
ATOM     15  C   UNL     1      43.769  16.715  -2.440  1.00  0.00     0.058 A 
ATOM     16  C   UNL     1      42.718  18.869  -2.830  1.00  0.00     0.200 A 
ATOM     17  C   UNL     1      42.851  17.704  -2.062  1.00  0.00     0.161 A 
BRANCH  14  18
ATOM     18  O   UNL     1      43.387  20.206  -4.738  1.00  0.00    -0.504 OA
ATOM     19  H   UNL     1      43.115  21.089  -4.319  1.00  0.00     0.293 HD
ENDBRANCH  14  18
BRANCH  16  20
ATOM     20  O   UNL     1      41.797  19.841  -2.438  1.00  0.00    -0.502 OA
ATOM     21  H   UNL     1      42.066  20.805  -2.280  1.00  0.00     0.293 HD
ENDBRANCH  16  20
BRANCH  17  22
ATOM     22  O   UNL     1      42.066  17.536  -0.922  1.00  0.00    -0.504 OA
ATOM     23  H   UNL     1      41.485  16.716  -0.794  1.00  0.00     0.293 HD
ENDBRANCH  17  22
ENDBRANCH   1  12
BRANCH   2  24
ATOM     24  O   UNL     1      44.439  14.029  -2.774  1.00  0.00    -0.381 OA
ATOM     25  H   UNL     1      44.171  13.727  -3.682  1.00  0.00     0.211 HD
ENDBRANCH   2  24
BRANCH   6  26
ATOM     26  O   UNL     1      49.475  12.405  -3.134  1.00  0.00    -0.507 OA
ATOM     27  H   UNL     1      48.729  11.731  -3.042  1.00  0.00     0.293 HD
ENDBRANCH   6  26
BRANCH   8  28
ATOM     28  O   UNL     1      51.560  16.190  -5.213  1.00  0.00    -0.508 OA
ATOM     29  H   UNL     1      52.323  16.468  -4.606  1.00  0.00     0.293 HD
ENDBRANCH   8  28
TORSDOF 7
ENDMDL
MODEL 4
REMARK VINA RESULT:    -5.014      1.166      6.799
REMARK INTER + INTRA:          -6.458
REMARK INTER:                  -6.494
REMARK INTRA:                   0.036
REMARK UNBOUND:                -0.272
REMARK SMILES O=C1c2c(O)cc(O)cc2O[C@H](c2cc(O)c(O)c(O)c2)[C@H]1O
REMARK SMILES IDX 12 1 22 2 2 3 1 4 3 5 4 6 6 7 7 8 9 9 10 10 11 11 13 12
REMARK SMILES IDX 14 13 15 14 21 15 17 16 19 17 16 18 18 20 20 22 23 24 5 26
REMARK SMILES IDX 8 28
REMARK H PARENT 16 19 18 21 20 23 23 25 5 27 8 29
REMARK Flexibility Score: inf
ROOT
ATOM      1  C   UNL     1      45.995  15.139  -3.864  1.00  0.00     0.240 C 
ATOM      2  C   UNL     1      46.711  16.450  -4.251  1.00  0.00     0.231 C 
ATOM      3  C   UNL     1      45.681  17.491  -4.613  1.00  0.00     0.202 C 
ATOM      4  O   UNL     1      45.843  18.202  -5.641  1.00  0.00    -0.291 OA
ATOM      5  C   UNL     1      44.470  17.618  -3.764  1.00  0.00     0.105 A 
ATOM      6  C   UNL     1      43.626  18.761  -3.750  1.00  0.00     0.133 A 
ATOM      7  C   UNL     1      42.466  18.753  -2.965  1.00  0.00     0.093 A 
ATOM      8  C   UNL     1      42.160  17.660  -2.152  1.00  0.00     0.123 A 
ATOM      9  C   UNL     1      43.014  16.554  -2.125  1.00  0.00     0.093 A 
ATOM     10  C   UNL     1      44.154  16.524  -2.929  1.00  0.00     0.138 A 
ATOM     11  O   UNL     1      44.982  15.394  -2.887  1.00  0.00    -0.481 OA
ENDROOT
BRANCH   1  12
ATOM     12  C   UNL     1      46.977  14.124  -3.328  1.00  0.00     0.003 A 
ATOM     13  C   UNL     1      47.968  13.581  -4.162  1.00  0.00     0.058 A 
ATOM     14  C   UNL     1      48.860  12.617  -3.672  1.00  0.00     0.161 A 
ATOM     15  C   UNL     1      46.875  13.675  -2.002  1.00  0.00     0.058 A 
ATOM     16  C   UNL     1      48.760  12.182  -2.340  1.00  0.00     0.200 A 
ATOM     17  C   UNL     1      47.764  12.711  -1.508  1.00  0.00     0.161 A 
BRANCH  14  18
ATOM     18  O   UNL     1      49.845  12.088  -4.506  1.00  0.00    -0.504 OA
ATOM     19  H   UNL     1      49.795  12.184  -5.514  1.00  0.00     0.293 HD
ENDBRANCH  14  18
BRANCH  16  20
ATOM     20  O   UNL     1      49.637  11.225  -1.830  1.00  0.00    -0.502 OA
ATOM     21  H   UNL     1      49.991  11.270  -0.881  1.00  0.00     0.293 HD
ENDBRANCH  16  20
BRANCH  17  22
ATOM     22  O   UNL     1      47.663  12.271  -0.189  1.00  0.00    -0.504 OA
ATOM     23  H   UNL     1      46.898  11.682   0.117  1.00  0.00     0.293 HD
ENDBRANCH  17  22
ENDBRANCH   1  12
BRANCH   2  24
ATOM     24  O   UNL     1      47.623  16.240  -5.303  1.00  0.00    -0.381 OA
ATOM     25  H   UNL     1      47.423  15.353  -5.703  1.00  0.00     0.211 HD
ENDBRANCH   2  24
BRANCH   6  26
ATOM     26  O   UNL     1      43.909  19.931  -4.459  1.00  0.00    -0.507 OA
ATOM     27  H   UNL     1      44.552  20.643  -4.142  1.00  0.00     0.293 HD
ENDBRANCH   6  26
BRANCH   8  28
ATOM     28  O   UNL     1      41.008  17.688  -1.368  1.00  0.00    -0.508 OA
ATOM     29  H   UNL     1      40.353  16.915  -1.362  1.00  0.00     0.293 HD
ENDBRANCH   8  28
TORSDOF 7
ENDMDL
MODEL 5
REMARK VINA RESULT:    -5.002      1.901      2.737
REMARK INTER + INTRA:          -6.443
REMARK INTER:                  -6.236
REMARK INTRA:                  -0.208
REMARK UNBOUND:                -0.272
REMARK SMILES O=C1c2c(O)cc(O)cc2O[C@H](c2cc(O)c(O)c(O)c2)[C@H]1O
REMARK SMILES IDX 12 1 22 2 2 3 1 4 3 5 4 6 6 7 7 8 9 9 10 10 11 11 13 12
REMARK SMILES IDX 14 13 15 14 21 15 17 16 19 17 16 18 18 20 20 22 23 24 5 26
REMARK SMILES IDX 8 28
REMARK H PARENT 16 19 18 21 20 23 23 25 5 27 8 29
REMARK Flexibility Score: inf
ROOT
ATOM      1  C   UNL     1      44.252  15.935  -3.789  1.00  0.00     0.240 C 
ATOM      2  C   UNL     1      44.256  14.749  -2.802  1.00  0.00     0.231 C 
ATOM      3  C   UNL     1      45.368  13.799  -3.170  1.00  0.00     0.202 C 
ATOM      4  O   UNL     1      45.149  12.558  -3.196  1.00  0.00    -0.291 OA
ATOM      5  C   UNL     1      46.690  14.361  -3.542  1.00  0.00     0.105 A 
ATOM      6  C   UNL     1      47.900  13.615  -3.543  1.00  0.00     0.133 A 
ATOM      7  C   UNL     1      49.084  14.220  -3.979  1.00  0.00     0.093 A 
ATOM      8  C   UNL     1      49.104  15.564  -4.357  1.00  0.00     0.123 A 
ATOM      9  C   UNL     1      47.926  16.316  -4.310  1.00  0.00     0.093 A 
ATOM     10  C   UNL     1      46.726  15.722  -3.917  1.00  0.00     0.138 A 
ATOM     11  O   UNL     1      45.562  16.501  -3.894  1.00  0.00    -0.481 OA
ENDROOT
BRANCH   1  12
ATOM     12  C   UNL     1      43.270  16.997  -3.356  1.00  0.00     0.003 A 
ATOM     13  C   UNL     1      42.667  17.840  -4.304  1.00  0.00     0.058 A 
ATOM     14  C   UNL     1      41.777  18.845  -3.900  1.00  0.00     0.161 A 
ATOM     15  C   UNL     1      42.989  17.186  -1.994  1.00  0.00     0.058 A 
ATOM     16  C   UNL     1      41.492  19.019  -2.535  1.00  0.00     0.200 A 
ATOM     17  C   UNL     1      42.101  18.190  -1.584  1.00  0.00     0.161 A 
BRANCH  14  18
ATOM     18  O   UNL     1      41.178  19.672  -4.848  1.00  0.00    -0.504 OA
ATOM     19  H   UNL     1      41.406  20.659  -4.912  1.00  0.00     0.293 HD
ENDBRANCH  14  18
BRANCH  16  20
ATOM     20  O   UNL     1      40.609  20.011  -2.108  1.00  0.00    -0.502 OA
ATOM     21  H   UNL     1      40.928  20.931  -1.826  1.00  0.00     0.293 HD
ENDBRANCH  16  20
BRANCH  17  22
ATOM     22  O   UNL     1      41.820  18.371  -0.231  1.00  0.00    -0.504 OA
ATOM     23  H   UNL     1      42.548  18.602   0.436  1.00  0.00     0.293 HD
ENDBRANCH  17  22
ENDBRANCH   1  12
BRANCH   2  24
ATOM     24  O   UNL     1      43.007  14.100  -2.784  1.00  0.00    -0.381 OA
ATOM     25  H   UNL     1      42.543  14.312  -3.636  1.00  0.00     0.211 HD
ENDBRANCH   2  24
BRANCH   6  26
ATOM     26  O   UNL     1      47.985  12.296  -3.090  1.00  0.00    -0.507 OA
ATOM     27  H   UNL     1      48.614  11.988  -2.362  1.00  0.00     0.293 HD
ENDBRANCH   6  26
BRANCH   8  28
ATOM     28  O   UNL     1      50.301  16.145  -4.770  1.00  0.00    -0.508 OA
ATOM     29  H   UNL     1      50.627  16.064  -5.726  1.00  0.00     0.293 HD
ENDBRANCH   8  28
TORSDOF 7
ENDMDL
MODEL 6
REMARK VINA RESULT:    -4.927      1.854      6.843
REMARK INTER + INTRA:          -6.351
REMARK INTER:                  -6.660
REMARK INTRA:                   0.309
REMARK UNBOUND:                -0.272
REMARK SMILES O=C1c2c(O)cc(O)cc2O[C@H](c2cc(O)c(O)c(O)c2)[C@H]1O
REMARK SMILES IDX 12 1 22 2 2 3 1 4 3 5 4 6 6 7 7 8 9 9 10 10 11 11 13 12
REMARK SMILES IDX 14 13 15 14 21 15 17 16 19 17 16 18 18 20 20 22 23 24 5 26
REMARK SMILES IDX 8 28
REMARK H PARENT 16 19 18 21 20 23 23 25 5 27 8 29
REMARK Flexibility Score: inf
ROOT
ATOM      1  C   UNL     1      45.952  16.187  -4.683  1.00  0.00     0.240 C 
ATOM      2  C   UNL     1      45.938  17.712  -4.915  1.00  0.00     0.231 C 
ATOM      3  C   UNL     1      44.514  18.207  -4.885  1.00  0.00     0.202 C 
ATOM      4  O   UNL     1      44.114  19.018  -5.764  1.00  0.00    -0.291 OA
ATOM      5  C   UNL     1      43.601  17.684  -3.839  1.00  0.00     0.105 A 
ATOM      6  C   UNL     1      42.386  18.314  -3.456  1.00  0.00     0.133 A 
ATOM      7  C   UNL     1      41.559  17.700  -2.507  1.00  0.00     0.093 A 
ATOM      8  C   UNL     1      41.941  16.508  -1.889  1.00  0.00     0.123 A 
ATOM      9  C   UNL     1      43.160  15.911  -2.225  1.00  0.00     0.093 A 
ATOM     10  C   UNL     1      43.981  16.484  -3.198  1.00  0.00     0.138 A 
ATOM     11  O   UNL     1      45.189  15.852  -3.520  1.00  0.00    -0.481 OA
ENDROOT
BRANCH   1  12
ATOM     12  C   UNL     1      47.365  15.675  -4.531  1.00  0.00     0.003 A 
ATOM     13  C   UNL     1      48.425  16.293  -5.214  1.00  0.00     0.058 A 
ATOM     14  C   UNL     1      49.732  15.799  -5.096  1.00  0.00     0.161 A 
ATOM     15  C   UNL     1      47.624  14.541  -3.744  1.00  0.00     0.058 A 
ATOM     16  C   UNL     1      49.985  14.672  -4.297  1.00  0.00     0.200 A 
ATOM     17  C   UNL     1      48.929  14.043  -3.624  1.00  0.00     0.161 A 
BRANCH  14  18
ATOM     18  O   UNL     1      50.779  16.424  -5.773  1.00  0.00    -0.504 OA
ATOM     19  H   UNL     1      51.320  15.936  -6.479  1.00  0.00     0.293 HD
ENDBRANCH  14  18
BRANCH  16  20
ATOM     20  O   UNL     1      51.277  14.163  -4.163  1.00  0.00    -0.502 OA
ATOM     21  H   UNL     1      51.620  13.405  -4.742  1.00  0.00     0.293 HD
ENDBRANCH  16  20
BRANCH  17  22
ATOM     22  O   UNL     1      49.184  12.921  -2.837  1.00  0.00    -0.504 OA
ATOM     23  H   UNL     1      48.912  11.992  -3.135  1.00  0.00     0.293 HD
ENDBRANCH  17  22
ENDBRANCH   1  12
BRANCH   2  24
ATOM     24  O   UNL     1      46.576  18.048  -6.125  1.00  0.00    -0.381 OA
ATOM     25  H   UNL     1      47.069  18.898  -5.981  1.00  0.00     0.211 HD
ENDBRANCH   2  24
BRANCH   6  26
ATOM     26  O   UNL     1      41.976  19.552  -3.955  1.00  0.00    -0.507 OA
ATOM     27  H   UNL     1      42.576  20.181  -4.470  1.00  0.00     0.293 HD
ENDBRANCH   6  26
BRANCH   8  28
ATOM     28  O   UNL     1      41.107  15.931  -0.934  1.00  0.00    -0.508 OA
ATOM     29  H   UNL     1      40.451  15.198  -1.178  1.00  0.00     0.293 HD
ENDBRANCH   8  28
TORSDOF 7
ENDMDL
MODEL 7
REMARK VINA RESULT:    -4.877      1.199      2.076
REMARK INTER + INTRA:          -6.289
REMARK INTER:                  -6.106
REMARK INTRA:                  -0.183
REMARK UNBOUND:                -0.272
REMARK SMILES O=C1c2c(O)cc(O)cc2O[C@H](c2cc(O)c(O)c(O)c2)[C@H]1O
REMARK SMILES IDX 12 1 22 2 2 3 1 4 3 5 4 6 6 7 7 8 9 9 10 10 11 11 13 12
REMARK SMILES IDX 14 13 15 14 21 15 17 16 19 17 16 18 18 20 20 22 23 24 5 26
REMARK SMILES IDX 8 28
REMARK H PARENT 16 19 18 21 20 23 23 25 5 27 8 29
REMARK Flexibility Score: inf
ROOT
ATOM      1  C   UNL     1      45.438  16.510  -3.093  1.00  0.00     0.240 C 
ATOM      2  C   UNL     1      45.689  16.676  -4.607  1.00  0.00     0.231 C 
ATOM      3  C   UNL     1      47.123  16.329  -4.915  1.00  0.00     0.202 C 
ATOM      4  O   UNL     1      47.799  17.072  -5.677  1.00  0.00    -0.291 OA
ATOM      5  C   UNL     1      47.721  15.134  -4.268  1.00  0.00     0.105 A 
ATOM      6  C   UNL     1      48.894  14.481  -4.733  1.00  0.00     0.133 A 
ATOM      7  C   UNL     1      49.417  13.403  -4.008  1.00  0.00     0.093 A 
ATOM      8  C   UNL     1      48.768  12.924  -2.869  1.00  0.00     0.123 A 
ATOM      9  C   UNL     1      47.585  13.531  -2.436  1.00  0.00     0.093 A 
ATOM     10  C   UNL     1      47.068  14.633  -3.120  1.00  0.00     0.138 A 
ATOM     11  O   UNL     1      45.888  15.226  -2.652  1.00  0.00    -0.481 OA
ENDROOT
BRANCH   1  12
ATOM     12  C   UNL     1      43.974  16.679  -2.765  1.00  0.00     0.003 A 
ATOM     13  C   UNL     1      43.123  15.562  -2.703  1.00  0.00     0.058 A 
ATOM     14  C   UNL     1      41.759  15.722  -2.427  1.00  0.00     0.161 A 
ATOM     15  C   UNL     1      43.437  17.961  -2.569  1.00  0.00     0.058 A 
ATOM     16  C   UNL     1      41.232  17.008  -2.219  1.00  0.00     0.200 A 
ATOM     17  C   UNL     1      42.073  18.126  -2.293  1.00  0.00     0.161 A 
BRANCH  14  18
ATOM     18  O   UNL     1      40.923  14.607  -2.362  1.00  0.00    -0.504 OA
ATOM     19  H   UNL     1      40.171  14.547  -1.684  1.00  0.00     0.293 HD
ENDBRANCH  14  18
BRANCH  16  20
ATOM     20  O   UNL     1      39.877  17.192  -1.942  1.00  0.00    -0.502 OA
ATOM     21  H   UNL     1      39.324  17.904  -2.404  1.00  0.00     0.293 HD
ENDBRANCH  16  20
BRANCH  17  22
ATOM     22  O   UNL     1      41.545  19.400  -2.093  1.00  0.00    -0.504 OA
ATOM     23  H   UNL     1      42.139  20.219  -2.043  1.00  0.00     0.293 HD
ENDBRANCH  17  22
ENDBRANCH   1  12
BRANCH   2  24
ATOM     24  O   UNL     1      45.370  17.980  -5.034  1.00  0.00    -0.381 OA
ATOM     25  H   UNL     1      46.212  18.414  -5.332  1.00  0.00     0.211 HD
ENDBRANCH   2  24
BRANCH   6  26
ATOM     26  O   UNL     1      49.550  14.835  -5.914  1.00  0.00    -0.507 OA
ATOM     27  H   UNL     1      50.408  15.367  -5.947  1.00  0.00     0.293 HD
ENDBRANCH   6  26
BRANCH   8  28
ATOM     28  O   UNL     1      49.302  11.838  -2.179  1.00  0.00    -0.508 OA
ATOM     29  H   UNL     1      50.078  11.948  -1.536  1.00  0.00     0.293 HD
ENDBRANCH   8  28
TORSDOF 7
ENDMDL
MODEL 8
REMARK VINA RESULT:    -4.797      1.952      7.200
REMARK INTER + INTRA:          -6.191
REMARK INTER:                  -6.237
REMARK INTRA:                   0.046
REMARK UNBOUND:                -0.272
REMARK SMILES O=C1c2c(O)cc(O)cc2O[C@H](c2cc(O)c(O)c(O)c2)[C@H]1O
REMARK SMILES IDX 12 1 22 2 2 3 1 4 3 5 4 6 6 7 7 8 9 9 10 10 11 11 13 12
REMARK SMILES IDX 14 13 15 14 21 15 17 16 19 17 16 18 18 20 20 22 23 24 5 26
REMARK SMILES IDX 8 28
REMARK H PARENT 16 19 18 21 20 23 23 25 5 27 8 29
REMARK Flexibility Score: inf
ROOT
ATOM      1  C   UNL     1      44.652  16.836  -4.021  1.00  0.00     0.240 C 
ATOM      2  C   UNL     1      44.983  18.117  -4.816  1.00  0.00     0.231 C 
ATOM      3  C   UNL     1      43.778  19.023  -4.823  1.00  0.00     0.202 C 
ATOM      4  O   UNL     1      43.418  19.580  -5.896  1.00  0.00    -0.291 OA
ATOM      5  C   UNL     1      43.013  19.200  -3.563  1.00  0.00     0.105 A 
ATOM      6  C   UNL     1      42.116  20.276  -3.321  1.00  0.00     0.133 A 
ATOM      7  C   UNL     1      41.389  20.311  -2.126  1.00  0.00     0.093 A 
ATOM      8  C   UNL     1      41.575  19.337  -1.144  1.00  0.00     0.123 A 
ATOM      9  C   UNL     1      42.494  18.304  -1.356  1.00  0.00     0.093 A 
ATOM     10  C   UNL     1      43.200  18.226  -2.558  1.00  0.00     0.138 A 
ATOM     11  O   UNL     1      44.103  17.171  -2.743  1.00  0.00    -0.481 OA
ENDROOT
BRANCH   1  12
ATOM     12  C   UNL     1      45.882  15.978  -3.840  1.00  0.00     0.003 A 
ATOM     13  C   UNL     1      45.782  14.702  -3.263  1.00  0.00     0.058 A 
ATOM     14  C   UNL     1      46.928  13.917  -3.068  1.00  0.00     0.161 A 
ATOM     15  C   UNL     1      47.146  16.472  -4.199  1.00  0.00     0.058 A 
ATOM     16  C   UNL     1      48.188  14.413  -3.442  1.00  0.00     0.200 A 
ATOM     17  C   UNL     1      48.295  15.692  -4.005  1.00  0.00     0.161 A 
BRANCH  14  18
ATOM     18  O   UNL     1      46.818  12.648  -2.501  1.00  0.00    -0.504 OA
ATOM     19  H   UNL     1      46.446  12.514  -1.567  1.00  0.00     0.293 HD
ENDBRANCH  14  18
BRANCH  16  20
ATOM     20  O   UNL     1      49.342  13.651  -3.259  1.00  0.00    -0.502 OA
ATOM     21  H   UNL     1      50.090  13.633  -3.943  1.00  0.00     0.293 HD
ENDBRANCH  16  20
BRANCH  17  22
ATOM     22  O   UNL     1      49.548  16.183  -4.369  1.00  0.00    -0.504 OA
ATOM     23  H   UNL     1      50.355  16.076  -3.765  1.00  0.00     0.293 HD
ENDBRANCH  17  22
ENDBRANCH   1  12
BRANCH   2  24
ATOM     24  O   UNL     1      45.404  17.808  -6.124  1.00  0.00    -0.381 OA
ATOM     25  H   UNL     1      45.599  16.835  -6.157  1.00  0.00     0.211 HD
ENDBRANCH   2  24
BRANCH   6  26
ATOM     26  O   UNL     1      41.942  21.341  -4.208  1.00  0.00    -0.507 OA
ATOM     27  H   UNL     1      42.660  21.679  -4.833  1.00  0.00     0.293 HD
ENDBRANCH   6  26
BRANCH   8  28
ATOM     28  O   UNL     1      40.850  19.409   0.043  1.00  0.00    -0.508 OA
ATOM     29  H   UNL     1      41.126  18.884   0.865  1.00  0.00     0.293 HD
ENDBRANCH   8  28
TORSDOF 7
ENDMDL
MODEL 9
REMARK VINA RESULT:    -4.749      1.660      7.276
REMARK INTER + INTRA:          -6.131
REMARK INTER:                  -5.902
REMARK INTRA:                  -0.229
REMARK UNBOUND:                -0.272
REMARK SMILES O=C1c2c(O)cc(O)cc2O[C@H](c2cc(O)c(O)c(O)c2)[C@H]1O
REMARK SMILES IDX 12 1 22 2 2 3 1 4 3 5 4 6 6 7 7 8 9 9 10 10 11 11 13 12
REMARK SMILES IDX 14 13 15 14 21 15 17 16 19 17 16 18 18 20 20 22 23 24 5 26
REMARK SMILES IDX 8 28
REMARK H PARENT 16 19 18 21 20 23 23 25 5 27 8 29
REMARK Flexibility Score: inf
ROOT
ATOM      1  C   UNL     1      44.861  15.452  -2.640  1.00  0.00     0.240 C 
ATOM      2  C   UNL     1      43.802  14.747  -3.513  1.00  0.00     0.231 C 
ATOM      3  C   UNL     1      42.452  15.368  -3.258  1.00  0.00     0.202 C 
ATOM      4  O   UNL     1      41.443  14.631  -3.094  1.00  0.00    -0.291 OA
ATOM      5  C   UNL     1      42.357  16.846  -3.159  1.00  0.00     0.105 A 
ATOM      6  C   UNL     1      41.146  17.576  -3.297  1.00  0.00     0.133 A 
ATOM      7  C   UNL     1      41.152  18.964  -3.115  1.00  0.00     0.093 A 
ATOM      8  C   UNL     1      42.342  19.648  -2.858  1.00  0.00     0.123 A 
ATOM      9  C   UNL     1      43.544  18.940  -2.770  1.00  0.00     0.093 A 
ATOM     10  C   UNL     1      43.555  17.550  -2.908  1.00  0.00     0.138 A 
ATOM     11  O   UNL     1      44.776  16.871  -2.802  1.00  0.00    -0.481 OA
ENDROOT
BRANCH   1  12
ATOM     12  C   UNL     1      46.253  14.981  -2.989  1.00  0.00     0.003 A 
ATOM     13  C   UNL     1      46.805  13.855  -2.356  1.00  0.00     0.058 A 
ATOM     14  C   UNL     1      48.107  13.435  -2.659  1.00  0.00     0.161 A 
ATOM     15  C   UNL     1      47.029  15.697  -3.915  1.00  0.00     0.058 A 
ATOM     16  C   UNL     1      48.873  14.150  -3.597  1.00  0.00     0.200 A 
ATOM     17  C   UNL     1      48.332  15.281  -4.221  1.00  0.00     0.161 A 
BRANCH  14  18
ATOM     18  O   UNL     1      48.645  12.313  -2.031  1.00  0.00    -0.504 OA
ATOM     19  H   UNL     1      48.055  11.635  -1.560  1.00  0.00     0.293 HD
ENDBRANCH  14  18
BRANCH  16  20
ATOM     20  O   UNL     1      50.171  13.751  -3.916  1.00  0.00    -0.502 OA
ATOM     21  H   UNL     1      50.736  13.198  -3.282  1.00  0.00     0.293 HD
ENDBRANCH  16  20
BRANCH  17  22
ATOM     22  O   UNL     1      49.097  15.991  -5.145  1.00  0.00    -0.504 OA
ATOM     23  H   UNL     1      49.162  15.700  -6.114  1.00  0.00     0.293 HD
ENDBRANCH  17  22
ENDBRANCH   1  12
BRANCH   2  24
ATOM     24  O   UNL     1      43.786  13.360  -3.270  1.00  0.00    -0.381 OA
ATOM     25  H   UNL     1      42.838  13.084  -3.158  1.00  0.00     0.211 HD
ENDBRANCH   2  24
BRANCH   6  26
ATOM     26  O   UNL     1      39.931  16.983  -3.648  1.00  0.00    -0.507 OA
ATOM     27  H   UNL     1      39.843  16.040  -3.998  1.00  0.00     0.293 HD
ENDBRANCH   6  26
BRANCH   8  28
ATOM     28  O   UNL     1      42.319  21.032  -2.699  1.00  0.00    -0.508 OA
ATOM     29  H   UNL     1      42.030  21.460  -1.827  1.00  0.00     0.293 HD
ENDBRANCH   8  28
TORSDOF 7
ENDMDL
