MODEL 1
REMARK VINA RESULT:    -7.284      0.000      0.000
REMARK INTER + INTRA:          -8.622
REMARK INTER:                  -8.562
REMARK INTRA:                  -0.060
REMARK UNBOUND:                -0.060
REMARK SMILES O=c1c(O)c(-c2ccc(O)c(O)c2)oc2cc(O)ccc12
REMARK SMILES IDX 5 1 3 2 2 3 1 4 21 5 15 6 14 7 16 8 17 9 19 10 20 11 6 12
REMARK SMILES IDX 7 13 8 14 9 15 13 16 11 17 10 18 12 20 4 22 18 24
REMARK H PARENT 10 19 12 21 4 23 18 25
REMARK Flexibility Score: inf
ROOT
ATOM      1  C   UNL     1      19.910  83.726  94.687  1.00  0.00     0.180 A 
ATOM      2  C   UNL     1      19.208  84.543  95.598  1.00  0.00     0.208 A 
ATOM      3  C   UNL     1      19.933  85.259  96.563  1.00  0.00     0.235 A 
ATOM      4  O   UNL     1      19.330  86.003  97.382  1.00  0.00    -0.285 OA
ATOM      5  C   UNL     1      21.331  85.129  96.612  1.00  0.00     0.069 A 
ATOM      6  C   UNL     1      21.957  84.273  95.680  1.00  0.00     0.142 A 
ATOM      7  O   UNL     1      21.234  83.620  94.776  1.00  0.00    -0.452 OA
ATOM      8  C   UNL     1      23.346  84.110  95.703  1.00  0.00     0.094 A 
ATOM      9  C   UNL     1      24.122  84.796  96.648  1.00  0.00     0.119 A 
ATOM     10  C   UNL     1      23.504  85.647  97.570  1.00  0.00     0.047 A 
ATOM     11  C   UNL     1      22.116  85.815  97.558  1.00  0.00     0.020 A 
ENDROOT
BRANCH   1  12
ATOM     12  C   UNL     1      19.218  82.955  93.629  1.00  0.00     0.025 A 
ATOM     13  C   UNL     1      18.239  82.015  93.989  1.00  0.00     0.016 A 
ATOM     14  C   UNL     1      17.587  81.262  93.009  1.00  0.00     0.051 A 
ATOM     15  C   UNL     1      17.916  81.426  91.657  1.00  0.00     0.157 A 
ATOM     16  C   UNL     1      19.560  83.101  92.273  1.00  0.00     0.062 A 
ATOM     17  C   UNL     1      18.907  82.344  91.289  1.00  0.00     0.158 A 
BRANCH  15  18
ATOM     18  O   UNL     1      17.268  80.678  90.677  1.00  0.00    -0.504 OA
ATOM     19  H   UNL     1      17.606  80.650  89.722  1.00  0.00     0.293 HD
ENDBRANCH  15  18
BRANCH  17  20
ATOM     20  O   UNL     1      19.244  82.495  89.945  1.00  0.00    -0.504 OA
ATOM     21  H   UNL     1      18.951  83.305  89.412  1.00  0.00     0.293 HD
ENDBRANCH  17  20
ENDBRANCH   1  12
BRANCH   2  22
ATOM     22  O   UNL     1      17.813  84.612  95.557  1.00  0.00    -0.502 OA
ATOM     23  H   UNL     1      17.232  84.276  96.316  1.00  0.00     0.293 HD
ENDBRANCH   2  22
BRANCH   9  24
ATOM     24  O   UNL     1      25.506  84.641  96.677  1.00  0.00    -0.508 OA
ATOM     25  H   UNL     1      26.044  84.533  95.826  1.00  0.00     0.293 HD
ENDBRANCH   9  24
TORSDOF 5
ENDMDL
MODEL 2
REMARK VINA RESULT:    -5.137      1.741      7.028
REMARK INTER + INTRA:          -6.098
REMARK INTER:                  -5.951
REMARK INTRA:                  -0.148
REMARK UNBOUND:                -0.060
REMARK SMILES O=c1c(O)c(-c2ccc(O)c(O)c2)oc2cc(O)ccc12
REMARK SMILES IDX 5 1 3 2 2 3 1 4 21 5 15 6 14 7 16 8 17 9 19 10 20 11 6 12
REMARK SMILES IDX 7 13 8 14 9 15 13 16 11 17 10 18 12 20 4 22 18 24
REMARK H PARENT 10 19 12 21 4 23 18 25
REMARK Flexibility Score: inf
ROOT
ATOM      1  C   UNL     1      19.170  82.852  93.415  1.00  0.00     0.180 A 
ATOM      2  C   UNL     1      18.279  81.821  93.778  1.00  0.00     0.208 A 
ATOM      3  C   UNL     1      17.669  81.065  92.766  1.00  0.00     0.235 A 
ATOM      4  O   UNL     1      16.876  80.131  93.065  1.00  0.00    -0.285 OA
ATOM      5  C   UNL     1      17.943  81.365  91.421  1.00  0.00     0.069 A 
ATOM      6  C   UNL     1      18.828  82.428  91.139  1.00  0.00     0.142 A 
ATOM      7  O   UNL     1      19.392  83.113  92.128  1.00  0.00    -0.452 OA
ATOM      8  C   UNL     1      19.119  82.763  89.812  1.00  0.00     0.094 A 
ATOM      9  C   UNL     1      18.535  82.045  88.759  1.00  0.00     0.119 A 
ATOM     10  C   UNL     1      17.659  80.990  89.036  1.00  0.00     0.047 A 
ATOM     11  C   UNL     1      17.361  80.648  90.358  1.00  0.00     0.020 A 
ENDROOT
BRANCH   1  12
ATOM     12  C   UNL     1      19.868  83.680  94.425  1.00  0.00     0.025 A 
ATOM     13  C   UNL     1      21.263  83.585  94.550  1.00  0.00     0.016 A 
ATOM     14  C   UNL     1      21.941  84.343  95.509  1.00  0.00     0.051 A 
ATOM     15  C   UNL     1      21.231  85.192  96.368  1.00  0.00     0.157 A 
ATOM     16  C   UNL     1      19.158  84.519  95.303  1.00  0.00     0.062 A 
ATOM     17  C   UNL     1      19.837  85.277  96.267  1.00  0.00     0.158 A 
BRANCH  15  18
ATOM     18  O   UNL     1      21.903  85.950  97.325  1.00  0.00    -0.504 OA
ATOM     19  H   UNL     1      21.535  86.834  97.654  1.00  0.00     0.293 HD
ENDBRANCH  15  18
BRANCH  17  20
ATOM     20  O   UNL     1      19.132  86.112  97.132  1.00  0.00    -0.504 OA
ATOM     21  H   UNL     1      18.286  86.586  96.840  1.00  0.00     0.293 HD
ENDBRANCH  17  20
ENDBRANCH   1  12
BRANCH   2  22
ATOM     22  O   UNL     1      17.988  81.579  95.123  1.00  0.00    -0.502 OA
ATOM     23  H   UNL     1      18.710  81.383  95.807  1.00  0.00     0.293 HD
ENDBRANCH   2  22
BRANCH   9  24
ATOM     24  O   UNL     1      18.819  82.371  87.435  1.00  0.00    -0.508 OA
ATOM     25  H   UNL     1      18.398  83.177  86.986  1.00  0.00     0.293 HD
ENDBRANCH   9  24
TORSDOF 5
ENDMDL
MODEL 3
REMARK VINA RESULT:    -4.999      1.676      6.862
REMARK INTER + INTRA:          -5.936
REMARK INTER:                  -5.824
REMARK INTRA:                  -0.112
REMARK UNBOUND:                -0.060
REMARK SMILES O=c1c(O)c(-c2ccc(O)c(O)c2)oc2cc(O)ccc12
REMARK SMILES IDX 5 1 3 2 2 3 1 4 21 5 15 6 14 7 16 8 17 9 19 10 20 11 6 12
REMARK SMILES IDX 7 13 8 14 9 15 13 16 11 17 10 18 12 20 4 22 18 24
REMARK H PARENT 10 19 12 21 4 23 18 25
REMARK Flexibility Score: inf
ROOT
ATOM      1  C   UNL     1      19.400  82.932  93.686  1.00  0.00     0.180 A 
ATOM      2  C   UNL     1      18.451  81.988  94.131  1.00  0.00     0.208 A 
ATOM      3  C   UNL     1      17.722  81.260  93.179  1.00  0.00     0.235 A 
ATOM      4  O   UNL     1      16.875  80.403  93.552  1.00  0.00    -0.285 OA
ATOM      5  C   UNL     1      17.937  81.503  91.812  1.00  0.00     0.069 A 
ATOM      6  C   UNL     1      18.887  82.481  91.448  1.00  0.00     0.142 A 
ATOM      7  O   UNL     1      19.564  83.141  92.381  1.00  0.00    -0.452 OA
ATOM      8  C   UNL     1      19.123  82.758  90.097  1.00  0.00     0.094 A 
ATOM      9  C   UNL     1      18.420  82.066  89.101  1.00  0.00     0.119 A 
ATOM     10  C   UNL     1      17.480  81.094  89.460  1.00  0.00     0.047 A 
ATOM     11  C   UNL     1      17.235  80.811  90.807  1.00  0.00     0.020 A 
ENDROOT
BRANCH   1  12
ATOM     12  C   UNL     1      20.222  83.724  94.629  1.00  0.00     0.025 A 
ATOM     13  C   UNL     1      19.592  84.614  95.514  1.00  0.00     0.016 A 
ATOM     14  C   UNL     1      20.349  85.386  96.399  1.00  0.00     0.051 A 
ATOM     15  C   UNL     1      21.746  85.293  96.400  1.00  0.00     0.157 A 
ATOM     16  C   UNL     1      21.627  83.649  94.619  1.00  0.00     0.062 A 
ATOM     17  C   UNL     1      22.386  84.426  95.505  1.00  0.00     0.158 A 
BRANCH  15  18
ATOM     18  O   UNL     1      22.504  86.061  97.281  1.00  0.00    -0.504 OA
ATOM     19  H   UNL     1      23.262  86.649  96.954  1.00  0.00     0.293 HD
ENDBRANCH  15  18
BRANCH  17  20
ATOM     20  O   UNL     1      23.778  84.346  95.498  1.00  0.00    -0.504 OA
ATOM     21  H   UNL     1      24.279  83.755  96.149  1.00  0.00     0.293 HD
ENDBRANCH  17  20
ENDBRANCH   1  12
BRANCH   2  22
ATOM     22  O   UNL     1      18.224  81.804  95.498  1.00  0.00    -0.502 OA
ATOM     23  H   UNL     1      17.877  80.930  95.876  1.00  0.00     0.293 HD
ENDBRANCH   2  22
BRANCH   9  24
ATOM     24  O   UNL     1      18.649  82.334  87.754  1.00  0.00    -0.508 OA
ATOM     25  H   UNL     1      19.406  81.890  87.247  1.00  0.00     0.293 HD
ENDBRANCH   9  24
TORSDOF 5
ENDMDL
