MODEL 1
REMARK VINA RESULT:    -6.557      0.000      0.000
REMARK INTER + INTRA:          -8.024
REMARK INTER:                  -7.707
REMARK INTRA:                  -0.317
REMARK UNBOUND:                -0.317
REMARK SMILES O=c1c(O)c(-c2ccc(O)c(O)c2)oc2cc(O)ccc12
REMARK SMILES IDX 5 1 3 2 2 3 1 4 21 5 15 6 14 7 16 8 17 9 19 10 20 11 6 12
REMARK SMILES IDX 7 13 8 14 9 15 13 16 11 17 10 18 12 20 4 22 18 24
REMARK H PARENT 10 19 12 21 4 23 18 25
REMARK Flexibility Score: inf
ROOT
ATOM      1  C   UNL     1       9.194  15.549  51.029  1.00  0.00     0.180 A 
ATOM      2  C   UNL     1      10.238  16.495  51.098  1.00  0.00     0.208 A 
ATOM      3  C   UNL     1      10.734  17.042  49.904  1.00  0.00     0.235 A 
ATOM      4  O   UNL     1      11.661  17.898  49.941  1.00  0.00    -0.285 OA
ATOM      5  C   UNL     1      10.198  16.623  48.677  1.00  0.00     0.069 A 
ATOM      6  C   UNL     1       9.170  15.655  48.692  1.00  0.00     0.142 A 
ATOM      7  O   UNL     1       8.723  15.168  49.843  1.00  0.00    -0.452 OA
ATOM      8  C   UNL     1       8.616  15.204  47.488  1.00  0.00     0.094 A 
ATOM      9  C   UNL     1       9.074  15.710  46.267  1.00  0.00     0.119 A 
ATOM     10  C   UNL     1      10.093  16.673  46.249  1.00  0.00     0.047 A 
ATOM     11  C   UNL     1      10.654  17.129  47.446  1.00  0.00     0.020 A 
ENDROOT
BRANCH   1  12
ATOM     12  C   UNL     1       8.603  14.940  52.242  1.00  0.00     0.025 A 
ATOM     13  C   UNL     1       9.126  13.760  52.798  1.00  0.00     0.016 A 
ATOM     14  C   UNL     1       8.566  13.217  53.958  1.00  0.00     0.051 A 
ATOM     15  C   UNL     1       7.490  13.849  54.587  1.00  0.00     0.157 A 
ATOM     16  C   UNL     1       7.535  15.584  52.888  1.00  0.00     0.062 A 
ATOM     17  C   UNL     1       6.973  15.041  54.053  1.00  0.00     0.158 A 
BRANCH  15  18
ATOM     18  O   UNL     1       6.952  13.282  55.741  1.00  0.00    -0.504 OA
ATOM     19  H   UNL     1       6.188  12.618  55.709  1.00  0.00     0.293 HD
ENDBRANCH  15  18
BRANCH  17  20
ATOM     20  O   UNL     1       5.904  15.681  54.678  1.00  0.00    -0.504 OA
ATOM     21  H   UNL     1       5.253  15.175  55.266  1.00  0.00     0.293 HD
ENDBRANCH  17  20
ENDBRANCH   1  12
BRANCH   2  22
ATOM     22  O   UNL     1      10.786  16.856  52.331  1.00  0.00    -0.502 OA
ATOM     23  H   UNL     1      11.580  16.372  52.733  1.00  0.00     0.293 HD
ENDBRANCH   2  22
BRANCH   9  24
ATOM     24  O   UNL     1       8.511  15.251  45.079  1.00  0.00    -0.508 OA
ATOM     25  H   UNL     1       8.323  15.878  44.305  1.00  0.00     0.293 HD
ENDBRANCH   9  24
TORSDOF 5
ENDMDL
MODEL 2
REMARK VINA RESULT:    -6.365      2.170      2.537
REMARK INTER + INTRA:          -7.798
REMARK INTER:                  -7.480
REMARK INTRA:                  -0.319
REMARK UNBOUND:                -0.317
REMARK SMILES O=c1c(O)c(-c2ccc(O)c(O)c2)oc2cc(O)ccc12
REMARK SMILES IDX 5 1 3 2 2 3 1 4 21 5 15 6 14 7 16 8 17 9 19 10 20 11 6 12
REMARK SMILES IDX 7 13 8 14 9 15 13 16 11 17 10 18 12 20 4 22 18 24
REMARK H PARENT 10 19 12 21 4 23 18 25
REMARK Flexibility Score: inf
ROOT
ATOM      1  C   UNL     1       9.764  14.967  51.373  1.00  0.00     0.180 A 
ATOM      2  C   UNL     1      10.057  16.327  51.136  1.00  0.00     0.208 A 
ATOM      3  C   UNL     1      10.879  16.662  50.049  1.00  0.00     0.235 A 
ATOM      4  O   UNL     1      11.147  17.872  49.810  1.00  0.00    -0.285 OA
ATOM      5  C   UNL     1      11.406  15.641  49.241  1.00  0.00     0.069 A 
ATOM      6  C   UNL     1      11.085  14.304  49.559  1.00  0.00     0.142 A 
ATOM      7  O   UNL     1      10.295  14.030  50.591  1.00  0.00    -0.452 OA
ATOM      8  C   UNL     1      11.598  13.258  48.783  1.00  0.00     0.094 A 
ATOM      9  C   UNL     1      12.428  13.531  47.691  1.00  0.00     0.119 A 
ATOM     10  C   UNL     1      12.746  14.858  47.371  1.00  0.00     0.047 A 
ATOM     11  C   UNL     1      12.240  15.910  48.141  1.00  0.00     0.020 A 
ENDROOT
BRANCH   1  12
ATOM     12  C   UNL     1       8.890  14.534  52.486  1.00  0.00     0.025 A 
ATOM     13  C   UNL     1       7.490  14.523  52.357  1.00  0.00     0.016 A 
ATOM     14  C   UNL     1       6.686  14.088  53.413  1.00  0.00     0.051 A 
ATOM     15  C   UNL     1       7.264  13.645  54.606  1.00  0.00     0.157 A 
ATOM     16  C   UNL     1       9.468  14.069  53.678  1.00  0.00     0.062 A 
ATOM     17  C   UNL     1       8.663  13.632  54.740  1.00  0.00     0.158 A 
BRANCH  15  18
ATOM     18  O   UNL     1       6.436  13.219  55.643  1.00  0.00    -0.504 OA
ATOM     19  H   UNL     1       6.622  12.372  56.168  1.00  0.00     0.293 HD
ENDBRANCH  15  18
BRANCH  17  20
ATOM     20  O   UNL     1       9.247  13.185  55.924  1.00  0.00    -0.504 OA
ATOM     21  H   UNL     1       8.800  12.488  56.507  1.00  0.00     0.293 HD
ENDBRANCH  17  20
ENDBRANCH   1  12
BRANCH   2  22
ATOM     22  O   UNL     1       9.559  17.317  51.987  1.00  0.00    -0.502 OA
ATOM     23  H   UNL     1       9.983  18.234  52.057  1.00  0.00     0.293 HD
ENDBRANCH   2  22
BRANCH   9  24
ATOM     24  O   UNL     1      12.928  12.478  46.929  1.00  0.00    -0.508 OA
ATOM     25  H   UNL     1      12.569  11.536  47.027  1.00  0.00     0.293 HD
ENDBRANCH   9  24
TORSDOF 5
ENDMDL
MODEL 3
REMARK VINA RESULT:    -6.218      1.695      2.595
REMARK INTER + INTRA:          -7.625
REMARK INTER:                  -7.331
REMARK INTRA:                  -0.294
REMARK UNBOUND:                -0.317
REMARK SMILES O=c1c(O)c(-c2ccc(O)c(O)c2)oc2cc(O)ccc12
REMARK SMILES IDX 5 1 3 2 2 3 1 4 21 5 15 6 14 7 16 8 17 9 19 10 20 11 6 12
REMARK SMILES IDX 7 13 8 14 9 15 13 16 11 17 10 18 12 20 4 22 18 24
REMARK H PARENT 10 19 12 21 4 23 18 25
REMARK Flexibility Score: inf
ROOT
ATOM      1  C   UNL     1       9.329  14.651  52.562  1.00  0.00     0.180 A 
ATOM      2  C   UNL     1      10.342  15.537  52.985  1.00  0.00     0.208 A 
ATOM      3  C   UNL     1      10.950  16.373  52.036  1.00  0.00     0.235 A 
ATOM      4  O   UNL     1      11.851  17.181  52.392  1.00  0.00    -0.285 OA
ATOM      5  C   UNL     1      10.553  16.294  50.692  1.00  0.00     0.069 A 
ATOM      6  C   UNL     1       9.548  15.365  50.345  1.00  0.00     0.142 A 
ATOM      7  O   UNL     1       8.992  14.598  51.275  1.00  0.00    -0.452 OA
ATOM      8  C   UNL     1       9.132  15.249  49.013  1.00  0.00     0.094 A 
ATOM      9  C   UNL     1       9.705  16.053  48.022  1.00  0.00     0.119 A 
ATOM     10  C   UNL     1      10.701  16.978  48.364  1.00  0.00     0.047 A 
ATOM     11  C   UNL     1      11.125  17.100  49.691  1.00  0.00     0.020 A 
ENDROOT
BRANCH   1  12
ATOM     12  C   UNL     1       8.627  13.752  53.505  1.00  0.00     0.025 A 
ATOM     13  C   UNL     1       7.354  14.068  54.009  1.00  0.00     0.016 A 
ATOM     14  C   UNL     1       6.700  13.193  54.880  1.00  0.00     0.051 A 
ATOM     15  C   UNL     1       7.299  11.984  55.248  1.00  0.00     0.157 A 
ATOM     16  C   UNL     1       9.216  12.528  53.860  1.00  0.00     0.062 A 
ATOM     17  C   UNL     1       8.562  11.647  54.734  1.00  0.00     0.158 A 
BRANCH  15  18
ATOM     18  O   UNL     1       6.623  11.132  56.120  1.00  0.00    -0.504 OA
ATOM     19  H   UNL     1       5.721  11.370  56.515  1.00  0.00     0.293 HD
ENDBRANCH  15  18
BRANCH  17  20
ATOM     20  O   UNL     1       9.162  10.440  55.092  1.00  0.00    -0.504 OA
ATOM     21  H   UNL     1       8.731   9.810  55.756  1.00  0.00     0.293 HD
ENDBRANCH  17  20
ENDBRANCH   1  12
BRANCH   2  22
ATOM     22  O   UNL     1      10.751  15.558  54.321  1.00  0.00    -0.502 OA
ATOM     23  H   UNL     1      10.291  15.008  55.036  1.00  0.00     0.293 HD
ENDBRANCH   2  22
BRANCH   9  24
ATOM     24  O   UNL     1       9.278  15.926  46.702  1.00  0.00    -0.508 OA
ATOM     25  H   UNL     1       9.296  15.033  46.224  1.00  0.00     0.293 HD
ENDBRANCH   9  24
TORSDOF 5
ENDMDL
MODEL 4
REMARK VINA RESULT:    -6.124      2.878      4.066
REMARK INTER + INTRA:          -7.515
REMARK INTER:                  -7.198
REMARK INTRA:                  -0.317
REMARK UNBOUND:                -0.317
REMARK SMILES O=c1c(O)c(-c2ccc(O)c(O)c2)oc2cc(O)ccc12
REMARK SMILES IDX 5 1 3 2 2 3 1 4 21 5 15 6 14 7 16 8 17 9 19 10 20 11 6 12
REMARK SMILES IDX 7 13 8 14 9 15 13 16 11 17 10 18 12 20 4 22 18 24
REMARK H PARENT 10 19 12 21 4 23 18 25
REMARK Flexibility Score: inf
ROOT
ATOM      1  C   UNL     1      11.152  15.286  49.122  1.00  0.00     0.180 A 
ATOM      2  C   UNL     1      11.566  14.021  48.656  1.00  0.00     0.208 A 
ATOM      3  C   UNL     1      12.377  13.953  47.513  1.00  0.00     0.235 A 
ATOM      4  O   UNL     1      12.769  12.833  47.083  1.00  0.00    -0.285 OA
ATOM      5  C   UNL     1      12.738  15.137  46.851  1.00  0.00     0.069 A 
ATOM      6  C   UNL     1      12.263  16.363  47.367  1.00  0.00     0.142 A 
ATOM      7  O   UNL     1      11.504  16.384  48.457  1.00  0.00    -0.452 OA
ATOM      8  C   UNL     1      12.592  17.564  46.730  1.00  0.00     0.094 A 
ATOM      9  C   UNL     1      13.393  17.559  45.583  1.00  0.00     0.119 A 
ATOM     10  C   UNL     1      13.868  16.344  45.070  1.00  0.00     0.047 A 
ATOM     11  C   UNL     1      13.543  15.138  45.698  1.00  0.00     0.020 A 
ENDROOT
BRANCH   1  12
ATOM     12  C   UNL     1      10.312  15.442  50.331  1.00  0.00     0.025 A 
ATOM     13  C   UNL     1       8.909  15.412  50.258  1.00  0.00     0.016 A 
ATOM     14  C   UNL     1       8.138  15.538  51.416  1.00  0.00     0.051 A 
ATOM     15  C   UNL     1       8.753  15.682  52.664  1.00  0.00     0.157 A 
ATOM     16  C   UNL     1      10.928  15.566  51.588  1.00  0.00     0.062 A 
ATOM     17  C   UNL     1      10.155  15.693  52.752  1.00  0.00     0.158 A 
BRANCH  15  18
ATOM     18  O   UNL     1       7.957  15.808  53.801  1.00  0.00    -0.504 OA
ATOM     19  H   UNL     1       7.546  15.005  54.262  1.00  0.00     0.293 HD
ENDBRANCH  15  18
BRANCH  17  20
ATOM     20  O   UNL     1      10.775  15.829  53.993  1.00  0.00    -0.504 OA
ATOM     21  H   UNL     1      10.261  15.724  54.858  1.00  0.00     0.293 HD
ENDBRANCH  17  20
ENDBRANCH   1  12
BRANCH   2  22
ATOM     22  O   UNL     1      11.150  12.856  49.307  1.00  0.00    -0.502 OA
ATOM     23  H   UNL     1      10.506  12.200  48.883  1.00  0.00     0.293 HD
ENDBRANCH   2  22
BRANCH   9  24
ATOM     24  O   UNL     1      13.712  18.764  44.962  1.00  0.00    -0.508 OA
ATOM     25  H   UNL     1      14.558  18.870  44.414  1.00  0.00     0.293 HD
ENDBRANCH   9  24
TORSDOF 5
ENDMDL
MODEL 5
REMARK VINA RESULT:    -5.874      5.639      8.092
REMARK INTER + INTRA:          -7.221
REMARK INTER:                  -6.932
REMARK INTRA:                  -0.289
REMARK UNBOUND:                -0.317
REMARK SMILES O=c1c(O)c(-c2ccc(O)c(O)c2)oc2cc(O)ccc12
REMARK SMILES IDX 5 1 3 2 2 3 1 4 21 5 15 6 14 7 16 8 17 9 19 10 20 11 6 12
REMARK SMILES IDX 7 13 8 14 9 15 13 16 11 17 10 18 12 20 4 22 18 24
REMARK H PARENT 10 19 12 21 4 23 18 25
REMARK Flexibility Score: inf
ROOT
ATOM      1  C   UNL     1       8.639  18.152  45.347  1.00  0.00     0.180 A 
ATOM      2  C   UNL     1       8.000  17.194  44.531  1.00  0.00     0.208 A 
ATOM      3  C   UNL     1       6.752  17.507  43.971  1.00  0.00     0.235 A 
ATOM      4  O   UNL     1       6.166  16.670  43.229  1.00  0.00    -0.285 OA
ATOM      5  C   UNL     1       6.161  18.749  44.251  1.00  0.00     0.069 A 
ATOM      6  C   UNL     1       6.853  19.643  45.096  1.00  0.00     0.142 A 
ATOM      7  O   UNL     1       8.037  19.313  45.599  1.00  0.00    -0.452 OA
ATOM      8  C   UNL     1       6.292  20.887  45.407  1.00  0.00     0.094 A 
ATOM      9  C   UNL     1       5.047  21.251  44.882  1.00  0.00     0.119 A 
ATOM     10  C   UNL     1       4.359  20.366  44.041  1.00  0.00     0.047 A 
ATOM     11  C   UNL     1       4.910  19.120  43.726  1.00  0.00     0.020 A 
ENDROOT
BRANCH   1  12
ATOM     12  C   UNL     1       9.964  17.906  45.958  1.00  0.00     0.025 A 
ATOM     13  C   UNL     1      10.101  17.136  47.125  1.00  0.00     0.016 A 
ATOM     14  C   UNL     1      11.366  16.898  47.670  1.00  0.00     0.051 A 
ATOM     15  C   UNL     1      12.510  17.411  47.053  1.00  0.00     0.157 A 
ATOM     16  C   UNL     1      11.117  18.403  45.328  1.00  0.00     0.062 A 
ATOM     17  C   UNL     1      12.387  18.165  45.874  1.00  0.00     0.158 A 
BRANCH  15  18
ATOM     18  O   UNL     1      13.758  17.159  47.622  1.00  0.00    -0.504 OA
ATOM     19  H   UNL     1      14.356  16.409  47.296  1.00  0.00     0.293 HD
ENDBRANCH  15  18
BRANCH  17  20
ATOM     20  O   UNL     1      13.525  18.674  45.249  1.00  0.00    -0.504 OA
ATOM     21  H   UNL     1      14.339  18.098  45.077  1.00  0.00     0.293 HD
ENDBRANCH  17  20
ENDBRANCH   1  12
BRANCH   2  22
ATOM     22  O   UNL     1       8.590  15.947  44.310  1.00  0.00    -0.502 OA
ATOM     23  H   UNL     1       9.142  15.748  43.484  1.00  0.00     0.293 HD
ENDBRANCH   2  22
BRANCH   9  24
ATOM     24  O   UNL     1       4.505  22.494  45.201  1.00  0.00    -0.508 OA
ATOM     25  H   UNL     1       4.895  23.353  44.833  1.00  0.00     0.293 HD
ENDBRANCH   9  24
TORSDOF 5
ENDMDL
MODEL 6
REMARK VINA RESULT:    -5.779      2.172      3.227
REMARK INTER + INTRA:          -7.109
REMARK INTER:                  -6.802
REMARK INTRA:                  -0.307
REMARK UNBOUND:                -0.317
REMARK SMILES O=c1c(O)c(-c2ccc(O)c(O)c2)oc2cc(O)ccc12
REMARK SMILES IDX 5 1 3 2 2 3 1 4 21 5 15 6 14 7 16 8 17 9 19 10 20 11 6 12
REMARK SMILES IDX 7 13 8 14 9 15 13 16 11 17 10 18 12 20 4 22 18 24
REMARK H PARENT 10 19 12 21 4 23 18 25
REMARK Flexibility Score: inf
ROOT
ATOM      1  C   UNL     1       9.746  16.256  48.364  1.00  0.00     0.180 A 
ATOM      2  C   UNL     1      10.747  17.047  47.761  1.00  0.00     0.208 A 
ATOM      3  C   UNL     1      10.606  17.401  46.410  1.00  0.00     0.235 A 
ATOM      4  O   UNL     1      11.483  18.117  45.852  1.00  0.00    -0.285 OA
ATOM      5  C   UNL     1       9.491  16.946  45.690  1.00  0.00     0.069 A 
ATOM      6  C   UNL     1       8.546  16.139  46.359  1.00  0.00     0.142 A 
ATOM      7  O   UNL     1       8.712  15.833  47.641  1.00  0.00    -0.452 OA
ATOM      8  C   UNL     1       7.426  15.657  45.672  1.00  0.00     0.094 A 
ATOM      9  C   UNL     1       7.235  15.973  44.323  1.00  0.00     0.119 A 
ATOM     10  C   UNL     1       8.171  16.776  43.656  1.00  0.00     0.047 A 
ATOM     11  C   UNL     1       9.294  17.261  44.333  1.00  0.00     0.020 A 
ENDROOT
BRANCH   1  12
ATOM     12  C   UNL     1       9.812  15.857  49.788  1.00  0.00     0.025 A 
ATOM     13  C   UNL     1      10.370  14.627  50.179  1.00  0.00     0.016 A 
ATOM     14  C   UNL     1      10.442  14.282  51.531  1.00  0.00     0.051 A 
ATOM     15  C   UNL     1       9.973  15.162  52.512  1.00  0.00     0.157 A 
ATOM     16  C   UNL     1       9.361  16.747  50.776  1.00  0.00     0.062 A 
ATOM     17  C   UNL     1       9.433  16.402  52.134  1.00  0.00     0.158 A 
BRANCH  15  18
ATOM     18  O   UNL     1      10.057  14.789  53.852  1.00  0.00    -0.504 OA
ATOM     19  H   UNL     1      10.476  15.389  54.553  1.00  0.00     0.293 HD
ENDBRANCH  15  18
BRANCH  17  20
ATOM     20  O   UNL     1       8.970  17.287  53.107  1.00  0.00    -0.504 OA
ATOM     21  H   UNL     1       9.478  18.130  53.343  1.00  0.00     0.293 HD
ENDBRANCH  17  20
ENDBRANCH   1  12
BRANCH   2  22
ATOM     22  O   UNL     1      11.870  17.444  48.491  1.00  0.00    -0.502 OA
ATOM     23  H   UNL     1      11.932  17.329  49.495  1.00  0.00     0.293 HD
ENDBRANCH   2  22
BRANCH   9  24
ATOM     24  O   UNL     1       6.114  15.486  43.655  1.00  0.00    -0.508 OA
ATOM     25  H   UNL     1       5.644  14.641  43.957  1.00  0.00     0.293 HD
ENDBRANCH   9  24
TORSDOF 5
ENDMDL
MODEL 7
REMARK VINA RESULT:    -5.753      2.274      2.969
REMARK INTER + INTRA:          -7.079
REMARK INTER:                  -7.109
REMARK INTRA:                   0.030
REMARK UNBOUND:                -0.317
REMARK SMILES O=c1c(O)c(-c2ccc(O)c(O)c2)oc2cc(O)ccc12
REMARK SMILES IDX 5 1 3 2 2 3 1 4 21 5 15 6 14 7 16 8 17 9 19 10 20 11 6 12
REMARK SMILES IDX 7 13 8 14 9 15 13 16 11 17 10 18 12 20 4 22 18 24
REMARK H PARENT 10 19 12 21 4 23 18 25
REMARK Flexibility Score: inf
ROOT
ATOM      1  C   UNL     1      10.254  14.971  50.759  1.00  0.00     0.180 A 
ATOM      2  C   UNL     1      11.106  13.875  50.508  1.00  0.00     0.208 A 
ATOM      3  C   UNL     1      12.017  13.956  49.443  1.00  0.00     0.235 A 
ATOM      4  O   UNL     1      12.797  12.993  49.205  1.00  0.00    -0.285 OA
ATOM      5  C   UNL     1      12.044  15.110  48.644  1.00  0.00     0.069 A 
ATOM      6  C   UNL     1      11.143  16.154  48.946  1.00  0.00     0.142 A 
ATOM      7  O   UNL     1      10.302  16.041  49.968  1.00  0.00    -0.452 OA
ATOM      8  C   UNL     1      11.132  17.316  48.167  1.00  0.00     0.094 A 
ATOM      9  C   UNL     1      12.014  17.452  47.089  1.00  0.00     0.119 A 
ATOM     10  C   UNL     1      12.911  16.418  46.788  1.00  0.00     0.047 A 
ATOM     11  C   UNL     1      12.928  15.252  47.560  1.00  0.00     0.020 A 
ENDROOT
BRANCH   1  12
ATOM     12  C   UNL     1       9.281  14.971  51.874  1.00  0.00     0.025 A 
ATOM     13  C   UNL     1       7.922  15.260  51.661  1.00  0.00     0.016 A 
ATOM     14  C   UNL     1       7.018  15.231  52.725  1.00  0.00     0.051 A 
ATOM     15  C   UNL     1       7.451  14.899  54.012  1.00  0.00     0.157 A 
ATOM     16  C   UNL     1       9.709  14.618  53.164  1.00  0.00     0.062 A 
ATOM     17  C   UNL     1       8.802  14.587  54.234  1.00  0.00     0.158 A 
BRANCH  15  18
ATOM     18  O   UNL     1       6.525  14.880  55.054  1.00  0.00    -0.504 OA
ATOM     19  H   UNL     1       5.991  14.050  55.285  1.00  0.00     0.293 HD
ENDBRANCH  15  18
BRANCH  17  20
ATOM     20  O   UNL     1       9.240  14.249  55.514  1.00  0.00    -0.504 OA
ATOM     21  H   UNL     1      10.203  14.379  55.797  1.00  0.00     0.293 HD
ENDBRANCH  17  20
ENDBRANCH   1  12
BRANCH   2  22
ATOM     22  O   UNL     1      11.022  12.720  51.289  1.00  0.00    -0.502 OA
ATOM     23  H   UNL     1      10.459  12.675  52.130  1.00  0.00     0.293 HD
ENDBRANCH   2  22
BRANCH   9  24
ATOM     24  O   UNL     1      11.990  18.616  46.325  1.00  0.00    -0.508 OA
ATOM     25  H   UNL     1      11.988  19.533  46.757  1.00  0.00     0.293 HD
ENDBRANCH   9  24
TORSDOF 5
ENDMDL
