MODEL 1
REMARK VINA RESULT:    -4.789      0.000      0.000
REMARK INTER + INTRA:          -6.849
REMARK INTER:                  -6.469
REMARK INTRA:                  -0.380
REMARK UNBOUND:                -0.380
REMARK SMILES CCCCCCC=CC(=O)[O-]
REMARK SMILES IDX 5 1 6 2 7 3 8 4 9 5 10 6 11 7 4 8 3 9 2 10 1 11
REMARK H PARENT
REMARK Flexibility Score: inf
ROOT
ATOM      1  C   UNL     1     -10.845  11.140   3.955  1.00  0.00     0.004 C 
ENDROOT
BRANCH   1   2
ATOM      2  C   UNL     1     -10.154  12.320   3.257  1.00  0.00     0.027 C 
BRANCH   2   3
ATOM      3  C   UNL     1      -9.296  13.109   4.213  1.00  0.00    -0.025 C 
ATOM      4  C   UNL     1      -7.967  13.293   4.143  1.00  0.00     0.020 C 
BRANCH   4   5
ATOM      5  C   UNL     1      -7.037  12.742   3.135  1.00  0.00     0.064 C 
ATOM      6  O   UNL     1      -6.906  13.343   2.038  1.00  0.00    -0.545 OA
ATOM      7  O   UNL     1      -6.268  11.612   3.371  1.00  0.00    -0.545 OA
ENDBRANCH   4   5
ENDBRANCH   2   3
ENDBRANCH   1   2
BRANCH   1   8
ATOM      8  C   UNL     1     -11.255  11.467   5.397  1.00  0.00     0.000 C 
BRANCH   8   9
ATOM      9  C   UNL     1     -12.080  10.326   6.006  1.00  0.00    -0.000 C 
BRANCH   9  10
ATOM     10  C   UNL     1     -12.172  10.468   7.530  1.00  0.00    -0.003 C 
ATOM     11  C   UNL     1     -11.387  11.682   8.018  1.00  0.00     0.004 C 
ENDBRANCH   9  10
ENDBRANCH   8   9
ENDBRANCH   1   8
TORSDOF 6
ENDMDL
MODEL 2
REMARK VINA RESULT:    -4.785      3.466      5.739
REMARK INTER + INTRA:          -6.844
REMARK INTER:                  -6.472
REMARK INTRA:                  -0.371
REMARK UNBOUND:                -0.380
REMARK SMILES CCCCCCC=CC(=O)[O-]
REMARK SMILES IDX 5 1 6 2 7 3 8 4 9 5 10 6 11 7 4 8 3 9 2 10 1 11
REMARK H PARENT
REMARK Flexibility Score: inf
ROOT
ATOM      1  C   UNL     1     -10.859  11.188   3.836  1.00  0.00     0.004 C 
ENDROOT
BRANCH   1   2
ATOM      2  C   UNL     1     -11.107  11.546   5.308  1.00  0.00     0.027 C 
BRANCH   2   3
ATOM      3  C   UNL     1     -11.936  10.498   6.005  1.00  0.00    -0.025 C 
ATOM      4  C   UNL     1     -12.456  10.568   7.241  1.00  0.00     0.020 C 
BRANCH   4   5
ATOM      5  C   UNL     1     -12.311  11.672   8.214  1.00  0.00     0.064 C 
ATOM      6  O   UNL     1     -13.329  12.342   8.527  1.00  0.00    -0.545 OA
ATOM      7  O   UNL     1     -11.104  11.968   8.830  1.00  0.00    -0.545 OA
ENDBRANCH   4   5
ENDBRANCH   2   3
ENDBRANCH   1   2
BRANCH   1   8
ATOM      8  C   UNL     1     -10.007  12.237   3.110  1.00  0.00     0.000 C 
BRANCH   8   9
ATOM      9  C   UNL     1      -9.294  13.155   4.111  1.00  0.00    -0.000 C 
BRANCH   9  10
ATOM     10  C   UNL     1      -7.829  13.367   3.714  1.00  0.00    -0.003 C 
ATOM     11  C   UNL     1      -7.226  12.092   3.130  1.00  0.00     0.004 C 
ENDBRANCH   9  10
ENDBRANCH   8   9
ENDBRANCH   1   8
TORSDOF 6
ENDMDL
MODEL 3
REMARK VINA RESULT:    -4.750      4.559      5.803
REMARK INTER + INTRA:          -6.796
REMARK INTER:                  -6.365
REMARK INTRA:                  -0.432
REMARK UNBOUND:                -0.380
REMARK SMILES CCCCCCC=CC(=O)[O-]
REMARK SMILES IDX 5 1 6 2 7 3 8 4 9 5 10 6 11 7 4 8 3 9 2 10 1 11
REMARK H PARENT
REMARK Flexibility Score: inf
ROOT
ATOM      1  C   UNL     1     -11.242  12.246   8.947  1.00  0.00     0.004 C 
ENDROOT
BRANCH   1   2
ATOM      2  C   UNL     1     -10.733  13.653   9.290  1.00  0.00     0.027 C 
BRANCH   2   3
ATOM      3  C   UNL     1      -9.435  13.963   8.589  1.00  0.00    -0.025 C 
ATOM      4  C   UNL     1      -8.395  14.657   9.082  1.00  0.00     0.020 C 
BRANCH   4   5
ATOM      5  C   UNL     1      -8.295  15.301  10.408  1.00  0.00     0.064 C 
ATOM      6  O   UNL     1      -7.441  14.873  11.227  1.00  0.00    -0.545 OA
ATOM      7  O   UNL     1      -9.074  16.390  10.768  1.00  0.00    -0.545 OA
ENDBRANCH   4   5
ENDBRANCH   2   3
ENDBRANCH   1   2
BRANCH   1   8
ATOM      8  C   UNL     1     -12.718  12.239   8.530  1.00  0.00     0.000 C 
BRANCH   8   9
ATOM      9  C   UNL     1     -12.880  11.741   7.088  1.00  0.00    -0.000 C 
BRANCH   9  10
ATOM     10  C   UNL     1     -11.633  10.977   6.629  1.00  0.00    -0.003 C 
ATOM     11  C   UNL     1     -11.247  11.359   5.202  1.00  0.00     0.004 C 
ENDBRANCH   9  10
ENDBRANCH   8   9
ENDBRANCH   1   8
TORSDOF 6
ENDMDL
MODEL 4
REMARK VINA RESULT:    -4.740      6.106      8.394
REMARK INTER + INTRA:          -6.782
REMARK INTER:                  -6.493
REMARK INTRA:                  -0.288
REMARK UNBOUND:                -0.380
REMARK SMILES CCCCCCC=CC(=O)[O-]
REMARK SMILES IDX 5 1 6 2 7 3 8 4 9 5 10 6 11 7 4 8 3 9 2 10 1 11
REMARK H PARENT
REMARK Flexibility Score: inf
ROOT
ATOM      1  C   UNL     1     -12.829   9.173   6.852  1.00  0.00     0.004 C 
ENDROOT
BRANCH   1   2
ATOM      2  C   UNL     1     -13.844   8.320   7.627  1.00  0.00     0.027 C 
BRANCH   2   3
ATOM      3  C   UNL     1     -13.925   6.917   7.083  1.00  0.00    -0.025 C 
ATOM      4  C   UNL     1     -14.586   5.878   7.619  1.00  0.00     0.020 C 
BRANCH   4   5
ATOM      5  C   UNL     1     -15.359   5.862   8.879  1.00  0.00     0.064 C 
ATOM      6  O   UNL     1     -14.746   5.693   9.964  1.00  0.00    -0.545 OA
ATOM      7  O   UNL     1     -16.730   6.072   8.915  1.00  0.00    -0.545 OA
ENDBRANCH   4   5
ENDBRANCH   2   3
ENDBRANCH   1   2
BRANCH   1   8
ATOM      8  C   UNL     1     -12.231  10.298   7.706  1.00  0.00     0.000 C 
BRANCH   8   9
ATOM      9  C   UNL     1     -11.479  11.310   6.834  1.00  0.00    -0.000 C 
BRANCH   9  10
ATOM     10  C   UNL     1     -11.562  10.926   5.352  1.00  0.00    -0.003 C 
ATOM     11  C   UNL     1     -10.663  11.819   4.500  1.00  0.00     0.004 C 
ENDBRANCH   9  10
ENDBRANCH   8   9
ENDBRANCH   1   8
TORSDOF 6
ENDMDL
MODEL 5
REMARK VINA RESULT:    -4.712      1.434      2.466
REMARK INTER + INTRA:          -6.745
REMARK INTER:                  -6.358
REMARK INTRA:                  -0.387
REMARK UNBOUND:                -0.380
REMARK SMILES CCCCCCC=CC(=O)[O-]
REMARK SMILES IDX 5 1 6 2 7 3 8 4 9 5 10 6 11 7 4 8 3 9 2 10 1 11
REMARK H PARENT
REMARK Flexibility Score: inf
ROOT
ATOM      1  C   UNL     1     -11.994  10.701   5.650  1.00  0.00     0.004 C 
ENDROOT
BRANCH   1   2
ATOM      2  C   UNL     1     -10.961  11.682   5.080  1.00  0.00     0.027 C 
BRANCH   2   3
ATOM      3  C   UNL     1     -10.493  11.266   3.709  1.00  0.00    -0.025 C 
ATOM      4  C   UNL     1      -9.716  11.972   2.871  1.00  0.00     0.020 C 
BRANCH   4   5
ATOM      5  C   UNL     1      -9.167  13.327   3.084  1.00  0.00     0.064 C 
ATOM      6  O   UNL     1      -8.084  13.451   3.712  1.00  0.00    -0.545 OA
ATOM      7  O   UNL     1      -9.776  14.466   2.576  1.00  0.00    -0.545 OA
ENDBRANCH   4   5
ENDBRANCH   2   3
ENDBRANCH   1   2
BRANCH   1   8
ATOM      8  C   UNL     1     -11.865  10.527   7.170  1.00  0.00     0.000 C 
BRANCH   8   9
ATOM      9  C   UNL     1     -13.040  11.187   7.900  1.00  0.00    -0.000 C 
BRANCH   9  10
ATOM     10  C   UNL     1     -12.597  12.477   8.600  1.00  0.00    -0.003 C 
ATOM     11  C   UNL     1     -11.100  12.457   8.896  1.00  0.00     0.004 C 
ENDBRANCH   9  10
ENDBRANCH   8   9
ENDBRANCH   1   8
TORSDOF 6
ENDMDL
MODEL 6
REMARK VINA RESULT:    -4.705      4.713      6.919
REMARK INTER + INTRA:          -6.735
REMARK INTER:                  -6.435
REMARK INTRA:                  -0.300
REMARK UNBOUND:                -0.380
REMARK SMILES CCCCCCC=CC(=O)[O-]
REMARK SMILES IDX 5 1 6 2 7 3 8 4 9 5 10 6 11 7 4 8 3 9 2 10 1 11
REMARK H PARENT
REMARK Flexibility Score: inf
ROOT
ATOM      1  C   UNL     1     -11.277  11.474   6.452  1.00  0.00     0.004 C 
ENDROOT
BRANCH   1   2
ATOM      2  C   UNL     1     -12.027  10.477   7.346  1.00  0.00     0.027 C 
BRANCH   2   3
ATOM      3  C   UNL     1     -12.759   9.440   6.533  1.00  0.00    -0.025 C 
ATOM      4  C   UNL     1     -13.486   8.411   7.000  1.00  0.00     0.020 C 
BRANCH   4   5
ATOM      5  C   UNL     1     -13.711   8.040   8.413  1.00  0.00     0.064 C 
ATOM      6  O   UNL     1     -13.092   7.053   8.886  1.00  0.00    -0.545 OA
ATOM      7  O   UNL     1     -14.544   8.768   9.251  1.00  0.00    -0.545 OA
ENDBRANCH   4   5
ENDBRANCH   2   3
ENDBRANCH   1   2
BRANCH   1   8
ATOM      8  C   UNL     1     -11.324  11.086   4.968  1.00  0.00     0.000 C 
BRANCH   8   9
ATOM      9  C   UNL     1     -10.374  11.960   4.141  1.00  0.00    -0.000 C 
BRANCH   9  10
ATOM     10  C   UNL     1      -9.977  11.258   2.837  1.00  0.00    -0.003 C 
ATOM     11  C   UNL     1      -8.494  10.897   2.835  1.00  0.00     0.004 C 
ENDBRANCH   9  10
ENDBRANCH   8   9
ENDBRANCH   1   8
TORSDOF 6
ENDMDL
MODEL 7
REMARK VINA RESULT:    -4.572      7.255      8.590
REMARK INTER + INTRA:          -6.555
REMARK INTER:                  -5.971
REMARK INTRA:                  -0.583
REMARK UNBOUND:                -0.380
REMARK SMILES CCCCCCC=CC(=O)[O-]
REMARK SMILES IDX 5 1 6 2 7 3 8 4 9 5 10 6 11 7 4 8 3 9 2 10 1 11
REMARK H PARENT
REMARK Flexibility Score: inf
ROOT
ATOM      1  C   UNL     1      -3.792   7.138   6.057  1.00  0.00     0.004 C 
ENDROOT
BRANCH   1   2
ATOM      2  C   UNL     1      -5.294   7.385   6.255  1.00  0.00     0.027 C 
BRANCH   2   3
ATOM      3  C   UNL     1      -5.749   6.986   7.635  1.00  0.00    -0.025 C 
ATOM      4  C   UNL     1      -6.269   5.804   8.005  1.00  0.00     0.020 C 
BRANCH   4   5
ATOM      5  C   UNL     1      -6.546   4.637   7.141  1.00  0.00     0.064 C 
ATOM      6  O   UNL     1      -5.795   3.631   7.223  1.00  0.00    -0.545 OA
ATOM      7  O   UNL     1      -7.630   4.589   6.278  1.00  0.00    -0.545 OA
ENDBRANCH   4   5
ENDBRANCH   2   3
ENDBRANCH   1   2
BRANCH   1   8
ATOM      8  C   UNL     1      -3.003   8.437   5.848  1.00  0.00     0.000 C 
BRANCH   8   9
ATOM      9  C   UNL     1      -3.898   9.664   6.064  1.00  0.00    -0.000 C 
BRANCH   9  10
ATOM     10  C   UNL     1      -3.367  10.536   7.208  1.00  0.00    -0.003 C 
ATOM     11  C   UNL     1      -3.714   9.934   8.567  1.00  0.00     0.004 C 
ENDBRANCH   9  10
ENDBRANCH   8   9
ENDBRANCH   1   8
TORSDOF 6
ENDMDL
MODEL 8
REMARK VINA RESULT:    -4.571      4.149      6.402
REMARK INTER + INTRA:          -6.554
REMARK INTER:                  -6.483
REMARK INTRA:                  -0.071
REMARK UNBOUND:                -0.380
REMARK SMILES CCCCCCC=CC(=O)[O-]
REMARK SMILES IDX 5 1 6 2 7 3 8 4 9 5 10 6 11 7 4 8 3 9 2 10 1 11
REMARK H PARENT
REMARK Flexibility Score: inf
ROOT
ATOM      1  C   UNL     1     -11.000  11.623   5.133  1.00  0.00     0.004 C 
ENDROOT
BRANCH   1   2
ATOM      2  C   UNL     1     -12.113  10.885   5.889  1.00  0.00     0.027 C 
BRANCH   2   3
ATOM      3  C   UNL     1     -11.828  10.810   7.367  1.00  0.00    -0.025 C 
ATOM      4  C   UNL     1     -12.381   9.968   8.256  1.00  0.00     0.020 C 
BRANCH   4   5
ATOM      5  C   UNL     1     -13.416   8.944   7.998  1.00  0.00     0.064 C 
ATOM      6  O   UNL     1     -14.327   8.776   8.848  1.00  0.00    -0.545 OA
ATOM      7  O   UNL     1     -13.446   8.194   6.831  1.00  0.00    -0.545 OA
ENDBRANCH   4   5
ENDBRANCH   2   3
ENDBRANCH   1   2
BRANCH   1   8
ATOM      8  C   UNL     1     -10.839  11.128   3.689  1.00  0.00     0.000 C 
BRANCH   8   9
ATOM      9  C   UNL     1      -9.682  11.848   2.986  1.00  0.00    -0.000 C 
BRANCH   9  10
ATOM     10  C   UNL     1      -9.459  13.242   3.583  1.00  0.00    -0.003 C 
ATOM     11  C   UNL     1      -9.670  14.330   2.534  1.00  0.00     0.004 C 
ENDBRANCH   9  10
ENDBRANCH   8   9
ENDBRANCH   1   8
TORSDOF 6
ENDMDL
MODEL 9
REMARK VINA RESULT:    -4.458      1.495      2.033
REMARK INTER + INTRA:          -6.402
REMARK INTER:                  -6.099
REMARK INTRA:                  -0.303
REMARK UNBOUND:                -0.380
REMARK SMILES CCCCCCC=CC(=O)[O-]
REMARK SMILES IDX 5 1 6 2 7 3 8 4 9 5 10 6 11 7 4 8 3 9 2 10 1 11
REMARK H PARENT
REMARK Flexibility Score: inf
ROOT
ATOM      1  C   UNL     1     -10.298  12.384   3.214  1.00  0.00     0.004 C 
ENDROOT
BRANCH   1   2
ATOM      2  C   UNL     1      -9.241  13.167   4.006  1.00  0.00     0.027 C 
BRANCH   2   3
ATOM      3  C   UNL     1      -7.841  12.769   3.612  1.00  0.00    -0.025 C 
ATOM      4  C   UNL     1      -7.157  13.182   2.532  1.00  0.00     0.020 C 
BRANCH   4   5
ATOM      5  C   UNL     1      -7.626  14.093   1.468  1.00  0.00     0.064 C 
ATOM      6  O   UNL     1      -7.673  15.328   1.704  1.00  0.00    -0.545 OA
ATOM      7  O   UNL     1      -7.971  13.644   0.201  1.00  0.00    -0.545 OA
ENDBRANCH   4   5
ENDBRANCH   2   3
ENDBRANCH   1   2
BRANCH   1   8
ATOM      8  C   UNL     1     -10.848  11.182   3.993  1.00  0.00     0.000 C 
BRANCH   8   9
ATOM      9  C   UNL     1     -11.182  11.570   5.438  1.00  0.00    -0.000 C 
BRANCH   9  10
ATOM     10  C   UNL     1     -11.976  10.459   6.135  1.00  0.00    -0.003 C 
ATOM     11  C   UNL     1     -12.030  10.683   7.643  1.00  0.00     0.004 C 
ENDBRANCH   9  10
ENDBRANCH   8   9
ENDBRANCH   1   8
TORSDOF 6
ENDMDL
