MODEL 1
REMARK VINA RESULT:    -4.032      0.000      0.000
REMARK INTER + INTRA:          -4.743
REMARK INTER:                  -4.503
REMARK INTRA:                  -0.240
REMARK UNBOUND:                -0.240
REMARK SMILES CC=C(C)C=CC=C(C)C
REMARK SMILES IDX 5 1 6 2 3 3 1 4 2 5 4 6 7 7 8 8 9 9 10 10
REMARK H PARENT
REMARK Flexibility Score: inf
ROOT
ATOM      1  C   UNL     1     -15.104  -1.902  18.515  1.00  0.00     0.003 C 
ATOM      2  C   UNL     1     -14.542  -2.384  19.631  1.00  0.00     0.000 C 
ENDROOT
BRANCH   1   3
ATOM      3  C   UNL     1     -14.738  -2.361  17.150  1.00  0.00    -0.055 C 
ATOM      4  C   UNL     1     -12.928  -3.140  15.587  1.00  0.00     0.036 C 
ATOM      5  C   UNL     1     -13.458  -2.715  16.924  1.00  0.00    -0.027 C 
ATOM      6  C   UNL     1     -15.767  -2.361  16.041  1.00  0.00     0.044 C 
ENDBRANCH   1   3
BRANCH   2   7
ATOM      7  C   UNL     1     -14.960  -1.887  20.960  1.00  0.00    -0.001 C 
ATOM      8  C   UNL     1     -14.145  -1.830  22.030  1.00  0.00    -0.076 C 
ATOM      9  C   UNL     1     -14.697  -1.301  23.326  1.00  0.00     0.039 C 
ATOM     10  C   UNL     1     -12.706  -2.275  21.962  1.00  0.00     0.039 C 
ENDBRANCH   2   7
TORSDOF 2
ENDMDL
MODEL 2
REMARK VINA RESULT:    -4.006      1.247      5.517
REMARK INTER + INTRA:          -4.714
REMARK INTER:                  -4.478
REMARK INTRA:                  -0.236
REMARK UNBOUND:                -0.240
REMARK SMILES CC=C(C)C=CC=C(C)C
REMARK SMILES IDX 5 1 6 2 3 3 1 4 2 5 4 6 7 7 8 8 9 9 10 10
REMARK H PARENT
REMARK Flexibility Score: inf
ROOT
ATOM      1  C   UNL     1     -14.838  -2.411  20.068  1.00  0.00     0.003 C 
ATOM      2  C   UNL     1     -14.313  -2.028  18.897  1.00  0.00     0.000 C 
ENDROOT
BRANCH   1   3
ATOM      3  C   UNL     1     -14.225  -2.094  21.384  1.00  0.00    -0.055 C 
ATOM      4  C   UNL     1     -14.464  -0.966  23.619  1.00  0.00     0.036 C 
ATOM      5  C   UNL     1     -14.965  -1.408  22.277  1.00  0.00    -0.027 C 
ATOM      6  C   UNL     1     -12.790  -2.476  21.672  1.00  0.00     0.044 C 
ENDBRANCH   1   3
BRANCH   2   7
ATOM      7  C   UNL     1     -14.980  -2.372  17.623  1.00  0.00    -0.001 C 
ATOM      8  C   UNL     1     -15.847  -1.562  16.987  1.00  0.00    -0.076 C 
ATOM      9  C   UNL     1     -16.455  -2.034  15.695  1.00  0.00     0.039 C 
ATOM     10  C   UNL     1     -16.217  -0.205  17.531  1.00  0.00     0.039 C 
ENDBRANCH   2   7
TORSDOF 2
ENDMDL
MODEL 3
REMARK VINA RESULT:    -2.911      1.204      2.097
REMARK INTER + INTRA:          -3.491
REMARK INTER:                  -3.283
REMARK INTRA:                  -0.209
REMARK UNBOUND:                -0.240
REMARK SMILES CC=C(C)C=CC=C(C)C
REMARK SMILES IDX 5 1 6 2 3 3 1 4 2 5 4 6 7 7 8 8 9 9 10 10
REMARK H PARENT
REMARK Flexibility Score: inf
ROOT
ATOM      1  C   UNL     1     -14.120  -2.366  17.861  1.00  0.00     0.003 C 
ATOM      2  C   UNL     1     -14.542  -2.362  19.131  1.00  0.00     0.000 C 
ENDROOT
BRANCH   1   3
ATOM      3  C   UNL     1     -15.003  -2.673  16.705  1.00  0.00    -0.055 C 
ATOM      4  C   UNL     1     -16.902  -1.935  15.230  1.00  0.00     0.036 C 
ATOM      5  C   UNL     1     -15.907  -1.745  16.336  1.00  0.00    -0.027 C 
ATOM      6  C   UNL     1     -14.924  -4.019  16.018  1.00  0.00     0.044 C 
ENDBRANCH   1   3
BRANCH   2   7
ATOM      7  C   UNL     1     -13.611  -2.039  20.233  1.00  0.00    -0.001 C 
ATOM      8  C   UNL     1     -13.940  -2.105  21.538  1.00  0.00    -0.076 C 
ATOM      9  C   UNL     1     -12.895  -1.751  22.560  1.00  0.00     0.039 C 
ATOM     10  C   UNL     1     -15.315  -2.523  21.994  1.00  0.00     0.039 C 
ENDBRANCH   2   7
TORSDOF 2
ENDMDL
MODEL 4
REMARK VINA RESULT:    -2.204      0.677      5.272
REMARK INTER + INTRA:          -2.701
REMARK INTER:                  -2.471
REMARK INTRA:                  -0.231
REMARK UNBOUND:                -0.240
REMARK SMILES CC=C(C)C=CC=C(C)C
REMARK SMILES IDX 5 1 6 2 3 3 1 4 2 5 4 6 7 7 8 8 9 9 10 10
REMARK H PARENT
REMARK Flexibility Score: inf
ROOT
ATOM      1  C   UNL     1     -15.019  -1.965  20.394  1.00  0.00     0.003 C 
ATOM      2  C   UNL     1     -14.551  -1.976  19.139  1.00  0.00     0.000 C 
ENDROOT
BRANCH   1   3
ATOM      3  C   UNL     1     -14.145  -2.011  21.595  1.00  0.00    -0.055 C 
ATOM      4  C   UNL     1     -12.022  -2.857  22.643  1.00  0.00     0.036 C 
ATOM      5  C   UNL     1     -12.977  -2.676  21.502  1.00  0.00    -0.027 C 
ATOM      6  C   UNL     1     -14.598  -1.382  22.895  1.00  0.00     0.044 C 
ENDBRANCH   1   3
BRANCH   2   7
ATOM      7  C   UNL     1     -15.478  -1.921  17.989  1.00  0.00    -0.001 C 
ATOM      8  C   UNL     1     -15.130  -2.244  16.728  1.00  0.00    -0.076 C 
ATOM      9  C   UNL     1     -16.172  -2.145  15.648  1.00  0.00     0.039 C 
ATOM     10  C   UNL     1     -13.737  -2.701  16.377  1.00  0.00     0.039 C 
ENDBRANCH   2   7
TORSDOF 2
ENDMDL
