MODEL 1
REMARK VINA RESULT:    -2.745      0.000      0.000
REMARK INTER + INTRA:          -5.437
REMARK INTER:                  -4.831
REMARK INTRA:                  -0.606
REMARK UNBOUND:                -0.606
REMARK SMILES CCCCCCCCCCCCCCC(=O)[O-]
REMARK SMILES IDX 9 1 10 2 11 3 12 4 13 5 14 6 15 7 16 8 17 9 8 10 7 11 6 12
REMARK SMILES IDX 5 13 4 14 3 15 2 16 1 17
REMARK H PARENT
REMARK Flexibility Score: inf
ROOT
ATOM      1  C   UNL     1      32.949  37.516   2.046  1.00  0.00     0.000 C 
ENDROOT
BRANCH   1   2
ATOM      2  C   UNL     1      33.624  37.252   3.407  1.00  0.00     0.000 C 
BRANCH   2   3
ATOM      3  C   UNL     1      33.879  38.507   4.265  1.00  0.00     0.000 C 
BRANCH   3   4
ATOM      4  C   UNL     1      35.113  38.427   5.187  1.00  0.00     0.000 C 
BRANCH   4   5
ATOM      5  C   UNL     1      34.882  38.921   6.628  1.00  0.00     0.006 C 
BRANCH   5   6
ATOM      6  C   UNL     1      33.414  38.895   7.082  1.00  0.00     0.053 C 
BRANCH   6   7
ATOM      7  C   UNL     1      33.287  38.689   8.560  1.00  0.00     0.041 C 
ATOM      8  O   UNL     1      32.149  38.654   9.099  1.00  0.00    -0.550 OA
ATOM      9  O   UNL     1      34.422  38.500   9.338  1.00  0.00    -0.550 OA
ENDBRANCH   6   7
ENDBRANCH   5   6
ENDBRANCH   4   5
ENDBRANCH   3   4
ENDBRANCH   2   3
ENDBRANCH   1   2
BRANCH   1  10
ATOM     10  C   UNL     1      33.729  36.996   0.825  1.00  0.00     0.000 C 
BRANCH  10  11
ATOM     11  C   UNL     1      34.950  37.866   0.483  1.00  0.00    -0.000 C 
BRANCH  11  12
ATOM     12  C   UNL     1      34.596  39.044  -0.437  1.00  0.00    -0.000 C 
BRANCH  12  13
ATOM     13  C   UNL     1      33.121  39.037  -0.865  1.00  0.00    -0.000 C 
BRANCH  13  14
ATOM     14  C   UNL     1      32.991  39.125  -2.391  1.00  0.00    -0.000 C 
BRANCH  14  15
ATOM     15  C   UNL     1      33.396  37.801  -3.056  1.00  0.00    -0.000 C 
BRANCH  15  16
ATOM     16  C   UNL     1      32.797  36.577  -2.348  1.00  0.00    -0.003 C 
ATOM     17  C   UNL     1      31.722  35.879  -3.181  1.00  0.00     0.004 C 
ENDBRANCH  15  16
ENDBRANCH  14  15
ENDBRANCH  13  14
ENDBRANCH  12  13
ENDBRANCH  11  12
ENDBRANCH  10  11
ENDBRANCH   1  10
TORSDOF 13
ENDMDL
MODEL 2
REMARK VINA RESULT:    -2.737      1.542      2.249
REMARK INTER + INTRA:          -5.423
REMARK INTER:                  -4.628
REMARK INTRA:                  -0.795
REMARK UNBOUND:                -0.606
REMARK SMILES CCCCCCCCCCCCCCC(=O)[O-]
REMARK SMILES IDX 9 1 10 2 11 3 12 4 13 5 14 6 15 7 16 8 17 9 8 10 7 11 6 12
REMARK SMILES IDX 5 13 4 14 3 15 2 16 1 17
REMARK H PARENT
REMARK Flexibility Score: inf
ROOT
ATOM      1  C   UNL     1      33.099  35.339   1.041  1.00  0.00     0.000 C 
ENDROOT
BRANCH   1   2
ATOM      2  C   UNL     1      33.025  36.092   2.385  1.00  0.00     0.000 C 
BRANCH   2   3
ATOM      3  C   UNL     1      33.255  37.614   2.295  1.00  0.00     0.000 C 
BRANCH   3   4
ATOM      4  C   UNL     1      34.581  38.110   2.907  1.00  0.00     0.000 C 
BRANCH   4   5
ATOM      5  C   UNL     1      34.862  37.614   4.339  1.00  0.00     0.006 C 
BRANCH   5   6
ATOM      6  C   UNL     1      35.042  38.734   5.375  1.00  0.00     0.053 C 
BRANCH   6   7
ATOM      7  C   UNL     1      34.212  38.504   6.601  1.00  0.00     0.041 C 
ATOM      8  O   UNL     1      32.962  38.388   6.506  1.00  0.00    -0.550 OA
ATOM      9  O   UNL     1      34.822  38.383   7.843  1.00  0.00    -0.550 OA
ENDBRANCH   6   7
ENDBRANCH   5   6
ENDBRANCH   4   5
ENDBRANCH   3   4
ENDBRANCH   2   3
ENDBRANCH   1   2
BRANCH   1  10
ATOM     10  C   UNL     1      32.476  36.084  -0.153  1.00  0.00     0.000 C 
BRANCH  10  11
ATOM     11  C   UNL     1      33.522  36.531  -1.188  1.00  0.00    -0.000 C 
BRANCH  11  12
ATOM     12  C   UNL     1      34.385  37.700  -0.689  1.00  0.00    -0.000 C 
BRANCH  12  13
ATOM     13  C   UNL     1      33.819  39.068  -1.096  1.00  0.00    -0.000 C 
BRANCH  13  14
ATOM     14  C   UNL     1      33.343  39.054  -2.554  1.00  0.00    -0.000 C 
BRANCH  14  15
ATOM     15  C   UNL     1      34.533  39.100  -3.523  1.00  0.00    -0.000 C 
BRANCH  15  16
ATOM     16  C   UNL     1      34.115  38.882  -4.984  1.00  0.00    -0.003 C 
ATOM     17  C   UNL     1      32.796  38.120  -5.114  1.00  0.00     0.004 C 
ENDBRANCH  15  16
ENDBRANCH  14  15
ENDBRANCH  13  14
ENDBRANCH  12  13
ENDBRANCH  11  12
ENDBRANCH  10  11
ENDBRANCH   1  10
TORSDOF 13
ENDMDL
MODEL 3
REMARK VINA RESULT:    -2.360      4.161      8.290
REMARK INTER + INTRA:          -4.758
REMARK INTER:                  -5.124
REMARK INTRA:                   0.365
REMARK UNBOUND:                -0.606
REMARK SMILES CCCCCCCCCCCCCCC(=O)[O-]
REMARK SMILES IDX 9 1 10 2 11 3 12 4 13 5 14 6 15 7 16 8 17 9 8 10 7 11 6 12
REMARK SMILES IDX 5 13 4 14 3 15 2 16 1 17
REMARK H PARENT
REMARK Flexibility Score: inf
ROOT
ATOM      1  C   UNL     1      32.633  36.798   2.189  1.00  0.00     0.000 C 
ENDROOT
BRANCH   1   2
ATOM      2  C   UNL     1      32.100  38.130   1.624  1.00  0.00     0.000 C 
BRANCH   2   3
ATOM      3  C   UNL     1      33.111  38.931   0.779  1.00  0.00     0.000 C 
BRANCH   3   4
ATOM      4  C   UNL     1      32.738  39.084  -0.710  1.00  0.00     0.000 C 
BRANCH   4   5
ATOM      5  C   UNL     1      33.649  38.322  -1.691  1.00  0.00     0.006 C 
BRANCH   5   6
ATOM      6  C   UNL     1      32.902  37.598  -2.822  1.00  0.00     0.053 C 
BRANCH   6   7
ATOM      7  C   UNL     1      32.456  36.227  -2.414  1.00  0.00     0.041 C 
ATOM      8  O   UNL     1      31.686  35.564  -3.157  1.00  0.00    -0.550 OA
ATOM      9  O   UNL     1      32.919  35.668  -1.230  1.00  0.00    -0.550 OA
ENDBRANCH   6   7
ENDBRANCH   5   6
ENDBRANCH   4   5
ENDBRANCH   3   4
ENDBRANCH   2   3
ENDBRANCH   1   2
BRANCH   1  10
ATOM     10  C   UNL     1      34.163  36.723   2.336  1.00  0.00     0.000 C 
BRANCH  10  11
ATOM     11  C   UNL     1      34.819  38.110   2.447  1.00  0.00    -0.000 C 
BRANCH  11  12
ATOM     12  C   UNL     1      35.125  38.503   3.900  1.00  0.00    -0.000 C 
BRANCH  12  13
ATOM     13  C   UNL     1      34.184  37.825   4.906  1.00  0.00    -0.000 C 
BRANCH  13  14
ATOM     14  C   UNL     1      33.424  38.866   5.737  1.00  0.00    -0.000 C 
BRANCH  14  15
ATOM     15  C   UNL     1      34.102  39.087   7.097  1.00  0.00    -0.000 C 
BRANCH  15  16
ATOM     16  C   UNL     1      33.121  38.972   8.273  1.00  0.00    -0.003 C 
ATOM     17  C   UNL     1      33.818  38.656   9.596  1.00  0.00     0.004 C 
ENDBRANCH  15  16
ENDBRANCH  14  15
ENDBRANCH  13  14
ENDBRANCH  12  13
ENDBRANCH  11  12
ENDBRANCH  10  11
ENDBRANCH   1  10
TORSDOF 13
ENDMDL
MODEL 4
REMARK VINA RESULT:    -2.193      4.660      9.289
REMARK INTER + INTRA:          -4.466
REMARK INTER:                  -3.993
REMARK INTRA:                  -0.473
REMARK UNBOUND:                -0.606
REMARK SMILES CCCCCCCCCCCCCCC(=O)[O-]
REMARK SMILES IDX 9 1 10 2 11 3 12 4 13 5 14 6 15 7 16 8 17 9 8 10 7 11 6 12
REMARK SMILES IDX 5 13 4 14 3 15 2 16 1 17
REMARK H PARENT
REMARK Flexibility Score: inf
ROOT
ATOM      1  C   UNL     1      33.327  37.233   2.477  1.00  0.00     0.000 C 
ENDROOT
BRANCH   1   2
ATOM      2  C   UNL     1      33.047  38.056   1.203  1.00  0.00     0.000 C 
BRANCH   2   3
ATOM      3  C   UNL     1      33.747  37.545  -0.072  1.00  0.00     0.000 C 
BRANCH   3   4
ATOM      4  C   UNL     1      33.096  36.308  -0.722  1.00  0.00     0.000 C 
BRANCH   4   5
ATOM      5  C   UNL     1      33.290  36.195  -2.247  1.00  0.00     0.006 C 
BRANCH   5   6
ATOM      6  C   UNL     1      32.556  37.270  -3.063  1.00  0.00     0.053 C 
BRANCH   6   7
ATOM      7  C   UNL     1      33.503  38.268  -3.656  1.00  0.00     0.041 C 
ATOM      8  O   UNL     1      33.503  38.481  -4.897  1.00  0.00    -0.550 OA
ATOM      9  O   UNL     1      34.361  38.989  -2.835  1.00  0.00    -0.550 OA
ENDBRANCH   6   7
ENDBRANCH   5   6
ENDBRANCH   4   5
ENDBRANCH   3   4
ENDBRANCH   2   3
ENDBRANCH   1   2
BRANCH   1  10
ATOM     10  C   UNL     1      34.640  37.585   3.198  1.00  0.00     0.000 C 
BRANCH  10  11
ATOM     11  C   UNL     1      34.601  37.254   4.700  1.00  0.00    -0.000 C 
BRANCH  11  12
ATOM     12  C   UNL     1      34.925  38.470   5.581  1.00  0.00    -0.000 C 
BRANCH  12  13
ATOM     13  C   UNL     1      33.684  39.034   6.288  1.00  0.00    -0.000 C 
BRANCH  13  14
ATOM     14  C   UNL     1      33.552  38.463   7.705  1.00  0.00    -0.000 C 
BRANCH  14  15
ATOM     15  C   UNL     1      34.931  38.264   8.350  1.00  0.00    -0.000 C 
BRANCH  15  16
ATOM     16  C   UNL     1      35.125  39.124   9.608  1.00  0.00    -0.003 C 
ATOM     17  C   UNL     1      33.904  39.109  10.528  1.00  0.00     0.004 C 
ENDBRANCH  15  16
ENDBRANCH  14  15
ENDBRANCH  13  14
ENDBRANCH  12  13
ENDBRANCH  11  12
ENDBRANCH  10  11
ENDBRANCH   1  10
TORSDOF 13
ENDMDL
