MODEL 1
REMARK VINA RESULT:     1.300      0.000      0.000
REMARK INTER + INTRA:           1.958
REMARK INTER:                   1.566
REMARK INTRA:                   0.392
REMARK UNBOUND:                 0.392
REMARK SMILES O=c1c(O)c(-c2ccc(O)c(O)c2)oc2cc(O)cc(O)c12
REMARK SMILES IDX 5 1 3 2 2 3 1 4 22 5 20 6 19 7 17 8 16 9 15 10 14 11 6 12
REMARK SMILES IDX 7 13 8 14 9 15 13 16 11 17 10 18 12 20 4 22 21 24 18 26
REMARK H PARENT 10 19 12 21 4 23 21 25 18 27
REMARK Flexibility Score: inf
ROOT
ATOM      1  C   UNL     1     154.807 142.069 147.778  1.00  0.00     0.180 A 
ATOM      2  C   UNL     1     155.281 142.481 149.036  1.00  0.00     0.208 A 
ATOM      3  C   UNL     1     154.436 142.368 150.152  1.00  0.00     0.238 A 
ATOM      4  O   UNL     1     154.846 142.788 151.266  1.00  0.00    -0.285 OA
ATOM      5  C   UNL     1     153.135 141.831 150.000  1.00  0.00     0.111 A 
ATOM      6  C   UNL     1     152.209 141.634 151.068  1.00  0.00     0.134 A 
ATOM      7  C   UNL     1     150.904 141.218 150.782  1.00  0.00     0.093 A 
ATOM      8  C   UNL     1     150.509 140.928 149.476  1.00  0.00     0.123 A 
ATOM      9  C   UNL     1     151.424 141.060 148.431  1.00  0.00     0.094 A 
ATOM     10  C   UNL     1     152.724 141.508 148.680  1.00  0.00     0.146 A 
ATOM     11  O   UNL     1     153.561 141.631 147.657  1.00  0.00    -0.452 OA
ENDROOT
BRANCH   1  12
ATOM     12  C   UNL     1     155.648 142.133 146.561  1.00  0.00     0.025 A 
ATOM     13  C   UNL     1     157.046 142.147 146.688  1.00  0.00     0.016 A 
ATOM     14  C   UNL     1     157.858 142.230 145.554  1.00  0.00     0.051 A 
ATOM     15  C   UNL     1     157.288 142.313 144.280  1.00  0.00     0.157 A 
ATOM     16  C   UNL     1     155.076 142.240 145.280  1.00  0.00     0.062 A 
ATOM     17  C   UNL     1     155.890 142.323 144.141  1.00  0.00     0.158 A 
BRANCH  15  18
ATOM     18  O   UNL     1     158.125 142.391 143.167  1.00  0.00    -0.504 OA
ATOM     19  H   UNL     1     157.987 141.810 142.349  1.00  0.00     0.293 HD
ENDBRANCH  15  18
BRANCH  17  20
ATOM     20  O   UNL     1     155.316 142.421 142.875  1.00  0.00    -0.504 OA
ATOM     21  H   UNL     1     155.674 143.066 142.179  1.00  0.00     0.293 HD
ENDBRANCH  17  20
ENDBRANCH   1  12
BRANCH   2  22
ATOM     22  O   UNL     1     156.561 143.028 149.161  1.00  0.00    -0.502 OA
ATOM     23  H   UNL     1     157.384 142.459 149.318  1.00  0.00     0.293 HD
ENDBRANCH   2  22
BRANCH   6  24
ATOM     24  O   UNL     1     152.528 141.805 152.418  1.00  0.00    -0.507 OA
ATOM     25  H   UNL     1     153.001 141.121 152.989  1.00  0.00     0.293 HD
ENDBRANCH   6  24
BRANCH   8  26
ATOM     26  O   UNL     1     149.206 140.500 149.231  1.00  0.00    -0.508 OA
ATOM     27  H   UNL     1     148.859 140.371 148.287  1.00  0.00     0.293 HD
ENDBRANCH   8  26
TORSDOF 6
ENDMDL
MODEL 2
REMARK VINA RESULT:     2.716      1.284      6.627
REMARK INTER + INTRA:           3.664
REMARK INTER:                   3.289
REMARK INTRA:                   0.375
REMARK UNBOUND:                 0.392
REMARK SMILES O=c1c(O)c(-c2ccc(O)c(O)c2)oc2cc(O)cc(O)c12
REMARK SMILES IDX 5 1 3 2 2 3 1 4 22 5 20 6 19 7 17 8 16 9 15 10 14 11 6 12
REMARK SMILES IDX 7 13 8 14 9 15 13 16 11 17 10 18 12 20 4 22 21 24 18 26
REMARK H PARENT 10 19 12 21 4 23 21 25 18 27
REMARK Flexibility Score: inf
ROOT
ATOM      1  C   UNL     1     154.212 142.062 148.868  1.00  0.00     0.180 A 
ATOM      2  C   UNL     1     155.593 142.162 149.118  1.00  0.00     0.208 A 
ATOM      3  C   UNL     1     156.471 142.313 148.033  1.00  0.00     0.238 A 
ATOM      4  O   UNL     1     157.709 142.347 148.259  1.00  0.00    -0.285 OA
ATOM      5  C   UNL     1     155.959 142.377 146.715  1.00  0.00     0.111 A 
ATOM      6  C   UNL     1     156.754 142.568 145.545  1.00  0.00     0.134 A 
ATOM      7  C   UNL     1     156.156 142.485 144.282  1.00  0.00     0.093 A 
ATOM      8  C   UNL     1     154.782 142.284 144.148  1.00  0.00     0.123 A 
ATOM      9  C   UNL     1     153.986 142.155 145.286  1.00  0.00     0.094 A 
ATOM     10  C   UNL     1     154.560 142.198 146.560  1.00  0.00     0.146 A 
ATOM     11  O   UNL     1     153.769 142.060 147.618  1.00  0.00    -0.452 OA
ENDROOT
BRANCH   1  12
ATOM     12  C   UNL     1     153.222 141.927 149.961  1.00  0.00     0.025 A 
ATOM     13  C   UNL     1     153.546 142.390 151.246  1.00  0.00     0.016 A 
ATOM     14  C   UNL     1     152.636 142.254 152.298  1.00  0.00     0.051 A 
ATOM     15  C   UNL     1     151.397 141.642 152.085  1.00  0.00     0.157 A 
ATOM     16  C   UNL     1     151.985 141.292 149.755  1.00  0.00     0.062 A 
ATOM     17  C   UNL     1     151.070 141.154 150.809  1.00  0.00     0.158 A 
BRANCH  15  18
ATOM     18  O   UNL     1     150.508 141.523 153.153  1.00  0.00    -0.504 OA
ATOM     19  H   UNL     1     149.840 142.250 153.381  1.00  0.00     0.293 HD
ENDBRANCH  15  18
BRANCH  17  20
ATOM     20  O   UNL     1     149.842 140.530 150.595  1.00  0.00    -0.504 OA
ATOM     21  H   UNL     1     149.528 139.762 151.179  1.00  0.00     0.293 HD
ENDBRANCH  17  20
ENDBRANCH   1  12
BRANCH   2  22
ATOM     22  O   UNL     1     156.079 142.074 150.425  1.00  0.00    -0.502 OA
ATOM     23  H   UNL     1     156.133 142.876 151.041  1.00  0.00     0.293 HD
ENDBRANCH   2  22
BRANCH   6  24
ATOM     24  O   UNL     1     158.119 142.867 145.570  1.00  0.00    -0.507 OA
ATOM     25  H   UNL     1     158.680 143.066 144.755  1.00  0.00     0.293 HD
ENDBRANCH   6  24
BRANCH   8  26
ATOM     26  O   UNL     1     154.218 142.223 142.875  1.00  0.00    -0.508 OA
ATOM     27  H   UNL     1     153.749 141.388 142.542  1.00  0.00     0.293 HD
ENDBRANCH   8  26
TORSDOF 6
ENDMDL
