MODEL 1
REMARK VINA RESULT:    -5.288      0.000      0.000
REMARK INTER + INTRA:          -5.775
REMARK INTER:                  -5.752
REMARK INTRA:                  -0.024
REMARK UNBOUND:                -0.024
REMARK SMILES CC1(C)[C@H]2CC=C(CO)[C@@H]1C2
REMARK SMILES IDX 8 1 7 2 1 3 2 4 4 5 3 6 10 7 5 8 11 9 6 10 9 11
REMARK H PARENT 9 12
REMARK Flexibility Score: inf
ROOT
ATOM      1  C   UNL     1      71.572  -5.740   8.182  1.00  0.00     0.187 C 
ENDROOT
BRANCH   1   2
ATOM      2  C   UNL     1      70.737  -6.059   6.978  1.00  0.00    -0.045 C 
ATOM      3  C   UNL     1      70.728  -9.169   4.621  1.00  0.00     0.012 C 
ATOM      4  C   UNL     1      70.172  -8.024   5.505  1.00  0.00    -0.026 C 
ATOM      5  C   UNL     1      69.513  -6.897   4.661  1.00  0.00    -0.000 C 
ATOM      6  C   UNL     1      69.356  -8.657   6.667  1.00  0.00     0.012 C 
ATOM      7  C   UNL     1      71.255  -6.969   5.854  1.00  0.00     0.023 C 
ATOM      8  C   UNL     1      68.662  -5.953   5.579  1.00  0.00     0.031 C 
ATOM      9  C   UNL     1      70.900  -6.233   4.548  1.00  0.00     0.013 C 
ATOM     10  C   UNL     1      69.478  -5.551   6.823  1.00  0.00    -0.025 C 
ENDBRANCH   1   2
BRANCH   1  11
ATOM     11  O   UNL     1      71.558  -4.358   8.410  1.00  0.00    -0.392 OA
ATOM     12  H   UNL     1      71.597  -4.241   9.395  1.00  0.00     0.211 HD
ENDBRANCH   1  11
TORSDOF 2
ENDMDL
MODEL 2
REMARK VINA RESULT:    -5.285     17.834     19.547
REMARK INTER + INTRA:          -5.772
REMARK INTER:                  -5.735
REMARK INTRA:                  -0.037
REMARK UNBOUND:                -0.024
REMARK SMILES CC1(C)[C@H]2CC=C(CO)[C@@H]1C2
REMARK SMILES IDX 8 1 7 2 1 3 2 4 4 5 3 6 10 7 5 8 11 9 6 10 9 11
REMARK H PARENT 9 12
REMARK Flexibility Score: inf
ROOT
ATOM      1  C   UNL     1      59.380 -16.694  19.143  1.00  0.00     0.187 C 
ENDROOT
BRANCH   1   2
ATOM      2  C   UNL     1      60.551 -16.696  20.082  1.00  0.00    -0.045 C 
ATOM      3  C   UNL     1      64.377 -17.048  19.401  1.00  0.00     0.012 C 
ATOM      4  C   UNL     1      63.062 -16.501  20.013  1.00  0.00    -0.026 C 
ATOM      5  C   UNL     1      62.896 -16.904  21.505  1.00  0.00    -0.000 C 
ATOM      6  C   UNL     1      62.933 -15.000  19.628  1.00  0.00     0.012 C 
ATOM      7  C   UNL     1      61.854 -17.437  19.746  1.00  0.00     0.023 C 
ATOM      8  C   UNL     1      61.763 -16.055  22.177  1.00  0.00     0.031 C 
ATOM      9  C   UNL     1      62.219 -18.206  21.031  1.00  0.00     0.013 C 
ATOM     10  C   UNL     1      60.509 -16.043  21.281  1.00  0.00    -0.025 C 
ENDBRANCH   1   2
BRANCH   1  11
ATOM     11  O   UNL     1      58.997 -15.375  18.874  1.00  0.00    -0.392 OA
ATOM     12  H   UNL     1      58.005 -15.366  18.898  1.00  0.00     0.211 HD
ENDBRANCH   1  11
TORSDOF 2
ENDMDL
MODEL 3
REMARK VINA RESULT:    -5.188     17.890     19.543
REMARK INTER + INTRA:          -5.667
REMARK INTER:                  -5.642
REMARK INTRA:                  -0.024
REMARK UNBOUND:                -0.024
REMARK SMILES CC1(C)[C@H]2CC=C(CO)[C@@H]1C2
REMARK SMILES IDX 8 1 7 2 1 3 2 4 4 5 3 6 10 7 5 8 11 9 6 10 9 11
REMARK H PARENT 9 12
REMARK Flexibility Score: inf
ROOT
ATOM      1  C   UNL     1      64.486 -17.283  19.101  1.00  0.00     0.187 C 
ENDROOT
BRANCH   1   2
ATOM      2  C   UNL     1      63.398 -17.168  20.128  1.00  0.00    -0.045 C 
ATOM      3  C   UNL     1      60.740 -14.379  20.740  1.00  0.00     0.012 C 
ATOM      4  C   UNL     1      61.330 -15.803  20.584  1.00  0.00    -0.026 C 
ATOM      5  C   UNL     1      61.424 -16.552  21.943  1.00  0.00    -0.000 C 
ATOM      6  C   UNL     1      60.610 -16.502  19.397  1.00  0.00     0.012 C 
ATOM      7  C   UNL     1      62.882 -15.804  20.609  1.00  0.00     0.023 C 
ATOM      8  C   UNL     1      61.681 -18.080  21.707  1.00  0.00     0.031 C 
ATOM      9  C   UNL     1      62.816 -15.919  22.144  1.00  0.00     0.013 C 
ATOM     10  C   UNL     1      62.821 -18.273  20.687  1.00  0.00    -0.025 C 
ENDBRANCH   1   2
BRANCH   1  11
ATOM     11  O   UNL     1      65.536 -18.054  19.614  1.00  0.00    -0.392 OA
ATOM     12  H   UNL     1      65.183 -18.977  19.701  1.00  0.00     0.211 HD
ENDBRANCH   1  11
TORSDOF 2
ENDMDL
MODEL 4
REMARK VINA RESULT:    -5.157     17.931     19.544
REMARK INTER + INTRA:          -5.633
REMARK INTER:                  -5.584
REMARK INTRA:                  -0.050
REMARK UNBOUND:                -0.024
REMARK SMILES CC1(C)[C@H]2CC=C(CO)[C@@H]1C2
REMARK SMILES IDX 8 1 7 2 1 3 2 4 4 5 3 6 10 7 5 8 11 9 6 10 9 11
REMARK H PARENT 9 12
REMARK Flexibility Score: inf
ROOT
ATOM      1  C   UNL     1      64.509 -17.339  19.602  1.00  0.00     0.187 C 
ENDROOT
BRANCH   1   2
ATOM      2  C   UNL     1      63.225 -16.630  19.919  1.00  0.00    -0.045 C 
ATOM      3  C   UNL     1      60.415 -17.453  22.498  1.00  0.00     0.012 C 
ATOM      4  C   UNL     1      61.435 -16.610  21.692  1.00  0.00    -0.026 C 
ATOM      5  C   UNL     1      60.742 -15.695  20.644  1.00  0.00    -0.000 C 
ATOM      6  C   UNL     1      62.437 -15.968  22.693  1.00  0.00     0.012 C 
ATOM      7  C   UNL     1      62.004 -17.380  20.471  1.00  0.00     0.023 C 
ATOM      8  C   UNL     1      61.747 -14.617  20.110  1.00  0.00     0.031 C 
ATOM      9  C   UNL     1      60.810 -16.865  19.643  1.00  0.00     0.013 C 
ATOM     10  C   UNL     1      63.082 -15.285  19.725  1.00  0.00    -0.025 C 
ENDBRANCH   1   2
BRANCH   1  11
ATOM     11  O   UNL     1      64.405 -18.685  19.971  1.00  0.00    -0.392 OA
ATOM     12  H   UNL     1      63.441 -18.852  20.138  1.00  0.00     0.211 HD
ENDBRANCH   1  11
TORSDOF 2
ENDMDL
MODEL 5
REMARK VINA RESULT:    -5.125     17.916     19.453
REMARK INTER + INTRA:          -5.598
REMARK INTER:                  -5.574
REMARK INTRA:                  -0.024
REMARK UNBOUND:                -0.024
REMARK SMILES CC1(C)[C@H]2CC=C(CO)[C@@H]1C2
REMARK SMILES IDX 8 1 7 2 1 3 2 4 4 5 3 6 10 7 5 8 11 9 6 10 9 11
REMARK H PARENT 9 12
REMARK Flexibility Score: inf
ROOT
ATOM      1  C   UNL     1      60.421 -13.858  22.583  1.00  0.00     0.187 C 
ENDROOT
BRANCH   1   2
ATOM      2  C   UNL     1      61.330 -14.593  21.643  1.00  0.00    -0.045 C 
ATOM      3  C   UNL     1      61.545 -18.379  20.726  1.00  0.00     0.012 C 
ATOM      4  C   UNL     1      61.516 -16.843  20.525  1.00  0.00    -0.026 C 
ATOM      5  C   UNL     1      62.912 -16.274  20.147  1.00  0.00    -0.000 C 
ATOM      6  C   UNL     1      60.300 -16.492  19.622  1.00  0.00     0.012 C 
ATOM      7  C   UNL     1      61.691 -16.070  21.859  1.00  0.00     0.023 C 
ATOM      8  C   UNL     1      62.777 -14.807  19.610  1.00  0.00     0.031 C 
ATOM      9  C   UNL     1      63.217 -16.143  21.653  1.00  0.00     0.013 C 
ATOM     10  C   UNL     1      61.883 -13.979  20.555  1.00  0.00    -0.025 C 
ENDBRANCH   1   2
BRANCH   1  11
ATOM     11  O   UNL     1      61.022 -12.655  22.974  1.00  0.00    -0.392 OA
ATOM     12  H   UNL     1      61.733 -12.473  22.306  1.00  0.00     0.211 HD
ENDBRANCH   1  11
TORSDOF 2
ENDMDL
MODEL 6
REMARK VINA RESULT:    -4.986     18.593     20.052
REMARK INTER + INTRA:          -5.447
REMARK INTER:                  -5.403
REMARK INTRA:                  -0.045
REMARK UNBOUND:                -0.024
REMARK SMILES CC1(C)[C@H]2CC=C(CO)[C@@H]1C2
REMARK SMILES IDX 8 1 7 2 1 3 2 4 4 5 3 6 10 7 5 8 11 9 6 10 9 11
REMARK H PARENT 9 12
REMARK Flexibility Score: inf
ROOT
ATOM      1  C   UNL     1      59.700 -16.968  19.065  1.00  0.00     0.187 C 
ENDROOT
BRANCH   1   2
ATOM      2  C   UNL     1      60.992 -16.937  19.827  1.00  0.00    -0.045 C 
ATOM      3  C   UNL     1      61.908 -15.295  23.246  1.00  0.00     0.012 C 
ATOM      4  C   UNL     1      61.845 -16.367  22.128  1.00  0.00    -0.026 C 
ATOM      5  C   UNL     1      63.210 -16.543  21.406  1.00  0.00    -0.000 C 
ATOM      6  C   UNL     1      61.138 -17.627  22.701  1.00  0.00     0.012 C 
ATOM      7  C   UNL     1      61.339 -15.785  20.781  1.00  0.00     0.023 C 
ATOM      8  C   UNL     1      63.208 -17.855  20.547  1.00  0.00     0.031 C 
ATOM      9  C   UNL     1      62.796 -15.412  20.443  1.00  0.00     0.013 C 
ATOM     10  C   UNL     1      61.921 -17.932  19.703  1.00  0.00    -0.025 C 
ENDBRANCH   1   2
BRANCH   1  11
ATOM     11  O   UNL     1      59.222 -15.662  18.899  1.00  0.00    -0.392 OA
ATOM     12  H   UNL     1      59.949 -15.158  18.451  1.00  0.00     0.211 HD
ENDBRANCH   1  11
TORSDOF 2
ENDMDL
MODEL 7
REMARK VINA RESULT:    -4.968      2.521      3.738
REMARK INTER + INTRA:          -5.427
REMARK INTER:                  -5.391
REMARK INTRA:                  -0.036
REMARK UNBOUND:                -0.024
REMARK SMILES CC1(C)[C@H]2CC=C(CO)[C@@H]1C2
REMARK SMILES IDX 8 1 7 2 1 3 2 4 4 5 3 6 10 7 5 8 11 9 6 10 9 11
REMARK H PARENT 9 12
REMARK Flexibility Score: inf
ROOT
ATOM      1  C   UNL     1      67.100  -6.765   4.499  1.00  0.00     0.187 C 
ENDROOT
BRANCH   1   2
ATOM      2  C   UNL     1      68.559  -6.824   4.846  1.00  0.00    -0.045 C 
ATOM      3  C   UNL     1      70.375  -6.750   8.298  1.00  0.00     0.012 C 
ATOM      4  C   UNL     1      70.038  -7.193   6.852  1.00  0.00    -0.026 C 
ATOM      5  C   UNL     1      71.125  -6.750   5.834  1.00  0.00    -0.000 C 
ATOM      6  C   UNL     1      69.615  -8.689   6.886  1.00  0.00     0.012 C 
ATOM      7  C   UNL     1      69.111  -6.181   6.126  1.00  0.00     0.023 C 
ATOM      8  C   UNL     1      70.940  -7.506   4.473  1.00  0.00     0.031 C 
ATOM      9  C   UNL     1      70.371  -5.414   5.677  1.00  0.00     0.013 C 
ATOM     10  C   UNL     1      69.463  -7.450   4.034  1.00  0.00    -0.025 C 
ENDBRANCH   1   2
BRANCH   1  11
ATOM     11  O   UNL     1      66.624  -8.057   4.250  1.00  0.00    -0.392 OA
ATOM     12  H   UNL     1      67.371  -8.548   3.819  1.00  0.00     0.211 HD
ENDBRANCH   1  11
TORSDOF 2
ENDMDL
MODEL 8
REMARK VINA RESULT:    -4.828     18.129     19.834
REMARK INTER + INTRA:          -5.275
REMARK INTER:                  -5.251
REMARK INTRA:                  -0.024
REMARK UNBOUND:                -0.024
REMARK SMILES CC1(C)[C@H]2CC=C(CO)[C@@H]1C2
REMARK SMILES IDX 8 1 7 2 1 3 2 4 4 5 3 6 10 7 5 8 11 9 6 10 9 11
REMARK H PARENT 9 12
REMARK Flexibility Score: inf
ROOT
ATOM      1  C   UNL     1      62.100 -14.172  20.373  1.00  0.00     0.187 C 
ENDROOT
BRANCH   1   2
ATOM      2  C   UNL     1      62.040 -15.660  20.558  1.00  0.00    -0.045 C 
ATOM      3  C   UNL     1      59.046 -18.017  21.397  1.00  0.00     0.012 C 
ATOM      4  C   UNL     1      60.331 -17.506  20.697  1.00  0.00    -0.026 C 
ATOM      5  C   UNL     1      61.589 -18.315  21.117  1.00  0.00    -0.000 C 
ATOM      6  C   UNL     1      60.027 -17.335  19.182  1.00  0.00     0.012 C 
ATOM      7  C   UNL     1      60.984 -16.320  21.456  1.00  0.00     0.023 C 
ATOM      8  C   UNL     1      62.781 -18.016  20.144  1.00  0.00     0.031 C 
ATOM      9  C   UNL     1      61.763 -17.345  22.303  1.00  0.00     0.013 C 
ATOM     10  C   UNL     1      62.927 -16.495  19.939  1.00  0.00    -0.025 C 
ENDBRANCH   1   2
BRANCH   1  11
ATOM     11  O   UNL     1      62.868 -13.871  19.242  1.00  0.00    -0.392 OA
ATOM     12  H   UNL     1      63.082 -14.740  18.814  1.00  0.00     0.211 HD
ENDBRANCH   1  11
TORSDOF 2
ENDMDL
MODEL 9
REMARK VINA RESULT:    -4.815      2.759      3.999
REMARK INTER + INTRA:          -5.261
REMARK INTER:                  -5.238
REMARK INTRA:                  -0.023
REMARK UNBOUND:                -0.024
REMARK SMILES CC1(C)[C@H]2CC=C(CO)[C@@H]1C2
REMARK SMILES IDX 8 1 7 2 1 3 2 4 4 5 3 6 10 7 5 8 11 9 6 10 9 11
REMARK H PARENT 9 12
REMARK Flexibility Score: inf
ROOT
ATOM      1  C   UNL     1      69.658 -10.614   4.489  1.00  0.00     0.187 C 
ENDROOT
BRANCH   1   2
ATOM      2  C   UNL     1      69.861  -9.325   5.230  1.00  0.00    -0.045 C 
ATOM      3  C   UNL     1      69.777  -5.623   3.999  1.00  0.00     0.012 C 
ATOM      4  C   UNL     1      69.507  -6.852   4.904  1.00  0.00    -0.026 C 
ATOM      5  C   UNL     1      70.330  -6.802   6.222  1.00  0.00    -0.000 C 
ATOM      6  C   UNL     1      67.969  -7.062   4.995  1.00  0.00     0.012 C 
ATOM      7  C   UNL     1      70.397  -8.067   4.531  1.00  0.00     0.023 C 
ATOM      8  C   UNL     1      69.777  -7.848   7.251  1.00  0.00     0.031 C 
ATOM      9  C   UNL     1      71.478  -7.513   5.478  1.00  0.00     0.013 C 
ATOM     10  C   UNL     1      69.582  -9.214   6.563  1.00  0.00    -0.025 C 
ENDBRANCH   1   2
BRANCH   1  11
ATOM     11  O   UNL     1      69.663 -11.682   5.394  1.00  0.00    -0.392 OA
ATOM     12  H   UNL     1      69.526 -11.282   6.292  1.00  0.00     0.211 HD
ENDBRANCH   1  11
TORSDOF 2
ENDMDL
