MODEL 1
REMARK VINA RESULT:    -4.864      0.000      0.000
REMARK INTER + INTRA:          -5.475
REMARK INTER:                  -5.432
REMARK INTRA:                  -0.043
REMARK UNBOUND:                -0.043
REMARK SMILES O=C([O-])c1ccc(O)c(O)c1
REMARK SMILES IDX 4 1 11 2 5 3 9 4 6 5 7 6 2 7 1 8 3 9 10 10 8 12
REMARK H PARENT 10 11 8 13
REMARK Flexibility Score: inf
ROOT
ATOM      1  C   UNL     1      31.302   6.354 -23.659  1.00  0.00     0.001 A 
ATOM      2  C   UNL     1      30.233   6.055 -22.796  1.00  0.00     0.060 A 
ATOM      3  C   UNL     1      32.304   7.238 -23.223  1.00  0.00     0.014 A 
ATOM      4  C   UNL     1      30.164   6.630 -21.518  1.00  0.00     0.158 A 
ATOM      5  C   UNL     1      32.236   7.811 -21.950  1.00  0.00     0.051 A 
ATOM      6  C   UNL     1      31.172   7.513 -21.096  1.00  0.00     0.157 A 
ENDROOT
BRANCH   1   7
ATOM      7  C   UNL     1      31.369   5.743 -25.006  1.00  0.00     0.072 C 
ATOM      8  O   UNL     1      30.805   4.641 -25.238  1.00  0.00    -0.545 OA
ATOM      9  O   UNL     1      32.057   6.378 -26.034  1.00  0.00    -0.545 OA
ENDBRANCH   1   7
BRANCH   4  10
ATOM     10  O   UNL     1      29.100   6.327 -20.671  1.00  0.00    -0.504 OA
ATOM     11  H   UNL     1      29.003   5.412 -20.245  1.00  0.00     0.293 HD
ENDBRANCH   4  10
BRANCH   6  12
ATOM     12  O   UNL     1      31.132   8.100 -19.831  1.00  0.00    -0.504 OA
ATOM     13  H   UNL     1      30.349   8.666 -19.525  1.00  0.00     0.293 HD
ENDBRANCH   6  12
TORSDOF 3
ENDMDL
MODEL 2
REMARK VINA RESULT:    -4.731     10.451     11.801
REMARK INTER + INTRA:          -5.327
REMARK INTER:                  -5.290
REMARK INTRA:                  -0.037
REMARK UNBOUND:                -0.043
REMARK SMILES O=C([O-])c1ccc(O)c(O)c1
REMARK SMILES IDX 4 1 11 2 5 3 9 4 6 5 7 6 2 7 1 8 3 9 10 10 8 12
REMARK H PARENT 10 11 8 13
REMARK Flexibility Score: inf
ROOT
ATOM      1  C   UNL     1      28.092  10.163 -32.662  1.00  0.00     0.001 A 
ATOM      2  C   UNL     1      28.743   9.127 -33.355  1.00  0.00     0.060 A 
ATOM      3  C   UNL     1      28.648  11.454 -32.684  1.00  0.00     0.014 A 
ATOM      4  C   UNL     1      29.931   9.375 -34.058  1.00  0.00     0.158 A 
ATOM      5  C   UNL     1      29.832  11.702 -33.386  1.00  0.00     0.051 A 
ATOM      6  C   UNL     1      30.477  10.670 -34.072  1.00  0.00     0.157 A 
ENDROOT
BRANCH   1   7
ATOM      7  C   UNL     1      26.838   9.895 -31.922  1.00  0.00     0.072 C 
ATOM      8  O   UNL     1      26.829   9.101 -30.944  1.00  0.00    -0.545 OA
ATOM      9  O   UNL     1      25.652  10.515 -32.298  1.00  0.00    -0.545 OA
ENDBRANCH   1   7
BRANCH   4  10
ATOM     10  O   UNL     1      30.569   8.342 -34.741  1.00  0.00    -0.504 OA
ATOM     11  H   UNL     1      30.235   7.386 -34.692  1.00  0.00     0.293 HD
ENDBRANCH   4  10
BRANCH   6  12
ATOM     12  O   UNL     1      31.656  10.948 -34.762  1.00  0.00    -0.504 OA
ATOM     13  H   UNL     1      32.323  11.636 -34.433  1.00  0.00     0.293 HD
ENDBRANCH   6  12
TORSDOF 3
ENDMDL
MODEL 3
REMARK VINA RESULT:    -4.689     11.710     12.168
REMARK INTER + INTRA:          -5.280
REMARK INTER:                  -5.239
REMARK INTRA:                  -0.041
REMARK UNBOUND:                -0.043
REMARK SMILES O=C([O-])c1ccc(O)c(O)c1
REMARK SMILES IDX 4 1 11 2 5 3 9 4 6 5 7 6 2 7 1 8 3 9 10 10 8 12
REMARK H PARENT 10 11 8 13
REMARK Flexibility Score: inf
ROOT
ATOM      1  C   UNL     1      29.708  10.191 -34.673  1.00  0.00     0.001 A 
ATOM      2  C   UNL     1      28.364  10.148 -34.265  1.00  0.00     0.060 A 
ATOM      3  C   UNL     1      30.562  11.155 -34.110  1.00  0.00     0.014 A 
ATOM      4  C   UNL     1      27.878  11.054 -33.311  1.00  0.00     0.158 A 
ATOM      5  C   UNL     1      30.078  12.059 -33.159  1.00  0.00     0.051 A 
ATOM      6  C   UNL     1      28.741  12.014 -32.757  1.00  0.00     0.157 A 
ENDROOT
BRANCH   1   7
ATOM      7  C   UNL     1      30.215   9.231 -35.680  1.00  0.00     0.072 C 
ATOM      8  O   UNL     1      29.500   8.895 -36.661  1.00  0.00    -0.545 OA
ATOM      9  O   UNL     1      31.488   8.685 -35.555  1.00  0.00    -0.545 OA
ENDBRANCH   1   7
BRANCH   4  10
ATOM     10  O   UNL     1      26.542  11.004 -32.914  1.00  0.00    -0.504 OA
ATOM     11  H   UNL     1      25.886  11.736 -33.162  1.00  0.00     0.293 HD
ENDBRANCH   4  10
BRANCH   6  12
ATOM     12  O   UNL     1      28.288  12.929 -31.806  1.00  0.00    -0.504 OA
ATOM     13  H   UNL     1      28.865  13.228 -31.030  1.00  0.00     0.293 HD
ENDBRANCH   6  12
TORSDOF 3
ENDMDL
MODEL 4
REMARK VINA RESULT:    -4.638     11.331     12.259
REMARK INTER + INTRA:          -5.223
REMARK INTER:                  -5.180
REMARK INTRA:                  -0.043
REMARK UNBOUND:                -0.043
REMARK SMILES O=C([O-])c1ccc(O)c(O)c1
REMARK SMILES IDX 4 1 11 2 5 3 9 4 6 5 7 6 2 7 1 8 3 9 10 10 8 12
REMARK H PARENT 10 11 8 13
REMARK Flexibility Score: inf
ROOT
ATOM      1  C   UNL     1      28.387  11.036 -32.885  1.00  0.00     0.001 A 
ATOM      2  C   UNL     1      29.596  11.455 -33.468  1.00  0.00     0.060 A 
ATOM      3  C   UNL     1      28.027   9.679 -32.962  1.00  0.00     0.014 A 
ATOM      4  C   UNL     1      30.432  10.536 -34.119  1.00  0.00     0.158 A 
ATOM      5  C   UNL     1      28.860   8.762 -33.610  1.00  0.00     0.051 A 
ATOM      6  C   UNL     1      30.059   9.183 -34.190  1.00  0.00     0.157 A 
ENDROOT
BRANCH   1   7
ATOM      7  C   UNL     1      27.510  12.012 -32.199  1.00  0.00     0.072 C 
ATOM      8  O   UNL     1      27.963  13.125 -31.822  1.00  0.00    -0.545 OA
ATOM      9  O   UNL     1      26.174  11.711 -31.960  1.00  0.00    -0.545 OA
ENDBRANCH   1   7
BRANCH   4  10
ATOM     10  O   UNL     1      31.628  10.962 -34.695  1.00  0.00    -0.504 OA
ATOM     11  H   UNL     1      32.527  10.649 -34.345  1.00  0.00     0.293 HD
ENDBRANCH   4  10
BRANCH   6  12
ATOM     12  O   UNL     1      30.869   8.245 -34.830  1.00  0.00    -0.504 OA
ATOM     13  H   UNL     1      30.686   7.250 -34.775  1.00  0.00     0.293 HD
ENDBRANCH   6  12
TORSDOF 3
ENDMDL
MODEL 5
REMARK VINA RESULT:    -4.572      1.095      2.374
REMARK INTER + INTRA:          -5.150
REMARK INTER:                  -5.107
REMARK INTRA:                  -0.043
REMARK UNBOUND:                -0.043
REMARK SMILES O=C([O-])c1ccc(O)c(O)c1
REMARK SMILES IDX 4 1 11 2 5 3 9 4 6 5 7 6 2 7 1 8 3 9 10 10 8 12
REMARK H PARENT 10 11 8 13
REMARK Flexibility Score: inf
ROOT
ATOM      1  C   UNL     1      31.315   6.557 -23.328  1.00  0.00     0.001 A 
ATOM      2  C   UNL     1      32.448   7.294 -22.941  1.00  0.00     0.060 A 
ATOM      3  C   UNL     1      30.237   6.445 -22.433  1.00  0.00     0.014 A 
ATOM      4  C   UNL     1      32.506   7.908 -21.681  1.00  0.00     0.158 A 
ATOM      5  C   UNL     1      30.293   7.057 -21.177  1.00  0.00     0.051 A 
ATOM      6  C   UNL     1      31.422   7.787 -20.796  1.00  0.00     0.157 A 
ENDROOT
BRANCH   1   7
ATOM      7  C   UNL     1      31.260   5.912 -24.659  1.00  0.00     0.072 C 
ATOM      8  O   UNL     1      31.952   6.356 -25.614  1.00  0.00    -0.545 OA
ATOM      9  O   UNL     1      30.442   4.809 -24.874  1.00  0.00    -0.545 OA
ENDBRANCH   1   7
BRANCH   4  10
ATOM     10  O   UNL     1      33.635   8.635 -21.308  1.00  0.00    -0.504 OA
ATOM     11  H   UNL     1      33.692   9.637 -21.448  1.00  0.00     0.293 HD
ENDBRANCH   4  10
BRANCH   6  12
ATOM     12  O   UNL     1      31.449   8.386 -19.537  1.00  0.00    -0.504 OA
ATOM     13  H   UNL     1      32.242   8.293 -18.914  1.00  0.00     0.293 HD
ENDBRANCH   6  12
TORSDOF 3
ENDMDL
MODEL 6
REMARK VINA RESULT:    -4.545      1.765      3.696
REMARK INTER + INTRA:          -5.119
REMARK INTER:                  -5.081
REMARK INTRA:                  -0.038
REMARK UNBOUND:                -0.043
REMARK SMILES O=C([O-])c1ccc(O)c(O)c1
REMARK SMILES IDX 4 1 11 2 5 3 9 4 6 5 7 6 2 7 1 8 3 9 10 10 8 12
REMARK H PARENT 10 11 8 13
REMARK Flexibility Score: inf
ROOT
ATOM      1  C   UNL     1      32.377   7.490 -21.938  1.00  0.00     0.001 A 
ATOM      2  C   UNL     1      31.260   7.244 -21.121  1.00  0.00     0.060 A 
ATOM      3  C   UNL     1      32.338   7.089 -23.285  1.00  0.00     0.014 A 
ATOM      4  C   UNL     1      30.122   6.607 -21.639  1.00  0.00     0.158 A 
ATOM      5  C   UNL     1      31.205   6.455 -23.802  1.00  0.00     0.051 A 
ATOM      6  C   UNL     1      30.097   6.211 -22.986  1.00  0.00     0.157 A 
ENDROOT
BRANCH   1   7
ATOM      7  C   UNL     1      33.574   8.163 -21.385  1.00  0.00     0.072 C 
ATOM      8  O   UNL     1      33.485   9.310 -20.874  1.00  0.00    -0.545 OA
ATOM      9  O   UNL     1      34.815   7.537 -21.425  1.00  0.00    -0.545 OA
ENDBRANCH   1   7
BRANCH   4  10
ATOM     10  O   UNL     1      29.020   6.368 -20.820  1.00  0.00    -0.504 OA
ATOM     11  H   UNL     1      29.118   6.244 -19.819  1.00  0.00     0.293 HD
ENDBRANCH   4  10
BRANCH   6  12
ATOM     12  O   UNL     1      28.981   5.576 -23.531  1.00  0.00    -0.504 OA
ATOM     13  H   UNL     1      28.813   4.585 -23.408  1.00  0.00     0.293 HD
ENDBRANCH   6  12
TORSDOF 3
ENDMDL
MODEL 7
REMARK VINA RESULT:    -4.463      1.798      4.042
REMARK INTER + INTRA:          -5.027
REMARK INTER:                  -4.988
REMARK INTRA:                  -0.040
REMARK UNBOUND:                -0.043
REMARK SMILES O=C([O-])c1ccc(O)c(O)c1
REMARK SMILES IDX 4 1 11 2 5 3 9 4 6 5 7 6 2 7 1 8 3 9 10 10 8 12
REMARK H PARENT 10 11 8 13
REMARK Flexibility Score: inf
ROOT
ATOM      1  C   UNL     1      32.218   7.579 -21.928  1.00  0.00     0.001 A 
ATOM      2  C   UNL     1      32.180   7.007 -23.212  1.00  0.00     0.060 A 
ATOM      3  C   UNL     1      31.059   7.548 -21.133  1.00  0.00     0.014 A 
ATOM      4  C   UNL     1      31.004   6.415 -23.695  1.00  0.00     0.158 A 
ATOM      5  C   UNL     1      29.887   6.957 -21.614  1.00  0.00     0.051 A 
ATOM      6  C   UNL     1      29.853   6.391 -22.891  1.00  0.00     0.157 A 
ENDROOT
BRANCH   1   7
ATOM      7  C   UNL     1      33.463   8.202 -21.424  1.00  0.00     0.072 C 
ATOM      8  O   UNL     1      33.431   9.325 -20.854  1.00  0.00    -0.545 OA
ATOM      9  O   UNL     1      34.684   7.557 -21.574  1.00  0.00    -0.545 OA
ENDBRANCH   1   7
BRANCH   4  10
ATOM     10  O   UNL     1      30.976   5.851 -24.970  1.00  0.00    -0.504 OA
ATOM     11  H   UNL     1      30.150   5.900 -25.555  1.00  0.00     0.293 HD
ENDBRANCH   4  10
BRANCH   6  12
ATOM     12  O   UNL     1      28.668   5.809 -23.343  1.00  0.00    -0.504 OA
ATOM     13  H   UNL     1      28.657   5.116 -24.081  1.00  0.00     0.293 HD
ENDBRANCH   6  12
TORSDOF 3
ENDMDL
MODEL 8
REMARK VINA RESULT:    -4.430      1.856      3.004
REMARK INTER + INTRA:          -4.991
REMARK INTER:                  -4.948
REMARK INTRA:                  -0.043
REMARK UNBOUND:                -0.043
REMARK SMILES O=C([O-])c1ccc(O)c(O)c1
REMARK SMILES IDX 4 1 11 2 5 3 9 4 6 5 7 6 2 7 1 8 3 9 10 10 8 12
REMARK H PARENT 10 11 8 13
REMARK Flexibility Score: inf
ROOT
ATOM      1  C   UNL     1      32.777   6.871 -22.449  1.00  0.00     0.001 A 
ATOM      2  C   UNL     1      32.437   7.449 -21.213  1.00  0.00     0.060 A 
ATOM      3  C   UNL     1      31.801   6.145 -23.154  1.00  0.00     0.014 A 
ATOM      4  C   UNL     1      31.144   7.304 -20.689  1.00  0.00     0.158 A 
ATOM      5  C   UNL     1      30.512   6.001 -22.632  1.00  0.00     0.051 A 
ATOM      6  C   UNL     1      30.178   6.576 -21.404  1.00  0.00     0.157 A 
ENDROOT
BRANCH   1   7
ATOM      7  C   UNL     1      34.143   7.027 -22.997  1.00  0.00     0.072 C 
ATOM      8  O   UNL     1      34.357   6.896 -24.231  1.00  0.00    -0.545 OA
ATOM      9  O   UNL     1      35.210   7.320 -22.155  1.00  0.00    -0.545 OA
ENDBRANCH   1   7
BRANCH   4  10
ATOM     10  O   UNL     1      30.817   7.881 -19.462  1.00  0.00    -0.504 OA
ATOM     11  H   UNL     1      31.509   8.363 -18.900  1.00  0.00     0.293 HD
ENDBRANCH   4  10
BRANCH   6  12
ATOM     12  O   UNL     1      28.884   6.415 -20.909  1.00  0.00    -0.504 OA
ATOM     13  H   UNL     1      28.067   6.691 -21.440  1.00  0.00     0.293 HD
ENDBRANCH   6  12
TORSDOF 3
ENDMDL
MODEL 9
REMARK VINA RESULT:    -4.419      1.367      2.128
REMARK INTER + INTRA:          -4.979
REMARK INTER:                  -4.937
REMARK INTRA:                  -0.041
REMARK UNBOUND:                -0.043
REMARK SMILES O=C([O-])c1ccc(O)c(O)c1
REMARK SMILES IDX 4 1 11 2 5 3 9 4 6 5 7 6 2 7 1 8 3 9 10 10 8 12
REMARK H PARENT 10 11 8 13
REMARK Flexibility Score: inf
ROOT
ATOM      1  C   UNL     1      32.057   6.866 -23.096  1.00  0.00     0.001 A 
ATOM      2  C   UNL     1      31.320   7.233 -21.956  1.00  0.00     0.060 A 
ATOM      3  C   UNL     1      33.444   7.093 -23.114  1.00  0.00     0.014 A 
ATOM      4  C   UNL     1      31.958   7.818 -20.851  1.00  0.00     0.158 A 
ATOM      5  C   UNL     1      34.080   7.675 -22.013  1.00  0.00     0.051 A 
ATOM      6  C   UNL     1      33.345   8.039 -20.883  1.00  0.00     0.157 A 
ENDROOT
BRANCH   1   7
ATOM      7  C   UNL     1      31.378   6.249 -24.258  1.00  0.00     0.072 C 
ATOM      8  O   UNL     1      31.757   6.506 -25.431  1.00  0.00    -0.545 OA
ATOM      9  O   UNL     1      30.311   5.378 -24.069  1.00  0.00    -0.545 OA
ENDBRANCH   1   7
BRANCH   4  10
ATOM     10  O   UNL     1      31.219   8.179 -19.726  1.00  0.00    -0.504 OA
ATOM     11  H   UNL     1      30.351   8.697 -19.804  1.00  0.00     0.293 HD
ENDBRANCH   4  10
BRANCH   6  12
ATOM     12  O   UNL     1      34.008   8.618 -19.801  1.00  0.00    -0.504 OA
ATOM     13  H   UNL     1      34.982   8.891 -19.850  1.00  0.00     0.293 HD
ENDBRANCH   6  12
TORSDOF 3
ENDMDL
