MODEL 1
REMARK VINA RESULT:    -7.358      0.000      0.000
REMARK INTER + INTRA:          -9.371
REMARK INTER:                  -9.079
REMARK INTRA:                  -0.293
REMARK UNBOUND:                -0.293
REMARK SMILES Oc1cc(O)c2cc(O)c(-c3cc(O)c(O)c(O)c3)[o+]c2c1.[Cl-]
REMARK SMILES IDX 10 1 20 2 21 3 22 4 2 5 3 6 4 7 6 8 7 9 8 10 11 11 12 12
REMARK SMILES IDX 13 13 19 14 15 15 17 16 14 17 16 19 18 21 9 23 1 25 5 27
REMARK H PARENT 14 18 16 20 18 22 9 24 1 26 5 28
REMARK Flexibility Score: inf
ROOT
ATOM      1  C   UNL     1      14.587  17.758  30.642  1.00  0.00     0.402 A 
ATOM      2  O   UNL     1      15.027  18.675  29.785  1.00  0.00    -0.202 OA
ATOM      3  C   UNL     1      14.260  19.643  29.295  1.00  0.00     0.368 A 
ATOM      4  C   UNL     1      14.814  20.561  28.397  1.00  0.00     0.162 A 
ATOM      5  C   UNL     1      14.032  21.585  27.863  1.00  0.00     0.128 A 
ATOM      6  C   UNL     1      12.686  21.695  28.228  1.00  0.00     0.093 A 
ATOM      7  C   UNL     1      12.106  20.789  29.125  1.00  0.00     0.136 A 
ATOM      8  C   UNL     1      12.900  19.747  29.672  1.00  0.00     0.125 A 
ATOM      9  C   UNL     1      12.409  18.802  30.588  1.00  0.00     0.078 A 
ATOM     10  C   UNL     1      13.252  17.806  31.088  1.00  0.00     0.223 A 
ENDROOT
BRANCH   1  11
ATOM     11  C   UNL     1      15.537  16.722  31.110  1.00  0.00     0.091 A 
ATOM     12  C   UNL     1      16.052  16.798  32.414  1.00  0.00     0.068 A 
ATOM     13  C   UNL     1      16.965  15.846  32.876  1.00  0.00     0.162 A 
ATOM     14  C   UNL     1      15.980  15.697  30.258  1.00  0.00     0.068 A 
ATOM     15  C   UNL     1      17.390  14.810  32.028  1.00  0.00     0.200 A 
ATOM     16  C   UNL     1      16.897  14.739  30.713  1.00  0.00     0.162 A 
BRANCH  13  17
ATOM     17  O   UNL     1      17.442  15.947  34.183  1.00  0.00    -0.504 OA
ATOM     18  H   UNL     1      18.192  16.580  34.436  1.00  0.00     0.293 HD
ENDBRANCH  13  17
BRANCH  15  19
ATOM     19  O   UNL     1      18.300  13.862  32.498  1.00  0.00    -0.502 OA
ATOM     20  H   UNL     1      19.249  14.105  32.754  1.00  0.00     0.293 HD
ENDBRANCH  15  19
BRANCH  16  21
ATOM     21  O   UNL     1      17.325  13.722  29.861  1.00  0.00    -0.504 OA
ATOM     22  H   UNL     1      17.048  13.694  28.887  1.00  0.00     0.293 HD
ENDBRANCH  16  21
ENDBRANCH   1  11
BRANCH  10  23
ATOM     23  O   UNL     1      12.780  16.898  32.034  1.00  0.00    -0.500 OA
ATOM     24  H   UNL     1      13.382  16.191  32.441  1.00  0.00     0.294 HD
ENDBRANCH  10  23
BRANCH   5  25
ATOM     25  O   UNL     1      14.602  22.490  26.970  1.00  0.00    -0.507 OA
ATOM     26  H   UNL     1      15.288  23.171  27.272  1.00  0.00     0.293 HD
ENDBRANCH   5  25
BRANCH   7  27
ATOM     27  O   UNL     1      10.755  20.965  29.436  1.00  0.00    -0.507 OA
ATOM     28  H   UNL     1      10.117  21.539  28.903  1.00  0.00     0.293 HD
ENDBRANCH   7  27
TORSDOF 7
ENDMDL
MODEL 2
REMARK VINA RESULT:    -7.199      2.403      3.044
REMARK INTER + INTRA:          -9.176
REMARK INTER:                  -8.859
REMARK INTRA:                  -0.317
REMARK UNBOUND:                -0.293
REMARK SMILES Oc1cc(O)c2cc(O)c(-c3cc(O)c(O)c(O)c3)[o+]c2c1.[Cl-]
REMARK SMILES IDX 10 1 20 2 21 3 22 4 2 5 3 6 4 7 6 8 7 9 8 10 11 11 12 12
REMARK SMILES IDX 13 13 19 14 15 15 17 16 14 17 16 19 18 21 9 23 1 25 5 27
REMARK H PARENT 14 18 16 20 18 22 9 24 1 26 5 28
REMARK Flexibility Score: inf
ROOT
ATOM      1  C   UNL     1      14.316  17.462  32.390  1.00  0.00     0.402 A 
ATOM      2  O   UNL     1      13.563  17.797  31.347  1.00  0.00    -0.202 OA
ATOM      3  C   UNL     1      13.158  19.041  31.110  1.00  0.00     0.368 A 
ATOM      4  C   UNL     1      12.365  19.294  29.987  1.00  0.00     0.162 A 
ATOM      5  C   UNL     1      11.922  20.589  29.714  1.00  0.00     0.128 A 
ATOM      6  C   UNL     1      12.272  21.639  30.570  1.00  0.00     0.093 A 
ATOM      7  C   UNL     1      13.065  21.411  31.702  1.00  0.00     0.136 A 
ATOM      8  C   UNL     1      13.520  20.096  31.980  1.00  0.00     0.125 A 
ATOM      9  C   UNL     1      14.329  19.776  33.083  1.00  0.00     0.078 A 
ATOM     10  C   UNL     1      14.742  18.457  33.290  1.00  0.00     0.223 A 
ENDROOT
BRANCH   1  11
ATOM     11  C   UNL     1      14.696  16.039  32.552  1.00  0.00     0.091 A 
ATOM     12  C   UNL     1      13.759  15.129  33.065  1.00  0.00     0.068 A 
ATOM     13  C   UNL     1      14.096  13.784  33.247  1.00  0.00     0.162 A 
ATOM     14  C   UNL     1      15.995  15.591  32.258  1.00  0.00     0.068 A 
ATOM     15  C   UNL     1      15.389  13.335  32.932  1.00  0.00     0.200 A 
ATOM     16  C   UNL     1      16.342  14.244  32.439  1.00  0.00     0.162 A 
BRANCH  13  17
ATOM     17  O   UNL     1      13.131  12.909  33.745  1.00  0.00    -0.504 OA
ATOM     18  H   UNL     1      12.198  13.219  33.990  1.00  0.00     0.293 HD
ENDBRANCH  13  17
BRANCH  15  19
ATOM     19  O   UNL     1      15.717  11.991  33.114  1.00  0.00    -0.502 OA
ATOM     20  H   UNL     1      16.125  11.647  33.975  1.00  0.00     0.293 HD
ENDBRANCH  15  19
BRANCH  16  21
ATOM     21  O   UNL     1      17.631  13.809  32.138  1.00  0.00    -0.504 OA
ATOM     22  H   UNL     1      18.208  14.287  31.456  1.00  0.00     0.293 HD
ENDBRANCH  16  21
ENDBRANCH   1  11
BRANCH  10  23
ATOM     23  O   UNL     1      15.586  18.147  34.356  1.00  0.00    -0.500 OA
ATOM     24  H   UNL     1      16.300  18.792  34.676  1.00  0.00     0.294 HD
ENDBRANCH  10  23
BRANCH   5  25
ATOM     25  O   UNL     1      11.132  20.822  28.590  1.00  0.00    -0.507 OA
ATOM     26  H   UNL     1      10.712  20.060  28.071  1.00  0.00     0.293 HD
ENDBRANCH   5  25
BRANCH   7  27
ATOM     27  O   UNL     1      13.368  22.512  32.507  1.00  0.00    -0.507 OA
ATOM     28  H   UNL     1      14.284  22.931  32.580  1.00  0.00     0.293 HD
ENDBRANCH   7  27
TORSDOF 7
ENDMDL
MODEL 3
REMARK VINA RESULT:    -7.162      6.909     10.433
REMARK INTER + INTRA:          -9.130
REMARK INTER:                  -8.748
REMARK INTRA:                  -0.382
REMARK UNBOUND:                -0.293
REMARK SMILES Oc1cc(O)c2cc(O)c(-c3cc(O)c(O)c(O)c3)[o+]c2c1.[Cl-]
REMARK SMILES IDX 10 1 20 2 21 3 22 4 2 5 3 6 4 7 6 8 7 9 8 10 11 11 12 12
REMARK SMILES IDX 13 13 19 14 15 15 17 16 14 17 16 19 18 21 9 23 1 25 5 27
REMARK H PARENT 14 18 16 20 18 22 9 24 1 26 5 28
REMARK Flexibility Score: inf
ROOT
ATOM      1  C   UNL     1      18.211  25.826  30.367  1.00  0.00     0.402 A 
ATOM      2  O   UNL     1      17.798  24.944  29.461  1.00  0.00    -0.202 OA
ATOM      3  C   UNL     1      17.256  23.772  29.778  1.00  0.00     0.368 A 
ATOM      4  C   UNL     1      16.854  22.910  28.754  1.00  0.00     0.162 A 
ATOM      5  C   UNL     1      16.285  21.673  29.057  1.00  0.00     0.128 A 
ATOM      6  C   UNL     1      16.118  21.292  30.393  1.00  0.00     0.093 A 
ATOM      7  C   UNL     1      16.512  22.137  31.437  1.00  0.00     0.136 A 
ATOM      8  C   UNL     1      17.088  23.398  31.133  1.00  0.00     0.125 A 
ATOM      9  C   UNL     1      17.501  24.315  32.114  1.00  0.00     0.078 A 
ATOM     10  C   UNL     1      18.056  25.541  31.737  1.00  0.00     0.223 A 
ENDROOT
BRANCH   1  11
ATOM     11  C   UNL     1      18.807  27.095  29.888  1.00  0.00     0.091 A 
ATOM     12  C   UNL     1      17.966  28.146  29.491  1.00  0.00     0.068 A 
ATOM     13  C   UNL     1      18.501  29.347  29.016  1.00  0.00     0.162 A 
ATOM     14  C   UNL     1      20.198  27.250  29.769  1.00  0.00     0.068 A 
ATOM     15  C   UNL     1      19.893  29.506  28.918  1.00  0.00     0.200 A 
ATOM     16  C   UNL     1      20.743  28.451  29.293  1.00  0.00     0.162 A 
BRANCH  13  17
ATOM     17  O   UNL     1      17.630  30.372  28.645  1.00  0.00    -0.504 OA
ATOM     18  H   UNL     1      17.902  31.101  27.996  1.00  0.00     0.293 HD
ENDBRANCH  13  17
BRANCH  15  19
ATOM     19  O   UNL     1      20.418  30.710  28.446  1.00  0.00    -0.502 OA
ATOM     20  H   UNL     1      20.187  31.602  28.866  1.00  0.00     0.293 HD
ENDBRANCH  15  19
BRANCH  16  21
ATOM     21  O   UNL     1      22.125  28.596  29.184  1.00  0.00    -0.504 OA
ATOM     22  H   UNL     1      22.716  27.836  28.871  1.00  0.00     0.293 HD
ENDBRANCH  16  21
ENDBRANCH   1  11
BRANCH  10  23
ATOM     23  O   UNL     1      18.420  26.473  32.708  1.00  0.00    -0.500 OA
ATOM     24  H   UNL     1      19.390  26.720  32.873  1.00  0.00     0.294 HD
ENDBRANCH  10  23
BRANCH   5  25
ATOM     25  O   UNL     1      15.891  20.827  28.022  1.00  0.00    -0.507 OA
ATOM     26  H   UNL     1      15.116  20.183  28.131  1.00  0.00     0.293 HD
ENDBRANCH   5  25
BRANCH   7  27
ATOM     27  O   UNL     1      16.314  21.682  32.744  1.00  0.00    -0.507 OA
ATOM     28  H   UNL     1      16.894  21.935  33.531  1.00  0.00     0.293 HD
ENDBRANCH   7  27
TORSDOF 7
ENDMDL
MODEL 4
REMARK VINA RESULT:    -7.151      1.868      6.702
REMARK INTER + INTRA:          -9.116
REMARK INTER:                  -8.784
REMARK INTRA:                  -0.333
REMARK UNBOUND:                -0.293
REMARK SMILES Oc1cc(O)c2cc(O)c(-c3cc(O)c(O)c(O)c3)[o+]c2c1.[Cl-]
REMARK SMILES IDX 10 1 20 2 21 3 22 4 2 5 3 6 4 7 6 8 7 9 8 10 11 11 12 12
REMARK SMILES IDX 13 13 19 14 15 15 17 16 14 17 16 19 18 21 9 23 1 25 5 27
REMARK H PARENT 14 18 16 20 18 22 9 24 1 26 5 28
REMARK Flexibility Score: inf
ROOT
ATOM      1  C   UNL     1      14.532  17.727  30.357  1.00  0.00     0.402 A 
ATOM      2  O   UNL     1      15.529  16.847  30.332  1.00  0.00    -0.202 OA
ATOM      3  C   UNL     1      15.530  15.725  31.045  1.00  0.00     0.368 A 
ATOM      4  C   UNL     1      16.627  14.863  30.954  1.00  0.00     0.162 A 
ATOM      5  C   UNL     1      16.658  13.681  31.694  1.00  0.00     0.128 A 
ATOM      6  C   UNL     1      15.586  13.357  32.532  1.00  0.00     0.093 A 
ATOM      7  C   UNL     1      14.475  14.203  32.642  1.00  0.00     0.136 A 
ATOM      8  C   UNL     1      14.440  15.405  31.888  1.00  0.00     0.125 A 
ATOM      9  C   UNL     1      13.363  16.307  31.924  1.00  0.00     0.078 A 
ATOM     10  C   UNL     1      13.397  17.470  31.150  1.00  0.00     0.223 A 
ENDROOT
BRANCH   1  11
ATOM     11  C   UNL     1      14.651  18.945  29.523  1.00  0.00     0.091 A 
ATOM     12  C   UNL     1      14.947  20.173  30.135  1.00  0.00     0.068 A 
ATOM     13  C   UNL     1      15.045  21.343  29.376  1.00  0.00     0.162 A 
ATOM     14  C   UNL     1      14.417  18.910  28.138  1.00  0.00     0.068 A 
ATOM     15  C   UNL     1      14.832  21.300  27.988  1.00  0.00     0.200 A 
ATOM     16  C   UNL     1      14.513  20.079  27.370  1.00  0.00     0.162 A 
BRANCH  13  17
ATOM     17  O   UNL     1      15.356  22.541  30.021  1.00  0.00    -0.504 OA
ATOM     18  H   UNL     1      15.465  23.412  29.515  1.00  0.00     0.293 HD
ENDBRANCH  13  17
BRANCH  15  19
ATOM     19  O   UNL     1      14.935  22.473  27.238  1.00  0.00    -0.502 OA
ATOM     20  H   UNL     1      14.868  23.391  27.659  1.00  0.00     0.293 HD
ENDBRANCH  15  19
BRANCH  16  21
ATOM     21  O   UNL     1      14.285  20.031  25.995  1.00  0.00    -0.504 OA
ATOM     22  H   UNL     1      13.383  20.263  25.598  1.00  0.00     0.293 HD
ENDBRANCH  16  21
ENDBRANCH   1  11
BRANCH  10  23
ATOM     23  O   UNL     1      12.308  18.341  31.146  1.00  0.00    -0.500 OA
ATOM     24  H   UNL     1      11.378  18.033  31.405  1.00  0.00     0.294 HD
ENDBRANCH  10  23
BRANCH   5  25
ATOM     25  O   UNL     1      17.760  12.835  31.590  1.00  0.00    -0.507 OA
ATOM     26  H   UNL     1      18.635  13.046  32.054  1.00  0.00     0.293 HD
ENDBRANCH   5  25
BRANCH   7  27
ATOM     27  O   UNL     1      13.448  13.809  33.503  1.00  0.00    -0.507 OA
ATOM     28  H   UNL     1      13.230  14.264  34.378  1.00  0.00     0.293 HD
ENDBRANCH   7  27
TORSDOF 7
ENDMDL
MODEL 5
REMARK VINA RESULT:    -7.080      2.581      3.419
REMARK INTER + INTRA:          -9.028
REMARK INTER:                  -8.644
REMARK INTRA:                  -0.384
REMARK UNBOUND:                -0.293
REMARK SMILES Oc1cc(O)c2cc(O)c(-c3cc(O)c(O)c(O)c3)[o+]c2c1.[Cl-]
REMARK SMILES IDX 10 1 20 2 21 3 22 4 2 5 3 6 4 7 6 8 7 9 8 10 11 11 12 12
REMARK SMILES IDX 13 13 19 14 15 15 17 16 14 17 16 19 18 21 9 23 1 25 5 27
REMARK H PARENT 14 18 16 20 18 22 9 24 1 26 5 28
REMARK Flexibility Score: inf
ROOT
ATOM      1  C   UNL     1      14.956  18.596  30.780  1.00  0.00     0.402 A 
ATOM      2  O   UNL     1      16.177  19.122  30.819  1.00  0.00    -0.202 OA
ATOM      3  C   UNL     1      16.551  20.152  30.066  1.00  0.00     0.368 A 
ATOM      4  C   UNL     1      17.859  20.634  30.176  1.00  0.00     0.162 A 
ATOM      5  C   UNL     1      18.282  21.710  29.395  1.00  0.00     0.128 A 
ATOM      6  C   UNL     1      17.393  22.310  28.497  1.00  0.00     0.093 A 
ATOM      7  C   UNL     1      16.077  21.846  28.367  1.00  0.00     0.136 A 
ATOM      8  C   UNL     1      15.643  20.753  29.163  1.00  0.00     0.125 A 
ATOM      9  C   UNL     1      14.341  20.230  29.110  1.00  0.00     0.078 A 
ATOM     10  C   UNL     1      13.985  19.153  29.927  1.00  0.00     0.223 A 
ENDROOT
BRANCH   1  11
ATOM     11  C   UNL     1      14.661  17.444  31.663  1.00  0.00     0.091 A 
ATOM     12  C   UNL     1      14.215  17.674  32.973  1.00  0.00     0.068 A 
ATOM     13  C   UNL     1      13.949  16.606  33.835  1.00  0.00     0.162 A 
ATOM     14  C   UNL     1      14.874  16.122  31.236  1.00  0.00     0.068 A 
ATOM     15  C   UNL     1      14.142  15.285  33.397  1.00  0.00     0.200 A 
ATOM     16  C   UNL     1      14.611  15.045  32.094  1.00  0.00     0.162 A 
BRANCH  13  17
ATOM     17  O   UNL     1      13.492  16.878  35.125  1.00  0.00    -0.504 OA
ATOM     18  H   UNL     1      12.607  17.340  35.297  1.00  0.00     0.293 HD
ENDBRANCH  13  17
BRANCH  15  19
ATOM     19  O   UNL     1      13.871  14.224  34.263  1.00  0.00    -0.502 OA
ATOM     20  H   UNL     1      13.140  13.549  34.076  1.00  0.00     0.293 HD
ENDBRANCH  15  19
BRANCH  16  21
ATOM     21  O   UNL     1      14.819  13.738  31.657  1.00  0.00    -0.504 OA
ATOM     22  H   UNL     1      14.181  12.989  31.898  1.00  0.00     0.293 HD
ENDBRANCH  16  21
ENDBRANCH   1  11
BRANCH  10  23
ATOM     23  O   UNL     1      12.679  18.665  29.912  1.00  0.00    -0.500 OA
ATOM     24  H   UNL     1      12.128  18.591  30.760  1.00  0.00     0.294 HD
ENDBRANCH  10  23
BRANCH   5  25
ATOM     25  O   UNL     1      19.589  22.176  29.519  1.00  0.00    -0.507 OA
ATOM     26  H   UNL     1      19.851  23.105  29.211  1.00  0.00     0.293 HD
ENDBRANCH   5  25
BRANCH   7  27
ATOM     27  O   UNL     1      15.253  22.497  27.446  1.00  0.00    -0.507 OA
ATOM     28  H   UNL     1      14.348  22.159  27.151  1.00  0.00     0.293 HD
ENDBRANCH   7  27
TORSDOF 7
ENDMDL
MODEL 6
REMARK VINA RESULT:    -7.011      1.991      3.320
REMARK INTER + INTRA:          -8.943
REMARK INTER:                  -8.560
REMARK INTRA:                  -0.383
REMARK UNBOUND:                -0.293
REMARK SMILES Oc1cc(O)c2cc(O)c(-c3cc(O)c(O)c(O)c3)[o+]c2c1.[Cl-]
REMARK SMILES IDX 10 1 20 2 21 3 22 4 2 5 3 6 4 7 6 8 7 9 8 10 11 11 12 12
REMARK SMILES IDX 13 13 19 14 15 15 17 16 14 17 16 19 18 21 9 23 1 25 5 27
REMARK H PARENT 14 18 16 20 18 22 9 24 1 26 5 28
REMARK Flexibility Score: inf
ROOT
ATOM      1  C   UNL     1      15.346  17.053  31.251  1.00  0.00     0.402 A 
ATOM      2  O   UNL     1      14.190  17.434  30.718  1.00  0.00    -0.202 OA
ATOM      3  C   UNL     1      13.960  18.669  30.280  1.00  0.00     0.368 A 
ATOM      4  C   UNL     1      12.709  18.975  29.737  1.00  0.00     0.162 A 
ATOM      5  C   UNL     1      12.438  20.263  29.273  1.00  0.00     0.128 A 
ATOM      6  C   UNL     1      13.424  21.253  29.353  1.00  0.00     0.093 A 
ATOM      7  C   UNL     1      14.685  20.972  29.893  1.00  0.00     0.136 A 
ATOM      8  C   UNL     1      14.965  19.662  30.363  1.00  0.00     0.125 A 
ATOM      9  C   UNL     1      16.204  19.285  30.907  1.00  0.00     0.078 A 
ATOM     10  C   UNL     1      16.407  17.974  31.346  1.00  0.00     0.223 A 
ENDROOT
BRANCH   1  11
ATOM     11  C   UNL     1      15.478  15.651  31.711  1.00  0.00     0.091 A 
ATOM     12  C   UNL     1      15.903  14.665  30.807  1.00  0.00     0.068 A 
ATOM     13  C   UNL     1      16.017  13.331  31.208  1.00  0.00     0.162 A 
ATOM     14  C   UNL     1      15.129  15.274  33.019  1.00  0.00     0.068 A 
ATOM     15  C   UNL     1      15.688  12.962  32.523  1.00  0.00     0.200 A 
ATOM     16  C   UNL     1      15.239  13.938  33.429  1.00  0.00     0.162 A 
BRANCH  13  17
ATOM     17  O   UNL     1      16.458  12.384  30.283  1.00  0.00    -0.504 OA
ATOM     18  H   UNL     1      15.814  11.837  29.722  1.00  0.00     0.293 HD
ENDBRANCH  13  17
BRANCH  15  19
ATOM     19  O   UNL     1      15.807  11.627  32.915  1.00  0.00    -0.502 OA
ATOM     20  H   UNL     1      16.193  11.361  33.813  1.00  0.00     0.293 HD
ENDBRANCH  15  19
BRANCH  16  21
ATOM     21  O   UNL     1      14.896  13.577  34.731  1.00  0.00    -0.504 OA
ATOM     22  H   UNL     1      14.705  14.272  35.442  1.00  0.00     0.293 HD
ENDBRANCH  16  21
ENDBRANCH   1  11
BRANCH  10  23
ATOM     23  O   UNL     1      17.652  17.586  31.840  1.00  0.00    -0.500 OA
ATOM     24  H   UNL     1      18.206  18.198  32.428  1.00  0.00     0.294 HD
ENDBRANCH  10  23
BRANCH   5  25
ATOM     25  O   UNL     1      11.185  20.549  28.735  1.00  0.00    -0.507 OA
ATOM     26  H   UNL     1      10.351  20.552  29.309  1.00  0.00     0.293 HD
ENDBRANCH   5  25
BRANCH   7  27
ATOM     27  O   UNL     1      15.613  22.015  29.939  1.00  0.00    -0.507 OA
ATOM     28  H   UNL     1      15.378  22.980  30.129  1.00  0.00     0.293 HD
ENDBRANCH   7  27
TORSDOF 7
ENDMDL
MODEL 7
REMARK VINA RESULT:    -7.002      2.006      2.822
REMARK INTER + INTRA:          -8.932
REMARK INTER:                  -8.553
REMARK INTRA:                  -0.378
REMARK UNBOUND:                -0.293
REMARK SMILES Oc1cc(O)c2cc(O)c(-c3cc(O)c(O)c(O)c3)[o+]c2c1.[Cl-]
REMARK SMILES IDX 10 1 20 2 21 3 22 4 2 5 3 6 4 7 6 8 7 9 8 10 11 11 12 12
REMARK SMILES IDX 13 13 19 14 15 15 17 16 14 17 16 19 18 21 9 23 1 25 5 27
REMARK H PARENT 14 18 16 20 18 22 9 24 1 26 5 28
REMARK Flexibility Score: inf
ROOT
ATOM      1  C   UNL     1      15.299  17.058  31.200  1.00  0.00     0.402 A 
ATOM      2  O   UNL     1      14.163  17.463  30.641  1.00  0.00    -0.202 OA
ATOM      3  C   UNL     1      13.951  18.715  30.245  1.00  0.00     0.368 A 
ATOM      4  C   UNL     1      12.722  19.046  29.668  1.00  0.00     0.162 A 
ATOM      5  C   UNL     1      12.470  20.352  29.247  1.00  0.00     0.128 A 
ATOM      6  C   UNL     1      13.453  21.336  29.403  1.00  0.00     0.093 A 
ATOM      7  C   UNL     1      14.693  21.030  29.978  1.00  0.00     0.136 A 
ATOM      8  C   UNL     1      14.953  19.701  30.405  1.00  0.00     0.125 A 
ATOM      9  C   UNL     1      16.171  19.300  30.979  1.00  0.00     0.078 A 
ATOM     10  C   UNL     1      16.356  17.971  31.372  1.00  0.00     0.223 A 
ENDROOT
BRANCH   1  11
ATOM     11  C   UNL     1      15.412  15.638  31.608  1.00  0.00     0.091 A 
ATOM     12  C   UNL     1      15.037  15.261  32.907  1.00  0.00     0.068 A 
ATOM     13  C   UNL     1      15.151  13.932  33.326  1.00  0.00     0.162 A 
ATOM     14  C   UNL     1      15.940  14.667  30.741  1.00  0.00     0.068 A 
ATOM     15  C   UNL     1      15.660  12.961  32.448  1.00  0.00     0.200 A 
ATOM     16  C   UNL     1      16.060  13.332  31.153  1.00  0.00     0.162 A 
BRANCH  13  17
ATOM     17  O   UNL     1      14.754  13.597  34.621  1.00  0.00    -0.504 OA
ATOM     18  H   UNL     1      13.844  13.852  34.988  1.00  0.00     0.293 HD
ENDBRANCH  13  17
BRANCH  15  19
ATOM     19  O   UNL     1      15.769  11.636  32.874  1.00  0.00    -0.502 OA
ATOM     20  H   UNL     1      16.009  11.393  33.827  1.00  0.00     0.293 HD
ENDBRANCH  15  19
BRANCH  16  21
ATOM     21  O   UNL     1      16.580  12.377  30.282  1.00  0.00    -0.504 OA
ATOM     22  H   UNL     1      17.541  12.413  29.966  1.00  0.00     0.293 HD
ENDBRANCH  16  21
ENDBRANCH   1  11
BRANCH  10  23
ATOM     23  O   UNL     1      17.581  17.560  31.896  1.00  0.00    -0.500 OA
ATOM     24  H   UNL     1      18.279  18.228  32.205  1.00  0.00     0.294 HD
ENDBRANCH  10  23
BRANCH   5  25
ATOM     25  O   UNL     1      11.238  20.663  28.674  1.00  0.00    -0.507 OA
ATOM     26  H   UNL     1      11.088  21.538  28.186  1.00  0.00     0.293 HD
ENDBRANCH   5  25
BRANCH   7  27
ATOM     27  O   UNL     1      15.619  22.068  30.101  1.00  0.00    -0.507 OA
ATOM     28  H   UNL     1      15.394  23.049  30.006  1.00  0.00     0.293 HD
ENDBRANCH   7  27
TORSDOF 7
ENDMDL
MODEL 8
REMARK VINA RESULT:    -6.957      1.794      7.116
REMARK INTER + INTRA:          -8.877
REMARK INTER:                  -8.503
REMARK INTRA:                  -0.374
REMARK UNBOUND:                -0.293
REMARK SMILES Oc1cc(O)c2cc(O)c(-c3cc(O)c(O)c(O)c3)[o+]c2c1.[Cl-]
REMARK SMILES IDX 10 1 20 2 21 3 22 4 2 5 3 6 4 7 6 8 7 9 8 10 11 11 12 12
REMARK SMILES IDX 13 13 19 14 15 15 17 16 14 17 16 19 18 21 9 23 1 25 5 27
REMARK H PARENT 14 18 16 20 18 22 9 24 1 26 5 28
REMARK Flexibility Score: inf
ROOT
ATOM      1  C   UNL     1      14.504  17.969  31.462  1.00  0.00     0.402 A 
ATOM      2  O   UNL     1      14.580  16.806  30.822  1.00  0.00    -0.202 OA
ATOM      3  C   UNL     1      14.962  15.675  31.407  1.00  0.00     0.368 A 
ATOM      4  C   UNL     1      15.013  14.501  30.649  1.00  0.00     0.162 A 
ATOM      5  C   UNL     1      15.414  13.300  31.235  1.00  0.00     0.128 A 
ATOM      6  C   UNL     1      15.767  13.270  32.589  1.00  0.00     0.093 A 
ATOM      7  C   UNL     1      15.725  14.432  33.370  1.00  0.00     0.136 A 
ATOM      8  C   UNL     1      15.315  15.655  32.777  1.00  0.00     0.125 A 
ATOM      9  C   UNL     1      15.230  16.866  33.485  1.00  0.00     0.078 A 
ATOM     10  C   UNL     1      14.813  18.030  32.834  1.00  0.00     0.223 A 
ENDROOT
BRANCH   1  11
ATOM     11  C   UNL     1      14.074  19.163  30.698  1.00  0.00     0.091 A 
ATOM     12  C   UNL     1      12.710  19.351  30.422  1.00  0.00     0.068 A 
ATOM     13  C   UNL     1      12.277  20.458  29.686  1.00  0.00     0.162 A 
ATOM     14  C   UNL     1      15.006  20.083  30.191  1.00  0.00     0.068 A 
ATOM     15  C   UNL     1      13.211  21.387  29.200  1.00  0.00     0.200 A 
ATOM     16  C   UNL     1      14.581  21.195  29.451  1.00  0.00     0.162 A 
BRANCH  13  17
ATOM     17  O   UNL     1      10.911  20.616  29.447  1.00  0.00    -0.504 OA
ATOM     18  H   UNL     1      10.481  21.530  29.369  1.00  0.00     0.293 HD
ENDBRANCH  13  17
BRANCH  15  19
ATOM     19  O   UNL     1      12.770  22.490  28.468  1.00  0.00    -0.502 OA
ATOM     20  H   UNL     1      13.394  23.039  27.889  1.00  0.00     0.293 HD
ENDBRANCH  15  19
BRANCH  16  21
ATOM     21  O   UNL     1      15.515  22.105  28.959  1.00  0.00    -0.504 OA
ATOM     22  H   UNL     1      16.397  21.800  28.564  1.00  0.00     0.293 HD
ENDBRANCH  16  21
ENDBRANCH   1  11
BRANCH  10  23
ATOM     23  O   UNL     1      14.680  19.221  33.546  1.00  0.00    -0.500 OA
ATOM     24  H   UNL     1      14.299  19.241  34.486  1.00  0.00     0.294 HD
ENDBRANCH  10  23
BRANCH   5  25
ATOM     25  O   UNL     1      15.458  12.141  30.464  1.00  0.00    -0.507 OA
ATOM     26  H   UNL     1      16.330  11.791  30.084  1.00  0.00     0.293 HD
ENDBRANCH   5  25
BRANCH   7  27
ATOM     27  O   UNL     1      16.096  14.320  34.712  1.00  0.00    -0.507 OA
ATOM     28  H   UNL     1      16.813  13.696  35.056  1.00  0.00     0.293 HD
ENDBRANCH   7  27
TORSDOF 7
ENDMDL
MODEL 9
REMARK VINA RESULT:    -6.891      2.419      3.005
REMARK INTER + INTRA:          -8.796
REMARK INTER:                  -8.412
REMARK INTRA:                  -0.383
REMARK UNBOUND:                -0.293
REMARK SMILES Oc1cc(O)c2cc(O)c(-c3cc(O)c(O)c(O)c3)[o+]c2c1.[Cl-]
REMARK SMILES IDX 10 1 20 2 21 3 22 4 2 5 3 6 4 7 6 8 7 9 8 10 11 11 12 12
REMARK SMILES IDX 13 13 19 14 15 15 17 16 14 17 16 19 18 21 9 23 1 25 5 27
REMARK H PARENT 14 18 16 20 18 22 9 24 1 26 5 28
REMARK Flexibility Score: inf
ROOT
ATOM      1  C   UNL     1      15.287  17.126  30.629  1.00  0.00     0.402 A 
ATOM      2  O   UNL     1      15.924  18.085  31.294  1.00  0.00    -0.202 OA
ATOM      3  C   UNL     1      15.887  19.366  30.939  1.00  0.00     0.368 A 
ATOM      4  C   UNL     1      16.593  20.303  31.700  1.00  0.00     0.162 A 
ATOM      5  C   UNL     1      16.576  21.653  31.350  1.00  0.00     0.128 A 
ATOM      6  C   UNL     1      15.850  22.072  30.229  1.00  0.00     0.093 A 
ATOM      7  C   UNL     1      15.135  21.154  29.449  1.00  0.00     0.136 A 
ATOM      8  C   UNL     1      15.148  19.780  29.806  1.00  0.00     0.125 A 
ATOM      9  C   UNL     1      14.451  18.791  29.091  1.00  0.00     0.078 A 
ATOM     10  C   UNL     1      14.507  17.457  29.505  1.00  0.00     0.223 A 
ENDROOT
BRANCH   1  11
ATOM     11  C   UNL     1      15.412  15.733  31.118  1.00  0.00     0.091 A 
ATOM     12  C   UNL     1      14.515  15.260  32.088  1.00  0.00     0.068 A 
ATOM     13  C   UNL     1      14.621  13.956  32.583  1.00  0.00     0.162 A 
ATOM     14  C   UNL     1      16.445  14.892  30.674  1.00  0.00     0.068 A 
ATOM     15  C   UNL     1      15.644  13.111  32.121  1.00  0.00     0.200 A 
ATOM     16  C   UNL     1      16.561  13.584  31.166  1.00  0.00     0.162 A 
BRANCH  13  17
ATOM     17  O   UNL     1      13.700  13.519  33.536  1.00  0.00    -0.504 OA
ATOM     18  H   UNL     1      13.898  12.747  34.161  1.00  0.00     0.293 HD
ENDBRANCH  13  17
BRANCH  15  19
ATOM     19  O   UNL     1      15.741  11.810  32.618  1.00  0.00    -0.502 OA
ATOM     20  H   UNL     1      15.230  11.037  32.210  1.00  0.00     0.293 HD
ENDBRANCH  15  19
BRANCH  16  21
ATOM     21  O   UNL     1      17.586  12.756  30.714  1.00  0.00    -0.504 OA
ATOM     22  H   UNL     1      18.265  12.355  31.350  1.00  0.00     0.293 HD
ENDBRANCH  16  21
ENDBRANCH   1  11
BRANCH  10  23
ATOM     23  O   UNL     1      13.776  16.482  28.826  1.00  0.00    -0.500 OA
ATOM     24  H   UNL     1      13.093  16.726  28.118  1.00  0.00     0.294 HD
ENDBRANCH  10  23
BRANCH   5  25
ATOM     25  O   UNL     1      17.285  22.571  32.121  1.00  0.00    -0.507 OA
ATOM     26  H   UNL     1      18.124  22.305  32.623  1.00  0.00     0.293 HD
ENDBRANCH   5  25
BRANCH   7  27
ATOM     27  O   UNL     1      14.438  21.652  28.346  1.00  0.00    -0.507 OA
ATOM     28  H   UNL     1      13.882  22.495  28.355  1.00  0.00     0.293 HD
ENDBRANCH   7  27
TORSDOF 7
ENDMDL
