MODEL 1
REMARK VINA RESULT:    -5.530      0.000      0.000
REMARK INTER + INTRA:          -7.364
REMARK INTER:                  -6.985
REMARK INTRA:                  -0.379
REMARK UNBOUND:                -0.379
REMARK SMILES O=C(C=Cc1ccc(O)cc1)c1ccc(O)cc1O
REMARK SMILES IDX 4 1 3 2 5 3 6 4 7 5 8 6 11 7 10 8 9 9 2 11 1 12 12 13 18 14
REMARK SMILES IDX 13 15 17 16 14 17 15 18 19 19 16 21
REMARK H PARENT 9 10 19 20 16 22
REMARK Flexibility Score: inf
ROOT
ATOM      1  C   UNL     1      63.005   1.414  27.083  1.00  0.00     0.012 C 
ATOM      2  C   UNL     1      61.741   0.975  27.185  1.00  0.00     0.053 C 
ENDROOT
BRANCH   1   3
ATOM      3  C   UNL     1      64.217   0.592  27.284  1.00  0.00    -0.025 A 
ATOM      4  C   UNL     1      64.257  -0.752  26.877  1.00  0.00     0.012 A 
ATOM      5  C   UNL     1      65.430  -1.499  27.026  1.00  0.00     0.047 A 
ATOM      6  C   UNL     1      66.579  -0.903  27.564  1.00  0.00     0.115 A 
ATOM      7  C   UNL     1      65.379   1.192  27.792  1.00  0.00     0.012 A 
ATOM      8  C   UNL     1      66.550   0.443  27.942  1.00  0.00     0.047 A 
BRANCH   6   9
ATOM      9  O   UNL     1      67.753  -1.637  27.720  1.00  0.00    -0.508 OA
ATOM     10  H   UNL     1      68.625  -1.191  27.983  1.00  0.00     0.293 HD
ENDBRANCH   6   9
ENDBRANCH   1   3
BRANCH   2  11
ATOM     11  C   UNL     1      61.324  -0.358  27.688  1.00  0.00     0.189 C 
ATOM     12  O   UNL     1      61.172  -1.326  26.896  1.00  0.00    -0.289 OA
BRANCH  11  13
ATOM     13  C   UNL     1      61.084  -0.579  29.129  1.00  0.00     0.064 A 
ATOM     14  C   UNL     1      61.767  -1.578  29.852  1.00  0.00     0.130 A 
ATOM     15  C   UNL     1      60.123   0.209  29.787  1.00  0.00     0.020 A 
ATOM     16  C   UNL     1      61.516  -1.744  31.223  1.00  0.00     0.093 A 
ATOM     17  C   UNL     1      59.875   0.033  31.149  1.00  0.00     0.047 A 
ATOM     18  C   UNL     1      60.574  -0.941  31.872  1.00  0.00     0.119 A 
BRANCH  14  19
ATOM     19  O   UNL     1      62.673  -2.424  29.210  1.00  0.00    -0.507 OA
ATOM     20  H   UNL     1      62.477  -2.820  28.299  1.00  0.00     0.293 HD
ENDBRANCH  14  19
BRANCH  18  21
ATOM     21  O   UNL     1      60.337  -1.122  33.233  1.00  0.00    -0.508 OA
ATOM     22  H   UNL     1      60.607  -1.975  33.709  1.00  0.00     0.293 HD
ENDBRANCH  18  21
ENDBRANCH  11  13
ENDBRANCH   2  11
TORSDOF 6
ENDMDL
MODEL 2
REMARK VINA RESULT:    -5.491      1.484      5.949
REMARK INTER + INTRA:          -7.315
REMARK INTER:                  -6.501
REMARK INTRA:                  -0.814
REMARK UNBOUND:                -0.379
REMARK SMILES O=C(C=Cc1ccc(O)cc1)c1ccc(O)cc1O
REMARK SMILES IDX 4 1 3 2 5 3 6 4 7 5 8 6 11 7 10 8 9 9 2 11 1 12 12 13 18 14
REMARK SMILES IDX 13 15 17 16 14 17 15 18 19 19 16 21
REMARK H PARENT 9 10 19 20 16 22
REMARK Flexibility Score: inf
ROOT
ATOM      1  C   UNL     1      61.069  -0.275  27.547  1.00  0.00     0.012 C 
ATOM      2  C   UNL     1      62.092   0.391  26.987  1.00  0.00     0.053 C 
ENDROOT
BRANCH   1   3
ATOM      3  C   UNL     1      60.911  -0.545  28.992  1.00  0.00    -0.025 A 
ATOM      4  C   UNL     1      61.711  -1.500  29.642  1.00  0.00     0.012 A 
ATOM      5  C   UNL     1      61.585  -1.704  31.020  1.00  0.00     0.047 A 
ATOM      6  C   UNL     1      60.674  -0.940  31.763  1.00  0.00     0.115 A 
ATOM      7  C   UNL     1      60.024   0.238  29.745  1.00  0.00     0.012 A 
ATOM      8  C   UNL     1      59.899   0.031  31.123  1.00  0.00     0.047 A 
BRANCH   6   9
ATOM      9  O   UNL     1      60.537  -1.135  33.136  1.00  0.00    -0.508 OA
ATOM     10  H   UNL     1      60.766  -2.022  33.570  1.00  0.00     0.293 HD
ENDBRANCH   6   9
ENDBRANCH   1   3
BRANCH   2  11
ATOM     11  C   UNL     1      63.331   0.820  27.682  1.00  0.00     0.189 C 
ATOM     12  O   UNL     1      63.339   1.853  28.405  1.00  0.00    -0.289 OA
BRANCH  11  13
ATOM     13  C   UNL     1      64.580   0.043  27.545  1.00  0.00     0.064 A 
ATOM     14  C   UNL     1      65.833   0.580  27.906  1.00  0.00     0.130 A 
ATOM     15  C   UNL     1      64.518  -1.256  27.012  1.00  0.00     0.020 A 
ATOM     16  C   UNL     1      66.992  -0.199  27.771  1.00  0.00     0.093 A 
ATOM     17  C   UNL     1      65.677  -2.022  26.875  1.00  0.00     0.047 A 
ATOM     18  C   UNL     1      66.917  -1.498  27.259  1.00  0.00     0.119 A 
BRANCH  14  19
ATOM     19  O   UNL     1      65.935   1.893  28.370  1.00  0.00    -0.507 OA
ATOM     20  H   UNL     1      65.875   2.685  27.742  1.00  0.00     0.293 HD
ENDBRANCH  14  19
BRANCH  18  21
ATOM     21  O   UNL     1      68.079  -2.256  27.131  1.00  0.00    -0.508 OA
ATOM     22  H   UNL     1      68.118  -3.221  27.436  1.00  0.00     0.293 HD
ENDBRANCH  18  21
ENDBRANCH  11  13
ENDBRANCH   2  11
TORSDOF 6
ENDMDL
MODEL 3
REMARK VINA RESULT:    -5.360      1.427      2.113
REMARK INTER + INTRA:          -7.150
REMARK INTER:                  -7.115
REMARK INTRA:                  -0.034
REMARK UNBOUND:                -0.379
REMARK SMILES O=C(C=Cc1ccc(O)cc1)c1ccc(O)cc1O
REMARK SMILES IDX 4 1 3 2 5 3 6 4 7 5 8 6 11 7 10 8 9 9 2 11 1 12 12 13 18 14
REMARK SMILES IDX 13 15 17 16 14 17 15 18 19 19 16 21
REMARK H PARENT 9 10 19 20 16 22
REMARK Flexibility Score: inf
ROOT
ATOM      1  C   UNL     1      64.089   1.686  28.381  1.00  0.00     0.012 C 
ATOM      2  C   UNL     1      62.767   1.448  28.380  1.00  0.00     0.053 C 
ENDROOT
BRANCH   1   3
ATOM      3  C   UNL     1      65.133   0.722  27.974  1.00  0.00    -0.025 A 
ATOM      4  C   UNL     1      66.237   1.130  27.207  1.00  0.00     0.012 A 
ATOM      5  C   UNL     1      67.242   0.216  26.877  1.00  0.00     0.047 A 
ATOM      6  C   UNL     1      67.164  -1.109  27.330  1.00  0.00     0.115 A 
ATOM      7  C   UNL     1      65.075  -0.596  28.450  1.00  0.00     0.012 A 
ATOM      8  C   UNL     1      66.081  -1.509  28.118  1.00  0.00     0.047 A 
BRANCH   6   9
ATOM      9  O   UNL     1      68.157  -2.030  27.006  1.00  0.00    -0.508 OA
ATOM     10  H   UNL     1      68.790  -1.875  26.230  1.00  0.00     0.293 HD
ENDBRANCH   6   9
ENDBRANCH   1   3
BRANCH   2  11
ATOM     11  C   UNL     1      62.123   0.133  28.143  1.00  0.00     0.189 C 
ATOM     12  O   UNL     1      62.017  -0.332  26.976  1.00  0.00    -0.289 OA
BRANCH  11  13
ATOM     13  C   UNL     1      61.597  -0.664  29.271  1.00  0.00     0.064 A 
ATOM     14  C   UNL     1      60.490  -0.235  30.032  1.00  0.00     0.130 A 
ATOM     15  C   UNL     1      62.240  -1.866  29.613  1.00  0.00     0.020 A 
ATOM     16  C   UNL     1      60.017  -1.030  31.087  1.00  0.00     0.093 A 
ATOM     17  C   UNL     1      61.766  -2.648  30.668  1.00  0.00     0.047 A 
ATOM     18  C   UNL     1      60.651  -2.235  31.404  1.00  0.00     0.119 A 
BRANCH  14  19
ATOM     19  O   UNL     1      59.876   0.989  29.763  1.00  0.00    -0.507 OA
ATOM     20  H   UNL     1      59.203   1.094  29.013  1.00  0.00     0.293 HD
ENDBRANCH  14  19
BRANCH  18  21
ATOM     21  O   UNL     1      60.167  -3.011  32.456  1.00  0.00    -0.508 OA
ATOM     22  H   UNL     1      60.377  -3.999  32.526  1.00  0.00     0.293 HD
ENDBRANCH  18  21
ENDBRANCH  11  13
ENDBRANCH   2  11
TORSDOF 6
ENDMDL
MODEL 4
REMARK VINA RESULT:    -5.294      1.469      5.642
REMARK INTER + INTRA:          -7.066
REMARK INTER:                  -6.585
REMARK INTRA:                  -0.481
REMARK UNBOUND:                -0.379
REMARK SMILES O=C(C=Cc1ccc(O)cc1)c1ccc(O)cc1O
REMARK SMILES IDX 4 1 3 2 5 3 6 4 7 5 8 6 11 7 10 8 9 9 2 11 1 12 12 13 18 14
REMARK SMILES IDX 13 15 17 16 14 17 15 18 19 19 16 21
REMARK H PARENT 9 10 19 20 16 22
REMARK Flexibility Score: inf
ROOT
ATOM      1  C   UNL     1      61.482   0.746  29.721  1.00  0.00     0.012 C 
ATOM      2  C   UNL     1      62.050   1.034  28.539  1.00  0.00     0.053 C 
ENDROOT
BRANCH   1   3
ATOM      3  C   UNL     1      61.440  -0.592  30.348  1.00  0.00    -0.025 A 
ATOM      4  C   UNL     1      60.278  -1.058  30.986  1.00  0.00     0.012 A 
ATOM      5  C   UNL     1      60.240  -2.347  31.527  1.00  0.00     0.047 A 
ATOM      6  C   UNL     1      61.355  -3.189  31.415  1.00  0.00     0.115 A 
ATOM      7  C   UNL     1      62.542  -1.450  30.212  1.00  0.00     0.012 A 
ATOM      8  C   UNL     1      62.502  -2.738  30.755  1.00  0.00     0.047 A 
BRANCH   6   9
ATOM      9  O   UNL     1      61.331  -4.475  31.952  1.00  0.00    -0.508 OA
ATOM     10  H   UNL     1      61.002  -5.267  31.413  1.00  0.00     0.293 HD
ENDBRANCH   6   9
ENDBRANCH   1   3
BRANCH   2  11
ATOM     11  C   UNL     1      62.580   0.044  27.568  1.00  0.00     0.189 C 
ATOM     12  O   UNL     1      61.798  -0.660  26.875  1.00  0.00    -0.289 OA
BRANCH  11  13
ATOM     13  C   UNL     1      64.036  -0.133  27.390  1.00  0.00     0.064 A 
ATOM     14  C   UNL     1      64.597  -1.381  27.047  1.00  0.00     0.130 A 
ATOM     15  C   UNL     1      64.886   0.967  27.600  1.00  0.00     0.020 A 
ATOM     16  C   UNL     1      65.984  -1.499  26.875  1.00  0.00     0.093 A 
ATOM     17  C   UNL     1      66.266   0.838  27.433  1.00  0.00     0.047 A 
ATOM     18  C   UNL     1      66.819  -0.394  27.065  1.00  0.00     0.119 A 
BRANCH  14  19
ATOM     19  O   UNL     1      63.785  -2.507  26.903  1.00  0.00    -0.507 OA
ATOM     20  H   UNL     1      62.826  -2.516  27.228  1.00  0.00     0.293 HD
ENDBRANCH  14  19
BRANCH  18  21
ATOM     21  O   UNL     1      68.194  -0.532  26.892  1.00  0.00    -0.508 OA
ATOM     22  H   UNL     1      68.589  -1.326  26.401  1.00  0.00     0.293 HD
ENDBRANCH  18  21
ENDBRANCH  11  13
ENDBRANCH   2  11
TORSDOF 6
ENDMDL
MODEL 5
REMARK VINA RESULT:    -5.286      1.672      5.697
REMARK INTER + INTRA:          -7.056
REMARK INTER:                  -7.385
REMARK INTRA:                   0.329
REMARK UNBOUND:                -0.379
REMARK SMILES O=C(C=Cc1ccc(O)cc1)c1ccc(O)cc1O
REMARK SMILES IDX 4 1 3 2 5 3 6 4 7 5 8 6 11 7 10 8 9 9 2 11 1 12 12 13 18 14
REMARK SMILES IDX 13 15 17 16 14 17 15 18 19 19 16 21
REMARK H PARENT 9 10 19 20 16 22
REMARK Flexibility Score: inf
ROOT
ATOM      1  C   UNL     1      61.076   0.597  29.743  1.00  0.00     0.012 C 
ATOM      2  C   UNL     1      61.613   0.877  28.544  1.00  0.00     0.053 C 
ENDROOT
BRANCH   1   3
ATOM      3  C   UNL     1      61.133  -0.714  30.422  1.00  0.00    -0.025 A 
ATOM      4  C   UNL     1      59.998  -1.258  31.047  1.00  0.00     0.012 A 
ATOM      5  C   UNL     1      60.057  -2.523  31.637  1.00  0.00     0.047 A 
ATOM      6  C   UNL     1      61.245  -3.267  31.590  1.00  0.00     0.115 A 
ATOM      7  C   UNL     1      62.310  -1.475  30.350  1.00  0.00     0.012 A 
ATOM      8  C   UNL     1      62.367  -2.740  30.943  1.00  0.00     0.047 A 
BRANCH   6   9
ATOM      9  O   UNL     1      61.317  -4.528  32.177  1.00  0.00    -0.508 OA
ATOM     10  H   UNL     1      62.115  -5.135  32.030  1.00  0.00     0.293 HD
ENDBRANCH   6   9
ENDBRANCH   1   3
BRANCH   2  11
ATOM     11  C   UNL     1      62.202  -0.111  27.607  1.00  0.00     0.189 C 
ATOM     12  O   UNL     1      61.463  -0.828  26.879  1.00  0.00    -0.289 OA
BRANCH  11  13
ATOM     13  C   UNL     1      63.667  -0.272  27.502  1.00  0.00     0.064 A 
ATOM     14  C   UNL     1      64.556   0.756  27.880  1.00  0.00     0.130 A 
ATOM     15  C   UNL     1      64.184  -1.471  26.982  1.00  0.00     0.020 A 
ATOM     16  C   UNL     1      65.941   0.553  27.775  1.00  0.00     0.093 A 
ATOM     17  C   UNL     1      65.563  -1.661  26.876  1.00  0.00     0.047 A 
ATOM     18  C   UNL     1      66.445  -0.652  27.277  1.00  0.00     0.119 A 
BRANCH  14  19
ATOM     19  O   UNL     1      64.071   1.984  28.331  1.00  0.00    -0.507 OA
ATOM     20  H   UNL     1      64.147   2.261  29.302  1.00  0.00     0.293 HD
ENDBRANCH  14  19
BRANCH  18  21
ATOM     21  O   UNL     1      67.823  -0.833  27.179  1.00  0.00    -0.508 OA
ATOM     22  H   UNL     1      68.220  -1.676  26.780  1.00  0.00     0.293 HD
ENDBRANCH  18  21
ENDBRANCH  11  13
ENDBRANCH   2  11
TORSDOF 6
ENDMDL
MODEL 6
REMARK VINA RESULT:    -4.611      1.453      2.297
REMARK INTER + INTRA:          -6.203
REMARK INTER:                  -6.382
REMARK INTRA:                   0.179
REMARK UNBOUND:                -0.379
REMARK SMILES O=C(C=Cc1ccc(O)cc1)c1ccc(O)cc1O
REMARK SMILES IDX 4 1 3 2 5 3 6 4 7 5 8 6 11 7 10 8 9 9 2 11 1 12 12 13 18 14
REMARK SMILES IDX 13 15 17 16 14 17 15 18 19 19 16 21
REMARK H PARENT 9 10 19 20 16 22
REMARK Flexibility Score: inf
ROOT
ATOM      1  C   UNL     1      63.497  -1.903  26.875  1.00  0.00     0.012 C 
ATOM      2  C   UNL     1      62.259  -1.825  27.391  1.00  0.00     0.053 C 
ENDROOT
BRANCH   1   3
ATOM      3  C   UNL     1      64.589  -0.938  27.119  1.00  0.00    -0.025 A 
ATOM      4  C   UNL     1      65.877  -1.374  27.474  1.00  0.00     0.012 A 
ATOM      5  C   UNL     1      66.910  -0.449  27.649  1.00  0.00     0.047 A 
ATOM      6  C   UNL     1      66.673   0.918  27.448  1.00  0.00     0.115 A 
ATOM      7  C   UNL     1      64.364   0.428  26.890  1.00  0.00     0.012 A 
ATOM      8  C   UNL     1      65.399   1.351  27.066  1.00  0.00     0.047 A 
BRANCH   6   9
ATOM      9  O   UNL     1      67.694   1.850  27.621  1.00  0.00    -0.508 OA
ATOM     10  H   UNL     1      67.859   2.585  26.944  1.00  0.00     0.293 HD
ENDBRANCH   6   9
ENDBRANCH   1   3
BRANCH   2  11
ATOM     11  C   UNL     1      61.707  -0.676  28.149  1.00  0.00     0.189 C 
ATOM     12  O   UNL     1      61.641   0.469  27.626  1.00  0.00    -0.289 OA
BRANCH  11  13
ATOM     13  C   UNL     1      61.220  -0.849  29.533  1.00  0.00     0.064 A 
ATOM     14  C   UNL     1      60.330   0.069  30.129  1.00  0.00     0.130 A 
ATOM     15  C   UNL     1      61.681  -1.943  30.285  1.00  0.00     0.020 A 
ATOM     16  C   UNL     1      59.883  -0.143  31.442  1.00  0.00     0.093 A 
ATOM     17  C   UNL     1      61.236  -2.143  31.593  1.00  0.00     0.047 A 
ATOM     18  C   UNL     1      60.332  -1.246  32.173  1.00  0.00     0.119 A 
BRANCH  14  19
ATOM     19  O   UNL     1      59.911   1.204  29.432  1.00  0.00    -0.507 OA
ATOM     20  H   UNL     1      58.935   1.363  29.212  1.00  0.00     0.293 HD
ENDBRANCH  14  19
BRANCH  18  21
ATOM     21  O   UNL     1      59.878  -1.439  33.477  1.00  0.00    -0.508 OA
ATOM     22  H   UNL     1      59.112  -2.069  33.683  1.00  0.00     0.293 HD
ENDBRANCH  18  21
ENDBRANCH  11  13
ENDBRANCH   2  11
TORSDOF 6
ENDMDL
MODEL 7
REMARK VINA RESULT:    -4.563      1.523      2.115
REMARK INTER + INTRA:          -6.143
REMARK INTER:                  -5.303
REMARK INTRA:                  -0.839
REMARK UNBOUND:                -0.379
REMARK SMILES O=C(C=Cc1ccc(O)cc1)c1ccc(O)cc1O
REMARK SMILES IDX 4 1 3 2 5 3 6 4 7 5 8 6 11 7 10 8 9 9 2 11 1 12 12 13 18 14
REMARK SMILES IDX 13 15 17 16 14 17 15 18 19 19 16 21
REMARK H PARENT 9 10 19 20 16 22
REMARK Flexibility Score: inf
ROOT
ATOM      1  C   UNL     1      62.388  -1.118  27.097  1.00  0.00     0.012 C 
ATOM      2  C   UNL     1      61.728  -1.938  27.931  1.00  0.00     0.053 C 
ENDROOT
BRANCH   1   3
ATOM      3  C   UNL     1      63.690  -0.478  27.376  1.00  0.00    -0.025 A 
ATOM      4  C   UNL     1      64.891  -1.201  27.270  1.00  0.00     0.012 A 
ATOM      5  C   UNL     1      66.117  -0.566  27.486  1.00  0.00     0.047 A 
ATOM      6  C   UNL     1      66.157   0.803  27.787  1.00  0.00     0.115 A 
ATOM      7  C   UNL     1      63.738   0.897  27.647  1.00  0.00     0.012 A 
ATOM      8  C   UNL     1      64.966   1.531  27.864  1.00  0.00     0.047 A 
BRANCH   6   9
ATOM      9  O   UNL     1      67.373   1.447  28.006  1.00  0.00    -0.508 OA
ATOM     10  H   UNL     1      67.448   2.233  28.642  1.00  0.00     0.293 HD
ENDBRANCH   6   9
ENDBRANCH   1   3
BRANCH   2  11
ATOM     11  C   UNL     1      62.091  -2.212  29.344  1.00  0.00     0.189 C 
ATOM     12  O   UNL     1      62.884  -3.148  29.635  1.00  0.00    -0.289 OA
BRANCH  11  13
ATOM     13  C   UNL     1      61.536  -1.390  30.439  1.00  0.00     0.064 A 
ATOM     14  C   UNL     1      62.072  -1.428  31.743  1.00  0.00     0.130 A 
ATOM     15  C   UNL     1      60.422  -0.573  30.178  1.00  0.00     0.020 A 
ATOM     16  C   UNL     1      61.520  -0.620  32.748  1.00  0.00     0.093 A 
ATOM     17  C   UNL     1      59.875   0.223  31.186  1.00  0.00     0.047 A 
ATOM     18  C   UNL     1      60.426   0.205  32.473  1.00  0.00     0.119 A 
BRANCH  14  19
ATOM     19  O   UNL     1      63.131  -2.283  32.049  1.00  0.00    -0.507 OA
ATOM     20  H   UNL     1      62.973  -3.231  32.370  1.00  0.00     0.293 HD
ENDBRANCH  14  19
BRANCH  18  21
ATOM     21  O   UNL     1      59.890   0.999  33.486  1.00  0.00    -0.508 OA
ATOM     22  H   UNL     1      59.248   1.756  33.282  1.00  0.00     0.293 HD
ENDBRANCH  18  21
ENDBRANCH  11  13
ENDBRANCH   2  11
TORSDOF 6
ENDMDL
MODEL 8
REMARK VINA RESULT:    -4.387      1.674      6.159
REMARK INTER + INTRA:          -5.921
REMARK INTER:                  -5.237
REMARK INTRA:                  -0.684
REMARK UNBOUND:                -0.379
REMARK SMILES O=C(C=Cc1ccc(O)cc1)c1ccc(O)cc1O
REMARK SMILES IDX 4 1 3 2 5 3 6 4 7 5 8 6 11 7 10 8 9 9 2 11 1 12 12 13 18 14
REMARK SMILES IDX 13 15 17 16 14 17 15 18 19 19 16 21
REMARK H PARENT 9 10 19 20 16 22
REMARK Flexibility Score: inf
ROOT
ATOM      1  C   UNL     1      62.308  -3.020  30.155  1.00  0.00     0.012 C 
ATOM      2  C   UNL     1      62.658  -2.784  28.880  1.00  0.00     0.053 C 
ENDROOT
BRANCH   1   3
ATOM      3  C   UNL     1      61.635  -2.057  31.051  1.00  0.00    -0.025 A 
ATOM      4  C   UNL     1      60.467  -2.409  31.748  1.00  0.00     0.012 A 
ATOM      5  C   UNL     1      59.875  -1.503  32.633  1.00  0.00     0.047 A 
ATOM      6  C   UNL     1      60.457  -0.245  32.846  1.00  0.00     0.115 A 
ATOM      7  C   UNL     1      62.231  -0.810  31.291  1.00  0.00     0.012 A 
ATOM      8  C   UNL     1      61.636   0.096  32.176  1.00  0.00     0.047 A 
BRANCH   6   9
ATOM      9  O   UNL     1      59.875   0.668  33.723  1.00  0.00    -0.508 OA
ATOM     10  H   UNL     1      59.545   1.571  33.405  1.00  0.00     0.293 HD
ENDBRANCH   6   9
ENDBRANCH   1   3
BRANCH   2  11
ATOM     11  C   UNL     1      62.598  -1.469  28.194  1.00  0.00     0.189 C 
ATOM     12  O   UNL     1      61.498  -0.999  27.798  1.00  0.00    -0.289 OA
BRANCH  11  13
ATOM     13  C   UNL     1      63.827  -0.681  27.965  1.00  0.00     0.064 A 
ATOM     14  C   UNL     1      63.879   0.705  28.219  1.00  0.00     0.130 A 
ATOM     15  C   UNL     1      64.963  -1.328  27.450  1.00  0.00     0.020 A 
ATOM     16  C   UNL     1      65.072   1.411  27.999  1.00  0.00     0.093 A 
ATOM     17  C   UNL     1      66.144  -0.617  27.228  1.00  0.00     0.047 A 
ATOM     18  C   UNL     1      66.203   0.754  27.507  1.00  0.00     0.119 A 
BRANCH  14  19
ATOM     19  O   UNL     1      62.745   1.388  28.662  1.00  0.00    -0.507 OA
ATOM     20  H   UNL     1      61.957   1.563  28.051  1.00  0.00     0.293 HD
ENDBRANCH  14  19
BRANCH  18  21
ATOM     21  O   UNL     1      67.378   1.472  27.293  1.00  0.00    -0.508 OA
ATOM     22  H   UNL     1      68.257   1.005  27.103  1.00  0.00     0.293 HD
ENDBRANCH  18  21
ENDBRANCH  11  13
ENDBRANCH   2  11
TORSDOF 6
ENDMDL
MODEL 9
REMARK VINA RESULT:    -4.350      1.787      5.169
REMARK INTER + INTRA:          -5.873
REMARK INTER:                  -5.142
REMARK INTRA:                  -0.731
REMARK UNBOUND:                -0.379
REMARK SMILES O=C(C=Cc1ccc(O)cc1)c1ccc(O)cc1O
REMARK SMILES IDX 4 1 3 2 5 3 6 4 7 5 8 6 11 7 10 8 9 9 2 11 1 12 12 13 18 14
REMARK SMILES IDX 13 15 17 16 14 17 15 18 19 19 16 21
REMARK H PARENT 9 10 19 20 16 22
REMARK Flexibility Score: inf
ROOT
ATOM      1  C   UNL     1      59.974  -0.443  28.380  1.00  0.00     0.012 C 
ATOM      2  C   UNL     1      60.266   0.377  27.357  1.00  0.00     0.053 C 
ENDROOT
BRANCH   1   3
ATOM      3  C   UNL     1      60.759  -0.573  29.625  1.00  0.00    -0.025 A 
ATOM      4  C   UNL     1      60.472   0.218  30.750  1.00  0.00     0.012 A 
ATOM      5  C   UNL     1      61.190   0.043  31.936  1.00  0.00     0.047 A 
ATOM      6  C   UNL     1      62.188  -0.939  32.017  1.00  0.00     0.115 A 
ATOM      7  C   UNL     1      61.736  -1.575  29.720  1.00  0.00     0.012 A 
ATOM      8  C   UNL     1      62.455  -1.747  30.908  1.00  0.00     0.047 A 
BRANCH   6   9
ATOM      9  O   UNL     1      62.913  -1.121  33.192  1.00  0.00    -0.508 OA
ATOM     10  H   UNL     1      63.244  -2.036  33.473  1.00  0.00     0.293 HD
ENDBRANCH   6   9
ENDBRANCH   1   3
BRANCH   2  11
ATOM     11  C   UNL     1      61.514   1.166  27.208  1.00  0.00     0.189 C 
ATOM     12  O   UNL     1      61.472   2.382  26.880  1.00  0.00    -0.289 OA
BRANCH  11  13
ATOM     13  C   UNL     1      62.833   0.543  27.446  1.00  0.00     0.064 A 
ATOM     14  C   UNL     1      63.834   1.188  28.201  1.00  0.00     0.130 A 
ATOM     15  C   UNL     1      63.105  -0.712  26.876  1.00  0.00     0.020 A 
ATOM     16  C   UNL     1      65.068   0.553  28.411  1.00  0.00     0.093 A 
ATOM     17  C   UNL     1      64.337  -1.334  27.085  1.00  0.00     0.047 A 
ATOM     18  C   UNL     1      65.320  -0.705  27.857  1.00  0.00     0.119 A 
BRANCH  14  19
ATOM     19  O   UNL     1      63.620   2.467  28.718  1.00  0.00    -0.507 OA
ATOM     20  H   UNL     1      63.939   3.297  28.234  1.00  0.00     0.293 HD
ENDBRANCH  14  19
BRANCH  18  21
ATOM     21  O   UNL     1      66.552  -1.319  28.076  1.00  0.00    -0.508 OA
ATOM     22  H   UNL     1      66.883  -2.070  27.482  1.00  0.00     0.293 HD
ENDBRANCH  18  21
ENDBRANCH  11  13
ENDBRANCH   2  11
TORSDOF 6
ENDMDL
