MODEL 1
REMARK VINA RESULT:    -4.107      0.000      0.000
REMARK INTER + INTRA:          -4.757
REMARK INTER:                  -4.707
REMARK INTRA:                  -0.050
REMARK UNBOUND:                -0.050
REMARK SMILES O=C([O-])c1cc(O)c(O)c(O)c1
REMARK SMILES IDX 4 1 5 2 12 3 6 4 10 5 8 6 2 7 1 8 3 9 7 10 11 12 9 14
REMARK H PARENT 7 11 11 13 9 15
REMARK Flexibility Score: inf
ROOT
ATOM      1  C   UNL     1      20.004 -46.999   6.322  1.00  0.00     0.005 A 
ATOM      2  C   UNL     1      19.191 -47.695   7.234  1.00  0.00     0.060 A 
ATOM      3  C   UNL     1      19.784 -45.626   6.122  1.00  0.00     0.060 A 
ATOM      4  C   UNL     1      18.175 -47.031   7.935  1.00  0.00     0.162 A 
ATOM      5  C   UNL     1      18.769 -44.958   6.820  1.00  0.00     0.162 A 
ATOM      6  C   UNL     1      17.963 -45.658   7.727  1.00  0.00     0.200 A 
ENDROOT
BRANCH   1   7
ATOM      7  C   UNL     1      21.077 -47.700   5.580  1.00  0.00     0.072 C 
ATOM      8  O   UNL     1      20.918 -48.888   5.193  1.00  0.00    -0.545 OA
ATOM      9  O   UNL     1      22.277 -47.056   5.303  1.00  0.00    -0.545 OA
ENDBRANCH   1   7
BRANCH   4  10
ATOM     10  O   UNL     1      17.375 -47.731   8.837  1.00  0.00    -0.504 OA
ATOM     11  H   UNL     1      17.548 -47.702   9.835  1.00  0.00     0.293 HD
ENDBRANCH   4  10
BRANCH   5  12
ATOM     12  O   UNL     1      18.556 -43.596   6.618  1.00  0.00    -0.504 OA
ATOM     13  H   UNL     1      19.147 -43.051   6.001  1.00  0.00     0.293 HD
ENDBRANCH   5  12
BRANCH   6  14
ATOM     14  O   UNL     1      16.959 -44.975   8.413  1.00  0.00    -0.502 OA
ATOM     15  H   UNL     1      17.122 -44.537   9.312  1.00  0.00     0.293 HD
ENDBRANCH   6  14
TORSDOF 4
ENDMDL
MODEL 2
REMARK VINA RESULT:    -4.094      0.121      2.424
REMARK INTER + INTRA:          -4.742
REMARK INTER:                  -4.691
REMARK INTRA:                  -0.050
REMARK UNBOUND:                -0.050
REMARK SMILES O=C([O-])c1cc(O)c(O)c(O)c1
REMARK SMILES IDX 4 1 5 2 12 3 6 4 10 5 8 6 2 7 1 8 3 9 7 10 11 12 9 14
REMARK H PARENT 7 11 11 13 9 15
REMARK Flexibility Score: inf
ROOT
ATOM      1  C   UNL     1      19.943 -46.988   6.337  1.00  0.00     0.005 A 
ATOM      2  C   UNL     1      19.757 -45.615   6.099  1.00  0.00     0.060 A 
ATOM      3  C   UNL     1      19.129 -47.632   7.284  1.00  0.00     0.060 A 
ATOM      4  C   UNL     1      18.776 -44.896   6.795  1.00  0.00     0.162 A 
ATOM      5  C   UNL     1      18.147 -46.918   7.984  1.00  0.00     0.162 A 
ATOM      6  C   UNL     1      17.969 -45.550   7.741  1.00  0.00     0.200 A 
ENDROOT
BRANCH   1   7
ATOM      7  C   UNL     1      20.979 -47.748   5.602  1.00  0.00     0.072 C 
ATOM      8  O   UNL     1      20.793 -48.956   5.298  1.00  0.00    -0.545 OA
ATOM      9  O   UNL     1      22.175 -47.139   5.239  1.00  0.00    -0.545 OA
ENDBRANCH   1   7
BRANCH   4  10
ATOM     10  O   UNL     1      18.601 -43.534   6.551  1.00  0.00    -0.504 OA
ATOM     11  H   UNL     1      17.696 -43.089   6.645  1.00  0.00     0.293 HD
ENDBRANCH   4  10
BRANCH   5  12
ATOM     12  O   UNL     1      17.343 -47.562   8.922  1.00  0.00    -0.504 OA
ATOM     13  H   UNL     1      16.342 -47.408   8.959  1.00  0.00     0.293 HD
ENDBRANCH   5  12
BRANCH   6  14
ATOM     14  O   UNL     1      16.985 -44.856   8.446  1.00  0.00    -0.502 OA
ATOM     15  H   UNL     1      16.024 -44.811   8.129  1.00  0.00     0.293 HD
ENDBRANCH   6  14
TORSDOF 4
ENDMDL
MODEL 3
REMARK VINA RESULT:    -4.090      1.573      3.442
REMARK INTER + INTRA:          -4.737
REMARK INTER:                  -4.692
REMARK INTRA:                  -0.045
REMARK UNBOUND:                -0.050
REMARK SMILES O=C([O-])c1cc(O)c(O)c(O)c1
REMARK SMILES IDX 4 1 5 2 12 3 6 4 10 5 8 6 2 7 1 8 3 9 7 10 11 12 9 14
REMARK H PARENT 7 11 11 13 9 15
REMARK Flexibility Score: inf
ROOT
ATOM      1  C   UNL     1      19.667 -45.355   7.217  1.00  0.00     0.005 A 
ATOM      2  C   UNL     1      18.828 -45.895   8.206  1.00  0.00     0.060 A 
ATOM      3  C   UNL     1      19.914 -46.100   6.051  1.00  0.00     0.060 A 
ATOM      4  C   UNL     1      18.244 -47.158   8.035  1.00  0.00     0.162 A 
ATOM      5  C   UNL     1      19.333 -47.363   5.876  1.00  0.00     0.162 A 
ATOM      6  C   UNL     1      18.498 -47.894   6.867  1.00  0.00     0.200 A 
ENDROOT
BRANCH   1   7
ATOM      7  C   UNL     1      20.285 -44.022   7.396  1.00  0.00     0.072 C 
ATOM      8  O   UNL     1      19.585 -42.976   7.322  1.00  0.00    -0.545 OA
ATOM      9  O   UNL     1      21.647 -43.904   7.646  1.00  0.00    -0.545 OA
ENDBRANCH   1   7
BRANCH   4  10
ATOM     10  O   UNL     1      17.414 -47.684   9.025  1.00  0.00    -0.504 OA
ATOM     11  H   UNL     1      17.018 -47.100   9.752  1.00  0.00     0.293 HD
ENDBRANCH   4  10
BRANCH   5  12
ATOM     12  O   UNL     1      19.581 -48.096   4.717  1.00  0.00    -0.504 OA
ATOM     13  H   UNL     1      18.982 -48.863   4.435  1.00  0.00     0.293 HD
ENDBRANCH   5  12
BRANCH   6  14
ATOM     14  O   UNL     1      17.928 -49.153   6.674  1.00  0.00    -0.502 OA
ATOM     15  H   UNL     1      18.485 -49.999   6.650  1.00  0.00     0.293 HD
ENDBRANCH   6  14
TORSDOF 4
ENDMDL
MODEL 4
REMARK VINA RESULT:    -4.068      1.560      3.810
REMARK INTER + INTRA:          -4.713
REMARK INTER:                  -4.667
REMARK INTRA:                  -0.045
REMARK UNBOUND:                -0.050
REMARK SMILES O=C([O-])c1cc(O)c(O)c(O)c1
REMARK SMILES IDX 4 1 5 2 12 3 6 4 10 5 8 6 2 7 1 8 3 9 7 10 11 12 9 14
REMARK H PARENT 7 11 11 13 9 15
REMARK Flexibility Score: inf
ROOT
ATOM      1  C   UNL     1      19.681 -45.355   7.206  1.00  0.00     0.005 A 
ATOM      2  C   UNL     1      19.951 -46.105   6.048  1.00  0.00     0.060 A 
ATOM      3  C   UNL     1      18.833 -45.897   8.187  1.00  0.00     0.060 A 
ATOM      4  C   UNL     1      19.384 -47.375   5.872  1.00  0.00     0.162 A 
ATOM      5  C   UNL     1      18.264 -47.166   8.016  1.00  0.00     0.162 A 
ATOM      6  C   UNL     1      18.538 -47.907   6.859  1.00  0.00     0.200 A 
ENDROOT
BRANCH   1   7
ATOM      7  C   UNL     1      20.278 -44.014   7.392  1.00  0.00     0.072 C 
ATOM      8  O   UNL     1      19.561 -42.979   7.332  1.00  0.00    -0.545 OA
ATOM      9  O   UNL     1      21.640 -43.876   7.635  1.00  0.00    -0.545 OA
ENDBRANCH   1   7
BRANCH   4  10
ATOM     10  O   UNL     1      19.659 -48.110   4.719  1.00  0.00    -0.504 OA
ATOM     11  H   UNL     1      20.019 -49.056   4.765  1.00  0.00     0.293 HD
ENDBRANCH   4  10
BRANCH   5  12
ATOM     12  O   UNL     1      17.425 -47.698   8.993  1.00  0.00    -0.504 OA
ATOM     13  H   UNL     1      17.573 -47.513   9.978  1.00  0.00     0.293 HD
ENDBRANCH   5  12
BRANCH   6  14
ATOM     14  O   UNL     1      17.963 -49.169   6.707  1.00  0.00    -0.502 OA
ATOM     15  H   UNL     1      17.019 -49.372   7.013  1.00  0.00     0.293 HD
ENDBRANCH   6  14
TORSDOF 4
ENDMDL
MODEL 5
REMARK VINA RESULT:    -3.981      2.339      3.943
REMARK INTER + INTRA:          -4.613
REMARK INTER:                  -4.563
REMARK INTRA:                  -0.050
REMARK UNBOUND:                -0.050
REMARK SMILES O=C([O-])c1cc(O)c(O)c(O)c1
REMARK SMILES IDX 4 1 5 2 12 3 6 4 10 5 8 6 2 7 1 8 3 9 7 10 11 12 9 14
REMARK H PARENT 7 11 11 13 9 15
REMARK Flexibility Score: inf
ROOT
ATOM      1  C   UNL     1      20.421 -44.011   7.888  1.00  0.00     0.005 A 
ATOM      2  C   UNL     1      21.046 -45.211   7.507  1.00  0.00     0.060 A 
ATOM      3  C   UNL     1      19.020 -43.972   7.986  1.00  0.00     0.060 A 
ATOM      4  C   UNL     1      20.284 -46.354   7.228  1.00  0.00     0.162 A 
ATOM      5  C   UNL     1      18.254 -45.113   7.708  1.00  0.00     0.162 A 
ATOM      6  C   UNL     1      18.884 -46.305   7.328  1.00  0.00     0.200 A 
ENDROOT
BRANCH   1   7
ATOM      7  C   UNL     1      21.224 -42.803   8.182  1.00  0.00     0.072 C 
ATOM      8  O   UNL     1      20.828 -41.962   9.032  1.00  0.00    -0.545 OA
ATOM      9  O   UNL     1      22.427 -42.578   7.523  1.00  0.00    -0.545 OA
ENDBRANCH   1   7
BRANCH   4  10
ATOM     10  O   UNL     1      20.915 -47.539   6.849  1.00  0.00    -0.504 OA
ATOM     11  H   UNL     1      21.834 -47.539   6.422  1.00  0.00     0.293 HD
ENDBRANCH   4  10
BRANCH   5  12
ATOM     12  O   UNL     1      16.865 -45.068   7.808  1.00  0.00    -0.504 OA
ATOM     13  H   UNL     1      16.279 -44.908   6.997  1.00  0.00     0.293 HD
ENDBRANCH   5  12
BRANCH   6  14
ATOM     14  O   UNL     1      18.105 -47.430   7.056  1.00  0.00    -0.502 OA
ATOM     15  H   UNL     1      18.381 -48.123   6.371  1.00  0.00     0.293 HD
ENDBRANCH   6  14
TORSDOF 4
ENDMDL
MODEL 6
REMARK VINA RESULT:    -3.946      1.528      3.303
REMARK INTER + INTRA:          -4.573
REMARK INTER:                  -4.520
REMARK INTRA:                  -0.053
REMARK UNBOUND:                -0.050
REMARK SMILES O=C([O-])c1cc(O)c(O)c(O)c1
REMARK SMILES IDX 4 1 5 2 12 3 6 4 10 5 8 6 2 7 1 8 3 9 7 10 11 12 9 14
REMARK H PARENT 7 11 11 13 9 15
REMARK Flexibility Score: inf
ROOT
ATOM      1  C   UNL     1      18.524 -48.059   7.701  1.00  0.00     0.005 A 
ATOM      2  C   UNL     1      19.354 -47.589   6.668  1.00  0.00     0.060 A 
ATOM      3  C   UNL     1      17.681 -47.152   8.365  1.00  0.00     0.060 A 
ATOM      4  C   UNL     1      19.342 -46.236   6.304  1.00  0.00     0.162 A 
ATOM      5  C   UNL     1      17.666 -45.798   8.004  1.00  0.00     0.162 A 
ATOM      6  C   UNL     1      18.496 -45.337   6.974  1.00  0.00     0.200 A 
ENDROOT
BRANCH   1   7
ATOM      7  C   UNL     1      18.536 -49.488   8.088  1.00  0.00     0.072 C 
ATOM      8  O   UNL     1      17.701 -49.933   8.920  1.00  0.00    -0.545 OA
ATOM      9  O   UNL     1      19.470 -50.359   7.539  1.00  0.00    -0.545 OA
ENDBRANCH   1   7
BRANCH   4  10
ATOM     10  O   UNL     1      20.171 -45.781   5.278  1.00  0.00    -0.504 OA
ATOM     11  H   UNL     1      21.154 -46.022   5.243  1.00  0.00     0.293 HD
ENDBRANCH   4  10
BRANCH   5  12
ATOM     12  O   UNL     1      16.827 -44.903   8.665  1.00  0.00    -0.504 OA
ATOM     13  H   UNL     1      17.195 -44.123   9.196  1.00  0.00     0.293 HD
ENDBRANCH   5  12
BRANCH   6  14
ATOM     14  O   UNL     1      18.467 -43.986   6.628  1.00  0.00    -0.502 OA
ATOM     15  H   UNL     1      18.177 -43.671   5.710  1.00  0.00     0.293 HD
ENDBRANCH   6  14
TORSDOF 4
ENDMDL
MODEL 7
REMARK VINA RESULT:    -3.936      1.508      2.899
REMARK INTER + INTRA:          -4.561
REMARK INTER:                  -4.509
REMARK INTRA:                  -0.052
REMARK UNBOUND:                -0.050
REMARK SMILES O=C([O-])c1cc(O)c(O)c(O)c1
REMARK SMILES IDX 4 1 5 2 12 3 6 4 10 5 8 6 2 7 1 8 3 9 7 10 11 12 9 14
REMARK H PARENT 7 11 11 13 9 15
REMARK Flexibility Score: inf
ROOT
ATOM      1  C   UNL     1      18.559 -48.033   7.620  1.00  0.00     0.005 A 
ATOM      2  C   UNL     1      17.698 -47.165   8.313  1.00  0.00     0.060 A 
ATOM      3  C   UNL     1      19.375 -47.514   6.601  1.00  0.00     0.060 A 
ATOM      4  C   UNL     1      17.653 -45.800   7.995  1.00  0.00     0.162 A 
ATOM      5  C   UNL     1      19.333 -46.150   6.279  1.00  0.00     0.162 A 
ATOM      6  C   UNL     1      18.473 -45.292   6.974  1.00  0.00     0.200 A 
ENDROOT
BRANCH   1   7
ATOM      7  C   UNL     1      18.607 -49.474   7.955  1.00  0.00     0.072 C 
ATOM      8  O   UNL     1      17.716 -49.995   8.676  1.00  0.00    -0.545 OA
ATOM      9  O   UNL     1      19.640 -50.273   7.479  1.00  0.00    -0.545 OA
ENDBRANCH   1   7
BRANCH   4  10
ATOM     10  O   UNL     1      16.794 -44.948   8.689  1.00  0.00    -0.504 OA
ATOM     11  H   UNL     1      17.136 -44.121   9.164  1.00  0.00     0.293 HD
ENDBRANCH   4  10
BRANCH   5  12
ATOM     12  O   UNL     1      20.146 -45.641   5.268  1.00  0.00    -0.504 OA
ATOM     13  H   UNL     1      21.104 -45.950   5.150  1.00  0.00     0.293 HD
ENDBRANCH   5  12
BRANCH   6  14
ATOM     14  O   UNL     1      18.445 -43.938   6.640  1.00  0.00    -0.502 OA
ATOM     15  H   UNL     1      19.205 -43.490   6.142  1.00  0.00     0.293 HD
ENDBRANCH   6  14
TORSDOF 4
ENDMDL
MODEL 8
REMARK VINA RESULT:    -3.913      2.358      4.060
REMARK INTER + INTRA:          -4.534
REMARK INTER:                  -4.484
REMARK INTRA:                  -0.050
REMARK UNBOUND:                -0.050
REMARK SMILES O=C([O-])c1cc(O)c(O)c(O)c1
REMARK SMILES IDX 4 1 5 2 12 3 6 4 10 5 8 6 2 7 1 8 3 9 7 10 11 12 9 14
REMARK H PARENT 7 11 11 13 9 15
REMARK Flexibility Score: inf
ROOT
ATOM      1  C   UNL     1      20.439 -44.053   7.892  1.00  0.00     0.005 A 
ATOM      2  C   UNL     1      19.034 -44.025   7.927  1.00  0.00     0.060 A 
ATOM      3  C   UNL     1      21.089 -45.240   7.513  1.00  0.00     0.060 A 
ATOM      4  C   UNL     1      18.290 -45.164   7.588  1.00  0.00     0.162 A 
ATOM      5  C   UNL     1      20.349 -46.381   7.174  1.00  0.00     0.162 A 
ATOM      6  C   UNL     1      18.949 -46.345   7.211  1.00  0.00     0.200 A 
ENDROOT
BRANCH   1   7
ATOM      7  C   UNL     1      21.227 -42.852   8.250  1.00  0.00     0.072 C 
ATOM      8  O   UNL     1      20.807 -42.048   9.124  1.00  0.00    -0.545 OA
ATOM      9  O   UNL     1      22.441 -42.593   7.624  1.00  0.00    -0.545 OA
ENDBRANCH   1   7
BRANCH   4  10
ATOM     10  O   UNL     1      16.896 -45.125   7.626  1.00  0.00    -0.504 OA
ATOM     11  H   UNL     1      16.361 -45.783   8.181  1.00  0.00     0.293 HD
ENDBRANCH   4  10
BRANCH   5  12
ATOM     12  O   UNL     1      20.999 -47.554   6.798  1.00  0.00    -0.504 OA
ATOM     13  H   UNL     1      21.998 -47.578   6.629  1.00  0.00     0.293 HD
ENDBRANCH   5  12
BRANCH   6  14
ATOM     14  O   UNL     1      18.230 -47.490   6.869  1.00  0.00    -0.502 OA
ATOM     15  H   UNL     1      17.304 -47.675   7.235  1.00  0.00     0.293 HD
ENDBRANCH   6  14
TORSDOF 4
ENDMDL
MODEL 9
REMARK VINA RESULT:    -3.799      2.037      3.022
REMARK INTER + INTRA:          -4.404
REMARK INTER:                  -4.353
REMARK INTRA:                  -0.051
REMARK UNBOUND:                -0.050
REMARK SMILES O=C([O-])c1cc(O)c(O)c(O)c1
REMARK SMILES IDX 4 1 5 2 12 3 6 4 10 5 8 6 2 7 1 8 3 9 7 10 11 12 9 14
REMARK H PARENT 7 11 11 13 9 15
REMARK Flexibility Score: inf
ROOT
ATOM      1  C   UNL     1      20.777 -46.402   6.251  1.00  0.00     0.005 A 
ATOM      2  C   UNL     1      19.637 -45.592   6.113  1.00  0.00     0.060 A 
ATOM      3  C   UNL     1      21.839 -45.954   7.054  1.00  0.00     0.060 A 
ATOM      4  C   UNL     1      19.558 -44.353   6.766  1.00  0.00     0.162 A 
ATOM      5  C   UNL     1      21.766 -44.717   7.708  1.00  0.00     0.162 A 
ATOM      6  C   UNL     1      20.626 -43.915   7.565  1.00  0.00     0.200 A 
ENDROOT
BRANCH   1   7
ATOM      7  C   UNL     1      20.861 -47.710   5.562  1.00  0.00     0.072 C 
ATOM      8  O   UNL     1      19.815 -48.316   5.208  1.00  0.00    -0.545 OA
ATOM      9  O   UNL     1      22.097 -48.289   5.299  1.00  0.00    -0.545 OA
ENDBRANCH   1   7
BRANCH   4  10
ATOM     10  O   UNL     1      18.422 -43.557   6.620  1.00  0.00    -0.504 OA
ATOM     11  H   UNL     1      18.024 -43.051   7.403  1.00  0.00     0.293 HD
ENDBRANCH   4  10
BRANCH   5  12
ATOM     12  O   UNL     1      22.822 -44.278   8.503  1.00  0.00    -0.504 OA
ATOM     13  H   UNL     1      23.326 -43.425   8.294  1.00  0.00     0.293 HD
ENDBRANCH   5  12
BRANCH   6  14
ATOM     14  O   UNL     1      20.571 -42.686   8.225  1.00  0.00    -0.502 OA
ATOM     15  H   UNL     1      20.004 -42.543   9.051  1.00  0.00     0.293 HD
ENDBRANCH   6  14
TORSDOF 4
ENDMDL
