MODEL 1
REMARK VINA RESULT:    -6.175      0.000      0.000
REMARK INTER + INTRA:          -7.371
REMARK INTER:                  -7.077
REMARK INTRA:                  -0.294
REMARK UNBOUND:                -0.294
REMARK SMILES O=C1C[C@H](c2ccc(O)cc2)Oc2cc(O)cc(O)c21
REMARK SMILES IDX 3 1 4 2 12 3 13 4 14 5 15 6 17 7 18 8 20 9 2 10 1 11 5 12
REMARK SMILES IDX 6 13 11 14 7 15 10 16 8 17 9 18 19 20 16 22
REMARK H PARENT 9 19 19 21 16 23
REMARK Flexibility Score: inf
ROOT
ATOM      1  C   UNL     1       7.919   4.209 -16.395  1.00  0.00     0.131 C 
ATOM      2  C   UNL     1       7.031   3.422 -17.372  1.00  0.00     0.211 C 
ATOM      3  O   UNL     1       7.828   2.775 -18.367  1.00  0.00    -0.484 OA
ATOM      4  C   UNL     1       8.904   3.417 -18.990  1.00  0.00     0.138 A 
ATOM      5  C   UNL     1       9.444   2.876 -20.160  1.00  0.00     0.093 A 
ATOM      6  C   UNL     1      10.503   3.518 -20.810  1.00  0.00     0.123 A 
ATOM      7  C   UNL     1      11.028   4.701 -20.281  1.00  0.00     0.093 A 
ATOM      8  C   UNL     1      10.509   5.245 -19.097  1.00  0.00     0.133 A 
ATOM      9  C   UNL     1       9.442   4.596 -18.439  1.00  0.00     0.102 A 
ATOM     10  C   UNL     1       8.875   5.083 -17.158  1.00  0.00     0.174 C 
ATOM     11  O   UNL     1       9.220   6.192 -16.671  1.00  0.00    -0.294 OA
ENDROOT
BRANCH   2  12
ATOM     12  C   UNL     1       6.197   2.404 -16.633  1.00  0.00    -0.007 A 
ATOM     13  C   UNL     1       6.768   1.186 -16.224  1.00  0.00     0.011 A 
ATOM     14  C   UNL     1       4.831   2.634 -16.394  1.00  0.00     0.011 A 
ATOM     15  C   UNL     1       5.990   0.227 -15.566  1.00  0.00     0.046 A 
ATOM     16  C   UNL     1       4.057   1.674 -15.736  1.00  0.00     0.046 A 
ATOM     17  C   UNL     1       4.636   0.469 -15.318  1.00  0.00     0.115 A 
BRANCH  17  18
ATOM     18  O   UNL     1       3.875  -0.496 -14.662  1.00  0.00    -0.508 OA
ATOM     19  H   UNL     1       3.103  -0.965 -15.123  1.00  0.00     0.293 HD
ENDBRANCH  17  18
ENDBRANCH   2  12
BRANCH   8  20
ATOM     20  O   UNL     1      11.060   6.417 -18.578  1.00  0.00    -0.507 OA
ATOM     21  H   UNL     1      11.679   7.003 -19.125  1.00  0.00     0.293 HD
ENDBRANCH   8  20
BRANCH   6  22
ATOM     22  O   UNL     1      11.041   2.992 -21.982  1.00  0.00    -0.508 OA
ATOM     23  H   UNL     1      11.067   3.530 -22.841  1.00  0.00     0.293 HD
ENDBRANCH   6  22
TORSDOF 4
ENDMDL
MODEL 2
REMARK VINA RESULT:    -5.903     12.054     13.993
REMARK INTER + INTRA:          -7.060
REMARK INTER:                  -6.766
REMARK INTRA:                  -0.294
REMARK UNBOUND:                -0.294
REMARK SMILES O=C1C[C@H](c2ccc(O)cc2)Oc2cc(O)cc(O)c21
REMARK SMILES IDX 3 1 4 2 12 3 13 4 14 5 15 6 17 7 18 8 20 9 2 10 1 11 5 12
REMARK SMILES IDX 6 13 11 14 7 15 10 16 8 17 9 18 19 20 16 22
REMARK H PARENT 9 19 19 21 16 23
REMARK Flexibility Score: inf
ROOT
ATOM      1  C   UNL     1      11.647  -6.142  -9.289  1.00  0.00     0.131 C 
ATOM      2  C   UNL     1      12.210  -6.807 -10.555  1.00  0.00     0.211 C 
ATOM      3  O   UNL     1      11.212  -6.870 -11.576  1.00  0.00    -0.484 OA
ATOM      4  C   UNL     1       9.888  -7.233 -11.301  1.00  0.00     0.138 A 
ATOM      5  C   UNL     1       9.039  -7.587 -12.352  1.00  0.00     0.093 A 
ATOM      6  C   UNL     1       7.720  -7.977 -12.092  1.00  0.00     0.123 A 
ATOM      7  C   UNL     1       7.250  -8.004 -10.775  1.00  0.00     0.093 A 
ATOM      8  C   UNL     1       8.086  -7.632  -9.712  1.00  0.00     0.133 A 
ATOM      9  C   UNL     1       9.415  -7.236  -9.973  1.00  0.00     0.102 A 
ATOM     10  C   UNL     1      10.342  -6.782  -8.908  1.00  0.00     0.174 C 
ATOM     11  O   UNL     1      10.031  -6.874  -7.691  1.00  0.00    -0.294 OA
ENDROOT
BRANCH   2  12
ATOM     12  C   UNL     1      13.420  -6.058 -11.059  1.00  0.00    -0.007 A 
ATOM     13  C   UNL     1      14.121  -6.522 -12.184  1.00  0.00     0.011 A 
ATOM     14  C   UNL     1      13.893  -4.922 -10.378  1.00  0.00     0.011 A 
ATOM     15  C   UNL     1      15.260  -5.847 -12.635  1.00  0.00     0.046 A 
ATOM     16  C   UNL     1      15.032  -4.249 -10.831  1.00  0.00     0.046 A 
ATOM     17  C   UNL     1      15.717  -4.710 -11.963  1.00  0.00     0.115 A 
BRANCH  17  18
ATOM     18  O   UNL     1      16.853  -4.048 -12.424  1.00  0.00    -0.508 OA
ATOM     19  H   UNL     1      17.496  -4.491 -13.071  1.00  0.00     0.293 HD
ENDBRANCH  17  18
ENDBRANCH   2  12
BRANCH   8  20
ATOM     20  O   UNL     1       7.592  -7.649  -8.408  1.00  0.00    -0.507 OA
ATOM     21  H   UNL     1       6.863  -8.293  -8.123  1.00  0.00     0.293 HD
ENDBRANCH   8  20
BRANCH   6  22
ATOM     22  O   UNL     1       6.869  -8.342 -13.132  1.00  0.00    -0.508 OA
ATOM     23  H   UNL     1       6.573  -7.672 -13.833  1.00  0.00     0.293 HD
ENDBRANCH   6  22
TORSDOF 4
ENDMDL
MODEL 3
REMARK VINA RESULT:    -5.855      5.124      7.679
REMARK INTER + INTRA:          -7.005
REMARK INTER:                  -6.715
REMARK INTRA:                  -0.290
REMARK UNBOUND:                -0.294
REMARK SMILES O=C1C[C@H](c2ccc(O)cc2)Oc2cc(O)cc(O)c21
REMARK SMILES IDX 3 1 4 2 12 3 13 4 14 5 15 6 17 7 18 8 20 9 2 10 1 11 5 12
REMARK SMILES IDX 6 13 11 14 7 15 10 16 8 17 9 18 19 20 16 22
REMARK H PARENT 9 19 19 21 16 23
REMARK Flexibility Score: inf
ROOT
ATOM      1  C   UNL     1      13.906   5.404 -16.971  1.00  0.00     0.131 C 
ATOM      2  C   UNL     1      13.313   6.047 -18.236  1.00  0.00     0.211 C 
ATOM      3  O   UNL     1      14.354   6.466 -19.122  1.00  0.00    -0.484 OA
ATOM      4  C   UNL     1      15.509   7.108 -18.662  1.00  0.00     0.138 A 
ATOM      5  C   UNL     1      16.334   7.774 -19.571  1.00  0.00     0.093 A 
ATOM      6  C   UNL     1      17.479   8.444 -19.125  1.00  0.00     0.123 A 
ATOM      7  C   UNL     1      17.801   8.438 -17.765  1.00  0.00     0.093 A 
ATOM      8  C   UNL     1      16.992   7.757 -16.843  1.00  0.00     0.133 A 
ATOM      9  C   UNL     1      15.839   7.080 -17.292  1.00  0.00     0.102 A 
ATOM     10  C   UNL     1      14.963   6.297 -16.386  1.00  0.00     0.174 C 
ATOM     11  O   UNL     1      15.125   6.326 -15.137  1.00  0.00    -0.294 OA
ENDROOT
BRANCH   2  12
ATOM     12  C   UNL     1      12.388   5.085 -18.940  1.00  0.00    -0.007 A 
ATOM     13  C   UNL     1      12.363   3.729 -18.571  1.00  0.00     0.011 A 
ATOM     14  C   UNL     1      11.584   5.518 -20.009  1.00  0.00     0.011 A 
ATOM     15  C   UNL     1      11.530   2.829 -19.243  1.00  0.00     0.046 A 
ATOM     16  C   UNL     1      10.752   4.616 -20.679  1.00  0.00     0.046 A 
ATOM     17  C   UNL     1      10.721   3.269 -20.294  1.00  0.00     0.115 A 
BRANCH  17  18
ATOM     18  O   UNL     1       9.896   2.360 -20.954  1.00  0.00    -0.508 OA
ATOM     19  H   UNL     1       9.847   1.388 -20.670  1.00  0.00     0.293 HD
ENDBRANCH  17  18
ENDBRANCH   2  12
BRANCH   8  20
ATOM     20  O   UNL     1      17.341   7.750 -15.492  1.00  0.00    -0.507 OA
ATOM     21  H   UNL     1      16.753   8.179 -14.788  1.00  0.00     0.293 HD
ENDBRANCH   8  20
BRANCH   6  22
ATOM     22  O   UNL     1      18.303   9.119 -20.023  1.00  0.00    -0.508 OA
ATOM     23  H   UNL     1      18.456  10.118 -19.951  1.00  0.00     0.293 HD
ENDBRANCH   6  22
TORSDOF 4
ENDMDL
MODEL 4
REMARK VINA RESULT:    -5.841      6.369      7.897
REMARK INTER + INTRA:          -6.989
REMARK INTER:                  -6.691
REMARK INTRA:                  -0.298
REMARK UNBOUND:                -0.294
REMARK SMILES O=C1C[C@H](c2ccc(O)cc2)Oc2cc(O)cc(O)c21
REMARK SMILES IDX 3 1 4 2 12 3 13 4 14 5 15 6 17 7 18 8 20 9 2 10 1 11 5 12
REMARK SMILES IDX 6 13 11 14 7 15 10 16 8 17 9 18 19 20 16 22
REMARK H PARENT 9 19 19 21 16 23
REMARK Flexibility Score: inf
ROOT
ATOM      1  C   UNL     1       4.796   6.962 -10.892  1.00  0.00     0.131 C 
ATOM      2  C   UNL     1       4.161   5.563 -10.852  1.00  0.00     0.211 C 
ATOM      3  O   UNL     1       4.420   4.858 -12.069  1.00  0.00    -0.484 OA
ATOM      4  C   UNL     1       4.323   5.476 -13.322  1.00  0.00     0.138 A 
ATOM      5  C   UNL     1       4.270   4.689 -14.474  1.00  0.00     0.093 A 
ATOM      6  C   UNL     1       4.148   5.289 -15.732  1.00  0.00     0.123 A 
ATOM      7  C   UNL     1       4.086   6.682 -15.835  1.00  0.00     0.093 A 
ATOM      8  C   UNL     1       4.157   7.485 -14.687  1.00  0.00     0.133 A 
ATOM      9  C   UNL     1       4.284   6.881 -13.418  1.00  0.00     0.102 A 
ATOM     10  C   UNL     1       4.415   7.664 -12.165  1.00  0.00     0.174 C 
ATOM     11  O   UNL     1       4.267   8.915 -12.160  1.00  0.00    -0.294 OA
ENDROOT
BRANCH   2  12
ATOM     12  C   UNL     1       4.682   4.774  -9.676  1.00  0.00    -0.007 A 
ATOM     13  C   UNL     1       5.849   4.003  -9.803  1.00  0.00     0.011 A 
ATOM     14  C   UNL     1       3.977   4.754  -8.459  1.00  0.00     0.011 A 
ATOM     15  C   UNL     1       6.318   3.246  -8.723  1.00  0.00     0.046 A 
ATOM     16  C   UNL     1       4.448   3.997  -7.382  1.00  0.00     0.046 A 
ATOM     17  C   UNL     1       5.621   3.243  -7.512  1.00  0.00     0.115 A 
BRANCH  17  18
ATOM     18  O   UNL     1       6.100   2.484  -6.446  1.00  0.00    -0.508 OA
ATOM     19  H   UNL     1       5.980   1.478  -6.416  1.00  0.00     0.293 HD
ENDBRANCH  17  18
ENDBRANCH   2  12
BRANCH   8  20
ATOM     20  O   UNL     1       4.111   8.874 -14.813  1.00  0.00    -0.507 OA
ATOM     21  H   UNL     1       4.849   9.466 -14.450  1.00  0.00     0.293 HD
ENDBRANCH   8  20
BRANCH   6  22
ATOM     22  O   UNL     1       4.084   4.512 -16.887  1.00  0.00    -0.508 OA
ATOM     23  H   UNL     1       4.772   3.793 -17.079  1.00  0.00     0.293 HD
ENDBRANCH   6  22
TORSDOF 4
ENDMDL
MODEL 5
REMARK VINA RESULT:    -5.831     11.440     13.102
REMARK INTER + INTRA:          -6.977
REMARK INTER:                  -6.673
REMARK INTRA:                  -0.304
REMARK UNBOUND:                -0.294
REMARK SMILES O=C1C[C@H](c2ccc(O)cc2)Oc2cc(O)cc(O)c21
REMARK SMILES IDX 3 1 4 2 12 3 13 4 14 5 15 6 17 7 18 8 20 9 2 10 1 11 5 12
REMARK SMILES IDX 6 13 11 14 7 15 10 16 8 17 9 18 19 20 16 22
REMARK H PARENT 9 19 19 21 16 23
REMARK Flexibility Score: inf
ROOT
ATOM      1  C   UNL     1      16.451  -1.147 -14.576  1.00  0.00     0.131 C 
ATOM      2  C   UNL     1      17.820  -1.842 -14.501  1.00  0.00     0.211 C 
ATOM      3  O   UNL     1      17.840  -2.801 -13.440  1.00  0.00    -0.484 OA
ATOM      4  C   UNL     1      17.285  -2.531 -12.184  1.00  0.00     0.138 A 
ATOM      5  C   UNL     1      17.604  -3.353 -11.100  1.00  0.00     0.093 A 
ATOM      6  C   UNL     1      17.078  -3.083  -9.832  1.00  0.00     0.123 A 
ATOM      7  C   UNL     1      16.225  -1.990  -9.652  1.00  0.00     0.093 A 
ATOM      8  C   UNL     1      15.881  -1.168 -10.735  1.00  0.00     0.133 A 
ATOM      9  C   UNL     1      16.408  -1.441 -12.015  1.00  0.00     0.102 A 
ATOM     10  C   UNL     1      16.052  -0.647 -13.217  1.00  0.00     0.174 C 
ATOM     11  O   UNL     1      15.374   0.410 -13.122  1.00  0.00    -0.294 OA
ENDROOT
BRANCH   2  12
ATOM     12  C   UNL     1      18.150  -2.513 -15.812  1.00  0.00    -0.007 A 
ATOM     13  C   UNL     1      18.009  -3.904 -15.949  1.00  0.00     0.011 A 
ATOM     14  C   UNL     1      18.655  -1.766 -16.891  1.00  0.00     0.011 A 
ATOM     15  C   UNL     1      18.343  -4.534 -17.153  1.00  0.00     0.046 A 
ATOM     16  C   UNL     1      18.989  -2.398 -18.093  1.00  0.00     0.046 A 
ATOM     17  C   UNL     1      18.831  -3.784 -18.227  1.00  0.00     0.115 A 
BRANCH  17  18
ATOM     18  O   UNL     1      19.159  -4.425 -19.420  1.00  0.00    -0.508 OA
ATOM     19  H   UNL     1      19.963  -4.140 -19.969  1.00  0.00     0.293 HD
ENDBRANCH  17  18
ENDBRANCH   2  12
BRANCH   8  20
ATOM     20  O   UNL     1      15.014  -0.093 -10.536  1.00  0.00    -0.507 OA
ATOM     21  H   UNL     1      14.029  -0.232 -10.345  1.00  0.00     0.293 HD
ENDBRANCH   8  20
BRANCH   6  22
ATOM     22  O   UNL     1      17.398  -3.891  -8.744  1.00  0.00    -0.508 OA
ATOM     23  H   UNL     1      18.011  -3.566  -8.005  1.00  0.00     0.293 HD
ENDBRANCH   6  22
TORSDOF 4
ENDMDL
MODEL 6
REMARK VINA RESULT:    -5.762      1.969      6.717
REMARK INTER + INTRA:          -6.898
REMARK INTER:                  -6.614
REMARK INTRA:                  -0.283
REMARK UNBOUND:                -0.294
REMARK SMILES O=C1C[C@H](c2ccc(O)cc2)Oc2cc(O)cc(O)c21
REMARK SMILES IDX 3 1 4 2 12 3 13 4 14 5 15 6 17 7 18 8 20 9 2 10 1 11 5 12
REMARK SMILES IDX 6 13 11 14 7 15 10 16 8 17 9 18 19 20 16 22
REMARK H PARENT 9 19 19 21 16 23
REMARK Flexibility Score: inf
ROOT
ATOM      1  C   UNL     1       7.064   4.395 -16.878  1.00  0.00     0.131 C 
ATOM      2  C   UNL     1       8.183   3.344 -16.789  1.00  0.00     0.211 C 
ATOM      3  O   UNL     1       7.645   2.066 -16.437  1.00  0.00    -0.484 OA
ATOM      4  C   UNL     1       6.665   1.919 -15.448  1.00  0.00     0.138 A 
ATOM      5  C   UNL     1       6.406   0.652 -14.921  1.00  0.00     0.093 A 
ATOM      6  C   UNL     1       5.447   0.490 -13.914  1.00  0.00     0.123 A 
ATOM      7  C   UNL     1       4.741   1.601 -13.442  1.00  0.00     0.093 A 
ATOM      8  C   UNL     1       4.978   2.876 -13.977  1.00  0.00     0.133 A 
ATOM      9  C   UNL     1       5.942   3.040 -14.994  1.00  0.00     0.102 A 
ATOM     10  C   UNL     1       6.212   4.347 -15.642  1.00  0.00     0.174 C 
ATOM     11  O   UNL     1       5.696   5.410 -15.206  1.00  0.00    -0.294 OA
ENDROOT
BRANCH   2  12
ATOM     12  C   UNL     1       8.931   3.249 -18.096  1.00  0.00    -0.007 A 
ATOM     13  C   UNL     1       8.237   2.995 -19.291  1.00  0.00     0.011 A 
ATOM     14  C   UNL     1      10.333   3.356 -18.128  1.00  0.00     0.011 A 
ATOM     15  C   UNL     1       8.931   2.875 -20.500  1.00  0.00     0.046 A 
ATOM     16  C   UNL     1      11.024   3.236 -19.338  1.00  0.00     0.046 A 
ATOM     17  C   UNL     1      10.323   2.997 -20.527  1.00  0.00     0.115 A 
BRANCH  17  18
ATOM     18  O   UNL     1      11.000   2.876 -21.739  1.00  0.00    -0.508 OA
ATOM     19  H   UNL     1      10.550   2.484 -22.559  1.00  0.00     0.293 HD
ENDBRANCH  17  18
ENDBRANCH   2  12
BRANCH   8  20
ATOM     20  O   UNL     1       4.250   3.968 -13.503  1.00  0.00    -0.507 OA
ATOM     21  H   UNL     1       3.557   4.435 -14.076  1.00  0.00     0.293 HD
ENDBRANCH   8  20
BRANCH   6  22
ATOM     22  O   UNL     1       5.188  -0.767 -13.375  1.00  0.00    -0.508 OA
ATOM     23  H   UNL     1       4.253  -1.042 -13.097  1.00  0.00     0.293 HD
ENDBRANCH   6  22
TORSDOF 4
ENDMDL
MODEL 7
REMARK VINA RESULT:    -5.754     10.594     12.851
REMARK INTER + INTRA:          -6.889
REMARK INTER:                  -6.580
REMARK INTRA:                  -0.309
REMARK UNBOUND:                -0.294
REMARK SMILES O=C1C[C@H](c2ccc(O)cc2)Oc2cc(O)cc(O)c21
REMARK SMILES IDX 3 1 4 2 12 3 13 4 14 5 15 6 17 7 18 8 20 9 2 10 1 11 5 12
REMARK SMILES IDX 6 13 11 14 7 15 10 16 8 17 9 18 19 20 16 22
REMARK H PARENT 9 19 19 21 16 23
REMARK Flexibility Score: inf
ROOT
ATOM      1  C   UNL     1      16.957  -0.880 -15.360  1.00  0.00     0.131 C 
ATOM      2  C   UNL     1      17.962  -2.034 -15.503  1.00  0.00     0.211 C 
ATOM      3  O   UNL     1      17.310  -3.294 -15.321  1.00  0.00    -0.484 OA
ATOM      4  C   UNL     1      16.364  -3.502 -14.310  1.00  0.00     0.138 A 
ATOM      5  C   UNL     1      15.997  -4.806 -13.970  1.00  0.00     0.093 A 
ATOM      6  C   UNL     1      15.073  -5.034 -12.944  1.00  0.00     0.123 A 
ATOM      7  C   UNL     1      14.509  -3.950 -12.264  1.00  0.00     0.093 A 
ATOM      8  C   UNL     1      14.854  -2.635 -12.608  1.00  0.00     0.133 A 
ATOM      9  C   UNL     1      15.785  -2.404 -13.644  1.00  0.00     0.102 A 
ATOM     10  C   UNL     1      16.161  -1.043 -14.097  1.00  0.00     0.174 C 
ATOM     11  O   UNL     1      15.779  -0.018 -13.471  1.00  0.00    -0.294 OA
ENDROOT
BRANCH   2  12
ATOM     12  C   UNL     1      18.637  -1.991 -16.852  1.00  0.00    -0.007 A 
ATOM     13  C   UNL     1      18.538  -3.086 -17.728  1.00  0.00     0.011 A 
ATOM     14  C   UNL     1      19.418  -0.883 -17.227  1.00  0.00     0.011 A 
ATOM     15  C   UNL     1      19.188  -3.061 -18.966  1.00  0.00     0.046 A 
ATOM     16  C   UNL     1      20.067  -0.862 -18.465  1.00  0.00     0.046 A 
ATOM     17  C   UNL     1      19.950  -1.951 -19.339  1.00  0.00     0.115 A 
BRANCH  17  18
ATOM     18  O   UNL     1      20.592  -1.941 -20.576  1.00  0.00    -0.508 OA
ATOM     19  H   UNL     1      20.461  -1.180 -21.233  1.00  0.00     0.293 HD
ENDBRANCH  17  18
ENDBRANCH   2  12
BRANCH   8  20
ATOM     20  O   UNL     1      14.267  -1.568 -11.927  1.00  0.00    -0.507 OA
ATOM     21  H   UNL     1      13.273  -1.382 -11.985  1.00  0.00     0.293 HD
ENDBRANCH   8  20
BRANCH   6  22
ATOM     22  O   UNL     1      14.708  -6.331 -12.591  1.00  0.00    -0.508 OA
ATOM     23  H   UNL     1      14.273  -6.533 -11.699  1.00  0.00     0.293 HD
ENDBRANCH   6  22
TORSDOF 4
ENDMDL
MODEL 8
REMARK VINA RESULT:    -5.726     11.466     13.493
REMARK INTER + INTRA:          -6.857
REMARK INTER:                  -6.576
REMARK INTRA:                  -0.281
REMARK UNBOUND:                -0.294
REMARK SMILES O=C1C[C@H](c2ccc(O)cc2)Oc2cc(O)cc(O)c21
REMARK SMILES IDX 3 1 4 2 12 3 13 4 14 5 15 6 17 7 18 8 20 9 2 10 1 11 5 12
REMARK SMILES IDX 6 13 11 14 7 15 10 16 8 17 9 18 19 20 16 22
REMARK H PARENT 9 19 19 21 16 23
REMARK Flexibility Score: inf
ROOT
ATOM      1  C   UNL     1      18.534  -2.517 -13.140  1.00  0.00     0.131 C 
ATOM      2  C   UNL     1      17.916  -3.290 -14.316  1.00  0.00     0.211 C 
ATOM      3  O   UNL     1      16.508  -3.454 -14.126  1.00  0.00    -0.484 OA
ATOM      4  C   UNL     1      15.961  -3.800 -12.885  1.00  0.00     0.138 A 
ATOM      5  C   UNL     1      14.642  -4.256 -12.818  1.00  0.00     0.093 A 
ATOM      6  C   UNL     1      14.087  -4.631 -11.589  1.00  0.00     0.123 A 
ATOM      7  C   UNL     1      14.855  -4.540 -10.424  1.00  0.00     0.093 A 
ATOM      8  C   UNL     1      16.174  -4.066 -10.474  1.00  0.00     0.133 A 
ATOM      9  C   UNL     1      16.733  -3.686 -11.712  1.00  0.00     0.102 A 
ATOM     10  C   UNL     1      18.103  -3.129 -11.837  1.00  0.00     0.174 C 
ATOM     11  O   UNL     1      18.892  -3.111 -10.855  1.00  0.00    -0.294 OA
ENDROOT
BRANCH   2  12
ATOM     12  C   UNL     1      18.183  -2.580 -15.621  1.00  0.00    -0.007 A 
ATOM     13  C   UNL     1      18.354  -3.318 -16.805  1.00  0.00     0.011 A 
ATOM     14  C   UNL     1      18.321  -1.181 -15.659  1.00  0.00     0.011 A 
ATOM     15  C   UNL     1      18.632  -2.665 -18.010  1.00  0.00     0.046 A 
ATOM     16  C   UNL     1      18.599  -0.532 -16.866  1.00  0.00     0.046 A 
ATOM     17  C   UNL     1      18.753  -1.273 -18.045  1.00  0.00     0.115 A 
BRANCH  17  18
ATOM     18  O   UNL     1      19.030  -0.637 -19.253  1.00  0.00    -0.508 OA
ATOM     19  H   UNL     1      18.629  -0.962 -20.126  1.00  0.00     0.293 HD
ENDBRANCH  17  18
ENDBRANCH   2  12
BRANCH   8  20
ATOM     20  O   UNL     1      16.916  -3.968  -9.297  1.00  0.00    -0.507 OA
ATOM     21  H   UNL     1      17.252  -4.791  -8.809  1.00  0.00     0.293 HD
ENDBRANCH   8  20
BRANCH   6  22
ATOM     22  O   UNL     1      12.777  -5.095 -11.514  1.00  0.00    -0.508 OA
ATOM     23  H   UNL     1      12.560  -6.083 -11.591  1.00  0.00     0.293 HD
ENDBRANCH   6  22
TORSDOF 4
ENDMDL
MODEL 9
REMARK VINA RESULT:    -5.720     11.952     12.830
REMARK INTER + INTRA:          -6.850
REMARK INTER:                  -6.565
REMARK INTRA:                  -0.285
REMARK UNBOUND:                -0.294
REMARK SMILES O=C1C[C@H](c2ccc(O)cc2)Oc2cc(O)cc(O)c21
REMARK SMILES IDX 3 1 4 2 12 3 13 4 14 5 15 6 17 7 18 8 20 9 2 10 1 11 5 12
REMARK SMILES IDX 6 13 11 14 7 15 10 16 8 17 9 18 19 20 16 22
REMARK H PARENT 9 19 19 21 16 23
REMARK Flexibility Score: inf
ROOT
ATOM      1  C   UNL     1      11.502  -7.205 -11.162  1.00  0.00     0.131 C 
ATOM      2  C   UNL     1      11.759  -6.528  -9.806  1.00  0.00     0.211 C 
ATOM      3  O   UNL     1      12.593  -5.378  -9.968  1.00  0.00    -0.484 OA
ATOM      4  C   UNL     1      13.714  -5.384 -10.806  1.00  0.00     0.138 A 
ATOM      5  C   UNL     1      14.664  -4.367 -10.691  1.00  0.00     0.093 A 
ATOM      6  C   UNL     1      15.804  -4.372 -11.503  1.00  0.00     0.123 A 
ATOM      7  C   UNL     1      15.986  -5.395 -12.439  1.00  0.00     0.093 A 
ATOM      8  C   UNL     1      15.030  -6.412 -12.578  1.00  0.00     0.133 A 
ATOM      9  C   UNL     1      13.879  -6.406 -11.762  1.00  0.00     0.102 A 
ATOM     10  C   UNL     1      12.801  -7.418 -11.886  1.00  0.00     0.174 C 
ATOM     11  O   UNL     1      12.936  -8.426 -12.629  1.00  0.00    -0.294 OA
ENDROOT
BRANCH   2  12
ATOM     12  C   UNL     1      10.457  -6.136  -9.150  1.00  0.00    -0.007 A 
ATOM     13  C   UNL     1       9.395  -5.643  -9.927  1.00  0.00     0.011 A 
ATOM     14  C   UNL     1      10.310  -6.204  -7.754  1.00  0.00     0.011 A 
ATOM     15  C   UNL     1       8.198  -5.250  -9.319  1.00  0.00     0.046 A 
ATOM     16  C   UNL     1       9.113  -5.810  -7.149  1.00  0.00     0.046 A 
ATOM     17  C   UNL     1       8.053  -5.334  -7.931  1.00  0.00     0.115 A 
BRANCH  17  18
ATOM     18  O   UNL     1       6.854  -4.939  -7.340  1.00  0.00    -0.508 OA
ATOM     19  H   UNL     1       6.255  -5.604  -6.864  1.00  0.00     0.293 HD
ENDBRANCH  17  18
ENDBRANCH   2  12
BRANCH   8  20
ATOM     20  O   UNL     1      15.223  -7.414 -13.530  1.00  0.00    -0.507 OA
ATOM     21  H   UNL     1      15.976  -8.087 -13.449  1.00  0.00     0.293 HD
ENDBRANCH   8  20
BRANCH   6  22
ATOM     22  O   UNL     1      16.762  -3.368 -11.389  1.00  0.00    -0.508 OA
ATOM     23  H   UNL     1      16.521  -2.391 -11.506  1.00  0.00     0.293 HD
ENDBRANCH   6  22
TORSDOF 4
ENDMDL
