MODEL 1
REMARK VINA RESULT:    -4.570      0.000      0.000
REMARK INTER + INTRA:          -6.578
REMARK INTER:                  -6.440
REMARK INTRA:                  -0.138
REMARK UNBOUND:                -0.138
REMARK SMILES CC1=CCC(=C(C)C)C(=O)CC(C)=CCC1
REMARK SMILES IDX 12 1 14 2 13 3 15 4 16 5 2 6 1 7 3 8 11 10 9 11 10 12 5 13
REMARK SMILES IDX 6 14 7 15 8 16 4 17
REMARK H PARENT
REMARK Flexibility Score: 60.00
ROOT
ATOM      1  C   UNL     1      21.728  28.459 -16.306  1.00  0.00    -0.070 C 
ATOM      2  C   UNL     1      22.779  28.854 -15.550  1.00  0.00    -0.027 C 
ATOM      3  C   UNL     1      21.758  28.825 -17.770  1.00  0.00     0.039 C 
ENDROOT
BRANCH   2   4
ATOM      4  C   UNL     1      22.986  28.566 -14.085  1.00  0.00     0.032 C 
BRANCH   4   5
ATOM      5  C   UNL     1      22.161  29.447 -13.117  1.00  0.00     0.034 C 
BRANCH   5   6
ATOM      6  C   UNL     1      21.478  28.708 -11.976  1.00  0.00    -0.077 C 
ATOM      7  C   UNL     1      22.351  28.181 -10.862  1.00  0.00     0.039 C 
ATOM      8  C   UNL     1      20.146  28.431 -11.904  1.00  0.00    -0.023 CG0
ATOM      9  G   UNL     1      18.998  28.932 -12.769  1.00  0.00     0.000 G0
ENDBRANCH   5   6
ENDBRANCH   4   5
ENDBRANCH   2   4
BRANCH   1  10
ATOM     10  C   UNL     1      20.548  27.635 -15.801  1.00  0.00     0.111 C 
BRANCH  10  11
ATOM     11  C   UNL     1      19.354  28.405 -15.290  1.00  0.00     0.163 C 
ATOM     12  O   UNL     1      18.937  29.344 -16.022  1.00  0.00    -0.294 OA
BRANCH  11  13
ATOM     13  C   UNL     1      18.650  28.099 -13.989  1.00  0.00    -0.002 C 
ATOM     14  C   UNL     1      17.757  27.066 -13.872  1.00  0.00    -0.069 C 
ATOM     15  C   UNL     1      17.293  26.261 -15.065  1.00  0.00     0.039 C 
ATOM     16  C   UNL     1      17.153  26.694 -12.534  1.00  0.00     0.039 C 
BRANCH  13  17
ATOM     17  C   UNL     1      19.003  28.934 -12.769  1.00  0.00     0.066 CG0
ATOM     18  G   UNL     1      20.140  28.425 -11.895  1.00  0.00     0.000 G0
ENDBRANCH  13  17
ENDBRANCH  11  13
ENDBRANCH  10  11
ENDBRANCH   1  10
TORSDOF 0
ENDMDL
MODEL 2
REMARK VINA RESULT:    -4.563      1.439      3.826
REMARK INTER + INTRA:          -6.569
REMARK INTER:                  -6.460
REMARK INTRA:                  -0.109
REMARK UNBOUND:                -0.138
REMARK SMILES CC1=CCC(=C(C)C)C(=O)CC(C)=CCC1
REMARK SMILES IDX 12 1 14 2 13 3 15 4 16 5 2 6 1 7 3 8 11 10 9 11 10 12 5 13
REMARK SMILES IDX 6 14 7 15 8 16 4 17
REMARK H PARENT
REMARK Flexibility Score: 60.00
ROOT
ATOM      1  C   UNL     1      21.980  28.842 -16.106  1.00  0.00    -0.070 C 
ATOM      2  C   UNL     1      20.767  28.821 -16.707  1.00  0.00    -0.027 C 
ATOM      3  C   UNL     1      23.074  29.621 -16.795  1.00  0.00     0.039 C 
ENDROOT
BRANCH   2   4
ATOM      4  C   UNL     1      19.521  28.150 -16.186  1.00  0.00     0.032 C 
BRANCH   4   5
ATOM      5  C   UNL     1      18.827  28.873 -15.007  1.00  0.00     0.034 C 
BRANCH   5   6
ATOM      6  C   UNL     1      18.618  28.034 -13.754  1.00  0.00    -0.077 C 
ATOM      7  C   UNL     1      17.672  26.862 -13.847  1.00  0.00     0.039 C 
ATOM      8  C   UNL     1      19.172  28.290 -12.536  1.00  0.00    -0.023 CG0
ATOM      9  G   UNL     1      20.256  29.285 -12.147  1.00  0.00     0.000 G0
ENDBRANCH   5   6
ENDBRANCH   4   5
ENDBRANCH   2   4
BRANCH   1  10
ATOM     10  C   UNL     1      22.305  28.183 -14.770  1.00  0.00     0.111 C 
BRANCH  10  11
ATOM     11  C   UNL     1      22.415  29.097 -13.573  1.00  0.00     0.163 C 
ATOM     12  O   UNL     1      23.142  30.119 -13.713  1.00  0.00    -0.294 OA
BRANCH  11  13
ATOM     13  C   UNL     1      21.705  28.855 -12.263  1.00  0.00    -0.002 C 
ATOM     14  C   UNL     1      22.342  28.305 -11.181  1.00  0.00    -0.069 C 
ATOM     15  C   UNL     1      23.749  27.758 -11.266  1.00  0.00     0.039 C 
ATOM     16  C   UNL     1      21.652  28.182  -9.839  1.00  0.00     0.039 C 
BRANCH  13  17
ATOM     17  C   UNL     1      20.256  29.298 -12.141  1.00  0.00     0.066 CG0
ATOM     18  G   UNL     1      19.193  28.287 -12.546  1.00  0.00     0.000 G0
ENDBRANCH  13  17
ENDBRANCH  11  13
ENDBRANCH  10  11
ENDBRANCH   1  10
TORSDOF 0
ENDMDL
MODEL 3
REMARK VINA RESULT:    -4.217      1.943      4.819
REMARK INTER + INTRA:          -6.080
REMARK INTER:                  -6.854
REMARK INTRA:                   0.774
REMARK UNBOUND:                -0.138
REMARK SMILES CC1=CCC(=C(C)C)C(=O)CC(C)=CCC1
REMARK SMILES IDX 12 1 14 2 13 3 15 4 16 5 2 6 1 7 3 8 11 10 9 11 10 12 5 13
REMARK SMILES IDX 6 14 7 15 8 16 4 17
REMARK H PARENT
REMARK Flexibility Score: 60.00
ROOT
ATOM      1  C   UNL     1      22.640  29.204 -12.184  1.00  0.00    -0.070 C 
ATOM      2  C   UNL     1      21.436  29.694 -11.809  1.00  0.00    -0.027 C 
ATOM      3  C   UNL     1      23.778  29.351 -11.203  1.00  0.00     0.039 C 
ENDROOT
BRANCH   2   4
ATOM      4  C   UNL     1      20.154  29.623 -12.600  1.00  0.00     0.032 C 
BRANCH   4   5
ATOM      5  C   UNL     1      19.700  28.197 -12.992  1.00  0.00     0.034 C 
BRANCH   5   6
ATOM      6  C   UNL     1      19.029  28.071 -14.353  1.00  0.00    -0.077 C 
ATOM      7  C   UNL     1      17.543  28.327 -14.426  1.00  0.00     0.039 C 
ATOM      8  C   UNL     1      19.651  27.690 -15.503  1.00  0.00    -0.023 CG0
ATOM      9  G   UNL     1      21.133  27.503 -15.794  1.00  0.00     0.000 G0
ENDBRANCH   5   6
ENDBRANCH   4   5
ENDBRANCH   2   4
BRANCH   1  10
ATOM     10  C   UNL     1      22.918  28.476 -13.495  1.00  0.00     0.111 C 
BRANCH  10  11
ATOM     11  C   UNL     1      22.713  29.266 -14.766  1.00  0.00     0.163 C 
ATOM     12  O   UNL     1      23.191  30.433 -14.783  1.00  0.00    -0.294 OA
BRANCH  11  13
ATOM     13  C   UNL     1      21.997  28.730 -15.982  1.00  0.00    -0.002 C 
ATOM     14  C   UNL     1      22.144  29.299 -17.221  1.00  0.00    -0.069 C 
ATOM     15  C   UNL     1      22.902  30.589 -17.431  1.00  0.00     0.039 C 
ATOM     16  C   UNL     1      21.518  28.678 -18.452  1.00  0.00     0.039 C 
BRANCH  13  17
ATOM     17  C   UNL     1      21.140  27.485 -15.819  1.00  0.00     0.066 CG0
ATOM     18  G   UNL     1      19.667  27.702 -15.507  1.00  0.00     0.000 G0
ENDBRANCH  13  17
ENDBRANCH  11  13
ENDBRANCH  10  11
ENDBRANCH   1  10
TORSDOF 0
ENDMDL
MODEL 4
REMARK VINA RESULT:    -4.164      1.912      4.599
REMARK INTER + INTRA:          -6.006
REMARK INTER:                  -6.606
REMARK INTRA:                   0.599
REMARK UNBOUND:                -0.138
REMARK SMILES CC1=CCC(=C(C)C)C(=O)CC(C)=CCC1
REMARK SMILES IDX 12 1 14 2 13 3 15 4 16 5 2 6 1 7 3 8 11 10 9 11 10 12 5 13
REMARK SMILES IDX 6 14 7 15 8 16 4 17
REMARK H PARENT
REMARK Flexibility Score: 60.00
ROOT
ATOM      1  C   UNL     1      17.739  27.182 -13.661  1.00  0.00    -0.070 C 
ATOM      2  C   UNL     1      18.112  27.621 -14.886  1.00  0.00    -0.027 C 
ATOM      3  C   UNL     1      17.088  25.822 -13.586  1.00  0.00     0.039 C 
ENDROOT
BRANCH   2   4
ATOM      4  C   UNL     1      18.815  28.918 -15.197  1.00  0.00     0.032 C 
BRANCH   4   5
ATOM      5  C   UNL     1      20.100  28.784 -16.048  1.00  0.00     0.034 C 
BRANCH   5   6
ATOM      6  C   UNL     1      21.325  28.262 -15.310  1.00  0.00    -0.077 C 
ATOM      7  C   UNL     1      22.334  27.469 -16.105  1.00  0.00     0.039 C 
ATOM      8  C   UNL     1      21.558  28.402 -13.975  1.00  0.00    -0.023 CG0
ATOM      9  G   UNL     1      20.828  29.247 -12.942  1.00  0.00     0.000 G0
ENDBRANCH   5   6
ENDBRANCH   4   5
ENDBRANCH   2   4
BRANCH   1  10
ATOM     10  C   UNL     1      17.971  27.935 -12.355  1.00  0.00     0.111 C 
BRANCH  10  11
ATOM     11  C   UNL     1      19.254  27.632 -11.617  1.00  0.00     0.163 C 
ATOM     12  O   UNL     1      19.292  26.542 -10.982  1.00  0.00    -0.294 OA
BRANCH  11  13
ATOM     13  C   UNL     1      20.459  28.541 -11.619  1.00  0.00    -0.002 C 
ATOM     14  C   UNL     1      21.243  28.711 -10.507  1.00  0.00    -0.069 C 
ATOM     15  C   UNL     1      20.872  28.130  -9.162  1.00  0.00     0.039 C 
ATOM     16  C   UNL     1      22.517  29.528 -10.558  1.00  0.00     0.039 C 
BRANCH  13  17
ATOM     17  C   UNL     1      20.834  29.232 -12.919  1.00  0.00     0.066 CG0
ATOM     18  G   UNL     1      21.542  28.385 -13.967  1.00  0.00     0.000 G0
ENDBRANCH  13  17
ENDBRANCH  11  13
ENDBRANCH  10  11
ENDBRANCH   1  10
TORSDOF 0
ENDMDL
MODEL 5
REMARK VINA RESULT:    -4.113      1.737      3.624
REMARK INTER + INTRA:          -5.934
REMARK INTER:                  -5.859
REMARK INTRA:                  -0.075
REMARK UNBOUND:                -0.138
REMARK SMILES CC1=CCC(=C(C)C)C(=O)CC(C)=CCC1
REMARK SMILES IDX 12 1 14 2 13 3 15 4 16 5 2 6 1 7 3 8 11 10 9 11 10 12 5 13
REMARK SMILES IDX 6 14 7 15 8 16 4 17
REMARK H PARENT
REMARK Flexibility Score: 60.00
ROOT
ATOM      1  C   UNL     1      22.877  30.128 -13.402  1.00  0.00    -0.070 C 
ATOM      2  C   UNL     1      23.052  29.931 -14.729  1.00  0.00    -0.027 C 
ATOM      3  C   UNL     1      23.457  31.391 -12.812  1.00  0.00     0.039 C 
ENDROOT
BRANCH   2   4
ATOM      4  C   UNL     1      22.527  28.773 -15.539  1.00  0.00     0.032 C 
BRANCH   4   5
ATOM      5  C   UNL     1      21.125  28.983 -16.159  1.00  0.00     0.034 C 
BRANCH   5   6
ATOM      6  C   UNL     1      20.122  27.865 -15.911  1.00  0.00    -0.077 C 
ATOM      7  C   UNL     1      20.231  26.627 -16.768  1.00  0.00     0.039 C 
ATOM      8  C   UNL     1      19.095  27.914 -15.018  1.00  0.00    -0.023 CG0
ATOM      9  G   UNL     1      18.799  28.933 -13.927  1.00  0.00     0.000 G0
ENDBRANCH   5   6
ENDBRANCH   4   5
ENDBRANCH   2   4
BRANCH   1  10
ATOM     10  C   UNL     1      22.101  29.199 -12.474  1.00  0.00     0.111 C 
BRANCH  10  11
ATOM     11  C   UNL     1      20.658  29.557 -12.210  1.00  0.00     0.163 C 
ATOM     12  O   UNL     1      20.448  30.673 -11.660  1.00  0.00    -0.294 OA
BRANCH  11  13
ATOM     13  C   UNL     1      19.492  28.671 -12.578  1.00  0.00    -0.002 C 
ATOM     14  C   UNL     1      19.018  27.703 -11.730  1.00  0.00    -0.069 C 
ATOM     15  C   UNL     1      19.722  27.347 -10.440  1.00  0.00     0.039 C 
ATOM     16  C   UNL     1      17.774  26.907 -12.060  1.00  0.00     0.039 C 
BRANCH  13  17
ATOM     17  C   UNL     1      18.796  28.915 -13.907  1.00  0.00     0.066 CG0
ATOM     18  G   UNL     1      19.090  27.928 -15.027  1.00  0.00     0.000 G0
ENDBRANCH  13  17
ENDBRANCH  11  13
ENDBRANCH  10  11
ENDBRANCH   1  10
TORSDOF 0
ENDMDL
MODEL 6
REMARK VINA RESULT:    -4.096     11.822     13.868
REMARK INTER + INTRA:          -5.910
REMARK INTER:                  -5.655
REMARK INTRA:                  -0.255
REMARK UNBOUND:                -0.138
REMARK SMILES CC1=CCC(=C(C)C)C(=O)CC(C)=CCC1
REMARK SMILES IDX 12 1 14 2 13 3 15 4 16 5 2 6 1 7 3 8 11 10 9 11 10 12 5 13
REMARK SMILES IDX 6 14 7 15 8 16 4 17
REMARK H PARENT
REMARK Flexibility Score: 60.00
ROOT
ATOM      1  C   UNL     1      31.392  30.739 -11.639  1.00  0.00    -0.070 C 
ATOM      2  C   UNL     1      32.446  30.649 -12.482  1.00  0.00    -0.027 C 
ATOM      3  C   UNL     1      30.370  31.811 -11.929  1.00  0.00     0.039 C 
ENDROOT
BRANCH   2   4
ATOM      4  C   UNL     1      33.561  29.635 -12.417  1.00  0.00     0.032 C 
BRANCH   4   5
ATOM      5  C   UNL     1      34.486  29.751 -11.183  1.00  0.00     0.034 C 
BRANCH   5   6
ATOM      6  C   UNL     1      34.828  31.170 -10.749  1.00  0.00    -0.077 C 
ATOM      7  C   UNL     1      35.686  31.997 -11.675  1.00  0.00     0.039 C 
ATOM      8  C   UNL     1      34.470  31.736  -9.563  1.00  0.00    -0.023 CG0
ATOM      9  G   UNL     1      33.509  31.236  -8.494  1.00  0.00     0.000 G0
ENDBRANCH   5   6
ENDBRANCH   4   5
ENDBRANCH   2   4
BRANCH   1  10
ATOM     10  C   UNL     1      31.137  29.812 -10.455  1.00  0.00     0.111 C 
BRANCH  10  11
ATOM     11  C   UNL     1      31.123  30.450  -9.086  1.00  0.00     0.163 C 
ATOM     12  O   UNL     1      30.283  29.992  -8.263  1.00  0.00    -0.294 OA
BRANCH  11  13
ATOM     13  C   UNL     1      32.050  31.566  -8.669  1.00  0.00    -0.002 C 
ATOM     14  C   UNL     1      31.593  32.833  -8.411  1.00  0.00    -0.069 C 
ATOM     15  C   UNL     1      30.162  33.243  -8.675  1.00  0.00     0.039 C 
ATOM     16  C   UNL     1      32.514  33.909  -7.876  1.00  0.00     0.039 C 
BRANCH  13  17
ATOM     17  C   UNL     1      33.522  31.241  -8.476  1.00  0.00     0.066 CG0
ATOM     18  G   UNL     1      34.481  31.741  -9.546  1.00  0.00     0.000 G0
ENDBRANCH  13  17
ENDBRANCH  11  13
ENDBRANCH  10  11
ENDBRANCH   1  10
TORSDOF 0
ENDMDL
MODEL 7
REMARK VINA RESULT:    -4.085     15.741     18.424
REMARK INTER + INTRA:          -5.894
REMARK INTER:                  -5.612
REMARK INTRA:                  -0.282
REMARK UNBOUND:                -0.138
REMARK SMILES CC1=CCC(=C(C)C)C(=O)CC(C)=CCC1
REMARK SMILES IDX 12 1 14 2 13 3 15 4 16 5 2 6 1 7 3 8 11 10 9 11 10 12 5 13
REMARK SMILES IDX 6 14 7 15 8 16 4 17
REMARK H PARENT
REMARK Flexibility Score: 60.00
ROOT
ATOM      1  C   UNL     1      32.721  38.099 -24.241  1.00  0.00    -0.070 C 
ATOM      2  C   UNL     1      32.294  38.470 -23.011  1.00  0.00    -0.027 C 
ATOM      3  C   UNL     1      33.718  39.003 -24.923  1.00  0.00     0.039 C 
ENDROOT
BRANCH   2   4
ATOM      4  C   UNL     1      31.340  37.707 -22.127  1.00  0.00     0.032 C 
BRANCH   4   5
ATOM      5  C   UNL     1      31.998  36.931 -20.962  1.00  0.00     0.034 C 
BRANCH   5   6
ATOM      6  C   UNL     1      32.228  35.446 -21.208  1.00  0.00    -0.077 C 
ATOM      7  C   UNL     1      31.168  34.486 -20.724  1.00  0.00     0.039 C 
ATOM      8  C   UNL     1      33.341  34.907 -21.778  1.00  0.00    -0.023 CG0
ATOM      9  G   UNL     1      34.502  35.590 -22.487  1.00  0.00     0.000 G0
ENDBRANCH   5   6
ENDBRANCH   4   5
ENDBRANCH   2   4
BRANCH   1  10
ATOM     10  C   UNL     1      32.308  36.820 -24.961  1.00  0.00     0.111 C 
BRANCH  10  11
ATOM     11  C   UNL     1      33.143  35.591 -24.690  1.00  0.00     0.163 C 
ATOM     12  O   UNL     1      32.665  34.491 -25.081  1.00  0.00    -0.294 OA
BRANCH  11  13
ATOM     13  C   UNL     1      34.490  35.623 -24.009  1.00  0.00    -0.002 C 
ATOM     14  C   UNL     1      35.660  35.733 -24.716  1.00  0.00    -0.069 C 
ATOM     15  C   UNL     1      35.699  35.671 -26.225  1.00  0.00     0.039 C 
ATOM     16  C   UNL     1      36.992  35.888 -24.013  1.00  0.00     0.039 C 
BRANCH  13  17
ATOM     17  C   UNL     1      34.526  35.594 -22.490  1.00  0.00     0.066 CG0
ATOM     18  G   UNL     1      33.357  34.917 -21.789  1.00  0.00     0.000 G0
ENDBRANCH  13  17
ENDBRANCH  11  13
ENDBRANCH  10  11
ENDBRANCH   1  10
TORSDOF 0
ENDMDL
MODEL 8
REMARK VINA RESULT:    -4.015     16.216     19.051
REMARK INTER + INTRA:          -5.796
REMARK INTER:                  -5.881
REMARK INTRA:                   0.085
REMARK UNBOUND:                -0.138
REMARK SMILES CC1=CCC(=C(C)C)C(=O)CC(C)=CCC1
REMARK SMILES IDX 12 1 14 2 13 3 15 4 16 5 2 6 1 7 3 8 11 10 9 11 10 12 5 13
REMARK SMILES IDX 6 14 7 15 8 16 4 17
REMARK H PARENT
REMARK Flexibility Score: 60.00
ROOT
ATOM      1  C   UNL     1      31.926  36.036 -21.692  1.00  0.00    -0.070 C 
ATOM      2  C   UNL     1      31.278  37.211 -21.516  1.00  0.00    -0.027 C 
ATOM      3  C   UNL     1      31.138  34.773 -21.442  1.00  0.00     0.039 C 
ENDROOT
BRANCH   2   4
ATOM      4  C   UNL     1      31.844  38.589 -21.747  1.00  0.00     0.032 C 
BRANCH   4   5
ATOM      5  C   UNL     1      31.124  39.425 -22.832  1.00  0.00     0.034 C 
BRANCH   5   6
ATOM      6  C   UNL     1      31.075  38.799 -24.219  1.00  0.00    -0.077 C 
ATOM      7  C   UNL     1      29.719  38.622 -24.858  1.00  0.00     0.039 C 
ATOM      8  C   UNL     1      32.153  38.332 -24.908  1.00  0.00    -0.023 CG0
ATOM      9  G   UNL     1      33.639  38.484 -24.616  1.00  0.00     0.000 G0
ENDBRANCH   5   6
ENDBRANCH   4   5
ENDBRANCH   2   4
BRANCH   1  10
ATOM     10  C   UNL     1      33.368  35.895 -22.167  1.00  0.00     0.111 C 
BRANCH  10  11
ATOM     11  C   UNL     1      33.614  36.075 -23.647  1.00  0.00     0.163 C 
ATOM     12  O   UNL     1      33.108  35.206 -24.408  1.00  0.00    -0.294 OA
BRANCH  11  13
ATOM     13  C   UNL     1      34.402  37.220 -24.235  1.00  0.00    -0.002 C 
ATOM     14  C   UNL     1      35.750  37.131 -24.467  1.00  0.00    -0.069 C 
ATOM     15  C   UNL     1      36.571  35.947 -24.010  1.00  0.00     0.039 C 
ATOM     16  C   UNL     1      36.503  38.241 -25.170  1.00  0.00     0.039 C 
BRANCH  13  17
ATOM     17  C   UNL     1      33.649  38.480 -24.631  1.00  0.00     0.066 CG0
ATOM     18  G   UNL     1      32.161  38.330 -24.913  1.00  0.00     0.000 G0
ENDBRANCH  13  17
ENDBRANCH  11  13
ENDBRANCH  10  11
ENDBRANCH   1  10
TORSDOF 0
ENDMDL
MODEL 9
REMARK VINA RESULT:    -3.912      9.291     12.188
REMARK INTER + INTRA:          -5.651
REMARK INTER:                  -5.474
REMARK INTRA:                  -0.177
REMARK UNBOUND:                -0.138
REMARK SMILES CC1=CCC(=C(C)C)C(=O)CC(C)=CCC1
REMARK SMILES IDX 12 1 14 2 13 3 15 4 16 5 2 6 1 7 3 8 11 10 9 11 10 12 5 13
REMARK SMILES IDX 6 14 7 15 8 16 4 17
REMARK H PARENT
REMARK Flexibility Score: 60.00
ROOT
ATOM      1  C   UNL     1      21.220  23.493 -25.157  1.00  0.00    -0.070 C 
ATOM      2  C   UNL     1      20.081  22.878 -25.552  1.00  0.00    -0.027 C 
ATOM      3  C   UNL     1      21.989  22.856 -24.026  1.00  0.00     0.039 C 
ENDROOT
BRANCH   2   4
ATOM      4  C   UNL     1      19.178  23.304 -26.683  1.00  0.00     0.032 C 
BRANCH   4   5
ATOM      5  C   UNL     1      17.811  23.884 -26.251  1.00  0.00     0.034 C 
BRANCH   5   6
ATOM      6  C   UNL     1      17.671  25.395 -26.369  1.00  0.00    -0.077 C 
ATOM      7  C   UNL     1      16.926  25.937 -27.565  1.00  0.00     0.039 C 
ATOM      8  C   UNL     1      18.214  26.304 -25.512  1.00  0.00    -0.023 CG0
ATOM      9  G   UNL     1      18.884  26.092 -24.162  1.00  0.00     0.000 G0
ENDBRANCH   5   6
ENDBRANCH   4   5
ENDBRANCH   2   4
BRANCH   1  10
ATOM     10  C   UNL     1      21.805  24.746 -25.801  1.00  0.00     0.111 C 
BRANCH  10  11
ATOM     11  C   UNL     1      21.183  26.064 -25.404  1.00  0.00     0.163 C 
ATOM     12  O   UNL     1      21.334  27.020 -26.213  1.00  0.00    -0.294 OA
BRANCH  11  13
ATOM     13  C   UNL     1      20.402  26.276 -24.130  1.00  0.00    -0.002 C 
ATOM     14  C   UNL     1      21.004  26.679 -22.966  1.00  0.00    -0.069 C 
ATOM     15  C   UNL     1      22.506  26.788 -22.832  1.00  0.00     0.039 C 
ATOM     16  C   UNL     1      20.192  27.005 -21.731  1.00  0.00     0.039 C 
BRANCH  13  17
ATOM     17  C   UNL     1      18.894  26.090 -24.174  1.00  0.00     0.066 CG0
ATOM     18  G   UNL     1      18.213  26.319 -25.516  1.00  0.00     0.000 G0
ENDBRANCH  13  17
ENDBRANCH  11  13
ENDBRANCH  10  11
ENDBRANCH   1  10
TORSDOF 0
ENDMDL
