MODEL 1
REMARK VINA RESULT:    -3.334      0.000      0.000
REMARK INTER + INTRA:          -4.768
REMARK INTER:                  -4.503
REMARK INTRA:                  -0.264
REMARK UNBOUND:                -0.264
REMARK SMILES CCCCCCCC(=O)[O-]
REMARK SMILES IDX 5 1 6 2 7 3 8 4 9 5 10 6 4 7 3 8 2 9 1 10
REMARK H PARENT
REMARK Flexibility Score: inf
ROOT
ATOM      1  C   UNL     1     -96.318 149.081 237.229  1.00  0.00     0.000 C 
ENDROOT
BRANCH   1   2
ATOM      2  C   UNL     1     -96.043 149.607 238.646  1.00  0.00     0.006 C 
BRANCH   2   3
ATOM      3  C   UNL     1     -97.225 150.407 239.208  1.00  0.00     0.053 C 
BRANCH   3   4
ATOM      4  C   UNL     1     -97.839 149.732 240.396  1.00  0.00     0.041 C 
ATOM      5  O   UNL     1     -97.664 148.499 240.585  1.00  0.00    -0.550 OA
ATOM      6  O   UNL     1     -98.632 150.457 241.276  1.00  0.00    -0.550 OA
ENDBRANCH   3   4
ENDBRANCH   2   3
ENDBRANCH   1   2
BRANCH   1   7
ATOM      7  C   UNL     1     -95.045 149.121 236.369  1.00  0.00     0.000 C 
BRANCH   7   8
ATOM      8  C   UNL     1     -93.822 148.539 237.108  1.00  0.00    -0.000 C 
BRANCH   8   9
ATOM      9  C   UNL     1     -93.285 147.242 236.481  1.00  0.00    -0.003 C 
ATOM     10  C   UNL     1     -93.688 147.072 235.019  1.00  0.00     0.004 C 
ENDBRANCH   8   9
ENDBRANCH   7   8
ENDBRANCH   1   7
TORSDOF 6
ENDMDL
MODEL 2
REMARK VINA RESULT:    -3.296      1.376      1.901
REMARK INTER + INTRA:          -4.716
REMARK INTER:                  -4.313
REMARK INTRA:                  -0.403
REMARK UNBOUND:                -0.264
REMARK SMILES CCCCCCCC(=O)[O-]
REMARK SMILES IDX 5 1 6 2 7 3 8 4 9 5 10 6 4 7 3 8 2 9 1 10
REMARK H PARENT
REMARK Flexibility Score: inf
ROOT
ATOM      1  C   UNL     1     -95.055 147.869 238.830  1.00  0.00     0.000 C 
ENDROOT
BRANCH   1   2
ATOM      2  C   UNL     1     -96.477 148.422 239.009  1.00  0.00     0.006 C 
BRANCH   2   3
ATOM      3  C   UNL     1     -96.513 149.955 238.981  1.00  0.00     0.053 C 
BRANCH   3   4
ATOM      4  C   UNL     1     -97.851 150.488 239.392  1.00  0.00     0.041 C 
ATOM      5  O   UNL     1     -98.580 151.081 238.554  1.00  0.00    -0.550 OA
ATOM      6  O   UNL     1     -98.277 150.361 240.707  1.00  0.00    -0.550 OA
ENDBRANCH   3   4
ENDBRANCH   2   3
ENDBRANCH   1   2
BRANCH   1   7
ATOM      7  C   UNL     1     -94.266 148.697 237.805  1.00  0.00     0.000 C 
BRANCH   7   8
ATOM      8  C   UNL     1     -93.697 147.829 236.664  1.00  0.00    -0.000 C 
BRANCH   8   9
ATOM      9  C   UNL     1     -94.411 148.037 235.318  1.00  0.00    -0.003 C 
ATOM     10  C   UNL     1     -95.324 149.260 235.307  1.00  0.00     0.004 C 
ENDBRANCH   8   9
ENDBRANCH   7   8
ENDBRANCH   1   7
TORSDOF 6
ENDMDL
MODEL 3
REMARK VINA RESULT:    -3.243      0.956      1.654
REMARK INTER + INTRA:          -4.645
REMARK INTER:                  -4.370
REMARK INTRA:                  -0.275
REMARK UNBOUND:                -0.264
REMARK SMILES CCCCCCCC(=O)[O-]
REMARK SMILES IDX 5 1 6 2 7 3 8 4 9 5 10 6 4 7 3 8 2 9 1 10
REMARK H PARENT
REMARK Flexibility Score: inf
ROOT
ATOM      1  C   UNL     1     -96.401 149.074 238.228  1.00  0.00     0.000 C 
ENDROOT
BRANCH   1   2
ATOM      2  C   UNL     1     -96.696 150.298 239.108  1.00  0.00     0.006 C 
BRANCH   2   3
ATOM      3  C   UNL     1     -98.165 150.363 239.543  1.00  0.00     0.053 C 
BRANCH   3   4
ATOM      4  C   UNL     1     -98.344 149.933 240.967  1.00  0.00     0.041 C 
ATOM      5  O   UNL     1     -98.711 150.765 241.838  1.00  0.00    -0.550 OA
ATOM      6  O   UNL     1     -98.073 148.622 241.338  1.00  0.00    -0.550 OA
ENDBRANCH   3   4
ENDBRANCH   2   3
ENDBRANCH   1   2
BRANCH   1   7
ATOM      7  C   UNL     1     -95.011 148.496 238.534  1.00  0.00     0.000 C 
BRANCH   7   8
ATOM      8  C   UNL     1     -94.008 148.751 237.390  1.00  0.00    -0.000 C 
BRANCH   8   9
ATOM      9  C   UNL     1     -94.678 149.066 236.042  1.00  0.00    -0.003 C 
ATOM     10  C   UNL     1     -94.501 147.955 235.011  1.00  0.00     0.004 C 
ENDBRANCH   8   9
ENDBRANCH   7   8
ENDBRANCH   1   7
TORSDOF 6
ENDMDL
MODEL 4
REMARK VINA RESULT:    -3.199      3.360      5.641
REMARK INTER + INTRA:          -4.586
REMARK INTER:                  -4.335
REMARK INTRA:                  -0.251
REMARK UNBOUND:                -0.264
REMARK SMILES CCCCCCCC(=O)[O-]
REMARK SMILES IDX 5 1 6 2 7 3 8 4 9 5 10 6 4 7 3 8 2 9 1 10
REMARK H PARENT
REMARK Flexibility Score: inf
ROOT
ATOM      1  C   UNL     1     -96.391 148.541 239.187  1.00  0.00     0.000 C 
ENDROOT
BRANCH   1   2
ATOM      2  C   UNL     1     -95.032 147.966 238.761  1.00  0.00     0.006 C 
BRANCH   2   3
ATOM      3  C   UNL     1     -94.407 148.748 237.599  1.00  0.00     0.053 C 
BRANCH   3   4
ATOM      4  C   UNL     1     -93.797 147.837 236.578  1.00  0.00     0.041 C 
ATOM      5  O   UNL     1     -92.968 146.957 236.930  1.00  0.00    -0.550 OA
ATOM      6  O   UNL     1     -94.119 147.981 235.235  1.00  0.00    -0.550 OA
ENDBRANCH   3   4
ENDBRANCH   2   3
ENDBRANCH   1   2
BRANCH   1   7
ATOM      7  C   UNL     1     -96.431 150.064 238.990  1.00  0.00     0.000 C 
BRANCH   7   8
ATOM      8  C   UNL     1     -97.857 150.635 239.135  1.00  0.00    -0.000 C 
BRANCH   8   9
ATOM      9  C   UNL     1     -98.764 149.799 240.053  1.00  0.00    -0.003 C 
ATOM     10  C   UNL     1     -98.757 150.282 241.502  1.00  0.00     0.004 C 
ENDBRANCH   8   9
ENDBRANCH   7   8
ENDBRANCH   1   7
TORSDOF 6
ENDMDL
MODEL 5
REMARK VINA RESULT:    -3.175      2.989      5.516
REMARK INTER + INTRA:          -4.553
REMARK INTER:                  -4.218
REMARK INTRA:                  -0.335
REMARK UNBOUND:                -0.264
REMARK SMILES CCCCCCCC(=O)[O-]
REMARK SMILES IDX 5 1 6 2 7 3 8 4 9 5 10 6 4 7 3 8 2 9 1 10
REMARK H PARENT
REMARK Flexibility Score: inf
ROOT
ATOM      1  C   UNL     1     -95.394 147.886 238.940  1.00  0.00     0.000 C 
ENDROOT
BRANCH   1   2
ATOM      2  C   UNL     1     -94.554 148.898 238.147  1.00  0.00     0.006 C 
BRANCH   2   3
ATOM      3  C   UNL     1     -93.852 148.255 236.944  1.00  0.00     0.053 C 
BRANCH   3   4
ATOM      4  C   UNL     1     -94.601 148.493 235.669  1.00  0.00     0.041 C 
ATOM      5  O   UNL     1     -95.544 149.327 235.635  1.00  0.00    -0.550 OA
ATOM      6  O   UNL     1     -94.280 147.770 234.527  1.00  0.00    -0.550 OA
ENDBRANCH   3   4
ENDBRANCH   2   3
ENDBRANCH   1   2
BRANCH   1   7
ATOM      7  C   UNL     1     -96.753 148.485 239.333  1.00  0.00     0.000 C 
BRANCH   7   8
ATOM      8  C   UNL     1     -96.844 149.991 239.009  1.00  0.00    -0.000 C 
BRANCH   8   9
ATOM      9  C   UNL     1     -98.164 150.638 239.457  1.00  0.00    -0.003 C 
ATOM     10  C   UNL     1     -98.599 150.205 240.855  1.00  0.00     0.004 C 
ENDBRANCH   8   9
ENDBRANCH   7   8
ENDBRANCH   1   7
TORSDOF 6
ENDMDL
MODEL 6
REMARK VINA RESULT:    -3.157      2.776      4.550
REMARK INTER + INTRA:          -4.528
REMARK INTER:                  -3.901
REMARK INTRA:                  -0.628
REMARK UNBOUND:                -0.264
REMARK SMILES CCCCCCCC(=O)[O-]
REMARK SMILES IDX 5 1 6 2 7 3 8 4 9 5 10 6 4 7 3 8 2 9 1 10
REMARK H PARENT
REMARK Flexibility Score: inf
ROOT
ATOM      1  C   UNL     1     -94.215 148.769 237.537  1.00  0.00     0.000 C 
ENDROOT
BRANCH   1   2
ATOM      2  C   UNL     1     -94.476 148.313 236.094  1.00  0.00     0.006 C 
BRANCH   2   3
ATOM      3  C   UNL     1     -95.399 149.277 235.338  1.00  0.00     0.053 C 
BRANCH   3   4
ATOM      4  C   UNL     1     -96.835 148.859 235.429  1.00  0.00     0.041 C 
ATOM      5  O   UNL     1     -97.132 147.648 235.597  1.00  0.00    -0.550 OA
ATOM      6  O   UNL     1     -97.844 149.804 235.294  1.00  0.00    -0.550 OA
ENDBRANCH   3   4
ENDBRANCH   2   3
ENDBRANCH   1   2
BRANCH   1   7
ATOM      7  C   UNL     1     -94.930 147.854 238.543  1.00  0.00     0.000 C 
BRANCH   7   8
ATOM      8  C   UNL     1     -96.240 148.476 239.071  1.00  0.00    -0.000 C 
BRANCH   8   9
ATOM      9  C   UNL     1     -96.282 150.008 238.959  1.00  0.00    -0.003 C 
ATOM     10  C   UNL     1     -97.700 150.573 238.997  1.00  0.00     0.004 C 
ENDBRANCH   8   9
ENDBRANCH   7   8
ENDBRANCH   1   7
TORSDOF 6
ENDMDL
MODEL 7
REMARK VINA RESULT:    -3.083      2.142      3.434
REMARK INTER + INTRA:          -4.428
REMARK INTER:                  -4.164
REMARK INTRA:                  -0.265
REMARK UNBOUND:                -0.264
REMARK SMILES CCCCCCCC(=O)[O-]
REMARK SMILES IDX 5 1 6 2 7 3 8 4 9 5 10 6 4 7 3 8 2 9 1 10
REMARK H PARENT
REMARK Flexibility Score: inf
ROOT
ATOM      1  C   UNL     1     -97.850 148.717 240.179  1.00  0.00     0.000 C 
ENDROOT
BRANCH   1   2
ATOM      2  C   UNL     1     -98.349 149.069 241.588  1.00  0.00     0.006 C 
BRANCH   2   3
ATOM      3  C   UNL     1     -98.869 150.509 241.679  1.00  0.00     0.053 C 
BRANCH   3   4
ATOM      4  C   UNL     1     -99.165 150.907 243.092  1.00  0.00     0.041 C 
ATOM      5  O   UNL     1     -99.717 150.092 243.877  1.00  0.00    -0.550 OA
ATOM      6  O   UNL     1     -98.861 152.189 243.533  1.00  0.00    -0.550 OA
ENDBRANCH   3   4
ENDBRANCH   2   3
ENDBRANCH   1   2
BRANCH   1   7
ATOM      7  C   UNL     1     -97.585 149.986 239.355  1.00  0.00     0.000 C 
BRANCH   7   8
ATOM      8  C   UNL     1     -96.110 150.101 238.917  1.00  0.00    -0.000 C 
BRANCH   8   9
ATOM      9  C   UNL     1     -95.455 148.748 238.597  1.00  0.00    -0.003 C 
ATOM     10  C   UNL     1     -94.656 148.761 237.296  1.00  0.00     0.004 C 
ENDBRANCH   8   9
ENDBRANCH   7   8
ENDBRANCH   1   7
TORSDOF 6
ENDMDL
MODEL 8
REMARK VINA RESULT:    -3.048      3.846      5.596
REMARK INTER + INTRA:          -4.382
REMARK INTER:                  -4.021
REMARK INTRA:                  -0.361
REMARK UNBOUND:                -0.264
REMARK SMILES CCCCCCCC(=O)[O-]
REMARK SMILES IDX 5 1 6 2 7 3 8 4 9 5 10 6 4 7 3 8 2 9 1 10
REMARK H PARENT
REMARK Flexibility Score: inf
ROOT
ATOM      1  C   UNL     1     -94.168 148.761 236.938  1.00  0.00     0.000 C 
ENDROOT
BRANCH   1   2
ATOM      2  C   UNL     1     -94.641 148.419 235.517  1.00  0.00     0.006 C 
BRANCH   2   3
ATOM      3  C   UNL     1     -95.776 149.337 235.046  1.00  0.00     0.053 C 
BRANCH   3   4
ATOM      4  C   UNL     1     -95.661 149.660 233.587  1.00  0.00     0.041 C 
ATOM      5  O   UNL     1     -96.282 150.645 233.107  1.00  0.00    -0.550 OA
ATOM      6  O   UNL     1     -94.897 148.855 232.754  1.00  0.00    -0.550 OA
ENDBRANCH   3   4
ENDBRANCH   2   3
ENDBRANCH   1   2
BRANCH   1   7
ATOM      7  C   UNL     1     -94.682 147.730 237.954  1.00  0.00     0.000 C 
BRANCH   7   8
ATOM      8  C   UNL     1     -95.709 148.336 238.934  1.00  0.00    -0.000 C 
BRANCH   8   9
ATOM      9  C   UNL     1     -95.918 149.848 238.748  1.00  0.00    -0.003 C 
ATOM     10  C   UNL     1     -97.266 150.334 239.274  1.00  0.00     0.004 C 
ENDBRANCH   8   9
ENDBRANCH   7   8
ENDBRANCH   1   7
TORSDOF 6
ENDMDL
MODEL 9
REMARK VINA RESULT:    -2.904      2.124      2.704
REMARK INTER + INTRA:          -4.187
REMARK INTER:                  -3.894
REMARK INTRA:                  -0.293
REMARK UNBOUND:                -0.264
REMARK SMILES CCCCCCCC(=O)[O-]
REMARK SMILES IDX 5 1 6 2 7 3 8 4 9 5 10 6 4 7 3 8 2 9 1 10
REMARK H PARENT
REMARK Flexibility Score: inf
ROOT
ATOM      1  C   UNL     1     -96.842 149.167 239.325  1.00  0.00     0.000 C 
ENDROOT
BRANCH   1   2
ATOM      2  C   UNL     1     -97.890 150.272 239.524  1.00  0.00     0.006 C 
BRANCH   2   3
ATOM      3  C   UNL     1     -98.613 150.630 238.219  1.00  0.00     0.053 C 
BRANCH   3   4
ATOM      4  C   UNL     1    -100.103 150.599 238.381  1.00  0.00     0.041 C 
ATOM      5  O   UNL     1    -100.627 149.889 239.279  1.00  0.00    -0.550 OA
ATOM      6  O   UNL     1    -100.912 151.328 237.520  1.00  0.00    -0.550 OA
ENDBRANCH   3   4
ENDBRANCH   2   3
ENDBRANCH   1   2
BRANCH   1   7
ATOM      7  C   UNL     1     -95.599 149.710 238.603  1.00  0.00     0.000 C 
BRANCH   7   8
ATOM      8  C   UNL     1     -94.688 148.580 238.079  1.00  0.00    -0.000 C 
BRANCH   8   9
ATOM      9  C   UNL     1     -94.251 148.770 236.617  1.00  0.00    -0.003 C 
ATOM     10  C   UNL     1     -95.398 149.182 235.698  1.00  0.00     0.004 C 
ENDBRANCH   8   9
ENDBRANCH   7   8
ENDBRANCH   1   7
TORSDOF 6
ENDMDL
