MODEL 1
REMARK VINA RESULT:    -4.044      0.000      0.000
REMARK INTER + INTRA:          -7.550
REMARK INTER:                  -6.291
REMARK INTRA:                  -1.259
REMARK UNBOUND:                -1.259
REMARK SMILES COc1cc(CNC(=O)CCCCC=CC(C)C)ccc1O
REMARK SMILES IDX 11 1 12 2 13 3 14 4 15 5 16 6 17 7 18 8 10 9 8 10 9 11 7 12
REMARK SMILES IDX 6 14 5 15 4 16 19 17 3 18 20 19 21 20 2 21 1 22 22 23
REMARK H PARENT 7 13 22 24
REMARK Flexibility Score: inf
ROOT
ATOM      1  C   UNL     1      -9.980   1.054  -6.204  1.00  0.00     0.010 C 
ENDROOT
BRANCH   1   2
ATOM      2  C   UNL     1      -9.608   0.376  -4.877  1.00  0.00     0.005 C 
BRANCH   2   3
ATOM      3  C   UNL     1      -8.183   0.728  -4.422  1.00  0.00     0.027 C 
BRANCH   3   4
ATOM      4  C   UNL     1      -8.087   2.149  -3.923  1.00  0.00    -0.031 C 
ATOM      5  C   UNL     1      -7.268   2.619  -2.957  1.00  0.00    -0.028 C 
BRANCH   5   6
ATOM      6  C   UNL     1      -6.189   1.872  -2.195  1.00  0.00     0.005 C 
ATOM      7  C   UNL     1      -5.011   1.426  -3.074  1.00  0.00     0.012 C 
ATOM      8  C   UNL     1      -5.732   2.618  -0.934  1.00  0.00     0.012 C 
ENDBRANCH   5   6
ENDBRANCH   3   4
ENDBRANCH   2   3
ENDBRANCH   1   2
BRANCH   1   9
ATOM      9  C   UNL     1      -9.345   0.332  -7.395  1.00  0.00     0.100 C 
BRANCH   9  10
ATOM     10  C   UNL     1      -8.598   1.315  -8.243  1.00  0.00     0.220 C 
ATOM     11  O   UNL     1      -7.522   0.963  -8.799  1.00  0.00    -0.275 OA
ATOM     12  N   UNL     1      -9.061   2.666  -8.351  1.00  0.00    -0.352 N 
ATOM     13  H   UNL     1     -10.007   2.906  -7.977  1.00  0.00     0.163 HD
BRANCH  12  14
ATOM     14  C   UNL     1      -8.163   3.766  -8.691  1.00  0.00     0.151 C 
BRANCH  14  15
ATOM     15  C   UNL     1      -8.251   4.831  -7.633  1.00  0.00    -0.025 A 
ATOM     16  C   UNL     1      -7.781   6.128  -7.899  1.00  0.00     0.056 A 
ATOM     17  C   UNL     1      -8.882   4.564  -6.409  1.00  0.00     0.009 A 
ATOM     18  C   UNL     1      -7.915   7.151  -6.940  1.00  0.00     0.160 A 
ATOM     19  C   UNL     1      -9.014   5.572  -5.452  1.00  0.00     0.050 A 
ATOM     20  C   UNL     1      -8.531   6.860  -5.708  1.00  0.00     0.157 A 
BRANCH  18  21
ATOM     21  O   UNL     1      -7.459   8.458  -7.177  1.00  0.00    -0.493 OA
ATOM     22  C   UNL     1      -6.986   8.933  -8.433  1.00  0.00     0.278 C 
ENDBRANCH  18  21
BRANCH  20  23
ATOM     23  O   UNL     1      -8.678   7.842  -4.726  1.00  0.00    -0.504 OA
ATOM     24  H   UNL     1      -7.987   7.985  -3.998  1.00  0.00     0.293 HD
ENDBRANCH  20  23
ENDBRANCH  14  15
ENDBRANCH  12  14
ENDBRANCH   9  10
ENDBRANCH   1   9
TORSDOF 10
ENDMDL
MODEL 2
REMARK VINA RESULT:    -3.920      1.759      2.936
REMARK INTER + INTRA:          -7.356
REMARK INTER:                  -7.066
REMARK INTRA:                  -0.290
REMARK UNBOUND:                -1.259
REMARK SMILES COc1cc(CNC(=O)CCCCC=CC(C)C)ccc1O
REMARK SMILES IDX 11 1 12 2 13 3 14 4 15 5 16 6 17 7 18 8 10 9 8 10 9 11 7 12
REMARK SMILES IDX 6 14 5 15 4 16 19 17 3 18 20 19 21 20 2 21 1 22 22 23
REMARK H PARENT 7 13 22 24
REMARK Flexibility Score: inf
ROOT
ATOM      1  C   UNL     1      -7.543   1.895  -3.415  1.00  0.00     0.010 C 
ENDROOT
BRANCH   1   2
ATOM      2  C   UNL     1      -6.082   1.424  -3.485  1.00  0.00     0.005 C 
BRANCH   2   3
ATOM      3  C   UNL     1      -5.264   1.880  -2.267  1.00  0.00     0.027 C 
BRANCH   3   4
ATOM      4  C   UNL     1      -6.038   2.841  -1.397  1.00  0.00    -0.031 C 
ATOM      5  C   UNL     1      -5.922   3.003  -0.061  1.00  0.00    -0.028 C 
BRANCH   5   6
ATOM      6  C   UNL     1      -4.939   2.336   0.885  1.00  0.00     0.005 C 
ATOM      7  C   UNL     1      -5.280   2.536   2.368  1.00  0.00     0.012 C 
ATOM      8  C   UNL     1      -4.687   0.863   0.532  1.00  0.00     0.012 C 
ENDBRANCH   5   6
ENDBRANCH   3   4
ENDBRANCH   2   3
ENDBRANCH   1   2
BRANCH   1   9
ATOM      9  C   UNL     1      -8.408   1.179  -4.455  1.00  0.00     0.100 C 
BRANCH   9  10
ATOM     10  C   UNL     1      -9.081   2.188  -5.334  1.00  0.00     0.220 C 
ATOM     11  O   UNL     1     -10.040   1.829  -6.070  1.00  0.00    -0.275 OA
ATOM     12  N   UNL     1      -8.584   3.531  -5.397  1.00  0.00    -0.352 N 
ATOM     13  H   UNL     1      -7.864   3.834  -4.701  1.00  0.00     0.163 HD
BRANCH  12  14
ATOM     14  C   UNL     1      -8.817   4.388  -6.554  1.00  0.00     0.151 C 
BRANCH  14  15
ATOM     15  C   UNL     1      -8.875   5.824  -6.112  1.00  0.00    -0.025 A 
ATOM     16  C   UNL     1      -8.380   6.838  -6.949  1.00  0.00     0.056 A 
ATOM     17  C   UNL     1      -9.501   6.169  -4.906  1.00  0.00     0.009 A 
ATOM     18  C   UNL     1      -8.487   8.193  -6.575  1.00  0.00     0.160 A 
ATOM     19  C   UNL     1      -9.604   7.509  -4.527  1.00  0.00     0.050 A 
ATOM     20  C   UNL     1      -9.098   8.521  -5.351  1.00  0.00     0.157 A 
BRANCH  18  21
ATOM     21  O   UNL     1      -8.006   9.230  -7.392  1.00  0.00    -0.493 OA
ATOM     22  C   UNL     1      -6.725   9.242  -8.012  1.00  0.00     0.278 C 
ENDBRANCH  18  21
BRANCH  20  23
ATOM     23  O   UNL     1      -9.216   9.849  -4.938  1.00  0.00    -0.504 OA
ATOM     24  H   UNL     1     -10.013  10.424  -5.188  1.00  0.00     0.293 HD
ENDBRANCH  20  23
ENDBRANCH  14  15
ENDBRANCH  12  14
ENDBRANCH   9  10
ENDBRANCH   1   9
TORSDOF 10
ENDMDL
MODEL 3
REMARK VINA RESULT:    -3.702      2.108      3.119
REMARK INTER + INTRA:          -7.018
REMARK INTER:                  -6.991
REMARK INTRA:                  -0.026
REMARK UNBOUND:                -1.259
REMARK SMILES COc1cc(CNC(=O)CCCCC=CC(C)C)ccc1O
REMARK SMILES IDX 11 1 12 2 13 3 14 4 15 5 16 6 17 7 18 8 10 9 8 10 9 11 7 12
REMARK SMILES IDX 6 14 5 15 4 16 19 17 3 18 20 19 21 20 2 21 1 22 22 23
REMARK H PARENT 7 13 22 24
REMARK Flexibility Score: inf
ROOT
ATOM      1  C   UNL     1      -7.671   2.225  -3.254  1.00  0.00     0.010 C 
ENDROOT
BRANCH   1   2
ATOM      2  C   UNL     1      -6.322   1.500  -3.371  1.00  0.00     0.005 C 
BRANCH   2   3
ATOM      3  C   UNL     1      -5.338   1.917  -2.267  1.00  0.00     0.027 C 
BRANCH   3   4
ATOM      4  C   UNL     1      -5.904   3.009  -1.392  1.00  0.00    -0.031 C 
ATOM      5  C   UNL     1      -5.728   3.158  -0.061  1.00  0.00    -0.028 C 
BRANCH   5   6
ATOM      6  C   UNL     1      -4.861   2.331   0.871  1.00  0.00     0.005 C 
ATOM      7  C   UNL     1      -5.299   2.398   2.341  1.00  0.00     0.012 C 
ATOM      8  C   UNL     1      -4.673   0.889   0.378  1.00  0.00     0.012 C 
ENDBRANCH   5   6
ENDBRANCH   3   4
ENDBRANCH   2   3
ENDBRANCH   1   2
BRANCH   1   9
ATOM      9  C   UNL     1      -8.575   1.913  -4.448  1.00  0.00     0.100 C 
BRANCH   9  10
ATOM     10  C   UNL     1      -9.101   3.189  -5.031  1.00  0.00     0.220 C 
ATOM     11  O   UNL     1     -10.125   3.726  -4.526  1.00  0.00    -0.275 OA
ATOM     12  N   UNL     1      -8.495   3.747  -6.203  1.00  0.00    -0.352 N 
ATOM     13  H   UNL     1      -7.587   3.350  -6.537  1.00  0.00     0.163 HD
BRANCH  12  14
ATOM     14  C   UNL     1      -9.225   4.633  -7.104  1.00  0.00     0.151 C 
BRANCH  14  15
ATOM     15  C   UNL     1      -8.877   6.062  -6.792  1.00  0.00    -0.025 A 
ATOM     16  C   UNL     1      -7.919   6.738  -7.567  1.00  0.00     0.056 A 
ATOM     17  C   UNL     1      -9.568   6.757  -5.789  1.00  0.00     0.009 A 
ATOM     18  C   UNL     1      -7.631   8.096  -7.327  1.00  0.00     0.160 A 
ATOM     19  C   UNL     1      -9.283   8.101  -5.542  1.00  0.00     0.050 A 
ATOM     20  C   UNL     1      -8.318   8.772  -6.301  1.00  0.00     0.157 A 
BRANCH  18  21
ATOM     21  O   UNL     1      -6.682   8.801  -8.086  1.00  0.00    -0.493 OA
ATOM     22  C   UNL     1      -6.539   8.698  -9.499  1.00  0.00     0.278 C 
ENDBRANCH  18  21
BRANCH  20  23
ATOM     23  O   UNL     1      -8.057  10.116  -6.023  1.00  0.00    -0.504 OA
ATOM     24  H   UNL     1      -7.268  10.608  -6.429  1.00  0.00     0.293 HD
ENDBRANCH  20  23
ENDBRANCH  14  15
ENDBRANCH  12  14
ENDBRANCH   9  10
ENDBRANCH   1   9
TORSDOF 10
ENDMDL
MODEL 4
REMARK VINA RESULT:    -3.691      1.064      2.330
REMARK INTER + INTRA:          -7.000
REMARK INTER:                  -6.079
REMARK INTRA:                  -0.920
REMARK UNBOUND:                -1.259
REMARK SMILES COc1cc(CNC(=O)CCCCC=CC(C)C)ccc1O
REMARK SMILES IDX 11 1 12 2 13 3 14 4 15 5 16 6 17 7 18 8 10 9 8 10 9 11 7 12
REMARK SMILES IDX 6 14 5 15 4 16 19 17 3 18 20 19 21 20 2 21 1 22 22 23
REMARK H PARENT 7 13 22 24
REMARK Flexibility Score: inf
ROOT
ATOM      1  C   UNL     1      -8.977   1.179  -4.868  1.00  0.00     0.010 C 
ENDROOT
BRANCH   1   2
ATOM      2  C   UNL     1      -8.599   2.542  -4.270  1.00  0.00     0.005 C 
BRANCH   2   3
ATOM      3  C   UNL     1      -7.882   2.407  -2.918  1.00  0.00     0.027 C 
BRANCH   3   4
ATOM      4  C   UNL     1      -6.458   1.932  -3.081  1.00  0.00    -0.031 C 
ATOM      5  C   UNL     1      -5.498   1.898  -2.132  1.00  0.00    -0.028 C 
BRANCH   5   6
ATOM      6  C   UNL     1      -5.622   2.240  -0.658  1.00  0.00     0.005 C 
ATOM      7  C   UNL     1      -4.888   1.257   0.266  1.00  0.00     0.012 C 
ATOM      8  C   UNL     1      -5.267   3.703  -0.359  1.00  0.00     0.012 C 
ENDBRANCH   5   6
ENDBRANCH   3   4
ENDBRANCH   2   3
ENDBRANCH   1   2
BRANCH   1   9
ATOM      9  C   UNL     1      -9.917   1.338  -6.065  1.00  0.00     0.100 C 
BRANCH   9  10
ATOM     10  C   UNL     1      -9.148   1.839  -7.249  1.00  0.00     0.220 C 
ATOM     11  O   UNL     1      -8.319   1.078  -7.817  1.00  0.00    -0.275 OA
ATOM     12  N   UNL     1      -9.294   3.199  -7.676  1.00  0.00    -0.352 N 
ATOM     13  H   UNL     1     -10.062   3.777  -7.265  1.00  0.00     0.163 HD
BRANCH  12  14
ATOM     14  C   UNL     1      -8.252   3.889  -8.430  1.00  0.00     0.151 C 
BRANCH  14  15
ATOM     15  C   UNL     1      -8.177   5.324  -7.986  1.00  0.00    -0.025 A 
ATOM     16  C   UNL     1      -8.453   5.662  -6.650  1.00  0.00     0.056 A 
ATOM     17  C   UNL     1      -7.748   6.319  -8.875  1.00  0.00     0.009 A 
ATOM     18  C   UNL     1      -8.325   6.993  -6.206  1.00  0.00     0.160 A 
ATOM     19  C   UNL     1      -7.624   7.641  -8.443  1.00  0.00     0.050 A 
ATOM     20  C   UNL     1      -7.914   7.984  -7.117  1.00  0.00     0.157 A 
BRANCH  18  21
ATOM     21  O   UNL     1      -8.589   7.362  -4.876  1.00  0.00    -0.493 OA
ATOM     22  C   UNL     1      -9.892   7.506  -4.321  1.00  0.00     0.278 C 
ENDBRANCH  18  21
BRANCH  20  23
ATOM     23  O   UNL     1      -7.782   9.316  -6.721  1.00  0.00    -0.504 OA
ATOM     24  H   UNL     1      -8.582   9.888  -6.473  1.00  0.00     0.293 HD
ENDBRANCH  20  23
ENDBRANCH  14  15
ENDBRANCH  12  14
ENDBRANCH   9  10
ENDBRANCH   1   9
TORSDOF 10
ENDMDL
MODEL 5
REMARK VINA RESULT:    -3.632      1.747      3.387
REMARK INTER + INTRA:          -6.909
REMARK INTER:                  -6.192
REMARK INTRA:                  -0.717
REMARK UNBOUND:                -1.259
REMARK SMILES COc1cc(CNC(=O)CCCCC=CC(C)C)ccc1O
REMARK SMILES IDX 11 1 12 2 13 3 14 4 15 5 16 6 17 7 18 8 10 9 8 10 9 11 7 12
REMARK SMILES IDX 6 14 5 15 4 16 19 17 3 18 20 19 21 20 2 21 1 22 22 23
REMARK H PARENT 7 13 22 24
REMARK Flexibility Score: inf
ROOT
ATOM      1  C   UNL     1      -8.647   2.290  -4.390  1.00  0.00     0.010 C 
ENDROOT
BRANCH   1   2
ATOM      2  C   UNL     1      -7.480   1.507  -3.771  1.00  0.00     0.005 C 
BRANCH   2   3
ATOM      3  C   UNL     1      -6.729   2.325  -2.708  1.00  0.00     0.027 C 
BRANCH   3   4
ATOM      4  C   UNL     1      -5.608   1.533  -2.078  1.00  0.00    -0.031 C 
ATOM      5  C   UNL     1      -5.080   1.709  -0.847  1.00  0.00    -0.028 C 
BRANCH   5   6
ATOM      6  C   UNL     1      -5.524   2.675   0.237  1.00  0.00     0.005 C 
ATOM      7  C   UNL     1      -5.190   2.200   1.658  1.00  0.00     0.012 C 
ATOM      8  C   UNL     1      -5.060   4.114  -0.027  1.00  0.00     0.012 C 
ENDBRANCH   5   6
ENDBRANCH   3   4
ENDBRANCH   2   3
ENDBRANCH   1   2
BRANCH   1   9
ATOM      9  C   UNL     1      -9.756   1.349  -4.867  1.00  0.00     0.100 C 
BRANCH   9  10
ATOM     10  C   UNL     1      -9.396   0.781  -6.205  1.00  0.00     0.220 C 
ATOM     11  O   UNL     1      -8.736  -0.292  -6.267  1.00  0.00    -0.275 OA
ATOM     12  N   UNL     1      -9.729   1.496  -7.402  1.00  0.00    -0.352 N 
ATOM     13  H   UNL     1     -10.368   2.320  -7.334  1.00  0.00     0.163 HD
BRANCH  12  14
ATOM     14  C   UNL     1      -8.991   1.306  -8.646  1.00  0.00     0.151 C 
BRANCH  14  15
ATOM     15  C   UNL     1      -8.243   2.566  -8.984  1.00  0.00    -0.025 A 
ATOM     16  C   UNL     1      -8.583   3.775  -8.354  1.00  0.00     0.056 A 
ATOM     17  C   UNL     1      -7.149   2.528  -9.859  1.00  0.00     0.009 A 
ATOM     18  C   UNL     1      -7.850   4.950  -8.613  1.00  0.00     0.160 A 
ATOM     19  C   UNL     1      -6.421   3.690 -10.125  1.00  0.00     0.050 A 
ATOM     20  C   UNL     1      -6.767   4.899  -9.512  1.00  0.00     0.157 A 
BRANCH  18  21
ATOM     21  O   UNL     1      -8.162   6.173  -7.997  1.00  0.00    -0.493 OA
ATOM     22  C   UNL     1      -7.872   6.492  -6.640  1.00  0.00     0.278 C 
ENDBRANCH  18  21
BRANCH  20  23
ATOM     23  O   UNL     1      -6.019   6.041  -9.804  1.00  0.00    -0.504 OA
ATOM     24  H   UNL     1      -6.203   6.935  -9.362  1.00  0.00     0.293 HD
ENDBRANCH  20  23
ENDBRANCH  14  15
ENDBRANCH  12  14
ENDBRANCH   9  10
ENDBRANCH   1   9
TORSDOF 10
ENDMDL
MODEL 6
REMARK VINA RESULT:    -3.618      2.047      3.508
REMARK INTER + INTRA:          -6.886
REMARK INTER:                  -6.711
REMARK INTRA:                  -0.175
REMARK UNBOUND:                -1.259
REMARK SMILES COc1cc(CNC(=O)CCCCC=CC(C)C)ccc1O
REMARK SMILES IDX 11 1 12 2 13 3 14 4 15 5 16 6 17 7 18 8 10 9 8 10 9 11 7 12
REMARK SMILES IDX 6 14 5 15 4 16 19 17 3 18 20 19 21 20 2 21 1 22 22 23
REMARK H PARENT 7 13 22 24
REMARK Flexibility Score: inf
ROOT
ATOM      1  C   UNL     1      -7.695   2.262  -3.378  1.00  0.00     0.010 C 
ENDROOT
BRANCH   1   2
ATOM      2  C   UNL     1      -6.368   1.490  -3.433  1.00  0.00     0.005 C 
BRANCH   2   3
ATOM      3  C   UNL     1      -5.432   1.857  -2.272  1.00  0.00     0.027 C 
BRANCH   3   4
ATOM      4  C   UNL     1      -6.000   2.965  -1.420  1.00  0.00    -0.031 C 
ATOM      5  C   UNL     1      -5.808   3.154  -0.096  1.00  0.00    -0.028 C 
BRANCH   5   6
ATOM      6  C   UNL     1      -4.916   2.365   0.846  1.00  0.00     0.005 C 
ATOM      7  C   UNL     1      -5.268   2.553   2.329  1.00  0.00     0.012 C 
ATOM      8  C   UNL     1      -4.802   0.886   0.451  1.00  0.00     0.012 C 
ENDBRANCH   5   6
ENDBRANCH   3   4
ENDBRANCH   2   3
ENDBRANCH   1   2
BRANCH   1   9
ATOM      9  C   UNL     1      -8.698   1.715  -4.396  1.00  0.00     0.100 C 
BRANCH   9  10
ATOM     10  C   UNL     1      -8.989   2.760  -5.430  1.00  0.00     0.220 C 
ATOM     11  O   UNL     1      -9.589   3.816  -5.093  1.00  0.00    -0.275 OA
ATOM     12  N   UNL     1      -8.661   2.520  -6.804  1.00  0.00    -0.352 N 
ATOM     13  H   UNL     1      -8.068   1.692  -7.044  1.00  0.00     0.163 HD
BRANCH  12  14
ATOM     14  C   UNL     1      -9.352   3.201  -7.894  1.00  0.00     0.151 C 
BRANCH  14  15
ATOM     15  C   UNL     1      -8.431   4.215  -8.516  1.00  0.00    -0.025 A 
ATOM     16  C   UNL     1      -8.540   5.572  -8.168  1.00  0.00     0.056 A 
ATOM     17  C   UNL     1      -7.402   3.804  -9.376  1.00  0.00     0.009 A 
ATOM     18  C   UNL     1      -7.643   6.522  -8.695  1.00  0.00     0.160 A 
ATOM     19  C   UNL     1      -6.513   4.741  -9.906  1.00  0.00     0.050 A 
ATOM     20  C   UNL     1      -6.630   6.096  -9.574  1.00  0.00     0.157 A 
BRANCH  18  21
ATOM     21  O   UNL     1      -7.724   7.885  -8.364  1.00  0.00    -0.493 OA
ATOM     22  C   UNL     1      -8.138   8.386  -7.097  1.00  0.00     0.278 C 
ENDBRANCH  18  21
BRANCH  20  23
ATOM     23  O   UNL     1      -5.725   7.005 -10.125  1.00  0.00    -0.504 OA
ATOM     24  H   UNL     1      -4.723   6.910 -10.004  1.00  0.00     0.293 HD
ENDBRANCH  20  23
ENDBRANCH  14  15
ENDBRANCH  12  14
ENDBRANCH   9  10
ENDBRANCH   1   9
TORSDOF 10
ENDMDL
MODEL 7
REMARK VINA RESULT:    -3.612      1.684      3.279
REMARK INTER + INTRA:          -6.878
REMARK INTER:                  -6.723
REMARK INTRA:                  -0.154
REMARK UNBOUND:                -1.259
REMARK SMILES COc1cc(CNC(=O)CCCCC=CC(C)C)ccc1O
REMARK SMILES IDX 11 1 12 2 13 3 14 4 15 5 16 6 17 7 18 8 10 9 8 10 9 11 7 12
REMARK SMILES IDX 6 14 5 15 4 16 19 17 3 18 20 19 21 20 2 21 1 22 22 23
REMARK H PARENT 7 13 22 24
REMARK Flexibility Score: inf
ROOT
ATOM      1  C   UNL     1      -7.505   1.559  -3.792  1.00  0.00     0.010 C 
ENDROOT
BRANCH   1   2
ATOM      2  C   UNL     1      -6.758   2.168  -2.595  1.00  0.00     0.005 C 
BRANCH   2   3
ATOM      3  C   UNL     1      -5.253   1.863  -2.631  1.00  0.00     0.027 C 
BRANCH   3   4
ATOM      4  C   UNL     1      -4.833   0.968  -1.490  1.00  0.00    -0.031 C 
ATOM      5  C   UNL     1      -4.885   1.252  -0.171  1.00  0.00    -0.028 C 
BRANCH   5   6
ATOM      6  C   UNL     1      -5.452   2.490   0.502  1.00  0.00     0.005 C 
ATOM      7  C   UNL     1      -5.349   2.460   2.033  1.00  0.00     0.012 C 
ATOM      8  C   UNL     1      -4.904   3.792  -0.100  1.00  0.00     0.012 C 
ENDBRANCH   5   6
ENDBRANCH   3   4
ENDBRANCH   2   3
ENDBRANCH   1   2
BRANCH   1   9
ATOM      9  C   UNL     1      -8.750   2.377  -4.144  1.00  0.00     0.100 C 
BRANCH   9  10
ATOM     10  C   UNL     1      -8.816   2.584  -5.626  1.00  0.00     0.220 C 
ATOM     11  O   UNL     1      -8.974   1.589  -6.385  1.00  0.00    -0.275 OA
ATOM     12  N   UNL     1      -8.617   3.891  -6.178  1.00  0.00    -0.352 N 
ATOM     13  H   UNL     1      -8.599   4.713  -5.532  1.00  0.00     0.163 HD
BRANCH  12  14
ATOM     14  C   UNL     1      -8.152   4.090  -7.547  1.00  0.00     0.151 C 
BRANCH  14  15
ATOM     15  C   UNL     1      -8.009   5.562  -7.820  1.00  0.00    -0.025 A 
ATOM     16  C   UNL     1      -8.333   6.497  -6.822  1.00  0.00     0.056 A 
ATOM     17  C   UNL     1      -7.469   6.008  -9.034  1.00  0.00     0.009 A 
ATOM     18  C   UNL     1      -8.142   7.876  -7.041  1.00  0.00     0.160 A 
ATOM     19  C   UNL     1      -7.283   7.373  -9.260  1.00  0.00     0.050 A 
ATOM     20  C   UNL     1      -7.620   8.308  -8.275  1.00  0.00     0.157 A 
BRANCH  18  21
ATOM     21  O   UNL     1      -8.453   8.834  -6.063  1.00  0.00    -0.493 OA
ATOM     22  C   UNL     1      -9.349   8.621  -4.978  1.00  0.00     0.278 C 
ENDBRANCH  18  21
BRANCH  20  23
ATOM     23  O   UNL     1      -7.423   9.665  -8.537  1.00  0.00    -0.504 OA
ATOM     24  H   UNL     1      -6.667  10.193  -8.116  1.00  0.00     0.293 HD
ENDBRANCH  20  23
ENDBRANCH  14  15
ENDBRANCH  12  14
ENDBRANCH   9  10
ENDBRANCH   1   9
TORSDOF 10
ENDMDL
MODEL 8
REMARK VINA RESULT:    -3.414     14.456     16.483
REMARK INTER + INTRA:          -6.569
REMARK INTER:                  -5.266
REMARK INTRA:                  -1.303
REMARK UNBOUND:                -1.259
REMARK SMILES COc1cc(CNC(=O)CCCCC=CC(C)C)ccc1O
REMARK SMILES IDX 11 1 12 2 13 3 14 4 15 5 16 6 17 7 18 8 10 9 8 10 9 11 7 12
REMARK SMILES IDX 6 14 5 15 4 16 19 17 3 18 20 19 21 20 2 21 1 22 22 23
REMARK H PARENT 7 13 22 24
REMARK Flexibility Score: inf
ROOT
ATOM      1  C   UNL     1       5.701   7.368  -2.736  1.00  0.00     0.010 C 
ENDROOT
BRANCH   1   2
ATOM      2  C   UNL     1       7.074   7.391  -3.425  1.00  0.00     0.005 C 
BRANCH   2   3
ATOM      3  C   UNL     1       7.888   8.642  -3.062  1.00  0.00     0.027 C 
BRANCH   3   4
ATOM      4  C   UNL     1       9.179   8.290  -2.364  1.00  0.00    -0.031 C 
ATOM      5  C   UNL     1       9.617   8.761  -1.177  1.00  0.00    -0.028 C 
BRANCH   5   6
ATOM      6  C   UNL     1       8.899   9.686  -0.210  1.00  0.00     0.005 C 
ATOM      7  C   UNL     1       7.530   9.158   0.245  1.00  0.00     0.012 C 
ATOM      8  C   UNL     1       9.785  10.113   0.968  1.00  0.00     0.012 C 
ENDBRANCH   5   6
ENDBRANCH   3   4
ENDBRANCH   2   3
ENDBRANCH   1   2
BRANCH   1   9
ATOM      9  C   UNL     1       5.058   8.757  -2.734  1.00  0.00     0.100 C 
BRANCH   9  10
ATOM     10  C   UNL     1       4.246   8.941  -3.979  1.00  0.00     0.220 C 
ATOM     11  O   UNL     1       3.158   8.316  -4.107  1.00  0.00    -0.275 OA
ATOM     12  N   UNL     1       4.744   9.754  -5.048  1.00  0.00    -0.352 N 
ATOM     13  H   UNL     1       5.589  10.347  -4.878  1.00  0.00     0.163 HD
BRANCH  12  14
ATOM     14  C   UNL     1       4.308   9.570  -6.428  1.00  0.00     0.151 C 
BRANCH  14  15
ATOM     15  C   UNL     1       5.509   9.519  -7.332  1.00  0.00    -0.025 A 
ATOM     16  C   UNL     1       6.652   8.800  -6.942  1.00  0.00     0.056 A 
ATOM     17  C   UNL     1       5.465  10.110  -8.602  1.00  0.00     0.009 A 
ATOM     18  C   UNL     1       7.760   8.691  -7.807  1.00  0.00     0.160 A 
ATOM     19  C   UNL     1       6.562  10.010  -9.461  1.00  0.00     0.050 A 
ATOM     20  C   UNL     1       7.708   9.309  -9.070  1.00  0.00     0.157 A 
BRANCH  18  21
ATOM     21  O   UNL     1       8.915   7.977  -7.448  1.00  0.00    -0.493 OA
ATOM     22  C   UNL     1       9.719   8.260  -6.308  1.00  0.00     0.278 C 
ENDBRANCH  18  21
BRANCH  20  23
ATOM     23  O   UNL     1       8.786   9.233  -9.954  1.00  0.00    -0.504 OA
ATOM     24  H   UNL     1       8.809   9.753 -10.824  1.00  0.00     0.293 HD
ENDBRANCH  20  23
ENDBRANCH  14  15
ENDBRANCH  12  14
ENDBRANCH   9  10
ENDBRANCH   1   9
TORSDOF 10
ENDMDL
MODEL 9
REMARK VINA RESULT:    -2.764     15.153     17.457
REMARK INTER + INTRA:          -5.558
REMARK INTER:                  -4.202
REMARK INTRA:                  -1.357
REMARK UNBOUND:                -1.259
REMARK SMILES COc1cc(CNC(=O)CCCCC=CC(C)C)ccc1O
REMARK SMILES IDX 11 1 12 2 13 3 14 4 15 5 16 6 17 7 18 8 10 9 8 10 9 11 7 12
REMARK SMILES IDX 6 14 5 15 4 16 19 17 3 18 20 19 21 20 2 21 1 22 22 23
REMARK H PARENT 7 13 22 24
REMARK Flexibility Score: inf
ROOT
ATOM      1  C   UNL     1       6.098   7.852  -3.482  1.00  0.00     0.010 C 
ENDROOT
BRANCH   1   2
ATOM      2  C   UNL     1       4.944   8.862  -3.574  1.00  0.00     0.005 C 
BRANCH   2   3
ATOM      3  C   UNL     1       4.665   9.297  -5.020  1.00  0.00     0.027 C 
BRANCH   3   4
ATOM      4  C   UNL     1       5.791   8.915  -5.950  1.00  0.00    -0.031 C 
ATOM      5  C   UNL     1       5.786   8.971  -7.300  1.00  0.00    -0.028 C 
BRANCH   5   6
ATOM      6  C   UNL     1       4.698   9.505  -8.214  1.00  0.00     0.005 C 
ATOM      7  C   UNL     1       5.229  10.064  -9.542  1.00  0.00     0.012 C 
ATOM      8  C   UNL     1       3.551   8.505  -8.414  1.00  0.00     0.012 C 
ENDBRANCH   5   6
ENDBRANCH   3   4
ENDBRANCH   2   3
ENDBRANCH   1   2
BRANCH   1   9
ATOM      9  C   UNL     1       6.877   8.016  -2.174  1.00  0.00     0.100 C 
BRANCH   9  10
ATOM     10  C   UNL     1       8.343   7.850  -2.435  1.00  0.00     0.220 C 
ATOM     11  O   UNL     1       9.175   8.464  -1.713  1.00  0.00    -0.275 OA
ATOM     12  N   UNL     1       8.790   7.067  -3.549  1.00  0.00    -0.352 N 
ATOM     13  H   UNL     1       8.093   6.481  -4.064  1.00  0.00     0.163 HD
BRANCH  12  14
ATOM     14  C   UNL     1      10.094   7.277  -4.168  1.00  0.00     0.151 C 
BRANCH  14  15
ATOM     15  C   UNL     1       9.923   8.035  -5.455  1.00  0.00    -0.025 A 
ATOM     16  C   UNL     1      10.106   7.382  -6.686  1.00  0.00     0.056 A 
ATOM     17  C   UNL     1       9.494   9.369  -5.440  1.00  0.00     0.009 A 
ATOM     18  C   UNL     1       9.887   8.063  -7.900  1.00  0.00     0.160 A 
ATOM     19  C   UNL     1       9.280  10.052  -6.639  1.00  0.00     0.050 A 
ATOM     20  C   UNL     1       9.477   9.409  -7.866  1.00  0.00     0.157 A 
BRANCH  18  21
ATOM     21  O   UNL     1      10.058   7.437  -9.145  1.00  0.00    -0.493 OA
ATOM     22  C   UNL     1       9.018   7.230 -10.095  1.00  0.00     0.278 C 
ENDBRANCH  18  21
BRANCH  20  23
ATOM     23  O   UNL     1       9.257  10.124  -9.045  1.00  0.00    -0.504 OA
ATOM     24  H   UNL     1       9.417   9.719  -9.960  1.00  0.00     0.293 HD
ENDBRANCH  20  23
ENDBRANCH  14  15
ENDBRANCH  12  14
ENDBRANCH   9  10
ENDBRANCH   1   9
TORSDOF 10
ENDMDL
