MODEL 1
REMARK VINA RESULT:    -2.769      0.000      0.000
REMARK INTER + INTRA:          -3.286
REMARK INTER:                  -3.254
REMARK INTRA:                  -0.031
REMARK UNBOUND:                -0.031
REMARK SMILES O=C([O-])CCC(=O)[O-]
REMARK SMILES IDX 4 1 2 2 1 3 3 4 5 5 6 6 7 7 8 8
REMARK H PARENT
REMARK Flexibility Score: inf
ROOT
ATOM      1  C   UNL     1      63.561 128.612  -6.598  1.00  0.00     0.059 C 
ENDROOT
BRANCH   1   2
ATOM      2  C   UNL     1      62.344 129.212  -7.229  1.00  0.00     0.042 C 
ATOM      3  O   UNL     1      61.298 128.524  -7.367  1.00  0.00    -0.550 OA
ATOM      4  O   UNL     1      62.349 130.544  -7.619  1.00  0.00    -0.550 OA
ENDBRANCH   1   2
BRANCH   1   5
ATOM      5  C   UNL     1      64.442 129.704  -5.990  1.00  0.00     0.059 C 
BRANCH   5   6
ATOM      6  C   UNL     1      65.614 129.098  -5.283  1.00  0.00     0.042 C 
ATOM      7  O   UNL     1      65.453 128.510  -4.181  1.00  0.00    -0.550 OA
ATOM      8  O   UNL     1      66.889 129.226  -5.816  1.00  0.00    -0.550 OA
ENDBRANCH   5   6
ENDBRANCH   1   5
TORSDOF 3
ENDMDL
MODEL 2
REMARK VINA RESULT:    -2.739      0.203      4.286
REMARK INTER + INTRA:          -3.251
REMARK INTER:                  -3.215
REMARK INTRA:                  -0.037
REMARK UNBOUND:                -0.031
REMARK SMILES O=C([O-])CCC(=O)[O-]
REMARK SMILES IDX 4 1 2 2 1 3 3 4 5 5 6 6 7 7 8 8
REMARK H PARENT
REMARK Flexibility Score: inf
ROOT
ATOM      1  C   UNL     1      64.483 129.756  -6.270  1.00  0.00     0.059 C 
ENDROOT
BRANCH   1   2
ATOM      2  C   UNL     1      65.589 129.198  -5.429  1.00  0.00     0.042 C 
ATOM      3  O   UNL     1      65.333 128.676  -4.312  1.00  0.00    -0.550 OA
ATOM      4  O   UNL     1      66.894 129.209  -5.902  1.00  0.00    -0.550 OA
ENDBRANCH   1   2
BRANCH   1   5
ATOM      5  C   UNL     1      63.425 128.685  -6.540  1.00  0.00     0.059 C 
BRANCH   5   6
ATOM      6  C   UNL     1      62.287 129.261  -7.325  1.00  0.00     0.042 C 
ATOM      7  O   UNL     1      62.294 130.478  -7.650  1.00  0.00    -0.550 OA
ATOM      8  O   UNL     1      61.198 128.466  -7.655  1.00  0.00    -0.550 OA
ENDBRANCH   5   6
ENDBRANCH   1   5
TORSDOF 3
ENDMDL
MODEL 3
REMARK VINA RESULT:    -2.264     22.550     23.745
REMARK INTER + INTRA:          -2.692
REMARK INTER:                  -2.655
REMARK INTRA:                  -0.037
REMARK UNBOUND:                -0.031
REMARK SMILES O=C([O-])CCC(=O)[O-]
REMARK SMILES IDX 4 1 2 2 1 3 3 4 5 5 6 6 7 7 8 8
REMARK H PARENT
REMARK Flexibility Score: inf
ROOT
ATOM      1  C   UNL     1      52.370 147.397   1.190  1.00  0.00     0.059 C 
ENDROOT
BRANCH   1   2
ATOM      2  C   UNL     1      53.700 147.644   0.551  1.00  0.00     0.042 C 
ATOM      3  O   UNL     1      53.844 147.491  -0.691  1.00  0.00    -0.550 OA
ATOM      4  O   UNL     1      54.768 148.091   1.318  1.00  0.00    -0.550 OA
ENDBRANCH   1   2
BRANCH   1   5
ATOM      5  C   UNL     1      51.259 148.085   0.395  1.00  0.00     0.059 C 
BRANCH   5   6
ATOM      6  C   UNL     1      49.991 148.118   1.190  1.00  0.00     0.042 C 
ATOM      7  O   UNL     1      50.033 148.125   2.449  1.00  0.00    -0.550 OA
ATOM      8  O   UNL     1      48.764 148.093   0.542  1.00  0.00    -0.550 OA
ENDBRANCH   5   6
ENDBRANCH   1   5
TORSDOF 3
ENDMDL
MODEL 4
REMARK VINA RESULT:    -2.130      1.873      4.145
REMARK INTER + INTRA:          -2.534
REMARK INTER:                  -2.466
REMARK INTRA:                  -0.068
REMARK UNBOUND:                -0.031
REMARK SMILES O=C([O-])CCC(=O)[O-]
REMARK SMILES IDX 4 1 2 2 1 3 3 4 5 5 6 6 7 7 8 8
REMARK H PARENT
REMARK Flexibility Score: inf
ROOT
ATOM      1  C   UNL     1      64.452 130.339  -7.894  1.00  0.00     0.059 C 
ENDROOT
BRANCH   1   2
ATOM      2  C   UNL     1      65.701 129.542  -7.679  1.00  0.00     0.042 C 
ATOM      3  O   UNL     1      66.826 130.109  -7.703  1.00  0.00    -0.550 OA
ATOM      4  O   UNL     1      65.620 128.184  -7.404  1.00  0.00    -0.550 OA
ENDBRANCH   1   2
BRANCH   1   5
ATOM      5  C   UNL     1      63.460 130.095  -6.756  1.00  0.00     0.059 C 
BRANCH   5   6
ATOM      6  C   UNL     1      62.391 129.142  -7.190  1.00  0.00     0.042 C 
ATOM      7  O   UNL     1      61.606 129.454  -8.125  1.00  0.00    -0.550 OA
ATOM      8  O   UNL     1      62.230 127.931  -6.531  1.00  0.00    -0.550 OA
ENDBRANCH   5   6
ENDBRANCH   1   5
TORSDOF 3
ENDMDL
MODEL 5
REMARK VINA RESULT:    -1.829      1.704      2.397
REMARK INTER + INTRA:          -2.181
REMARK INTER:                  -2.141
REMARK INTRA:                  -0.040
REMARK UNBOUND:                -0.031
REMARK SMILES O=C([O-])CCC(=O)[O-]
REMARK SMILES IDX 4 1 2 2 1 3 3 4 5 5 6 6 7 7 8 8
REMARK H PARENT
REMARK Flexibility Score: inf
ROOT
ATOM      1  C   UNL     1      63.970 128.352  -7.167  1.00  0.00     0.059 C 
ENDROOT
BRANCH   1   2
ATOM      2  C   UNL     1      63.584 129.663  -6.556  1.00  0.00     0.042 C 
ATOM      3  O   UNL     1      62.661 130.352  -7.067  1.00  0.00    -0.550 OA
ATOM      4  O   UNL     1      64.208 130.100  -5.396  1.00  0.00    -0.550 OA
ENDBRANCH   1   2
BRANCH   1   5
ATOM      5  C   UNL     1      65.148 128.536  -8.125  1.00  0.00     0.059 C 
BRANCH   5   6
ATOM      6  C   UNL     1      66.402 128.830  -7.362  1.00  0.00     0.042 C 
ATOM      7  O   UNL     1      67.000 129.927  -7.525  1.00  0.00    -0.550 OA
ATOM      8  O   UNL     1      66.936 127.875  -6.507  1.00  0.00    -0.550 OA
ENDBRANCH   5   6
ENDBRANCH   1   5
TORSDOF 3
ENDMDL
MODEL 6
REMARK VINA RESULT:    -0.194      1.979      2.401
REMARK INTER + INTRA:          -0.259
REMARK INTER:                  -0.227
REMARK INTRA:                  -0.032
REMARK UNBOUND:                -0.031
REMARK SMILES O=C([O-])CCC(=O)[O-]
REMARK SMILES IDX 4 1 2 2 1 3 3 4 5 5 6 6 7 7 8 8
REMARK H PARENT
REMARK Flexibility Score: inf
ROOT
ATOM      1  C   UNL     1      62.803 128.407  -7.626  1.00  0.00     0.059 C 
ENDROOT
BRANCH   1   2
ATOM      2  C   UNL     1      61.401 128.127  -7.183  1.00  0.00     0.042 C 
ATOM      3  O   UNL     1      61.104 128.163  -5.960  1.00  0.00    -0.550 OA
ATOM      4  O   UNL     1      60.412 127.875  -8.125  1.00  0.00    -0.550 OA
ENDBRANCH   1   2
BRANCH   1   5
ATOM      5  C   UNL     1      63.374 129.605  -6.867  1.00  0.00     0.059 C 
BRANCH   5   6
ATOM      6  C   UNL     1      64.797 129.846  -7.264  1.00  0.00     0.042 C 
ATOM      7  O   UNL     1      65.146 130.967  -7.720  1.00  0.00    -0.550 OA
ATOM      8  O   UNL     1      65.727 128.819  -7.177  1.00  0.00    -0.550 OA
ENDBRANCH   5   6
ENDBRANCH   1   5
TORSDOF 3
ENDMDL
