MODEL 1
REMARK VINA RESULT:    -3.402      0.000      0.000
REMARK INTER + INTRA:          -7.682
REMARK INTER:                  -5.988
REMARK INTRA:                  -1.694
REMARK UNBOUND:                -1.694
REMARK SMILES CCCCCCC=CCCCCCCCC(=O)[O-]
REMARK SMILES IDX 10 1 11 2 12 3 13 4 14 5 15 6 16 7 17 8 18 9 9 10 8 11 7 12
REMARK SMILES IDX 6 13 5 14 4 15 3 16 2 17 1 18
REMARK H PARENT
REMARK Flexibility Score: inf
ROOT
ATOM      1  C   UNL     1      -6.493  21.754   7.428  1.00  0.00     0.004 C 
ENDROOT
BRANCH   1   2
ATOM      2  C   UNL     1      -5.872  22.609   6.312  1.00  0.00     0.000 C 
BRANCH   2   3
ATOM      3  C   UNL     1      -4.415  22.998   6.610  1.00  0.00     0.000 C 
BRANCH   3   4
ATOM      4  C   UNL     1      -4.305  24.147   7.626  1.00  0.00     0.000 C 
BRANCH   4   5
ATOM      5  C   UNL     1      -3.342  23.824   8.783  1.00  0.00     0.006 C 
BRANCH   5   6
ATOM      6  C   UNL     1      -3.166  25.014   9.736  1.00  0.00     0.053 C 
BRANCH   6   7
ATOM      7  C   UNL     1      -3.310  24.606  11.171  1.00  0.00     0.041 C 
ATOM      8  O   UNL     1      -3.001  23.439  11.531  1.00  0.00    -0.550 OA
ATOM      9  O   UNL     1      -3.815  25.502  12.103  1.00  0.00    -0.550 OA
ENDBRANCH   6   7
ENDBRANCH   5   6
ENDBRANCH   4   5
ENDBRANCH   3   4
ENDBRANCH   2   3
ENDBRANCH   1   2
BRANCH   1  10
ATOM     10  C   UNL     1      -7.615  22.486   8.182  1.00  0.00     0.027 C 
BRANCH  10  11
ATOM     11  C   UNL     1      -7.496  22.275   9.665  1.00  0.00    -0.031 C 
ATOM     12  C   UNL     1      -6.445  22.738  10.359  1.00  0.00    -0.031 C 
BRANCH  12  13
ATOM     13  C   UNL     1      -6.334  22.544  11.846  1.00  0.00     0.027 C 
BRANCH  13  14
ATOM     14  C   UNL     1      -6.907  21.183  12.270  1.00  0.00     0.004 C 
BRANCH  14  15
ATOM     15  C   UNL     1      -8.036  21.313  13.305  1.00  0.00     0.000 C 
BRANCH  15  16
ATOM     16  C   UNL     1      -9.176  20.311  13.068  1.00  0.00    -0.000 C 
BRANCH  16  17
ATOM     17  C   UNL     1     -10.289  20.939  12.221  1.00  0.00    -0.003 C 
ATOM     18  C   UNL     1     -10.381  20.274  10.850  1.00  0.00     0.004 C 
ENDBRANCH  16  17
ENDBRANCH  15  16
ENDBRANCH  14  15
ENDBRANCH  13  14
ENDBRANCH  12  13
ENDBRANCH  10  11
ENDBRANCH   1  10
TORSDOF 13
ENDMDL
MODEL 2
REMARK VINA RESULT:    -3.313      1.665      3.029
REMARK INTER + INTRA:          -7.525
REMARK INTER:                  -5.499
REMARK INTRA:                  -2.026
REMARK UNBOUND:                -1.694
REMARK SMILES CCCCCCC=CCCCCCCCC(=O)[O-]
REMARK SMILES IDX 10 1 11 2 12 3 13 4 14 5 15 6 16 7 17 8 18 9 9 10 8 11 7 12
REMARK SMILES IDX 6 13 5 14 4 15 3 16 2 17 1 18
REMARK H PARENT
REMARK Flexibility Score: inf
ROOT
ATOM      1  C   UNL     1      -8.839  22.522   9.028  1.00  0.00     0.004 C 
ENDROOT
BRANCH   1   2
ATOM      2  C   UNL     1      -7.797  22.136   7.966  1.00  0.00     0.000 C 
BRANCH   2   3
ATOM      3  C   UNL     1      -6.359  22.461   8.406  1.00  0.00     0.000 C 
BRANCH   3   4
ATOM      4  C   UNL     1      -6.242  22.686   9.923  1.00  0.00     0.000 C 
BRANCH   4   5
ATOM      5  C   UNL     1      -5.476  23.975  10.272  1.00  0.00     0.006 C 
BRANCH   5   6
ATOM      6  C   UNL     1      -4.094  23.680  10.871  1.00  0.00     0.053 C 
BRANCH   6   7
ATOM      7  C   UNL     1      -2.988  24.232  10.024  1.00  0.00     0.041 C 
ATOM      8  O   UNL     1      -3.040  24.128   8.770  1.00  0.00    -0.550 OA
ATOM      9  O   UNL     1      -1.887  24.833  10.619  1.00  0.00    -0.550 OA
ENDBRANCH   6   7
ENDBRANCH   5   6
ENDBRANCH   4   5
ENDBRANCH   3   4
ENDBRANCH   2   3
ENDBRANCH   1   2
BRANCH   1  10
ATOM     10  C   UNL     1     -10.115  21.669   8.945  1.00  0.00     0.027 C 
BRANCH  10  11
ATOM     11  C   UNL     1     -10.328  20.891  10.213  1.00  0.00    -0.031 C 
ATOM     12  C   UNL     1      -9.461  20.962  11.235  1.00  0.00    -0.031 C 
BRANCH  12  13
ATOM     13  C   UNL     1      -9.684  20.200  12.512  1.00  0.00     0.027 C 
BRANCH  13  14
ATOM     14  C   UNL     1      -8.632  20.573  13.569  1.00  0.00     0.004 C 
BRANCH  14  15
ATOM     15  C   UNL     1      -7.747  21.751  13.133  1.00  0.00     0.000 C 
BRANCH  15  16
ATOM     16  C   UNL     1      -7.911  22.982  14.036  1.00  0.00    -0.000 C 
BRANCH  16  17
ATOM     17  C   UNL     1      -7.637  24.274  13.257  1.00  0.00    -0.003 C 
ATOM     18  C   UNL     1      -8.688  24.496  12.173  1.00  0.00     0.004 C 
ENDBRANCH  16  17
ENDBRANCH  15  16
ENDBRANCH  14  15
ENDBRANCH  13  14
ENDBRANCH  12  13
ENDBRANCH  10  11
ENDBRANCH   1  10
TORSDOF 13
ENDMDL
MODEL 3
REMARK VINA RESULT:    -3.239      1.990      3.894
REMARK INTER + INTRA:          -7.395
REMARK INTER:                  -5.634
REMARK INTRA:                  -1.761
REMARK UNBOUND:                -1.694
REMARK SMILES CCCCCCC=CCCCCCCCC(=O)[O-]
REMARK SMILES IDX 10 1 11 2 12 3 13 4 14 5 15 6 16 7 17 8 18 9 9 10 8 11 7 12
REMARK SMILES IDX 6 13 5 14 4 15 3 16 2 17 1 18
REMARK H PARENT
REMARK Flexibility Score: inf
ROOT
ATOM      1  C   UNL     1      -6.377  22.304  11.142  1.00  0.00     0.004 C 
ENDROOT
BRANCH   1   2
ATOM      2  C   UNL     1      -7.654  22.827  10.466  1.00  0.00     0.000 C 
BRANCH   2   3
ATOM      3  C   UNL     1      -7.423  23.223   8.998  1.00  0.00     0.000 C 
BRANCH   3   4
ATOM      4  C   UNL     1      -6.550  22.207   8.242  1.00  0.00     0.000 C 
BRANCH   4   5
ATOM      5  C   UNL     1      -5.365  22.868   7.516  1.00  0.00     0.006 C 
BRANCH   5   6
ATOM      6  C   UNL     1      -4.971  24.207   8.155  1.00  0.00     0.053 C 
BRANCH   6   7
ATOM      7  C   UNL     1      -3.572  24.179   8.693  1.00  0.00     0.041 C 
ATOM      8  O   UNL     1      -2.622  24.643   8.009  1.00  0.00    -0.550 OA
ATOM      9  O   UNL     1      -3.314  23.612   9.934  1.00  0.00    -0.550 OA
ENDBRANCH   6   7
ENDBRANCH   5   6
ENDBRANCH   4   5
ENDBRANCH   3   4
ENDBRANCH   2   3
ENDBRANCH   1   2
BRANCH   1  10
ATOM     10  C   UNL     1      -6.670  21.302  12.271  1.00  0.00     0.027 C 
BRANCH  10  11
ATOM     11  C   UNL     1      -8.149  21.174  12.507  1.00  0.00    -0.031 C 
ATOM     12  C   UNL     1      -8.638  20.439  13.518  1.00  0.00    -0.031 C 
BRANCH  12  13
ATOM     13  C   UNL     1     -10.116  20.325  13.767  1.00  0.00     0.027 C 
BRANCH  13  14
ATOM     14  C   UNL     1     -10.735  21.701  14.058  1.00  0.00     0.004 C 
BRANCH  14  15
ATOM     15  C   UNL     1     -10.187  22.336  15.346  1.00  0.00     0.000 C 
BRANCH  15  16
ATOM     16  C   UNL     1      -9.681  23.770  15.130  1.00  0.00    -0.000 C 
BRANCH  16  17
ATOM     17  C   UNL     1      -8.150  23.804  15.047  1.00  0.00    -0.003 C 
ATOM     18  C   UNL     1      -7.682  24.653  13.868  1.00  0.00     0.004 C 
ENDBRANCH  16  17
ENDBRANCH  15  16
ENDBRANCH  14  15
ENDBRANCH  13  14
ENDBRANCH  12  13
ENDBRANCH  10  11
ENDBRANCH   1  10
TORSDOF 13
ENDMDL
MODEL 4
REMARK VINA RESULT:    -3.201      1.643      2.631
REMARK INTER + INTRA:          -7.328
REMARK INTER:                  -5.302
REMARK INTRA:                  -2.026
REMARK UNBOUND:                -1.694
REMARK SMILES CCCCCCC=CCCCCCCCC(=O)[O-]
REMARK SMILES IDX 10 1 11 2 12 3 13 4 14 5 15 6 16 7 17 8 18 9 9 10 8 11 7 12
REMARK SMILES IDX 6 13 5 14 4 15 3 16 2 17 1 18
REMARK H PARENT
REMARK Flexibility Score: inf
ROOT
ATOM      1  C   UNL     1      -7.062  24.524   9.488  1.00  0.00     0.004 C 
ENDROOT
BRANCH   1   2
ATOM      2  C   UNL     1      -5.979  24.811   8.435  1.00  0.00     0.000 C 
BRANCH   2   3
ATOM      3  C   UNL     1      -4.976  23.654   8.292  1.00  0.00     0.000 C 
BRANCH   3   4
ATOM      4  C   UNL     1      -3.594  23.995   8.874  1.00  0.00     0.000 C 
BRANCH   4   5
ATOM      5  C   UNL     1      -3.482  23.654  10.371  1.00  0.00     0.006 C 
BRANCH   5   6
ATOM      6  C   UNL     1      -3.568  24.905  11.256  1.00  0.00     0.053 C 
BRANCH   6   7
ATOM      7  C   UNL     1      -2.278  25.174  11.971  1.00  0.00     0.041 C 
ATOM      8  O   UNL     1      -2.259  25.930  12.978  1.00  0.00    -0.550 OA
ATOM      9  O   UNL     1      -1.095  24.617  11.506  1.00  0.00    -0.550 OA
ENDBRANCH   6   7
ENDBRANCH   5   6
ENDBRANCH   4   5
ENDBRANCH   3   4
ENDBRANCH   2   3
ENDBRANCH   1   2
BRANCH   1  10
ATOM     10  C   UNL     1      -7.767  23.177   9.262  1.00  0.00     0.027 C 
BRANCH  10  11
ATOM     11  C   UNL     1      -7.806  22.369  10.530  1.00  0.00    -0.031 C 
ATOM     12  C   UNL     1      -6.681  22.007  11.167  1.00  0.00    -0.031 C 
BRANCH  12  13
ATOM     13  C   UNL     1      -6.719  21.216  12.445  1.00  0.00     0.027 C 
BRANCH  13  14
ATOM     14  C   UNL     1      -8.166  20.910  12.863  1.00  0.00     0.004 C 
BRANCH  14  15
ATOM     15  C   UNL     1      -8.550  21.572  14.195  1.00  0.00     0.000 C 
BRANCH  15  16
ATOM     16  C   UNL     1      -9.064  23.008  14.017  1.00  0.00    -0.000 C 
BRANCH  16  17
ATOM     17  C   UNL     1      -8.032  24.026  14.519  1.00  0.00    -0.003 C 
ATOM     18  C   UNL     1      -7.434  24.821  13.361  1.00  0.00     0.004 C 
ENDBRANCH  16  17
ENDBRANCH  15  16
ENDBRANCH  14  15
ENDBRANCH  13  14
ENDBRANCH  12  13
ENDBRANCH  10  11
ENDBRANCH   1  10
TORSDOF 13
ENDMDL
MODEL 5
REMARK VINA RESULT:    -3.196      2.330      5.633
REMARK INTER + INTRA:          -7.318
REMARK INTER:                  -5.342
REMARK INTRA:                  -1.976
REMARK UNBOUND:                -1.694
REMARK SMILES CCCCCCC=CCCCCCCCC(=O)[O-]
REMARK SMILES IDX 10 1 11 2 12 3 13 4 14 5 15 6 16 7 17 8 18 9 9 10 8 11 7 12
REMARK SMILES IDX 6 13 5 14 4 15 3 16 2 17 1 18
REMARK H PARENT
REMARK Flexibility Score: inf
ROOT
ATOM      1  C   UNL     1      -7.601  22.494   7.451  1.00  0.00     0.004 C 
ENDROOT
BRANCH   1   2
ATOM      2  C   UNL     1      -6.475  22.109   8.423  1.00  0.00     0.000 C 
BRANCH   2   3
ATOM      3  C   UNL     1      -6.833  22.411   9.888  1.00  0.00     0.000 C 
BRANCH   3   4
ATOM      4  C   UNL     1      -5.629  22.916  10.699  1.00  0.00     0.000 C 
BRANCH   4   5
ATOM      5  C   UNL     1      -4.955  24.142  10.057  1.00  0.00     0.006 C 
BRANCH   5   6
ATOM      6  C   UNL     1      -3.435  23.969   9.935  1.00  0.00     0.053 C 
BRANCH   6   7
ATOM      7  C   UNL     1      -2.703  24.659  11.046  1.00  0.00     0.041 C 
ATOM      8  O   UNL     1      -1.447  24.593  11.112  1.00  0.00    -0.550 OA
ATOM      9  O   UNL     1      -3.408  25.347  12.024  1.00  0.00    -0.550 OA
ENDBRANCH   6   7
ENDBRANCH   5   6
ENDBRANCH   4   5
ENDBRANCH   3   4
ENDBRANCH   2   3
ENDBRANCH   1   2
BRANCH   1  10
ATOM     10  C   UNL     1      -7.778  21.474   6.314  1.00  0.00     0.027 C 
BRANCH  10  11
ATOM     11  C   UNL     1      -6.500  20.728   6.054  1.00  0.00    -0.031 C 
ATOM     12  C   UNL     1      -5.900  20.758   4.854  1.00  0.00    -0.031 C 
BRANCH  12  13
ATOM     13  C   UNL     1      -4.611  20.028   4.598  1.00  0.00     0.027 C 
BRANCH  13  14
ATOM     14  C   UNL     1      -3.403  20.962   4.771  1.00  0.00     0.004 C 
BRANCH  14  15
ATOM     15  C   UNL     1      -3.796  22.448   4.746  1.00  0.00     0.000 C 
BRANCH  15  16
ATOM     16  C   UNL     1      -3.482  23.166   6.067  1.00  0.00    -0.000 C 
BRANCH  16  17
ATOM     17  C   UNL     1      -4.469  24.313   6.315  1.00  0.00    -0.003 C 
ATOM     18  C   UNL     1      -5.359  24.547   5.097  1.00  0.00     0.004 C 
ENDBRANCH  16  17
ENDBRANCH  15  16
ENDBRANCH  14  15
ENDBRANCH  13  14
ENDBRANCH  12  13
ENDBRANCH  10  11
ENDBRANCH   1  10
TORSDOF 13
ENDMDL
MODEL 6
REMARK VINA RESULT:    -3.189      1.471      2.051
REMARK INTER + INTRA:          -7.306
REMARK INTER:                  -5.536
REMARK INTRA:                  -1.770
REMARK UNBOUND:                -1.694
REMARK SMILES CCCCCCC=CCCCCCCCC(=O)[O-]
REMARK SMILES IDX 10 1 11 2 12 3 13 4 14 5 15 6 16 7 17 8 18 9 9 10 8 11 7 12
REMARK SMILES IDX 6 13 5 14 4 15 3 16 2 17 1 18
REMARK H PARENT
REMARK Flexibility Score: inf
ROOT
ATOM      1  C   UNL     1      -7.679  22.676   9.441  1.00  0.00     0.004 C 
ENDROOT
BRANCH   1   2
ATOM      2  C   UNL     1      -7.104  23.034   8.061  1.00  0.00     0.000 C 
BRANCH   2   3
ATOM      3  C   UNL     1      -5.576  22.870   8.000  1.00  0.00     0.000 C 
BRANCH   3   4
ATOM      4  C   UNL     1      -4.832  24.207   8.154  1.00  0.00     0.000 C 
BRANCH   4   5
ATOM      5  C   UNL     1      -3.432  24.038   8.771  1.00  0.00     0.006 C 
BRANCH   5   6
ATOM      6  C   UNL     1      -3.491  23.832  10.291  1.00  0.00     0.053 C 
BRANCH   6   7
ATOM      7  C   UNL     1      -2.494  24.689  11.010  1.00  0.00     0.041 C 
ATOM      8  O   UNL     1      -1.803  25.527  10.372  1.00  0.00    -0.550 OA
ATOM      9  O   UNL     1      -2.303  24.538  12.377  1.00  0.00    -0.550 OA
ENDBRANCH   6   7
ENDBRANCH   5   6
ENDBRANCH   4   5
ENDBRANCH   3   4
ENDBRANCH   2   3
ENDBRANCH   1   2
BRANCH   1  10
ATOM     10  C   UNL     1      -6.657  21.970  10.345  1.00  0.00     0.027 C 
BRANCH  10  11
ATOM     11  C   UNL     1      -6.734  22.488  11.754  1.00  0.00    -0.031 C 
ATOM     12  C   UNL     1      -7.537  23.512  12.083  1.00  0.00    -0.031 C 
BRANCH  12  13
ATOM     13  C   UNL     1      -7.629  24.019  13.495  1.00  0.00     0.027 C 
BRANCH  13  14
ATOM     14  C   UNL     1      -8.867  23.450  14.207  1.00  0.00     0.004 C 
BRANCH  14  15
ATOM     15  C   UNL     1      -8.560  22.164  14.991  1.00  0.00     0.000 C 
BRANCH  15  16
ATOM     16  C   UNL     1      -9.498  21.006  14.619  1.00  0.00    -0.000 C 
BRANCH  16  17
ATOM     17  C   UNL     1      -8.930  20.194  13.449  1.00  0.00    -0.003 C 
ATOM     18  C   UNL     1      -9.810  20.326  12.209  1.00  0.00     0.004 C 
ENDBRANCH  16  17
ENDBRANCH  15  16
ENDBRANCH  14  15
ENDBRANCH  13  14
ENDBRANCH  12  13
ENDBRANCH  10  11
ENDBRANCH   1  10
TORSDOF 13
ENDMDL
MODEL 7
REMARK VINA RESULT:    -3.188      1.332      2.558
REMARK INTER + INTRA:          -7.305
REMARK INTER:                  -5.472
REMARK INTRA:                  -1.833
REMARK UNBOUND:                -1.694
REMARK SMILES CCCCCCC=CCCCCCCCC(=O)[O-]
REMARK SMILES IDX 10 1 11 2 12 3 13 4 14 5 15 6 16 7 17 8 18 9 9 10 8 11 7 12
REMARK SMILES IDX 6 13 5 14 4 15 3 16 2 17 1 18
REMARK H PARENT
REMARK Flexibility Score: inf
ROOT
ATOM      1  C   UNL     1      -4.656  23.237   5.366  1.00  0.00     0.004 C 
ENDROOT
BRANCH   1   2
ATOM      2  C   UNL     1      -3.137  23.379   5.545  1.00  0.00     0.000 C 
BRANCH   2   3
ATOM      3  C   UNL     1      -2.763  24.133   6.832  1.00  0.00     0.000 C 
BRANCH   3   4
ATOM      4  C   UNL     1      -3.825  25.167   7.241  1.00  0.00     0.000 C 
BRANCH   4   5
ATOM      5  C   UNL     1      -4.077  25.187   8.759  1.00  0.00     0.006 C 
BRANCH   5   6
ATOM      6  C   UNL     1      -3.528  23.933   9.453  1.00  0.00     0.053 C 
BRANCH   6   7
ATOM      7  C   UNL     1      -3.710  23.991  10.939  1.00  0.00     0.041 C 
ATOM      8  O   UNL     1      -3.086  23.190  11.685  1.00  0.00    -0.550 OA
ATOM      9  O   UNL     1      -4.591  24.907  11.498  1.00  0.00    -0.550 OA
ENDBRANCH   6   7
ENDBRANCH   5   6
ENDBRANCH   4   5
ENDBRANCH   3   4
ENDBRANCH   2   3
ENDBRANCH   1   2
BRANCH   1  10
ATOM     10  C   UNL     1      -5.173  21.843   5.756  1.00  0.00     0.027 C 
BRANCH  10  11
ATOM     11  C   UNL     1      -6.425  21.943   6.581  1.00  0.00    -0.031 C 
ATOM     12  C   UNL     1      -6.405  22.424   7.834  1.00  0.00    -0.031 C 
BRANCH  12  13
ATOM     13  C   UNL     1      -7.659  22.543   8.654  1.00  0.00     0.027 C 
BRANCH  13  14
ATOM     14  C   UNL     1      -7.336  22.907  10.111  1.00  0.00     0.004 C 
BRANCH  14  15
ATOM     15  C   UNL     1      -6.554  21.801  10.837  1.00  0.00     0.000 C 
BRANCH  15  16
ATOM     16  C   UNL     1      -6.631  21.927  12.366  1.00  0.00    -0.000 C 
BRANCH  16  17
ATOM     17  C   UNL     1      -7.739  21.033  12.935  1.00  0.00    -0.003 C 
ATOM     18  C   UNL     1      -8.736  21.846  13.756  1.00  0.00     0.004 C 
ENDBRANCH  16  17
ENDBRANCH  15  16
ENDBRANCH  14  15
ENDBRANCH  13  14
ENDBRANCH  12  13
ENDBRANCH  10  11
ENDBRANCH   1  10
TORSDOF 13
ENDMDL
MODEL 8
REMARK VINA RESULT:    -3.173      1.434      2.268
REMARK INTER + INTRA:          -7.278
REMARK INTER:                  -5.835
REMARK INTRA:                  -1.444
REMARK UNBOUND:                -1.694
REMARK SMILES CCCCCCC=CCCCCCCCC(=O)[O-]
REMARK SMILES IDX 10 1 11 2 12 3 13 4 14 5 15 6 16 7 17 8 18 9 9 10 8 11 7 12
REMARK SMILES IDX 6 13 5 14 4 15 3 16 2 17 1 18
REMARK H PARENT
REMARK Flexibility Score: inf
ROOT
ATOM      1  C   UNL     1      -6.457  21.621   6.980  1.00  0.00     0.004 C 
ENDROOT
BRANCH   1   2
ATOM      2  C   UNL     1      -5.511  22.462   6.109  1.00  0.00     0.000 C 
BRANCH   2   3
ATOM      3  C   UNL     1      -4.320  23.022   6.905  1.00  0.00     0.000 C 
BRANCH   3   4
ATOM      4  C   UNL     1      -4.337  24.558   6.993  1.00  0.00     0.000 C 
BRANCH   4   5
ATOM      5  C   UNL     1      -3.657  25.085   8.269  1.00  0.00     0.006 C 
BRANCH   5   6
ATOM      6  C   UNL     1      -3.342  23.959   9.263  1.00  0.00     0.053 C 
BRANCH   6   7
ATOM      7  C   UNL     1      -2.645  24.473  10.487  1.00  0.00     0.041 C 
ATOM      8  O   UNL     1      -1.941  25.515  10.423  1.00  0.00    -0.550 OA
ATOM      9  O   UNL     1      -2.747  23.783  11.687  1.00  0.00    -0.550 OA
ENDBRANCH   6   7
ENDBRANCH   5   6
ENDBRANCH   4   5
ENDBRANCH   3   4
ENDBRANCH   2   3
ENDBRANCH   1   2
BRANCH   1  10
ATOM     10  C   UNL     1      -7.186  22.457   8.044  1.00  0.00     0.027 C 
BRANCH  10  11
ATOM     11  C   UNL     1      -6.735  22.080   9.427  1.00  0.00    -0.031 C 
ATOM     12  C   UNL     1      -6.602  22.999  10.397  1.00  0.00    -0.031 C 
BRANCH  12  13
ATOM     13  C   UNL     1      -6.170  22.621  11.787  1.00  0.00     0.027 C 
BRANCH  13  14
ATOM     14  C   UNL     1      -6.882  21.344  12.259  1.00  0.00     0.004 C 
BRANCH  14  15
ATOM     15  C   UNL     1      -8.127  21.641  13.110  1.00  0.00     0.000 C 
BRANCH  15  16
ATOM     16  C   UNL     1      -8.048  23.000  13.822  1.00  0.00    -0.000 C 
BRANCH  16  17
ATOM     17  C   UNL     1      -8.113  22.825  15.344  1.00  0.00    -0.003 C 
ATOM     18  C   UNL     1      -7.989  24.168  16.059  1.00  0.00     0.004 C 
ENDBRANCH  16  17
ENDBRANCH  15  16
ENDBRANCH  14  15
ENDBRANCH  13  14
ENDBRANCH  12  13
ENDBRANCH  10  11
ENDBRANCH   1  10
TORSDOF 13
ENDMDL
MODEL 9
REMARK VINA RESULT:    -3.169      3.154      7.019
REMARK INTER + INTRA:          -7.271
REMARK INTER:                  -5.666
REMARK INTRA:                  -1.605
REMARK UNBOUND:                -1.694
REMARK SMILES CCCCCCC=CCCCCCCCC(=O)[O-]
REMARK SMILES IDX 10 1 11 2 12 3 13 4 14 5 15 6 16 7 17 8 18 9 9 10 8 11 7 12
REMARK SMILES IDX 6 13 5 14 4 15 3 16 2 17 1 18
REMARK H PARENT
REMARK Flexibility Score: inf
ROOT
ATOM      1  C   UNL     1     -11.055  21.321  13.241  1.00  0.00     0.004 C 
ENDROOT
BRANCH   1   2
ATOM      2  C   UNL     1     -11.352  22.190  14.473  1.00  0.00     0.000 C 
BRANCH   2   3
ATOM      3  C   UNL     1     -10.936  23.657  14.273  1.00  0.00     0.000 C 
BRANCH   3   4
ATOM      4  C   UNL     1      -9.477  23.919  14.681  1.00  0.00     0.000 C 
BRANCH   4   5
ATOM      5  C   UNL     1      -9.089  23.200  15.986  1.00  0.00     0.006 C 
BRANCH   5   6
ATOM      6  C   UNL     1      -7.605  23.387  16.330  1.00  0.00     0.053 C 
BRANCH   6   7
ATOM      7  C   UNL     1      -7.378  24.599  17.182  1.00  0.00     0.041 C 
ATOM      8  O   UNL     1      -6.222  25.088  17.291  1.00  0.00    -0.550 OA
ATOM      9  O   UNL     1      -8.434  25.167  17.881  1.00  0.00    -0.550 OA
ENDBRANCH   6   7
ENDBRANCH   5   6
ENDBRANCH   4   5
ENDBRANCH   3   4
ENDBRANCH   2   3
ENDBRANCH   1   2
BRANCH   1  10
ATOM     10  C   UNL     1     -10.199  20.089  13.575  1.00  0.00     0.027 C 
BRANCH  10  11
ATOM     11  C   UNL     1      -8.734  20.428  13.555  1.00  0.00    -0.031 C 
ATOM     12  C   UNL     1      -8.187  21.121  12.545  1.00  0.00    -0.031 C 
BRANCH  12  13
ATOM     13  C   UNL     1      -6.727  21.477  12.533  1.00  0.00     0.027 C 
BRANCH  13  14
ATOM     14  C   UNL     1      -6.490  22.818  11.820  1.00  0.00     0.004 C 
BRANCH  14  15
ATOM     15  C   UNL     1      -6.281  22.654  10.307  1.00  0.00     0.000 C 
BRANCH  15  16
ATOM     16  C   UNL     1      -5.197  23.591   9.753  1.00  0.00    -0.000 C 
BRANCH  16  17
ATOM     17  C   UNL     1      -4.051  23.757  10.758  1.00  0.00    -0.003 C 
ATOM     18  C   UNL     1      -2.948  24.648  10.194  1.00  0.00     0.004 C 
ENDBRANCH  16  17
ENDBRANCH  15  16
ENDBRANCH  14  15
ENDBRANCH  13  14
ENDBRANCH  12  13
ENDBRANCH  10  11
ENDBRANCH   1  10
TORSDOF 13
ENDMDL
