MODEL 1
REMARK VINA RESULT:    -4.352      0.000      0.000
REMARK INTER + INTRA:          -4.479
REMARK INTER:                  -4.479
REMARK INTRA:                   0.000
REMARK UNBOUND:                 0.000
REMARK SMILES C[C@H]1CC[C@H]2C(C)(C)[C@H]3C[C@@]12CC[C@@]3(C)O
REMARK SMILES IDX 1 1 2 2 3 3 4 4 5 5 11 6 12 7 13 8 14 9 9 10 10 11 6 12 7 13
REMARK SMILES IDX 8 14 15 15 16 16
REMARK H PARENT 16 17
REMARK Flexibility Score: inf
ROOT
ATOM      1  C   UNL     1     138.496 137.250 143.981  1.00  0.00     0.008 C 
ATOM      2  C   UNL     1     139.298 138.310 143.211  1.00  0.00    -0.008 C 
ATOM      3  C   UNL     1     140.154 139.179 144.125  1.00  0.00     0.004 C 
ATOM      4  C   UNL     1     141.204 139.799 143.212  1.00  0.00     0.005 C 
ATOM      5  C   UNL     1     141.390 138.828 142.021  1.00  0.00     0.001 C 
ATOM      6  C   UNL     1     140.282 137.758 142.159  1.00  0.00    -0.023 C 
ATOM      7  C   UNL     1     139.603 137.455 140.794  1.00  0.00     0.010 C 
ATOM      8  C   UNL     1     140.630 137.057 139.703  1.00  0.00     0.036 C 
ATOM      9  C   UNL     1     141.797 136.150 140.211  1.00  0.00     0.065 C 
ATOM     10  C   UNL     1     142.252 136.545 141.679  1.00  0.00     0.027 C 
ATOM     11  C   UNL     1     141.030 136.496 142.592  1.00  0.00     0.014 C 
ATOM     12  C   UNL     1     142.738 138.025 141.895  1.00  0.00    -0.026 C 
ATOM     13  C   UNL     1     143.625 138.073 143.174  1.00  0.00     0.012 C 
ATOM     14  C   UNL     1     143.614 138.591 140.750  1.00  0.00     0.012 C 
ATOM     15  C   UNL     1     141.338 134.670 140.150  1.00  0.00     0.042 C 
ENDROOT
BRANCH   9  16
ATOM     16  O   UNL     1     142.876 136.281 139.316  1.00  0.00    -0.390 OA
ATOM     17  H   UNL     1     143.365 137.113 139.548  1.00  0.00     0.211 HD
ENDBRANCH   9  16
TORSDOF 1
ENDMDL
MODEL 2
REMARK VINA RESULT:    -4.348      5.474      7.674
REMARK INTER + INTRA:          -4.475
REMARK INTER:                  -4.475
REMARK INTRA:                   0.000
REMARK UNBOUND:                 0.000
REMARK SMILES C[C@H]1CC[C@H]2C(C)(C)[C@H]3C[C@@]12CC[C@@]3(C)O
REMARK SMILES IDX 1 1 2 2 3 3 4 4 5 5 11 6 12 7 13 8 14 9 9 10 10 11 6 12 7 13
REMARK SMILES IDX 8 14 15 15 16 16
REMARK H PARENT 16 17
REMARK Flexibility Score: inf
ROOT
ATOM      1  C   UNL     1     143.118 144.375 143.998  1.00  0.00     0.008 C 
ATOM      2  C   UNL     1     142.326 143.315 143.219  1.00  0.00    -0.008 C 
ATOM      3  C   UNL     1     141.473 142.435 144.125  1.00  0.00     0.004 C 
ATOM      4  C   UNL     1     140.430 141.813 143.205  1.00  0.00     0.005 C 
ATOM      5  C   UNL     1     140.242 142.789 142.019  1.00  0.00     0.001 C 
ATOM      6  C   UNL     1     141.343 143.866 142.166  1.00  0.00    -0.023 C 
ATOM      7  C   UNL     1     142.024 144.181 140.806  1.00  0.00     0.010 C 
ATOM      8  C   UNL     1     141.000 144.578 139.713  1.00  0.00     0.036 C 
ATOM      9  C   UNL     1     139.825 145.475 140.222  1.00  0.00     0.065 C 
ATOM     10  C   UNL     1     139.367 145.069 141.686  1.00  0.00     0.027 C 
ATOM     11  C   UNL     1     140.585 145.121 142.604  1.00  0.00     0.014 C 
ATOM     12  C   UNL     1     138.889 143.584 141.892  1.00  0.00    -0.026 C 
ATOM     13  C   UNL     1     137.998 143.523 143.167  1.00  0.00     0.012 C 
ATOM     14  C   UNL     1     138.022 143.019 140.740  1.00  0.00     0.012 C 
ATOM     15  C   UNL     1     140.273 146.958 140.171  1.00  0.00     0.042 C 
ENDROOT
BRANCH   9  16
ATOM     16  O   UNL     1     138.750 145.342 139.322  1.00  0.00    -0.390 OA
ATOM     17  H   UNL     1     138.963 145.876 138.512  1.00  0.00     0.211 HD
ENDBRANCH   9  16
TORSDOF 1
ENDMDL
MODEL 3
REMARK VINA RESULT:    -4.341      3.863      5.434
REMARK INTER + INTRA:          -4.468
REMARK INTER:                  -4.468
REMARK INTRA:                   0.000
REMARK UNBOUND:                 0.000
REMARK SMILES C[C@H]1CC[C@H]2C(C)(C)[C@H]3C[C@@]12CC[C@@]3(C)O
REMARK SMILES IDX 1 1 2 2 3 3 4 4 5 5 11 6 12 7 13 8 14 9 9 10 10 11 6 12 7 13
REMARK SMILES IDX 8 14 15 15 16 16
REMARK H PARENT 16 17
REMARK Flexibility Score: inf
ROOT
ATOM      1  C   UNL     1     137.279 143.137 143.981  1.00  0.00     0.008 C 
ATOM      2  C   UNL     1     138.328 142.323 143.210  1.00  0.00    -0.008 C 
ATOM      3  C   UNL     1     139.198 141.469 144.125  1.00  0.00     0.004 C 
ATOM      4  C   UNL     1     139.804 140.407 143.216  1.00  0.00     0.005 C 
ATOM      5  C   UNL     1     138.825 140.218 142.033  1.00  0.00     0.001 C 
ATOM      6  C   UNL     1     137.762 141.334 142.169  1.00  0.00    -0.023 C 
ATOM      7  C   UNL     1     137.455 142.004 140.801  1.00  0.00     0.010 C 
ATOM      8  C   UNL     1     137.043 140.972 139.721  1.00  0.00     0.036 C 
ATOM      9  C   UNL     1     136.131 139.815 140.245  1.00  0.00     0.065 C 
ATOM     10  C   UNL     1     136.533 139.369 141.714  1.00  0.00     0.027 C 
ATOM     11  C   UNL     1     136.498 140.598 142.617  1.00  0.00     0.014 C 
ATOM     12  C   UNL     1     138.012 138.874 141.923  1.00  0.00    -0.026 C 
ATOM     13  C   UNL     1     138.063 137.997 143.209  1.00  0.00     0.012 C 
ATOM     14  C   UNL     1     138.564 137.986 140.781  1.00  0.00     0.012 C 
ATOM     15  C   UNL     1     134.654 140.283 140.190  1.00  0.00     0.042 C 
ENDROOT
BRANCH   9  16
ATOM     16  O   UNL     1     136.249 138.729 139.357  1.00  0.00    -0.390 OA
ATOM     17  H   UNL     1     135.352 138.556 138.965  1.00  0.00     0.211 HD
ENDBRANCH   9  16
TORSDOF 1
ENDMDL
MODEL 4
REMARK VINA RESULT:    -4.280      3.789      5.366
REMARK INTER + INTRA:          -4.405
REMARK INTER:                  -4.405
REMARK INTRA:                   0.000
REMARK UNBOUND:                 0.000
REMARK SMILES C[C@H]1CC[C@H]2C(C)(C)[C@H]3C[C@@]12CC[C@@]3(C)O
REMARK SMILES IDX 1 1 2 2 3 3 4 4 5 5 11 6 12 7 13 8 14 9 9 10 10 11 6 12 7 13
REMARK SMILES IDX 8 14 15 15 16 16
REMARK H PARENT 16 17
REMARK Flexibility Score: inf
ROOT
ATOM      1  C   UNL     1     144.260 138.428 144.004  1.00  0.00     0.008 C 
ATOM      2  C   UNL     1     143.210 139.230 143.221  1.00  0.00    -0.008 C 
ATOM      3  C   UNL     1     142.311 140.064 144.125  1.00  0.00     0.004 C 
ATOM      4  C   UNL     1     141.702 141.120 143.212  1.00  0.00     0.005 C 
ATOM      5  C   UNL     1     142.698 141.332 142.047  1.00  0.00     0.001 C 
ATOM      6  C   UNL     1     143.776 140.233 142.194  1.00  0.00    -0.023 C 
ATOM      7  C   UNL     1     144.118 139.576 140.828  1.00  0.00     0.010 C 
ATOM      8  C   UNL     1     144.531 140.620 139.761  1.00  0.00     0.036 C 
ATOM      9  C   UNL     1     145.414 141.790 140.306  1.00  0.00     0.065 C 
ATOM     10  C   UNL     1     144.980 142.221 141.770  1.00  0.00     0.027 C 
ATOM     11  C   UNL     1     145.020 140.987 142.667  1.00  0.00     0.014 C 
ATOM     12  C   UNL     1     143.490 142.690 141.957  1.00  0.00    -0.026 C 
ATOM     13  C   UNL     1     143.403 143.559 143.246  1.00  0.00     0.012 C 
ATOM     14  C   UNL     1     142.943 143.575 140.810  1.00  0.00     0.012 C 
ATOM     15  C   UNL     1     146.900 141.347 140.273  1.00  0.00     0.042 C 
ENDROOT
BRANCH   9  16
ATOM     16  O   UNL     1     145.293 142.879 139.422  1.00  0.00    -0.390 OA
ATOM     17  H   UNL     1     144.399 143.288 139.562  1.00  0.00     0.211 HD
ENDBRANCH   9  16
TORSDOF 1
ENDMDL
MODEL 5
REMARK VINA RESULT:    -4.183      4.417      5.998
REMARK INTER + INTRA:          -4.306
REMARK INTER:                  -4.306
REMARK INTRA:                   0.000
REMARK UNBOUND:                 0.000
REMARK SMILES C[C@H]1CC[C@H]2C(C)(C)[C@H]3C[C@@]12CC[C@@]3(C)O
REMARK SMILES IDX 1 1 2 2 3 3 4 4 5 5 11 6 12 7 13 8 14 9 9 10 10 11 6 12 7 13
REMARK SMILES IDX 8 14 15 15 16 16
REMARK H PARENT 16 17
REMARK Flexibility Score: inf
ROOT
ATOM      1  C   UNL     1     140.520 142.954 143.987  1.00  0.00     0.008 C 
ATOM      2  C   UNL     1     139.237 143.195 143.179  1.00  0.00    -0.008 C 
ATOM      3  C   UNL     1     139.513 143.752 141.788  1.00  0.00     0.004 C 
ATOM      4  C   UNL     1     138.248 143.468 140.990  1.00  0.00     0.005 C 
ATOM      5  C   UNL     1     137.579 142.231 141.636  1.00  0.00     0.001 C 
ATOM      6  C   UNL     1     138.365 141.946 142.937  1.00  0.00    -0.023 C 
ATOM      7  C   UNL     1     137.414 141.631 144.125  1.00  0.00     0.010 C 
ATOM      8  C   UNL     1     136.433 140.475 143.802  1.00  0.00     0.036 C 
ATOM      9  C   UNL     1     137.059 139.306 142.974  1.00  0.00     0.065 C 
ATOM     10  C   UNL     1     138.103 139.838 141.903  1.00  0.00     0.027 C 
ATOM     11  C   UNL     1     139.154 140.672 142.628  1.00  0.00     0.014 C 
ATOM     12  C   UNL     1     137.566 140.871 140.844  1.00  0.00    -0.026 C 
ATOM     13  C   UNL     1     138.514 140.849 139.608  1.00  0.00     0.012 C 
ATOM     14  C   UNL     1     136.150 140.560 140.300  1.00  0.00     0.012 C 
ATOM     15  C   UNL     1     137.727 138.306 143.952  1.00  0.00     0.042 C 
ENDROOT
BRANCH   9  16
ATOM     16  O   UNL     1     136.014 138.614 142.332  1.00  0.00    -0.390 OA
ATOM     17  H   UNL     1     135.640 137.959 142.979  1.00  0.00     0.211 HD
ENDBRANCH   9  16
TORSDOF 1
ENDMDL
MODEL 6
REMARK VINA RESULT:    -4.159      5.480      7.336
REMARK INTER + INTRA:          -4.281
REMARK INTER:                  -4.281
REMARK INTRA:                   0.000
REMARK UNBOUND:                 0.000
REMARK SMILES C[C@H]1CC[C@H]2C(C)(C)[C@H]3C[C@@]12CC[C@@]3(C)O
REMARK SMILES IDX 1 1 2 2 3 3 4 4 5 5 11 6 12 7 13 8 14 9 9 10 10 11 6 12 7 13
REMARK SMILES IDX 8 14 15 15 16 16
REMARK H PARENT 16 17
REMARK Flexibility Score: inf
ROOT
ATOM      1  C   UNL     1     143.035 141.126 144.092  1.00  0.00     0.008 C 
ATOM      2  C   UNL     1     143.287 142.375 143.235  1.00  0.00    -0.008 C 
ATOM      3  C   UNL     1     143.828 142.039 141.851  1.00  0.00     0.004 C 
ATOM      4  C   UNL     1     143.556 143.278 141.008  1.00  0.00     0.005 C 
ATOM      5  C   UNL     1     142.333 143.988 141.638  1.00  0.00     0.001 C 
ATOM      6  C   UNL     1     142.048 143.256 142.970  1.00  0.00    -0.023 C 
ATOM      7  C   UNL     1     141.756 144.255 144.124  1.00  0.00     0.010 C 
ATOM      8  C   UNL     1     140.611 145.239 143.773  1.00  0.00     0.036 C 
ATOM      9  C   UNL     1     139.427 144.598 142.979  1.00  0.00     0.065 C 
ATOM     10  C   UNL     1     139.935 143.508 141.944  1.00  0.00     0.027 C 
ATOM     11  C   UNL     1     140.761 142.473 142.701  1.00  0.00     0.014 C 
ATOM     12  C   UNL     1     140.966 143.990 140.857  1.00  0.00    -0.026 C 
ATOM     13  C   UNL     1     140.921 142.998 139.658  1.00  0.00     0.012 C 
ATOM     14  C   UNL     1     140.671 145.389 140.262  1.00  0.00     0.012 C 
ATOM     15  C   UNL     1     138.425 143.982 143.989  1.00  0.00     0.042 C 
ENDROOT
BRANCH   9  16
ATOM     16  O   UNL     1     138.744 145.628 142.304  1.00  0.00    -0.390 OA
ATOM     17  H   UNL     1     138.359 145.245 141.472  1.00  0.00     0.211 HD
ENDBRANCH   9  16
TORSDOF 1
ENDMDL
MODEL 7
REMARK VINA RESULT:    -4.153      1.466      3.267
REMARK INTER + INTRA:          -4.275
REMARK INTER:                  -4.275
REMARK INTRA:                   0.000
REMARK UNBOUND:                 0.000
REMARK SMILES C[C@H]1CC[C@H]2C(C)(C)[C@H]3C[C@@]12CC[C@@]3(C)O
REMARK SMILES IDX 1 1 2 2 3 3 4 4 5 5 11 6 12 7 13 8 14 9 9 10 10 11 6 12 7 13
REMARK SMILES IDX 8 14 15 15 16 16
REMARK H PARENT 16 17
REMARK Flexibility Score: inf
ROOT
ATOM      1  C   UNL     1     138.728 140.570 143.868  1.00  0.00     0.008 C 
ATOM      2  C   UNL     1     138.477 139.254 143.118  1.00  0.00    -0.008 C 
ATOM      3  C   UNL     1     137.876 139.470 141.734  1.00  0.00     0.004 C 
ATOM      4  C   UNL     1     138.150 138.177 140.977  1.00  0.00     0.005 C 
ATOM      5  C   UNL     1     139.414 137.547 141.611  1.00  0.00     0.001 C 
ATOM      6  C   UNL     1     139.729 138.385 142.872  1.00  0.00    -0.023 C 
ATOM      7  C   UNL     1     140.090 137.485 144.085  1.00  0.00     0.010 C 
ATOM      8  C   UNL     1     141.247 136.504 143.766  1.00  0.00     0.036 C 
ATOM      9  C   UNL     1     142.383 137.110 142.880  1.00  0.00     0.065 C 
ATOM     10  C   UNL     1     141.808 138.106 141.786  1.00  0.00     0.027 C 
ATOM     11  C   UNL     1     140.983 139.176 142.495  1.00  0.00     0.014 C 
ATOM     12  C   UNL     1     140.750 137.518 140.780  1.00  0.00    -0.026 C 
ATOM     13  C   UNL     1     140.725 138.417 139.508  1.00  0.00     0.012 C 
ATOM     14  C   UNL     1     141.061 136.085 140.281  1.00  0.00     0.012 C 
ATOM     15  C   UNL     1     143.404 137.825 143.801  1.00  0.00     0.042 C 
ENDROOT
BRANCH   9  16
ATOM     16  O   UNL     1     143.068 136.048 142.258  1.00  0.00    -0.390 OA
ATOM     17  H   UNL     1     142.751 135.200 142.668  1.00  0.00     0.211 HD
ENDBRANCH   9  16
TORSDOF 1
ENDMDL
MODEL 8
REMARK VINA RESULT:    -4.142      3.128      5.304
REMARK INTER + INTRA:          -4.263
REMARK INTER:                  -4.263
REMARK INTRA:                   0.000
REMARK UNBOUND:                 0.000
REMARK SMILES C[C@H]1CC[C@H]2C(C)(C)[C@H]3C[C@@]12CC[C@@]3(C)O
REMARK SMILES IDX 1 1 2 2 3 3 4 4 5 5 11 6 12 7 13 8 14 9 9 10 10 11 6 12 7 13
REMARK SMILES IDX 8 14 15 15 16 16
REMARK H PARENT 16 17
REMARK Flexibility Score: inf
ROOT
ATOM      1  C   UNL     1     141.012 138.649 143.934  1.00  0.00     0.008 C 
ATOM      2  C   UNL     1     142.312 138.403 143.155  1.00  0.00    -0.008 C 
ATOM      3  C   UNL     1     142.064 137.835 141.762  1.00  0.00     0.004 C 
ATOM      4  C   UNL     1     143.346 138.114 140.988  1.00  0.00     0.005 C 
ATOM      5  C   UNL     1     144.000 139.357 141.637  1.00  0.00     0.001 C 
ATOM      6  C   UNL     1     143.188 139.652 142.921  1.00  0.00    -0.023 C 
ATOM      7  C   UNL     1     144.114 139.977 144.125  1.00  0.00     0.010 C 
ATOM      8  C   UNL     1     145.100 141.131 143.813  1.00  0.00     0.036 C 
ATOM      9  C   UNL     1     144.489 142.293 142.964  1.00  0.00     0.065 C 
ATOM     10  C   UNL     1     143.468 141.752 141.876  1.00  0.00     0.027 C 
ATOM     11  C   UNL     1     142.403 140.921 142.586  1.00  0.00     0.014 C 
ATOM     12  C   UNL     1     144.027 140.712 140.836  1.00  0.00    -0.026 C 
ATOM     13  C   UNL     1     143.105 140.723 139.581  1.00  0.00     0.012 C 
ATOM     14  C   UNL     1     145.454 141.019 140.318  1.00  0.00     0.012 C 
ATOM     15  C   UNL     1     143.801 143.300 143.921  1.00  0.00     0.042 C 
ENDROOT
BRANCH   9  16
ATOM     16  O   UNL     1     145.546 142.981 142.338  1.00  0.00    -0.390 OA
ATOM     17  H   UNL     1     145.253 143.918 142.185  1.00  0.00     0.211 HD
ENDBRANCH   9  16
TORSDOF 1
ENDMDL
MODEL 9
REMARK VINA RESULT:    -3.350      2.722      5.031
REMARK INTER + INTRA:          -3.448
REMARK INTER:                  -3.448
REMARK INTRA:                   0.000
REMARK UNBOUND:                 0.000
REMARK SMILES C[C@H]1CC[C@H]2C(C)(C)[C@H]3C[C@@]12CC[C@@]3(C)O
REMARK SMILES IDX 1 1 2 2 3 3 4 4 5 5 11 6 12 7 13 8 14 9 9 10 10 11 6 12 7 13
REMARK SMILES IDX 8 14 15 15 16 16
REMARK H PARENT 16 17
REMARK Flexibility Score: inf
ROOT
ATOM      1  C   UNL     1     145.881 141.787 141.874  1.00  0.00     0.008 C 
ATOM      2  C   UNL     1     144.882 141.907 143.033  1.00  0.00    -0.008 C 
ATOM      3  C   UNL     1     144.048 143.181 142.962  1.00  0.00     0.004 C 
ATOM      4  C   UNL     1     142.835 142.910 143.843  1.00  0.00     0.005 C 
ATOM      5  C   UNL     1     142.619 141.378 143.847  1.00  0.00     0.001 C 
ATOM      6  C   UNL     1     143.848 140.766 143.134  1.00  0.00    -0.023 C 
ATOM      7  C   UNL     1     144.390 139.522 143.890  1.00  0.00     0.010 C 
ATOM      8  C   UNL     1     143.293 138.452 144.125  1.00  0.00     0.036 C 
ATOM      9  C   UNL     1     142.303 138.267 142.930  1.00  0.00     0.065 C 
ATOM     10  C   UNL     1     141.983 139.647 142.212  1.00  0.00     0.027 C 
ATOM     11  C   UNL     1     143.301 140.286 141.788  1.00  0.00     0.014 C 
ATOM     12  C   UNL     1     141.363 140.783 143.108  1.00  0.00    -0.026 C 
ATOM     13  C   UNL     1     140.634 141.800 142.181  1.00  0.00     0.012 C 
ATOM     14  C   UNL     1     140.301 140.297 144.125  1.00  0.00     0.012 C 
ATOM     15  C   UNL     1     142.912 137.250 141.931  1.00  0.00     0.042 C 
ENDROOT
BRANCH   9  16
ATOM     16  O   UNL     1     141.118 137.692 143.427  1.00  0.00    -0.390 OA
ATOM     17  H   UNL     1     141.040 137.936 144.387  1.00  0.00     0.211 HD
ENDBRANCH   9  16
TORSDOF 1
ENDMDL
