MODEL 1
REMARK VINA RESULT:    -4.514      0.000      0.000
REMARK INTER + INTRA:          -9.747
REMARK INTER:                  -7.680
REMARK INTRA:                  -2.066
REMARK UNBOUND:                -2.066
REMARK SMILES CCCCCCCCCCCCCC(=O)[O-]
REMARK SMILES IDX 8 1 9 2 10 3 11 4 12 5 13 6 14 7 15 8 16 9 7 10 6 11 5 12
REMARK SMILES IDX 4 13 3 14 2 15 1 16
REMARK H PARENT
REMARK Flexibility Score: inf
ROOT
ATOM      1  C   UNL     1     181.879 182.523 179.412  1.00  0.00     0.000 C 
ENDROOT
BRANCH   1   2
ATOM      2  C   UNL     1     182.044 181.008 179.610  1.00  0.00     0.000 C 
BRANCH   2   3
ATOM      3  C   UNL     1     181.408 180.554 180.931  1.00  0.00     0.000 C 
BRANCH   3   4
ATOM      4  C   UNL     1     182.416 179.894 181.890  1.00  0.00     0.000 C 
BRANCH   4   5
ATOM      5  C   UNL     1     183.243 180.874 182.742  1.00  0.00     0.006 C 
BRANCH   5   6
ATOM      6  C   UNL     1     184.739 180.539 182.758  1.00  0.00     0.053 C 
BRANCH   6   7
ATOM      7  C   UNL     1     185.460 181.313 181.701  1.00  0.00     0.041 C 
ATOM      8  O   UNL     1     185.502 180.884 180.518  1.00  0.00    -0.550 OA
ATOM      9  O   UNL     1     186.043 182.535 182.011  1.00  0.00    -0.550 OA
ENDBRANCH   6   7
ENDBRANCH   5   6
ENDBRANCH   4   5
ENDBRANCH   3   4
ENDBRANCH   2   3
ENDBRANCH   1   2
BRANCH   1  10
ATOM     10  C   UNL     1     183.092 183.323 179.913  1.00  0.00     0.000 C 
BRANCH  10  11
ATOM     11  C   UNL     1     182.727 184.310 181.036  1.00  0.00    -0.000 C 
BRANCH  11  12
ATOM     12  C   UNL     1     181.212 184.368 181.298  1.00  0.00    -0.000 C 
BRANCH  12  13
ATOM     13  C   UNL     1     180.831 183.801 182.676  1.00  0.00    -0.000 C 
BRANCH  13  14
ATOM     14  C   UNL     1     179.345 183.406 182.770  1.00  0.00    -0.000 C 
BRANCH  14  15
ATOM     15  C   UNL     1     178.698 182.992 181.436  1.00  0.00    -0.003 C 
ATOM     16  C   UNL     1     177.846 181.729 181.551  1.00  0.00     0.004 C 
ENDBRANCH  14  15
ENDBRANCH  13  14
ENDBRANCH  12  13
ENDBRANCH  11  12
ENDBRANCH  10  11
ENDBRANCH   1  10
TORSDOF 12
ENDMDL
MODEL 2
REMARK VINA RESULT:    -4.449      1.075      3.802
REMARK INTER + INTRA:          -9.636
REMARK INTER:                  -7.446
REMARK INTRA:                  -2.190
REMARK UNBOUND:                -2.066
REMARK SMILES CCCCCCCCCCCCCC(=O)[O-]
REMARK SMILES IDX 8 1 9 2 10 3 11 4 12 5 13 6 14 7 15 8 16 9 7 10 6 11 5 12
REMARK SMILES IDX 4 13 3 14 2 15 1 16
REMARK H PARENT
REMARK Flexibility Score: inf
ROOT
ATOM      1  C   UNL     1     179.791 183.230 182.491  1.00  0.00     0.000 C 
ENDROOT
BRANCH   1   2
ATOM      2  C   UNL     1     181.223 183.785 182.494  1.00  0.00     0.000 C 
BRANCH   2   3
ATOM      3  C   UNL     1     181.496 184.608 181.226  1.00  0.00     0.000 C 
BRANCH   3   4
ATOM      4  C   UNL     1     182.851 184.275 180.572  1.00  0.00     0.000 C 
BRANCH   4   5
ATOM      5  C   UNL     1     183.872 183.594 181.501  1.00  0.00     0.006 C 
BRANCH   5   6
ATOM      6  C   UNL     1     184.697 182.513 180.792  1.00  0.00     0.053 C 
BRANCH   6   7
ATOM      7  C   UNL     1     185.971 182.258 181.533  1.00  0.00     0.041 C 
ATOM      8  O   UNL     1     186.455 181.097 181.582  1.00  0.00    -0.550 OA
ATOM      9  O   UNL     1     186.651 183.312 182.130  1.00  0.00    -0.550 OA
ENDBRANCH   6   7
ENDBRANCH   5   6
ENDBRANCH   4   5
ENDBRANCH   3   4
ENDBRANCH   2   3
ENDBRANCH   1   2
BRANCH   1  10
ATOM     10  C   UNL     1     179.228 183.045 181.072  1.00  0.00     0.000 C 
BRANCH  10  11
ATOM     11  C   UNL     1     179.403 181.607 180.551  1.00  0.00    -0.000 C 
BRANCH  11  12
ATOM     12  C   UNL     1     180.511 181.497 179.489  1.00  0.00    -0.000 C 
BRANCH  12  13
ATOM     13  C   UNL     1     181.717 180.677 179.979  1.00  0.00    -0.000 C 
BRANCH  13  14
ATOM     14  C   UNL     1     181.537 180.147 181.414  1.00  0.00    -0.000 C 
BRANCH  14  15
ATOM     15  C   UNL     1     182.846 179.829 182.157  1.00  0.00    -0.003 C 
ATOM     16  C   UNL     1     183.004 180.618 183.457  1.00  0.00     0.004 C 
ENDBRANCH  14  15
ENDBRANCH  13  14
ENDBRANCH  12  13
ENDBRANCH  11  12
ENDBRANCH  10  11
ENDBRANCH   1  10
TORSDOF 12
ENDMDL
MODEL 3
REMARK VINA RESULT:    -4.422      2.932      4.606
REMARK INTER + INTRA:          -9.591
REMARK INTER:                  -7.597
REMARK INTRA:                  -1.994
REMARK UNBOUND:                -2.066
REMARK SMILES CCCCCCCCCCCCCC(=O)[O-]
REMARK SMILES IDX 8 1 9 2 10 3 11 4 12 5 13 6 14 7 15 8 16 9 7 10 6 11 5 12
REMARK SMILES IDX 4 13 3 14 2 15 1 16
REMARK H PARENT
REMARK Flexibility Score: inf
ROOT
ATOM      1  C   UNL     1     184.210 180.506 182.615  1.00  0.00     0.000 C 
ENDROOT
BRANCH   1   2
ATOM      2  C   UNL     1     182.697 180.251 182.546  1.00  0.00     0.000 C 
BRANCH   2   3
ATOM      3  C   UNL     1     182.371 179.150 181.526  1.00  0.00     0.000 C 
BRANCH   3   4
ATOM      4  C   UNL     1     180.904 179.177 181.059  1.00  0.00     0.000 C 
BRANCH   4   5
ATOM      5  C   UNL     1     180.266 180.576 180.995  1.00  0.00     0.006 C 
BRANCH   5   6
ATOM      6  C   UNL     1     179.019 180.706 181.879  1.00  0.00     0.053 C 
BRANCH   6   7
ATOM      7  C   UNL     1     178.268 181.955 181.542  1.00  0.00     0.041 C 
ATOM      8  O   UNL     1     177.557 182.522 182.414  1.00  0.00    -0.550 OA
ATOM      9  O   UNL     1     178.391 182.521 180.280  1.00  0.00    -0.550 OA
ENDBRANCH   6   7
ENDBRANCH   5   6
ENDBRANCH   4   5
ENDBRANCH   3   4
ENDBRANCH   2   3
ENDBRANCH   1   2
BRANCH   1  10
ATOM     10  C   UNL     1     184.815 180.869 181.249  1.00  0.00     0.000 C 
BRANCH  10  11
ATOM     11  C   UNL     1     184.485 182.311 180.821  1.00  0.00    -0.000 C 
BRANCH  11  12
ATOM     12  C   UNL     1     183.477 182.364 179.660  1.00  0.00    -0.000 C 
BRANCH  12  13
ATOM     13  C   UNL     1     182.263 183.256 179.975  1.00  0.00    -0.000 C 
BRANCH  13  14
ATOM     14  C   UNL     1     182.378 183.963 181.338  1.00  0.00    -0.000 C 
BRANCH  14  15
ATOM     15  C   UNL     1     181.053 184.101 182.110  1.00  0.00    -0.003 C 
ATOM     16  C   UNL     1     181.060 183.360 183.447  1.00  0.00     0.004 C 
ENDBRANCH  14  15
ENDBRANCH  13  14
ENDBRANCH  12  13
ENDBRANCH  11  12
ENDBRANCH  10  11
ENDBRANCH   1  10
TORSDOF 12
ENDMDL
MODEL 4
REMARK VINA RESULT:    -4.414      3.114      5.128
REMARK INTER + INTRA:          -9.577
REMARK INTER:                  -7.808
REMARK INTRA:                  -1.769
REMARK UNBOUND:                -2.066
REMARK SMILES CCCCCCCCCCCCCC(=O)[O-]
REMARK SMILES IDX 8 1 9 2 10 3 11 4 12 5 13 6 14 7 15 8 16 9 7 10 6 11 5 12
REMARK SMILES IDX 4 13 3 14 2 15 1 16
REMARK H PARENT
REMARK Flexibility Score: inf
ROOT
ATOM      1  C   UNL     1     182.055 178.899 181.441  1.00  0.00     0.000 C 
ENDROOT
BRANCH   1   2
ATOM      2  C   UNL     1     180.702 179.369 180.887  1.00  0.00     0.000 C 
BRANCH   2   3
ATOM      3  C   UNL     1     180.884 180.554 179.926  1.00  0.00     0.000 C 
BRANCH   3   4
ATOM      4  C   UNL     1     179.795 181.631 180.085  1.00  0.00     0.000 C 
BRANCH   4   5
ATOM      5  C   UNL     1     179.087 181.644 181.452  1.00  0.00     0.006 C 
BRANCH   5   6
ATOM      6  C   UNL     1     178.074 182.788 181.590  1.00  0.00     0.053 C 
BRANCH   6   7
ATOM      7  C   UNL     1     178.220 183.457 182.920  1.00  0.00     0.041 C 
ATOM      8  O   UNL     1     179.359 183.799 183.336  1.00  0.00    -0.550 OA
ATOM      9  O   UNL     1     177.095 183.749 183.680  1.00  0.00    -0.550 OA
ENDBRANCH   6   7
ENDBRANCH   5   6
ENDBRANCH   4   5
ENDBRANCH   3   4
ENDBRANCH   2   3
ENDBRANCH   1   2
BRANCH   1  10
ATOM     10  C   UNL     1     183.011 180.063 181.743  1.00  0.00     0.000 C 
BRANCH  10  11
ATOM     11  C   UNL     1     182.583 180.874 182.980  1.00  0.00    -0.000 C 
BRANCH  11  12
ATOM     12  C   UNL     1     182.730 182.391 182.768  1.00  0.00    -0.000 C 
BRANCH  12  13
ATOM     13  C   UNL     1     183.668 182.735 181.599  1.00  0.00    -0.000 C 
BRANCH  13  14
ATOM     14  C   UNL     1     182.959 183.503 180.469  1.00  0.00    -0.000 C 
BRANCH  14  15
ATOM     15  C   UNL     1     181.820 184.430 180.930  1.00  0.00    -0.003 C 
ATOM     16  C   UNL     1     182.287 185.856 181.216  1.00  0.00     0.004 C 
ENDBRANCH  14  15
ENDBRANCH  13  14
ENDBRANCH  12  13
ENDBRANCH  11  12
ENDBRANCH  10  11
ENDBRANCH   1  10
TORSDOF 12
ENDMDL
MODEL 5
REMARK VINA RESULT:    -4.413      1.551      3.769
REMARK INTER + INTRA:          -9.575
REMARK INTER:                  -7.525
REMARK INTRA:                  -2.050
REMARK UNBOUND:                -2.066
REMARK SMILES CCCCCCCCCCCCCC(=O)[O-]
REMARK SMILES IDX 8 1 9 2 10 3 11 4 12 5 13 6 14 7 15 8 16 9 7 10 6 11 5 12
REMARK SMILES IDX 4 13 3 14 2 15 1 16
REMARK H PARENT
REMARK Flexibility Score: inf
ROOT
ATOM      1  C   UNL     1     180.889 183.743 182.587  1.00  0.00     0.000 C 
ENDROOT
BRANCH   1   2
ATOM      2  C   UNL     1     181.381 184.763 181.549  1.00  0.00     0.000 C 
BRANCH   2   3
ATOM      3  C   UNL     1     182.720 184.324 180.939  1.00  0.00     0.000 C 
BRANCH   3   4
ATOM      4  C   UNL     1     183.412 183.209 181.746  1.00  0.00     0.000 C 
BRANCH   4   5
ATOM      5  C   UNL     1     184.491 182.424 180.978  1.00  0.00     0.006 C 
BRANCH   5   6
ATOM      6  C   UNL     1     184.314 180.904 181.082  1.00  0.00     0.053 C 
BRANCH   6   7
ATOM      7  C   UNL     1     184.384 180.467 182.511  1.00  0.00     0.041 C 
ATOM      8  O   UNL     1     185.495 180.413 183.103  1.00  0.00    -0.550 OA
ATOM      9  O   UNL     1     183.220 180.167 183.205  1.00  0.00    -0.550 OA
ENDBRANCH   6   7
ENDBRANCH   5   6
ENDBRANCH   4   5
ENDBRANCH   3   4
ENDBRANCH   2   3
ENDBRANCH   1   2
BRANCH   1  10
ATOM     10  C   UNL     1     179.374 183.502 182.511  1.00  0.00     0.000 C 
BRANCH  10  11
ATOM     11  C   UNL     1     179.019 182.188 181.791  1.00  0.00    -0.000 C 
BRANCH  11  12
ATOM     12  C   UNL     1     180.070 181.088 182.023  1.00  0.00    -0.000 C 
BRANCH  12  13
ATOM     13  C   UNL     1     180.725 180.614 180.715  1.00  0.00    -0.000 C 
BRANCH  13  14
ATOM     14  C   UNL     1     180.429 181.546 179.526  1.00  0.00    -0.000 C 
BRANCH  14  15
ATOM     15  C   UNL     1     181.266 181.273 178.263  1.00  0.00    -0.003 C 
ATOM     16  C   UNL     1     182.313 182.353 177.994  1.00  0.00     0.004 C 
ENDBRANCH  14  15
ENDBRANCH  13  14
ENDBRANCH  12  13
ENDBRANCH  11  12
ENDBRANCH  10  11
ENDBRANCH   1  10
TORSDOF 12
ENDMDL
MODEL 6
REMARK VINA RESULT:    -4.381      2.988      5.053
REMARK INTER + INTRA:          -9.522
REMARK INTER:                  -7.853
REMARK INTRA:                  -1.669
REMARK UNBOUND:                -2.066
REMARK SMILES CCCCCCCCCCCCCC(=O)[O-]
REMARK SMILES IDX 8 1 9 2 10 3 11 4 12 5 13 6 14 7 15 8 16 9 7 10 6 11 5 12
REMARK SMILES IDX 4 13 3 14 2 15 1 16
REMARK H PARENT
REMARK Flexibility Score: inf
ROOT
ATOM      1  C   UNL     1     184.137 183.557 181.470  1.00  0.00     0.000 C 
ENDROOT
BRANCH   1   2
ATOM      2  C   UNL     1     183.373 183.142 180.204  1.00  0.00     0.000 C 
BRANCH   2   3
ATOM      3  C   UNL     1     181.856 183.236 180.422  1.00  0.00     0.000 C 
BRANCH   3   4
ATOM      4  C   UNL     1     181.474 184.126 181.620  1.00  0.00     0.000 C 
BRANCH   4   5
ATOM      5  C   UNL     1     180.341 183.576 182.505  1.00  0.00     0.006 C 
BRANCH   5   6
ATOM      6  C   UNL     1     179.989 182.117 182.190  1.00  0.00     0.053 C 
BRANCH   6   7
ATOM      7  C   UNL     1     178.540 181.992 181.843  1.00  0.00     0.041 C 
ATOM      8  O   UNL     1     177.959 180.878 181.938  1.00  0.00    -0.550 OA
ATOM      9  O   UNL     1     177.816 183.114 181.462  1.00  0.00    -0.550 OA
ENDBRANCH   6   7
ENDBRANCH   5   6
ENDBRANCH   4   5
ENDBRANCH   3   4
ENDBRANCH   2   3
ENDBRANCH   1   2
BRANCH   1  10
ATOM     10  C   UNL     1     185.409 182.725 181.696  1.00  0.00     0.000 C 
BRANCH  10  11
ATOM     11  C   UNL     1     185.179 181.220 181.466  1.00  0.00    -0.000 C 
BRANCH  11  12
ATOM     12  C   UNL     1     184.678 180.502 182.731  1.00  0.00    -0.000 C 
BRANCH  12  13
ATOM     13  C   UNL     1     183.170 180.202 182.679  1.00  0.00    -0.000 C 
BRANCH  13  14
ATOM     14  C   UNL     1     182.699 179.741 181.287  1.00  0.00    -0.000 C 
BRANCH  14  15
ATOM     15  C   UNL     1     181.966 178.388 181.265  1.00  0.00    -0.003 C 
ATOM     16  C   UNL     1     180.457 178.528 181.067  1.00  0.00     0.004 C 
ENDBRANCH  14  15
ENDBRANCH  13  14
ENDBRANCH  12  13
ENDBRANCH  11  12
ENDBRANCH  10  11
ENDBRANCH   1  10
TORSDOF 12
ENDMDL
MODEL 7
REMARK VINA RESULT:    -4.375      1.442      2.593
REMARK INTER + INTRA:          -9.511
REMARK INTER:                  -7.670
REMARK INTRA:                  -1.841
REMARK UNBOUND:                -2.066
REMARK SMILES CCCCCCCCCCCCCC(=O)[O-]
REMARK SMILES IDX 8 1 9 2 10 3 11 4 12 5 13 6 14 7 15 8 16 9 7 10 6 11 5 12
REMARK SMILES IDX 4 13 3 14 2 15 1 16
REMARK H PARENT
REMARK Flexibility Score: inf
ROOT
ATOM      1  C   UNL     1     183.012 183.686 180.917  1.00  0.00     0.000 C 
ENDROOT
BRANCH   1   2
ATOM      2  C   UNL     1     183.150 182.700 179.747  1.00  0.00     0.000 C 
BRANCH   2   3
ATOM      3  C   UNL     1     181.771 182.238 179.253  1.00  0.00     0.000 C 
BRANCH   3   4
ATOM      4  C   UNL     1     181.386 180.837 179.765  1.00  0.00     0.000 C 
BRANCH   4   5
ATOM      5  C   UNL     1     182.528 180.054 180.439  1.00  0.00     0.006 C 
BRANCH   5   6
ATOM      6  C   UNL     1     182.246 179.735 181.913  1.00  0.00     0.053 C 
BRANCH   6   7
ATOM      7  C   UNL     1     183.221 180.447 182.796  1.00  0.00     0.041 C 
ATOM      8  O   UNL     1     182.829 180.992 183.862  1.00  0.00    -0.550 OA
ATOM      9  O   UNL     1     184.570 180.466 182.470  1.00  0.00    -0.550 OA
ENDBRANCH   6   7
ENDBRANCH   5   6
ENDBRANCH   4   5
ENDBRANCH   3   4
ENDBRANCH   2   3
ENDBRANCH   1   2
BRANCH   1  10
ATOM     10  C   UNL     1     181.580 184.220 181.078  1.00  0.00     0.000 C 
BRANCH  10  11
ATOM     11  C   UNL     1     180.986 183.910 182.464  1.00  0.00    -0.000 C 
BRANCH  11  12
ATOM     12  C   UNL     1     179.991 182.737 182.428  1.00  0.00    -0.000 C 
BRANCH  12  13
ATOM     13  C   UNL     1     178.718 183.068 181.632  1.00  0.00    -0.000 C 
BRANCH  13  14
ATOM     14  C   UNL     1     177.887 181.819 181.284  1.00  0.00    -0.000 C 
BRANCH  14  15
ATOM     15  C   UNL     1     178.127 180.605 182.200  1.00  0.00    -0.003 C 
ATOM     16  C   UNL     1     176.900 179.705 182.334  1.00  0.00     0.004 C 
ENDBRANCH  14  15
ENDBRANCH  13  14
ENDBRANCH  12  13
ENDBRANCH  11  12
ENDBRANCH  10  11
ENDBRANCH   1  10
TORSDOF 12
ENDMDL
MODEL 8
REMARK VINA RESULT:    -4.375      2.665      5.335
REMARK INTER + INTRA:          -9.511
REMARK INTER:                  -7.541
REMARK INTRA:                  -1.970
REMARK UNBOUND:                -2.066
REMARK SMILES CCCCCCCCCCCCCC(=O)[O-]
REMARK SMILES IDX 8 1 9 2 10 3 11 4 12 5 13 6 14 7 15 8 16 9 7 10 6 11 5 12
REMARK SMILES IDX 4 13 3 14 2 15 1 16
REMARK H PARENT
REMARK Flexibility Score: inf
ROOT
ATOM      1  C   UNL     1     181.795 182.737 179.342  1.00  0.00     0.000 C 
ENDROOT
BRANCH   1   2
ATOM      2  C   UNL     1     183.106 183.358 179.847  1.00  0.00     0.000 C 
BRANCH   2   3
ATOM      3  C   UNL     1     182.884 184.112 181.166  1.00  0.00     0.000 C 
BRANCH   3   4
ATOM      4  C   UNL     1     181.394 184.329 181.492  1.00  0.00     0.000 C 
BRANCH   4   5
ATOM      5  C   UNL     1     180.848 183.467 182.646  1.00  0.00     0.006 C 
BRANCH   5   6
ATOM      6  C   UNL     1     179.316 183.480 182.729  1.00  0.00     0.053 C 
BRANCH   6   7
ATOM      7  C   UNL     1     178.732 182.511 181.750  1.00  0.00     0.041 C 
ATOM      8  O   UNL     1     178.430 182.889 180.587  1.00  0.00    -0.550 OA
ATOM      9  O   UNL     1     178.566 181.179 182.105  1.00  0.00    -0.550 OA
ENDBRANCH   6   7
ENDBRANCH   5   6
ENDBRANCH   4   5
ENDBRANCH   3   4
ENDBRANCH   2   3
ENDBRANCH   1   2
BRANCH   1  10
ATOM     10  C   UNL     1     181.899 181.218 179.133  1.00  0.00     0.000 C 
BRANCH  10  11
ATOM     11  C   UNL     1     181.346 180.417 180.326  1.00  0.00    -0.000 C 
BRANCH  11  12
ATOM     12  C   UNL     1     182.432 179.591 181.035  1.00  0.00    -0.000 C 
BRANCH  12  13
ATOM     13  C   UNL     1     182.679 180.058 182.480  1.00  0.00    -0.000 C 
BRANCH  13  14
ATOM     14  C   UNL     1     183.904 180.982 182.609  1.00  0.00    -0.000 C 
BRANCH  14  15
ATOM     15  C   UNL     1     184.952 180.829 181.493  1.00  0.00    -0.003 C 
ATOM     16  C   UNL     1     186.062 181.878 181.566  1.00  0.00     0.004 C 
ENDBRANCH  14  15
ENDBRANCH  13  14
ENDBRANCH  12  13
ENDBRANCH  11  12
ENDBRANCH  10  11
ENDBRANCH   1  10
TORSDOF 12
ENDMDL
MODEL 9
REMARK VINA RESULT:    -4.375      2.936      5.051
REMARK INTER + INTRA:          -9.510
REMARK INTER:                  -7.420
REMARK INTRA:                  -2.090
REMARK UNBOUND:                -2.066
REMARK SMILES CCCCCCCCCCCCCC(=O)[O-]
REMARK SMILES IDX 8 1 9 2 10 3 11 4 12 5 13 6 14 7 15 8 16 9 7 10 6 11 5 12
REMARK SMILES IDX 4 13 3 14 2 15 1 16
REMARK H PARENT
REMARK Flexibility Score: inf
ROOT
ATOM      1  C   UNL     1     183.213 180.464 182.842  1.00  0.00     0.000 C 
ENDROOT
BRANCH   1   2
ATOM      2  C   UNL     1     182.915 180.908 184.282  1.00  0.00     0.000 C 
BRANCH   2   3
ATOM      3  C   UNL     1     181.994 182.136 184.299  1.00  0.00     0.000 C 
BRANCH   3   4
ATOM      4  C   UNL     1     181.001 182.160 183.122  1.00  0.00     0.000 C 
BRANCH   4   5
ATOM      5  C   UNL     1     180.375 183.535 182.825  1.00  0.00     0.006 C 
BRANCH   5   6
ATOM      6  C   UNL     1     178.842 183.522 182.892  1.00  0.00     0.053 C 
BRANCH   6   7
ATOM      7  C   UNL     1     178.280 182.656 181.810  1.00  0.00     0.041 C 
ATOM      8  O   UNL     1     178.419 182.981 180.601  1.00  0.00    -0.550 OA
ATOM      9  O   UNL     1     177.646 181.463 182.133  1.00  0.00    -0.550 OA
ENDBRANCH   6   7
ENDBRANCH   5   6
ENDBRANCH   4   5
ENDBRANCH   3   4
ENDBRANCH   2   3
ENDBRANCH   1   2
BRANCH   1  10
ATOM     10  C   UNL     1     184.694 180.626 182.465  1.00  0.00     0.000 C 
BRANCH  10  11
ATOM     11  C   UNL     1     184.910 181.660 181.345  1.00  0.00    -0.000 C 
BRANCH  11  12
ATOM     12  C   UNL     1     184.503 183.081 181.772  1.00  0.00    -0.000 C 
BRANCH  12  13
ATOM     13  C   UNL     1     183.475 183.711 180.817  1.00  0.00    -0.000 C 
BRANCH  13  14
ATOM     14  C   UNL     1     183.157 182.815 179.604  1.00  0.00    -0.000 C 
BRANCH  14  15
ATOM     15  C   UNL     1     181.673 182.438 179.448  1.00  0.00    -0.003 C 
ATOM     16  C   UNL     1     181.409 180.949 179.668  1.00  0.00     0.004 C 
ENDBRANCH  14  15
ENDBRANCH  13  14
ENDBRANCH  12  13
ENDBRANCH  11  12
ENDBRANCH  10  11
ENDBRANCH   1  10
TORSDOF 12
ENDMDL
