MODEL 1
REMARK VINA RESULT:    -3.338      0.000      0.000
REMARK INTER + INTRA:          -3.686
REMARK INTER:                  -3.728
REMARK INTRA:                   0.042
REMARK UNBOUND:                 0.042
REMARK SMILES CCCC(=O)[O-]
REMARK SMILES IDX 3 1 4 2 5 3 6 4 2 5 1 6
REMARK H PARENT
REMARK Flexibility Score: inf
ROOT
ATOM      1  C   UNL     1     -18.694  -8.268  15.306  1.00  0.00     0.052 C 
ENDROOT
BRANCH   1   2
ATOM      2  C   UNL     1     -19.457  -7.420  16.274  1.00  0.00     0.041 C 
ATOM      3  O   UNL     1     -19.171  -6.202  16.412  1.00  0.00    -0.550 OA
ATOM      4  O   UNL     1     -20.453  -7.986  17.060  1.00  0.00    -0.550 OA
ENDBRANCH   1   2
BRANCH   1   5
ATOM      5  C   UNL     1     -19.078  -7.916  13.867  1.00  0.00     0.003 C 
ATOM      6  C   UNL     1     -18.183  -6.811  13.312  1.00  0.00     0.004 C 
ENDBRANCH   1   5
TORSDOF 2
ENDMDL
MODEL 2
REMARK VINA RESULT:    -3.250     18.185     18.824
REMARK INTER + INTRA:          -3.588
REMARK INTER:                  -3.582
REMARK INTRA:                  -0.006
REMARK UNBOUND:                 0.042
REMARK SMILES CCCC(=O)[O-]
REMARK SMILES IDX 3 1 4 2 5 3 6 4 2 5 1 6
REMARK H PARENT
REMARK Flexibility Score: inf
ROOT
ATOM      1  C   UNL     1      -9.451 -22.540  18.881  1.00  0.00     0.052 C 
ENDROOT
BRANCH   1   2
ATOM      2  C   UNL     1      -9.300 -22.918  20.320  1.00  0.00     0.041 C 
ATOM      3  O   UNL     1      -9.764 -22.173  21.223  1.00  0.00    -0.550 OA
ATOM      4  O   UNL     1      -8.606 -24.069  20.668  1.00  0.00    -0.550 OA
ENDBRANCH   1   2
BRANCH   1   5
ATOM      5  C   UNL     1      -9.997 -23.718  18.071  1.00  0.00     0.003 C 
ATOM      6  C   UNL     1     -10.919 -23.240  16.953  1.00  0.00     0.004 C 
ENDBRANCH   1   5
TORSDOF 2
ENDMDL
MODEL 3
REMARK VINA RESULT:    -3.229      1.968      3.604
REMARK INTER + INTRA:          -3.564
REMARK INTER:                  -3.551
REMARK INTRA:                  -0.013
REMARK UNBOUND:                 0.042
REMARK SMILES CCCC(=O)[O-]
REMARK SMILES IDX 3 1 4 2 5 3 6 4 2 5 1 6
REMARK H PARENT
REMARK Flexibility Score: inf
ROOT
ATOM      1  C   UNL     1     -19.788  -7.056  16.728  1.00  0.00     0.052 C 
ENDROOT
BRANCH   1   2
ATOM      2  C   UNL     1     -19.068  -7.744  15.611  1.00  0.00     0.041 C 
ATOM      3  O   UNL     1     -19.012  -9.001  15.572  1.00  0.00    -0.550 OA
ATOM      4  O   UNL     1     -18.418  -6.995  14.638  1.00  0.00    -0.550 OA
ENDBRANCH   1   2
BRANCH   1   5
ATOM      5  C   UNL     1     -20.673  -8.049  17.486  1.00  0.00     0.003 C 
ATOM      6  C   UNL     1     -21.824  -7.336  18.190  1.00  0.00     0.004 C 
ENDBRANCH   1   5
TORSDOF 2
ENDMDL
MODEL 4
REMARK VINA RESULT:    -3.112     17.487     18.239
REMARK INTER + INTRA:          -3.433
REMARK INTER:                  -3.419
REMARK INTRA:                  -0.015
REMARK UNBOUND:                 0.042
REMARK SMILES CCCC(=O)[O-]
REMARK SMILES IDX 3 1 4 2 5 3 6 4 2 5 1 6
REMARK H PARENT
REMARK Flexibility Score: inf
ROOT
ATOM      1  C   UNL     1     -10.071 -23.586  18.009  1.00  0.00     0.052 C 
ENDROOT
BRANCH   1   2
ATOM      2  C   UNL     1     -10.827 -22.994  16.861  1.00  0.00     0.041 C 
ATOM      3  O   UNL     1     -11.028 -23.671  15.818  1.00  0.00    -0.550 OA
ATOM      4  O   UNL     1     -11.267 -21.678  16.923  1.00  0.00    -0.550 OA
ENDBRANCH   1   2
BRANCH   1   5
ATOM      5  C   UNL     1      -9.513 -22.482  18.910  1.00  0.00     0.003 C 
ATOM      6  C   UNL     1      -9.320 -22.981  20.339  1.00  0.00     0.004 C 
ENDBRANCH   1   5
TORSDOF 2
ENDMDL
MODEL 5
REMARK VINA RESULT:    -3.075     17.478     18.097
REMARK INTER + INTRA:          -3.393
REMARK INTER:                  -3.377
REMARK INTRA:                  -0.016
REMARK UNBOUND:                 0.042
REMARK SMILES CCCC(=O)[O-]
REMARK SMILES IDX 3 1 4 2 5 3 6 4 2 5 1 6
REMARK H PARENT
REMARK Flexibility Score: inf
ROOT
ATOM      1  C   UNL     1     -10.447 -23.629  17.455  1.00  0.00     0.052 C 
ENDROOT
BRANCH   1   2
ATOM      2  C   UNL     1      -9.684 -22.951  18.548  1.00  0.00     0.041 C 
ATOM      3  O   UNL     1      -9.676 -21.695  18.631  1.00  0.00    -0.550 OA
ATOM      4  O   UNL     1      -8.942 -23.704  19.449  1.00  0.00    -0.550 OA
ENDBRANCH   1   2
BRANCH   1   5
ATOM      5  C   UNL     1     -11.266 -22.609  16.660  1.00  0.00     0.003 C 
ATOM      6  C   UNL     1     -12.545 -23.235  16.112  1.00  0.00     0.004 C 
ENDBRANCH   1   5
TORSDOF 2
ENDMDL
MODEL 6
REMARK VINA RESULT:    -3.001      9.389      9.862
REMARK INTER + INTRA:          -3.309
REMARK INTER:                  -3.240
REMARK INTRA:                  -0.069
REMARK UNBOUND:                 0.042
REMARK SMILES CCCC(=O)[O-]
REMARK SMILES IDX 3 1 4 2 5 3 6 4 2 5 1 6
REMARK H PARENT
REMARK Flexibility Score: inf
ROOT
ATOM      1  C   UNL     1     -10.789 -13.818  17.095  1.00  0.00     0.052 C 
ENDROOT
BRANCH   1   2
ATOM      2  C   UNL     1     -11.051 -12.398  17.489  1.00  0.00     0.041 C 
ATOM      3  O   UNL     1     -11.961 -12.129  18.316  1.00  0.00    -0.550 OA
ATOM      4  O   UNL     1     -10.323 -11.369  16.907  1.00  0.00    -0.550 OA
ENDBRANCH   1   2
BRANCH   1   5
ATOM      5  C   UNL     1     -11.988 -14.395  16.340  1.00  0.00     0.003 C 
ATOM      6  C   UNL     1     -12.156 -13.729  14.977  1.00  0.00     0.004 C 
ENDBRANCH   1   5
TORSDOF 2
ENDMDL
MODEL 7
REMARK VINA RESULT:    -2.871      9.660     10.007
REMARK INTER + INTRA:          -3.165
REMARK INTER:                  -3.126
REMARK INTRA:                  -0.039
REMARK UNBOUND:                 0.042
REMARK SMILES CCCC(=O)[O-]
REMARK SMILES IDX 3 1 4 2 5 3 6 4 2 5 1 6
REMARK H PARENT
REMARK Flexibility Score: inf
ROOT
ATOM      1  C   UNL     1     -10.080 -12.705  16.459  1.00  0.00     0.052 C 
ENDROOT
BRANCH   1   2
ATOM      2  C   UNL     1     -11.325 -13.058  17.210  1.00  0.00     0.041 C 
ATOM      3  O   UNL     1     -11.922 -14.141  16.973  1.00  0.00    -0.550 OA
ATOM      4  O   UNL     1     -11.853 -12.169  18.138  1.00  0.00    -0.550 OA
ENDBRANCH   1   2
BRANCH   1   5
ATOM      5  C   UNL     1     -10.429 -12.122  15.087  1.00  0.00     0.003 C 
ATOM      6  C   UNL     1     -10.192 -13.142  13.977  1.00  0.00     0.004 C 
ENDBRANCH   1   5
TORSDOF 2
ENDMDL
MODEL 8
REMARK VINA RESULT:    -2.822     10.276     10.629
REMARK INTER + INTRA:          -3.110
REMARK INTER:                  -3.038
REMARK INTRA:                  -0.072
REMARK UNBOUND:                 0.042
REMARK SMILES CCCC(=O)[O-]
REMARK SMILES IDX 3 1 4 2 5 3 6 4 2 5 1 6
REMARK H PARENT
REMARK Flexibility Score: inf
ROOT
ATOM      1  C   UNL     1     -11.426 -13.888  14.605  1.00  0.00     0.052 C 
ENDROOT
BRANCH   1   2
ATOM      2  C   UNL     1     -11.227 -14.461  15.972  1.00  0.00     0.041 C 
ATOM      3  O   UNL     1     -12.021 -14.165  16.904  1.00  0.00    -0.550 OA
ATOM      4  O   UNL     1     -10.138 -15.283  16.231  1.00  0.00    -0.550 OA
ENDBRANCH   1   2
BRANCH   1   5
ATOM      5  C   UNL     1     -10.199 -13.077  14.180  1.00  0.00     0.003 C 
ATOM      6  C   UNL     1     -10.027 -11.838  15.052  1.00  0.00     0.004 C 
ENDBRANCH   1   5
TORSDOF 2
ENDMDL
MODEL 9
REMARK VINA RESULT:    -2.822      9.432      9.781
REMARK INTER + INTRA:          -3.109
REMARK INTER:                  -3.056
REMARK INTRA:                  -0.054
REMARK UNBOUND:                 0.042
REMARK SMILES CCCC(=O)[O-]
REMARK SMILES IDX 3 1 4 2 5 3 6 4 2 5 1 6
REMARK H PARENT
REMARK Flexibility Score: inf
ROOT
ATOM      1  C   UNL     1      -9.921 -11.913  17.810  1.00  0.00     0.052 C 
ENDROOT
BRANCH   1   2
ATOM      2  C   UNL     1     -11.354 -12.335  17.895  1.00  0.00     0.041 C 
ATOM      3  O   UNL     1     -11.744 -13.376  17.304  1.00  0.00    -0.550 OA
ATOM      4  O   UNL     1     -12.269 -11.553  18.587  1.00  0.00    -0.550 OA
ENDBRANCH   1   2
BRANCH   1   5
ATOM      5  C   UNL     1      -9.795 -10.593  17.046  1.00  0.00     0.003 C 
ATOM      6  C   UNL     1      -9.753 -10.829  15.539  1.00  0.00     0.004 C 
ENDBRANCH   1   5
TORSDOF 2
ENDMDL
