MODEL 1
REMARK VINA RESULT:    -5.481      0.000      0.000
REMARK INTER + INTRA:          -5.481
REMARK INTER:                  -5.481
REMARK INTRA:                   0.000
REMARK UNBOUND:                 0.000
REMARK SMILES C[C@H]1CCC=C2CC[C@H]3[C@H](C3(C)C)[C@]21C
REMARK SMILES IDX 1 1 2 2 3 3 4 4 5 5 6 6 14 7 10 8 9 9 11 10 12 11 13 12 8 13
REMARK SMILES IDX 7 14 15 15
REMARK H PARENT
REMARK Flexibility Score: inf
ROOT
ATOM      1  C   UNL     1     137.038 141.423 133.636  1.00  0.00     0.008 C 
ATOM      2  C   UNL     1     138.403 140.784 133.284  1.00  0.00    -0.004 C 
ATOM      3  C   UNL     1     138.155 139.436 132.521  1.00  0.00     0.008 C 
ATOM      4  C   UNL     1     138.452 139.487 131.003  1.00  0.00     0.027 C 
ATOM      5  C   UNL     1     138.275 140.868 130.440  1.00  0.00    -0.027 C 
ATOM      6  C   UNL     1     138.695 141.962 131.116  1.00  0.00    -0.068 C 
ATOM      7  C   UNL     1     139.359 141.758 132.487  1.00  0.00    -0.005 C 
ATOM      8  C   UNL     1     139.543 143.084 133.313  1.00  0.00     0.009 C 
ATOM      9  C   UNL     1     139.190 144.445 132.680  1.00  0.00    -0.000 C 
ATOM     10  C   UNL     1     140.655 144.119 133.015  1.00  0.00    -0.028 C 
ATOM     11  C   UNL     1     141.198 144.867 134.239  1.00  0.00     0.012 C 
ATOM     12  C   UNL     1     141.661 143.940 131.862  1.00  0.00     0.012 C 
ATOM     13  C   UNL     1     138.803 144.507 131.195  1.00  0.00     0.009 C 
ATOM     14  C   UNL     1     138.055 143.274 130.721  1.00  0.00     0.031 C 
ATOM     15  C   UNL     1     140.756 141.064 132.361  1.00  0.00     0.017 C 
ENDROOT
TORSDOF 0
ENDMDL
MODEL 2
REMARK VINA RESULT:    -5.467      2.584      5.137
REMARK INTER + INTRA:          -5.467
REMARK INTER:                  -5.467
REMARK INTRA:                   0.000
REMARK UNBOUND:                 0.000
REMARK SMILES C[C@H]1CCC=C2CC[C@H]3[C@H](C3(C)C)[C@]21C
REMARK SMILES IDX 1 1 2 2 3 3 4 4 5 5 6 6 14 7 10 8 9 9 11 10 12 11 13 12 8 13
REMARK SMILES IDX 7 14 15 15
REMARK H PARENT
REMARK Flexibility Score: inf
ROOT
ATOM      1  C   UNL     1     137.723 138.776 132.109  1.00  0.00     0.008 C 
ATOM      2  C   UNL     1     138.635 140.022 132.215  1.00  0.00    -0.004 C 
ATOM      3  C   UNL     1     137.780 141.240 132.714  1.00  0.00     0.008 C 
ATOM      4  C   UNL     1     138.038 141.653 134.182  1.00  0.00     0.027 C 
ATOM      5  C   UNL     1     138.506 140.498 135.020  1.00  0.00    -0.027 C 
ATOM      6  C   UNL     1     139.394 139.597 134.542  1.00  0.00    -0.068 C 
ATOM      7  C   UNL     1     139.916 139.781 133.108  1.00  0.00    -0.005 C 
ATOM      8  C   UNL     1     140.705 138.540 132.550  1.00  0.00     0.009 C 
ATOM      9  C   UNL     1     141.005 137.337 133.466  1.00  0.00    -0.000 C 
ATOM     10  C   UNL     1     142.162 138.211 132.955  1.00  0.00    -0.028 C 
ATOM     11  C   UNL     1     143.011 137.548 131.863  1.00  0.00     0.012 C 
ATOM     12  C   UNL     1     142.951 139.068 133.964  1.00  0.00     0.012 C 
ATOM     13  C   UNL     1     140.661 137.425 134.960  1.00  0.00     0.009 C 
ATOM     14  C   UNL     1     139.421 138.255 135.240  1.00  0.00     0.031 C 
ATOM     15  C   UNL     1     140.835 141.041 132.981  1.00  0.00     0.017 C 
ENDROOT
TORSDOF 0
ENDMDL
MODEL 3
REMARK VINA RESULT:    -5.467      2.262      4.420
REMARK INTER + INTRA:          -5.467
REMARK INTER:                  -5.467
REMARK INTRA:                   0.000
REMARK UNBOUND:                 0.000
REMARK SMILES C[C@H]1CCC=C2CC[C@H]3[C@H](C3(C)C)[C@]21C
REMARK SMILES IDX 1 1 2 2 3 3 4 4 5 5 6 6 14 7 10 8 9 9 11 10 12 11 13 12 8 13
REMARK SMILES IDX 7 14 15 15
REMARK H PARENT
REMARK Flexibility Score: inf
ROOT
ATOM      1  C   UNL     1     141.379 145.140 133.718  1.00  0.00     0.008 C 
ATOM      2  C   UNL     1     140.745 143.786 133.321  1.00  0.00    -0.004 C 
ATOM      3  C   UNL     1     139.408 144.056 132.546  1.00  0.00     0.008 C 
ATOM      4  C   UNL     1     139.481 143.799 131.022  1.00  0.00     0.027 C 
ATOM      5  C   UNL     1     140.871 143.989 130.483  1.00  0.00    -0.027 C 
ATOM      6  C   UNL     1     141.954 143.550 131.164  1.00  0.00    -0.068 C 
ATOM      7  C   UNL     1     141.730 142.851 132.514  1.00  0.00    -0.005 C 
ATOM      8  C   UNL     1     143.044 142.643 133.353  1.00  0.00     0.009 C 
ATOM      9  C   UNL     1     144.415 143.012 132.750  1.00  0.00    -0.000 C 
ATOM     10  C   UNL     1     144.083 141.539 133.041  1.00  0.00    -0.028 C 
ATOM     11  C   UNL     1     144.812 140.963 134.261  1.00  0.00     0.012 C 
ATOM     12  C   UNL     1     143.919 140.564 131.859  1.00  0.00     0.012 C 
ATOM     13  C   UNL     1     144.498 143.438 131.277  1.00  0.00     0.009 C 
ATOM     14  C   UNL     1     143.272 144.200 130.805  1.00  0.00     0.031 C 
ATOM     15  C   UNL     1     141.037 141.458 132.340  1.00  0.00     0.017 C 
ENDROOT
TORSDOF 0
ENDMDL
MODEL 4
REMARK VINA RESULT:    -5.464      1.205      4.650
REMARK INTER + INTRA:          -5.464
REMARK INTER:                  -5.464
REMARK INTRA:                   0.000
REMARK UNBOUND:                 0.000
REMARK SMILES C[C@H]1CCC=C2CC[C@H]3[C@H](C3(C)C)[C@]21C
REMARK SMILES IDX 1 1 2 2 3 3 4 4 5 5 6 6 14 7 10 8 9 9 11 10 12 11 13 12 8 13
REMARK SMILES IDX 7 14 15 15
REMARK H PARENT
REMARK Flexibility Score: inf
ROOT
ATOM      1  C   UNL     1     138.773 144.427 132.067  1.00  0.00     0.008 C 
ATOM      2  C   UNL     1     140.032 143.539 132.203  1.00  0.00    -0.004 C 
ATOM      3  C   UNL     1     141.249 144.438 132.622  1.00  0.00     0.008 C 
ATOM      4  C   UNL     1     141.696 144.276 134.094  1.00  0.00     0.027 C 
ATOM      5  C   UNL     1     140.563 143.848 134.984  1.00  0.00    -0.027 C 
ATOM      6  C   UNL     1     139.665 142.921 134.581  1.00  0.00    -0.068 C 
ATOM      7  C   UNL     1     139.827 142.314 133.178  1.00  0.00    -0.005 C 
ATOM      8  C   UNL     1     138.585 141.476 132.696  1.00  0.00     0.009 C 
ATOM      9  C   UNL     1     137.405 141.220 133.654  1.00  0.00    -0.000 C 
ATOM     10  C   UNL     1     138.284 140.044 133.198  1.00  0.00    -0.028 C 
ATOM     11  C   UNL     1     137.610 139.120 132.175  1.00  0.00     0.012 C 
ATOM     12  C   UNL     1     139.171 139.329 134.235  1.00  0.00     0.012 C 
ATOM     13  C   UNL     1     137.519 141.657 135.122  1.00  0.00     0.009 C 
ATOM     14  C   UNL     1     138.338 142.921 135.307  1.00  0.00     0.031 C 
ATOM     15  C   UNL     1     141.096 141.403 133.082  1.00  0.00     0.017 C 
ENDROOT
TORSDOF 0
ENDMDL
MODEL 5
REMARK VINA RESULT:    -5.463      3.420      5.374
REMARK INTER + INTRA:          -5.463
REMARK INTER:                  -5.463
REMARK INTRA:                   0.000
REMARK UNBOUND:                 0.000
REMARK SMILES C[C@H]1CCC=C2CC[C@H]3[C@H](C3(C)C)[C@]21C
REMARK SMILES IDX 1 1 2 2 3 3 4 4 5 5 6 6 14 7 10 8 9 9 11 10 12 11 13 12 8 13
REMARK SMILES IDX 7 14 15 15
REMARK H PARENT
REMARK Flexibility Score: inf
ROOT
ATOM      1  C   UNL     1     143.305 137.655 132.119  1.00  0.00     0.008 C 
ATOM      2  C   UNL     1     142.058 138.561 132.253  1.00  0.00    -0.004 C 
ATOM      3  C   UNL     1     140.837 137.687 132.709  1.00  0.00     0.008 C 
ATOM      4  C   UNL     1     140.414 137.886 134.183  1.00  0.00     0.027 C 
ATOM      5  C   UNL     1     141.564 138.320 135.047  1.00  0.00    -0.027 C 
ATOM      6  C   UNL     1     142.467 139.227 134.611  1.00  0.00    -0.068 C 
ATOM      7  C   UNL     1     142.292 139.805 133.198  1.00  0.00    -0.005 C 
ATOM      8  C   UNL     1     143.537 140.616 132.679  1.00  0.00     0.009 C 
ATOM      9  C   UNL     1     144.734 140.880 133.615  1.00  0.00    -0.000 C 
ATOM     10  C   UNL     1     143.863 142.056 133.145  1.00  0.00    -0.028 C 
ATOM     11  C   UNL     1     144.532 142.948 132.091  1.00  0.00     0.012 C 
ATOM     12  C   UNL     1     142.999 142.804 134.178  1.00  0.00     0.012 C 
ATOM     13  C   UNL     1     144.636 140.476 135.093  1.00  0.00     0.009 C 
ATOM     14  C   UNL     1     143.804 139.226 135.318  1.00  0.00     0.031 C 
ATOM     15  C   UNL     1     141.033 140.729 133.099  1.00  0.00     0.017 C 
ENDROOT
TORSDOF 0
ENDMDL
MODEL 6
REMARK VINA RESULT:    -5.460      3.381      6.284
REMARK INTER + INTRA:          -5.460
REMARK INTER:                  -5.460
REMARK INTRA:                   0.000
REMARK UNBOUND:                 0.000
REMARK SMILES C[C@H]1CCC=C2CC[C@H]3[C@H](C3(C)C)[C@]21C
REMARK SMILES IDX 1 1 2 2 3 3 4 4 5 5 6 6 14 7 10 8 9 9 11 10 12 11 13 12 8 13
REMARK SMILES IDX 7 14 15 15
REMARK H PARENT
REMARK Flexibility Score: inf
ROOT
ATOM      1  C   UNL     1     145.108 140.661 133.622  1.00  0.00     0.008 C 
ATOM      2  C   UNL     1     143.769 141.327 133.222  1.00  0.00    -0.004 C 
ATOM      3  C   UNL     1     144.072 142.668 132.466  1.00  0.00     0.008 C 
ATOM      4  C   UNL     1     143.826 142.619 130.939  1.00  0.00     0.027 C 
ATOM      5  C   UNL     1     143.993 141.233 130.385  1.00  0.00    -0.027 C 
ATOM      6  C   UNL     1     143.528 140.150 131.048  1.00  0.00    -0.068 C 
ATOM      7  C   UNL     1     142.822 140.371 132.395  1.00  0.00    -0.005 C 
ATOM      8  C   UNL     1     142.582 139.051 133.216  1.00  0.00     0.009 C 
ATOM      9  C   UNL     1     142.928 137.681 132.599  1.00  0.00    -0.000 C 
ATOM     10  C   UNL     1     141.460 138.038 132.882  1.00  0.00    -0.028 C 
ATOM     11  C   UNL     1     140.860 137.305 134.089  1.00  0.00     0.012 C 
ATOM     12  C   UNL     1     140.498 138.236 131.695  1.00  0.00     0.012 C 
ATOM     13  C   UNL     1     143.365 137.608 131.128  1.00  0.00     0.009 C 
ATOM     14  C   UNL     1     144.154 138.824 130.678  1.00  0.00     0.031 C 
ATOM     15  C   UNL     1     141.445 141.093 132.219  1.00  0.00     0.017 C 
ENDROOT
TORSDOF 0
ENDMDL
MODEL 7
REMARK VINA RESULT:    -5.446      2.266      4.425
REMARK INTER + INTRA:          -5.446
REMARK INTER:                  -5.446
REMARK INTRA:                   0.000
REMARK UNBOUND:                 0.000
REMARK SMILES C[C@H]1CCC=C2CC[C@H]3[C@H](C3(C)C)[C@]21C
REMARK SMILES IDX 1 1 2 2 3 3 4 4 5 5 6 6 14 7 10 8 9 9 11 10 12 11 13 12 8 13
REMARK SMILES IDX 7 14 15 15
REMARK H PARENT
REMARK Flexibility Score: inf
ROOT
ATOM      1  C   UNL     1     140.721 137.130 133.887  1.00  0.00     0.008 C 
ATOM      2  C   UNL     1     141.376 138.476 133.494  1.00  0.00    -0.004 C 
ATOM      3  C   UNL     1     142.753 138.190 132.798  1.00  0.00     0.008 C 
ATOM      4  C   UNL     1     142.763 138.411 131.267  1.00  0.00     0.027 C 
ATOM      5  C   UNL     1     141.404 138.207 130.659  1.00  0.00    -0.027 C 
ATOM      6  C   UNL     1     140.286 138.659 131.269  1.00  0.00    -0.068 C 
ATOM      7  C   UNL     1     140.436 139.390 132.613  1.00  0.00    -0.005 C 
ATOM      8  C   UNL     1     139.078 139.615 133.375  1.00  0.00     0.009 C 
ATOM      9  C   UNL     1     137.742 139.230 132.707  1.00  0.00    -0.000 C 
ATOM     10  C   UNL     1     138.057 140.710 132.981  1.00  0.00    -0.028 C 
ATOM     11  C   UNL     1     137.263 141.313 134.147  1.00  0.00     0.012 C 
ATOM     12  C   UNL     1     138.284 141.658 131.788  1.00  0.00     0.012 C 
ATOM     13  C   UNL     1     137.739 138.770 131.242  1.00  0.00     0.009 C 
ATOM     14  C   UNL     1     138.989 138.000 130.854  1.00  0.00     0.031 C 
ATOM     15  C   UNL     1     141.137 140.779 132.445  1.00  0.00     0.017 C 
ENDROOT
TORSDOF 0
ENDMDL
MODEL 8
REMARK VINA RESULT:    -5.442      2.397      4.959
REMARK INTER + INTRA:          -5.442
REMARK INTER:                  -5.442
REMARK INTRA:                   0.000
REMARK UNBOUND:                 0.000
REMARK SMILES C[C@H]1CCC=C2CC[C@H]3[C@H](C3(C)C)[C@]21C
REMARK SMILES IDX 1 1 2 2 3 3 4 4 5 5 6 6 14 7 10 8 9 9 11 10 12 11 13 12 8 13
REMARK SMILES IDX 7 14 15 15
REMARK H PARENT
REMARK Flexibility Score: inf
ROOT
ATOM      1  C   UNL     1     144.414 143.286 132.136  1.00  0.00     0.008 C 
ATOM      2  C   UNL     1     143.515 142.038 132.305  1.00  0.00    -0.004 C 
ATOM      3  C   UNL     1     144.403 140.826 132.758  1.00  0.00     0.008 C 
ATOM      4  C   UNL     1     144.237 140.421 134.242  1.00  0.00     0.027 C 
ATOM      5  C   UNL     1     143.817 141.580 135.100  1.00  0.00    -0.027 C 
ATOM      6  C   UNL     1     142.898 142.475 134.672  1.00  0.00    -0.068 C 
ATOM      7  C   UNL     1     142.290 142.280 133.273  1.00  0.00    -0.005 C 
ATOM      8  C   UNL     1     141.464 143.515 132.756  1.00  0.00     0.009 C 
ATOM      9  C   UNL     1     141.216 144.723 133.682  1.00  0.00    -0.000 C 
ATOM     10  C   UNL     1     140.033 143.842 133.248  1.00  0.00    -0.028 C 
ATOM     11  C   UNL     1     139.116 144.495 132.206  1.00  0.00     0.012 C 
ATOM     12  C   UNL     1     139.310 142.989 134.309  1.00  0.00     0.012 C 
ATOM     13  C   UNL     1     141.651 144.645 135.153  1.00  0.00     0.009 C 
ATOM     14  C   UNL     1     142.909 143.821 135.362  1.00  0.00     0.031 C 
ATOM     15  C   UNL     1     141.370 141.016 133.210  1.00  0.00     0.017 C 
ENDROOT
TORSDOF 0
ENDMDL
MODEL 9
REMARK VINA RESULT:    -5.287      2.402      3.486
REMARK INTER + INTRA:          -5.287
REMARK INTER:                  -5.287
REMARK INTRA:                   0.000
REMARK UNBOUND:                 0.000
REMARK SMILES C[C@H]1CCC=C2CC[C@H]3[C@H](C3(C)C)[C@]21C
REMARK SMILES IDX 1 1 2 2 3 3 4 4 5 5 6 6 14 7 10 8 9 9 11 10 12 11 13 12 8 13
REMARK SMILES IDX 7 14 15 15
REMARK H PARENT
REMARK Flexibility Score: inf
ROOT
ATOM      1  C   UNL     1     138.210 143.468 137.020  1.00  0.00     0.008 C 
ATOM      2  C   UNL     1     138.705 142.114 136.457  1.00  0.00    -0.004 C 
ATOM      3  C   UNL     1     137.481 141.326 135.871  1.00  0.00     0.008 C 
ATOM      4  C   UNL     1     137.422 141.277 134.326  1.00  0.00     0.027 C 
ATOM      5  C   UNL     1     138.093 142.467 133.698  1.00  0.00    -0.027 C 
ATOM      6  C   UNL     1     139.255 142.956 134.186  1.00  0.00    -0.068 C 
ATOM      7  C   UNL     1     139.878 142.267 135.410  1.00  0.00    -0.005 C 
ATOM      8  C   UNL     1     141.054 143.076 136.071  1.00  0.00     0.009 C 
ATOM      9  C   UNL     1     141.569 144.371 135.412  1.00  0.00    -0.000 C 
ATOM     10  C   UNL     1     142.481 143.135 135.475  1.00  0.00    -0.028 C 
ATOM     11  C   UNL     1     143.615 143.246 136.501  1.00  0.00     0.012 C 
ATOM     12  C   UNL     1     142.857 142.419 134.163  1.00  0.00     0.012 C 
ATOM     13  C   UNL     1     141.029 144.781 134.034  1.00  0.00     0.009 C 
ATOM     14  C   UNL     1     139.578 144.389 133.820  1.00  0.00     0.031 C 
ATOM     15  C   UNL     1     140.405 140.834 135.065  1.00  0.00     0.017 C 
ENDROOT
TORSDOF 0
ENDMDL
