MODEL 1
REMARK VINA RESULT:    -3.166      0.000      0.000
REMARK INTER + INTRA:          -3.444
REMARK INTER:                  -3.444
REMARK INTRA:                   0.000
REMARK UNBOUND:                 0.000
REMARK SMILES [NH3+]CC(=O)[O-]
REMARK SMILES IDX 2 1 1 2 3 6 4 7 5 8
REMARK H PARENT 1 3 1 4 1 5
REMARK Flexibility Score: inf
ROOT
ATOM      1  C   UNL     1     163.155 163.685 166.732  1.00  0.00     0.312 C 
ENDROOT
BRANCH   1   2
ATOM      2  N   UNL     1     161.823 163.948 166.191  1.00  0.00    -0.353 N 
ATOM      3  H   UNL     1     161.119 163.865 166.959  1.00  0.00     0.344 HD
ATOM      4  H   UNL     1     161.782 164.917 165.797  1.00  0.00     0.344 HD
ATOM      5  H   UNL     1     161.594 163.253 165.444  1.00  0.00     0.344 HD
ENDBRANCH   1   2
BRANCH   1   6
ATOM      6  C   UNL     1     163.131 162.489 167.634  1.00  0.00     0.096 C 
ATOM      7  O   UNL     1     162.039 162.057 168.085  1.00  0.00    -0.544 OA
ATOM      8  O   UNL     1     164.313 161.823 167.935  1.00  0.00    -0.544 OA
ENDBRANCH   1   6
TORSDOF 2
ENDMDL
MODEL 2
REMARK VINA RESULT:    -3.160     15.911     16.227
REMARK INTER + INTRA:          -3.437
REMARK INTER:                  -3.437
REMARK INTRA:                   0.000
REMARK UNBOUND:                 0.000
REMARK SMILES [NH3+]CC(=O)[O-]
REMARK SMILES IDX 2 1 1 2 3 6 4 7 5 8
REMARK H PARENT 1 3 1 4 1 5
REMARK Flexibility Score: inf
ROOT
ATOM      1  C   UNL     1     150.018 151.629 166.631  1.00  0.00     0.312 C 
ENDROOT
BRANCH   1   2
ATOM      2  N   UNL     1     148.884 152.324 167.238  1.00  0.00    -0.353 N 
ATOM      3  H   UNL     1     148.295 152.741 166.483  1.00  0.00     0.344 HD
ATOM      4  H   UNL     1     148.303 151.648 167.787  1.00  0.00     0.344 HD
ATOM      5  H   UNL     1     149.225 153.089 167.865  1.00  0.00     0.344 HD
ENDBRANCH   1   2
BRANCH   1   6
ATOM      6  C   UNL     1     151.304 152.071 167.257  1.00  0.00     0.096 C 
ATOM      7  O   UNL     1     151.345 153.122 167.949  1.00  0.00    -0.544 OA
ATOM      8  O   UNL     1     152.449 151.295 167.116  1.00  0.00    -0.544 OA
ENDBRANCH   1   6
TORSDOF 2
ENDMDL
MODEL 3
REMARK VINA RESULT:    -3.119     14.968     15.425
REMARK INTER + INTRA:          -3.393
REMARK INTER:                  -3.393
REMARK INTRA:                   0.000
REMARK UNBOUND:                 0.000
REMARK SMILES [NH3+]CC(=O)[O-]
REMARK SMILES IDX 2 1 1 2 3 6 4 7 5 8
REMARK H PARENT 1 3 1 4 1 5
REMARK Flexibility Score: inf
ROOT
ATOM      1  C   UNL     1     151.485 151.298 166.733  1.00  0.00     0.312 C 
ENDROOT
BRANCH   1   2
ATOM      2  N   UNL     1     152.720 150.587 166.405  1.00  0.00    -0.353 N 
ATOM      3  H   UNL     1     152.776 150.462 165.369  1.00  0.00     0.344 HD
ATOM      4  H   UNL     1     153.548 151.142 166.724  1.00  0.00     0.344 HD
ATOM      5  H   UNL     1     152.726 149.647 166.861  1.00  0.00     0.344 HD
ENDBRANCH   1   2
BRANCH   1   6
ATOM      6  C   UNL     1     151.779 152.513 167.558  1.00  0.00     0.096 C 
ATOM      7  O   UNL     1     150.837 153.219 168.004  1.00  0.00    -0.544 OA
ATOM      8  O   UNL     1     153.093 152.837 167.875  1.00  0.00    -0.544 OA
ENDBRANCH   1   6
TORSDOF 2
ENDMDL
MODEL 4
REMARK VINA RESULT:    -3.027      1.529      1.660
REMARK INTER + INTRA:          -3.293
REMARK INTER:                  -3.293
REMARK INTRA:                   0.000
REMARK UNBOUND:                 0.000
REMARK SMILES [NH3+]CC(=O)[O-]
REMARK SMILES IDX 2 1 1 2 3 6 4 7 5 8
REMARK H PARENT 1 3 1 4 1 5
REMARK Flexibility Score: inf
ROOT
ATOM      1  C   UNL     1     161.583 162.075 166.956  1.00  0.00     0.312 C 
ENDROOT
BRANCH   1   2
ATOM      2  N   UNL     1     160.680 162.980 166.249  1.00  0.00    -0.353 N 
ATOM      3  H   UNL     1     159.692 162.702 166.447  1.00  0.00     0.344 HD
ATOM      4  H   UNL     1     160.827 163.962 166.578  1.00  0.00     0.344 HD
ATOM      5  H   UNL     1     160.848 162.923 165.218  1.00  0.00     0.344 HD
ENDBRANCH   1   2
BRANCH   1   6
ATOM      6  C   UNL     1     162.877 162.758 167.270  1.00  0.00     0.096 C 
ATOM      7  O   UNL     1     163.042 163.971 166.975  1.00  0.00    -0.544 OA
ATOM      8  O   UNL     1     163.885 162.068 167.934  1.00  0.00    -0.544 OA
ENDBRANCH   1   6
TORSDOF 2
ENDMDL
MODEL 5
REMARK VINA RESULT:    -3.020     14.469     14.891
REMARK INTER + INTRA:          -3.284
REMARK INTER:                  -3.284
REMARK INTRA:                   0.000
REMARK UNBOUND:                 0.000
REMARK SMILES [NH3+]CC(=O)[O-]
REMARK SMILES IDX 2 1 1 2 3 6 4 7 5 8
REMARK H PARENT 1 3 1 4 1 5
REMARK Flexibility Score: inf
ROOT
ATOM      1  C   UNL     1     153.459 152.924 166.927  1.00  0.00     0.312 C 
ENDROOT
BRANCH   1   2
ATOM      2  N   UNL     1     154.357 152.028 166.200  1.00  0.00    -0.353 N 
ATOM      3  H   UNL     1     154.993 152.597 165.598  1.00  0.00     0.344 HD
ATOM      4  H   UNL     1     154.934 151.475 166.876  1.00  0.00     0.344 HD
ATOM      5  H   UNL     1     153.804 151.380 165.593  1.00  0.00     0.344 HD
ENDBRANCH   1   2
BRANCH   1   6
ATOM      6  C   UNL     1     152.178 152.228 167.266  1.00  0.00     0.096 C 
ATOM      7  O   UNL     1     152.009 151.021 166.949  1.00  0.00    -0.544 OA
ATOM      8  O   UNL     1     151.189 152.898 167.976  1.00  0.00    -0.544 OA
ENDBRANCH   1   6
TORSDOF 2
ENDMDL
MODEL 6
REMARK VINA RESULT:    -2.983      2.317      2.583
REMARK INTER + INTRA:          -3.245
REMARK INTER:                  -3.245
REMARK INTRA:                   0.000
REMARK UNBOUND:                 0.000
REMARK SMILES [NH3+]CC(=O)[O-]
REMARK SMILES IDX 2 1 1 2 3 6 4 7 5 8
REMARK H PARENT 1 3 1 4 1 5
REMARK Flexibility Score: inf
ROOT
ATOM      1  C   UNL     1     164.810 163.615 166.623  1.00  0.00     0.312 C 
ENDROOT
BRANCH   1   2
ATOM      2  N   UNL     1     166.001 162.868 167.021  1.00  0.00    -0.353 N 
ATOM      3  H   UNL     1     165.901 161.875 166.710  1.00  0.00     0.344 HD
ATOM      4  H   UNL     1     166.850 163.280 166.568  1.00  0.00     0.344 HD
ATOM      5  H   UNL     1     166.108 162.889 168.061  1.00  0.00     0.344 HD
ENDBRANCH   1   2
BRANCH   1   6
ATOM      6  C   UNL     1     163.589 163.054 167.285  1.00  0.00     0.096 C 
ATOM      7  O   UNL     1     163.695 162.123 168.125  1.00  0.00    -0.544 OA
ATOM      8  O   UNL     1     162.339 163.595 167.010  1.00  0.00    -0.544 OA
ENDBRANCH   1   6
TORSDOF 2
ENDMDL
MODEL 7
REMARK VINA RESULT:    -2.982     14.394     14.814
REMARK INTER + INTRA:          -3.243
REMARK INTER:                  -3.243
REMARK INTRA:                   0.000
REMARK UNBOUND:                 0.000
REMARK SMILES [NH3+]CC(=O)[O-]
REMARK SMILES IDX 2 1 1 2 3 6 4 7 5 8
REMARK H PARENT 1 3 1 4 1 5
REMARK Flexibility Score: inf
ROOT
ATOM      1  C   UNL     1     153.494 152.958 166.869  1.00  0.00     0.312 C 
ENDROOT
BRANCH   1   2
ATOM      2  N   UNL     1     154.432 152.031 166.237  1.00  0.00    -0.353 N 
ATOM      3  H   UNL     1     154.791 151.365 166.958  1.00  0.00     0.344 HD
ATOM      4  H   UNL     1     153.947 151.488 165.486  1.00  0.00     0.344 HD
ATOM      5  H   UNL     1     155.238 152.558 165.830  1.00  0.00     0.344 HD
ENDBRANCH   1   2
BRANCH   1   6
ATOM      6  C   UNL     1     152.257 152.238 167.310  1.00  0.00     0.096 C 
ATOM      7  O   UNL     1     151.375 152.842 167.974  1.00  0.00    -0.544 OA
ATOM      8  O   UNL     1     152.056 150.913 166.944  1.00  0.00    -0.544 OA
ENDBRANCH   1   6
TORSDOF 2
ENDMDL
MODEL 8
REMARK VINA RESULT:    -2.938      2.315      2.736
REMARK INTER + INTRA:          -3.196
REMARK INTER:                  -3.196
REMARK INTRA:                   0.000
REMARK UNBOUND:                 0.000
REMARK SMILES [NH3+]CC(=O)[O-]
REMARK SMILES IDX 2 1 1 2 3 6 4 7 5 8
REMARK H PARENT 1 3 1 4 1 5
REMARK Flexibility Score: inf
ROOT
ATOM      1  C   UNL     1     163.409 162.362 167.658  1.00  0.00     0.312 C 
ENDROOT
BRANCH   1   2
ATOM      2  N   UNL     1     164.805 162.703 167.395  1.00  0.00    -0.353 N 
ATOM      3  H   UNL     1     164.841 163.498 166.717  1.00  0.00     0.344 HD
ATOM      4  H   UNL     1     165.276 162.994 168.283  1.00  0.00     0.344 HD
ATOM      5  H   UNL     1     165.305 161.882 166.982  1.00  0.00     0.344 HD
ENDBRANCH   1   2
BRANCH   1   6
ATOM      6  C   UNL     1     162.491 163.328 166.974  1.00  0.00     0.096 C 
ATOM      7  O   UNL     1     162.909 164.465 166.632  1.00  0.00    -0.544 OA
ATOM      8  O   UNL     1     161.187 162.953 166.671  1.00  0.00    -0.544 OA
ENDBRANCH   1   6
TORSDOF 2
ENDMDL
MODEL 9
REMARK VINA RESULT:    -2.809      4.390      4.799
REMARK INTER + INTRA:          -3.055
REMARK INTER:                  -3.055
REMARK INTRA:                   0.000
REMARK UNBOUND:                 0.000
REMARK SMILES [NH3+]CC(=O)[O-]
REMARK SMILES IDX 2 1 1 2 3 6 4 7 5 8
REMARK H PARENT 1 3 1 4 1 5
REMARK Flexibility Score: inf
ROOT
ATOM      1  C   UNL     1     165.920 166.590 165.112  1.00  0.00     0.312 C 
ENDROOT
BRANCH   1   2
ATOM      2  N   UNL     1     167.309 166.136 165.105  1.00  0.00    -0.353 N 
ATOM      3  H   UNL     1     167.925 166.919 165.421  1.00  0.00     0.344 HD
ATOM      4  H   UNL     1     167.425 165.328 165.760  1.00  0.00     0.344 HD
ATOM      5  H   UNL     1     167.590 165.852 164.138  1.00  0.00     0.344 HD
ENDBRANCH   1   2
BRANCH   1   6
ATOM      6  C   UNL     1     164.998 165.465 165.469  1.00  0.00     0.096 C 
ATOM      7  O   UNL     1     165.443 164.294 165.585  1.00  0.00    -0.544 OA
ATOM      8  O   UNL     1     163.656 165.720 165.723  1.00  0.00    -0.544 OA
ENDBRANCH   1   6
TORSDOF 2
ENDMDL
