MODEL 1
REMARK VINA RESULT:    -4.733      0.000      0.000
REMARK INTER + INTRA:          -7.844
REMARK INTER:                  -6.532
REMARK INTRA:                  -1.312
REMARK UNBOUND:                -1.312
REMARK SMILES CCCCc1cccc(O)c1CCCC
REMARK SMILES IDX 5 1 11 2 9 3 8 4 7 5 6 6 4 7 3 8 2 9 1 10 12 11 13 12 14 13
REMARK SMILES IDX 15 14 10 15
REMARK H PARENT 10 16
REMARK Flexibility Score: inf
ROOT
ATOM      1  C   UNL     1     -17.649  93.352  -4.948  1.00  0.00    -0.041 A 
ATOM      2  C   UNL     1     -17.877  94.207  -3.829  1.00  0.00    -0.003 A 
ATOM      3  C   UNL     1     -18.986  93.950  -2.987  1.00  0.00     0.119 A 
ATOM      4  C   UNL     1     -19.858  92.892  -3.267  1.00  0.00     0.046 A 
ATOM      5  C   UNL     1     -19.645  92.079  -4.375  1.00  0.00     0.004 A 
ATOM      6  C   UNL     1     -18.551  92.304  -5.206  1.00  0.00     0.004 A 
ENDROOT
BRANCH   1   7
ATOM      7  C   UNL     1     -16.454  93.482  -5.873  1.00  0.00     0.036 C 
BRANCH   7   8
ATOM      8  C   UNL     1     -16.907  93.584  -7.341  1.00  0.00     0.004 C 
BRANCH   8   9
ATOM      9  C   UNL     1     -17.345  95.004  -7.728  1.00  0.00    -0.003 C 
ATOM     10  C   UNL     1     -18.850  95.112  -7.968  1.00  0.00     0.004 C 
ENDBRANCH   8   9
ENDBRANCH   7   8
ENDBRANCH   1   7
BRANCH   2  11
ATOM     11  C   UNL     1     -16.973  95.389  -3.510  1.00  0.00     0.040 C 
BRANCH  11  12
ATOM     12  C   UNL     1     -17.161  96.571  -4.474  1.00  0.00     0.005 C 
BRANCH  12  13
ATOM     13  C   UNL     1     -18.635  96.964  -4.642  1.00  0.00    -0.003 C 
ATOM     14  C   UNL     1     -18.796  98.050  -5.702  1.00  0.00     0.004 C 
ENDBRANCH  12  13
ENDBRANCH  11  12
ENDBRANCH   2  11
BRANCH   3  15
ATOM     15  O   UNL     1     -19.223  94.747  -1.865  1.00  0.00    -0.508 OA
ATOM     16  H   UNL     1     -20.154  95.061  -1.621  1.00  0.00     0.293 HD
ENDBRANCH   3  15
TORSDOF 7
ENDMDL
MODEL 2
REMARK VINA RESULT:    -4.675      2.258      4.012
REMARK INTER + INTRA:          -7.764
REMARK INTER:                  -6.470
REMARK INTRA:                  -1.294
REMARK UNBOUND:                -1.312
REMARK SMILES CCCCc1cccc(O)c1CCCC
REMARK SMILES IDX 5 1 11 2 9 3 8 4 7 5 6 6 4 7 3 8 2 9 1 10 12 11 13 12 14 13
REMARK SMILES IDX 15 14 10 15
REMARK H PARENT 10 16
REMARK Flexibility Score: inf
ROOT
ATOM      1  C   UNL     1     -17.320  94.914  -4.703  1.00  0.00    -0.041 A 
ATOM      2  C   UNL     1     -17.253  95.791  -5.826  1.00  0.00    -0.003 A 
ATOM      3  C   UNL     1     -16.545  95.372  -6.979  1.00  0.00     0.119 A 
ATOM      4  C   UNL     1     -15.901  94.130  -7.002  1.00  0.00     0.046 A 
ATOM      5  C   UNL     1     -15.949  93.291  -5.894  1.00  0.00     0.004 A 
ATOM      6  C   UNL     1     -16.653  93.677  -4.756  1.00  0.00     0.004 A 
ENDROOT
BRANCH   1   7
ATOM      7  C   UNL     1     -18.111  95.221  -3.445  1.00  0.00     0.036 C 
BRANCH   7   8
ATOM      8  C   UNL     1     -19.122  94.099  -3.146  1.00  0.00     0.004 C 
BRANCH   8   9
ATOM      9  C   UNL     1     -20.271  94.053  -4.164  1.00  0.00    -0.003 C 
ATOM     10  C   UNL     1     -20.318  92.737  -4.939  1.00  0.00     0.004 C 
ENDBRANCH   8   9
ENDBRANCH   7   8
ENDBRANCH   1   7
BRANCH   2  11
ATOM     11  C   UNL     1     -17.909  97.164  -5.828  1.00  0.00     0.040 C 
BRANCH  11  12
ATOM     12  C   UNL     1     -19.351  97.144  -6.361  1.00  0.00     0.005 C 
BRANCH  12  13
ATOM     13  C   UNL     1     -20.335  97.852  -5.419  1.00  0.00    -0.003 C 
ATOM     14  C   UNL     1     -21.701  97.172  -5.443  1.00  0.00     0.004 C 
ENDBRANCH  12  13
ENDBRANCH  11  12
ENDBRANCH   2  11
BRANCH   3  15
ATOM     15  O   UNL     1     -16.484  96.191  -8.108  1.00  0.00    -0.508 OA
ATOM     16  H   UNL     1     -17.303  96.663  -8.470  1.00  0.00     0.293 HD
ENDBRANCH   3  15
TORSDOF 7
ENDMDL
MODEL 3
REMARK VINA RESULT:    -4.643      1.959      4.450
REMARK INTER + INTRA:          -7.720
REMARK INTER:                  -6.779
REMARK INTRA:                  -0.941
REMARK UNBOUND:                -1.312
REMARK SMILES CCCCc1cccc(O)c1CCCC
REMARK SMILES IDX 5 1 11 2 9 3 8 4 7 5 6 6 4 7 3 8 2 9 1 10 12 11 13 12 14 13
REMARK SMILES IDX 15 14 10 15
REMARK H PARENT 10 16
REMARK Flexibility Score: inf
ROOT
ATOM      1  C   UNL     1     -19.363  95.158  -4.419  1.00  0.00    -0.041 A 
ATOM      2  C   UNL     1     -17.998  95.570  -4.372  1.00  0.00    -0.003 A 
ATOM      3  C   UNL     1     -17.645  96.830  -4.913  1.00  0.00     0.119 A 
ATOM      4  C   UNL     1     -18.617  97.643  -5.506  1.00  0.00     0.046 A 
ATOM      5  C   UNL     1     -19.942  97.223  -5.572  1.00  0.00     0.004 A 
ATOM      6  C   UNL     1     -20.313  95.995  -5.032  1.00  0.00     0.004 A 
ENDROOT
BRANCH   1   7
ATOM      7  C   UNL     1     -19.871  93.867  -3.805  1.00  0.00     0.036 C 
BRANCH   7   8
ATOM      8  C   UNL     1     -20.679  93.053  -4.833  1.00  0.00     0.004 C 
BRANCH   8   9
ATOM      9  C   UNL     1     -22.037  92.591  -4.285  1.00  0.00    -0.003 C 
ATOM     10  C   UNL     1     -22.357  91.142  -4.649  1.00  0.00     0.004 C 
ENDBRANCH   8   9
ENDBRANCH   7   8
ENDBRANCH   1   7
BRANCH   2  11
ATOM     11  C   UNL     1     -16.905  94.700  -3.767  1.00  0.00     0.040 C 
BRANCH  11  12
ATOM     12  C   UNL     1     -16.049  93.984  -4.823  1.00  0.00     0.005 C 
BRANCH  12  13
ATOM     13  C   UNL     1     -16.684  92.671  -5.301  1.00  0.00    -0.003 C 
ATOM     14  C   UNL     1     -17.354  92.849  -6.661  1.00  0.00     0.004 C 
ENDBRANCH  12  13
ENDBRANCH  11  12
ENDBRANCH   2  11
BRANCH   3  15
ATOM     15  O   UNL     1     -16.324  97.279  -4.858  1.00  0.00    -0.508 OA
ATOM     16  H   UNL     1     -15.956  97.752  -4.042  1.00  0.00     0.293 HD
ENDBRANCH   3  15
TORSDOF 7
ENDMDL
MODEL 4
REMARK VINA RESULT:    -4.605     16.776     19.141
REMARK INTER + INTRA:          -7.668
REMARK INTER:                  -6.410
REMARK INTRA:                  -1.257
REMARK UNBOUND:                -1.312
REMARK SMILES CCCCc1cccc(O)c1CCCC
REMARK SMILES IDX 5 1 11 2 9 3 8 4 7 5 6 6 4 7 3 8 2 9 1 10 12 11 13 12 14 13
REMARK SMILES IDX 15 14 10 15
REMARK H PARENT 10 16
REMARK Flexibility Score: inf
ROOT
ATOM      1  C   UNL     1     -32.972  92.548   8.051  1.00  0.00    -0.041 A 
ATOM      2  C   UNL     1     -32.248  92.235   6.862  1.00  0.00    -0.003 A 
ATOM      3  C   UNL     1     -32.911  92.328   5.614  1.00  0.00     0.119 A 
ATOM      4  C   UNL     1     -34.260  92.693   5.554  1.00  0.00     0.046 A 
ATOM      5  C   UNL     1     -34.967  92.971   6.719  1.00  0.00     0.004 A 
ATOM      6  C   UNL     1     -34.330  92.902   7.955  1.00  0.00     0.004 A 
ENDROOT
BRANCH   1   7
ATOM      7  C   UNL     1     -32.348  92.558   9.433  1.00  0.00     0.036 C 
BRANCH   7   8
ATOM      8  C   UNL     1     -32.583  93.911  10.130  1.00  0.00     0.004 C 
BRANCH   8   9
ATOM      9  C   UNL     1     -31.651  95.014   9.608  1.00  0.00    -0.003 C 
ATOM     10  C   UNL     1     -32.393  96.079   8.801  1.00  0.00     0.004 C 
ENDBRANCH   8   9
ENDBRANCH   7   8
ENDBRANCH   1   7
BRANCH   2  11
ATOM     11  C   UNL     1     -30.790  91.799   6.886  1.00  0.00     0.040 C 
BRANCH  11  12
ATOM     12  C   UNL     1     -29.808  92.978   6.979  1.00  0.00     0.005 C 
BRANCH  12  13
ATOM     13  C   UNL     1     -28.559  92.638   7.803  1.00  0.00    -0.003 C 
ATOM     14  C   UNL     1     -28.206  93.777   8.757  1.00  0.00     0.004 C 
ENDBRANCH  12  13
ENDBRANCH  11  12
ENDBRANCH   2  11
BRANCH   3  15
ATOM     15  O   UNL     1     -32.226  92.058   4.427  1.00  0.00    -0.508 OA
ATOM     16  H   UNL     1     -31.443  92.623   4.123  1.00  0.00     0.293 HD
ENDBRANCH   3  15
TORSDOF 7
ENDMDL
MODEL 5
REMARK VINA RESULT:    -4.580      2.576      4.070
REMARK INTER + INTRA:          -7.633
REMARK INTER:                  -6.583
REMARK INTRA:                  -1.050
REMARK UNBOUND:                -1.312
REMARK SMILES CCCCc1cccc(O)c1CCCC
REMARK SMILES IDX 5 1 11 2 9 3 8 4 7 5 6 6 4 7 3 8 2 9 1 10 12 11 13 12 14 13
REMARK SMILES IDX 15 14 10 15
REMARK H PARENT 10 16
REMARK Flexibility Score: inf
ROOT
ATOM      1  C   UNL     1     -19.836  95.368  -5.055  1.00  0.00    -0.041 A 
ATOM      2  C   UNL     1     -18.720  96.221  -5.306  1.00  0.00    -0.003 A 
ATOM      3  C   UNL     1     -17.597  96.148  -4.446  1.00  0.00     0.119 A 
ATOM      4  C   UNL     1     -17.597  95.273  -3.354  1.00  0.00     0.046 A 
ATOM      5  C   UNL     1     -18.699  94.463  -3.101  1.00  0.00     0.004 A 
ATOM      6  C   UNL     1     -19.806  94.507  -3.943  1.00  0.00     0.004 A 
ENDROOT
BRANCH   1   7
ATOM      7  C   UNL     1     -21.059  95.303  -5.950  1.00  0.00     0.036 C 
BRANCH   7   8
ATOM      8  C   UNL     1     -22.340  95.133  -5.114  1.00  0.00     0.004 C 
BRANCH   8   9
ATOM      9  C   UNL     1     -23.332  94.145  -5.746  1.00  0.00    -0.003 C 
ATOM     10  C   UNL     1     -22.975  92.688  -5.458  1.00  0.00     0.004 C 
ENDBRANCH   8   9
ENDBRANCH   7   8
ENDBRANCH   1   7
BRANCH   2  11
ATOM     11  C   UNL     1     -18.695  97.212  -6.461  1.00  0.00     0.040 C 
BRANCH  11  12
ATOM     12  C   UNL     1     -19.153  98.622  -6.058  1.00  0.00     0.005 C 
BRANCH  12  13
ATOM     13  C   UNL     1     -20.594  98.920  -6.497  1.00  0.00    -0.003 C 
ATOM     14  C   UNL     1     -21.521  99.037  -5.290  1.00  0.00     0.004 C 
ENDBRANCH  12  13
ENDBRANCH  11  12
ENDBRANCH   2  11
BRANCH   3  15
ATOM     15  O   UNL     1     -16.475  96.946  -4.678  1.00  0.00    -0.508 OA
ATOM     16  H   UNL     1     -15.535  96.604  -4.519  1.00  0.00     0.293 HD
ENDBRANCH   3  15
TORSDOF 7
ENDMDL
MODEL 6
REMARK VINA RESULT:    -4.563      2.540      4.726
REMARK INTER + INTRA:          -7.609
REMARK INTER:                  -6.152
REMARK INTRA:                  -1.456
REMARK UNBOUND:                -1.312
REMARK SMILES CCCCc1cccc(O)c1CCCC
REMARK SMILES IDX 5 1 11 2 9 3 8 4 7 5 6 6 4 7 3 8 2 9 1 10 12 11 13 12 14 13
REMARK SMILES IDX 15 14 10 15
REMARK H PARENT 10 16
REMARK Flexibility Score: inf
ROOT
ATOM      1  C   UNL     1     -20.547  95.970  -5.745  1.00  0.00    -0.041 A 
ATOM      2  C   UNL     1     -19.556  96.959  -6.018  1.00  0.00    -0.003 A 
ATOM      3  C   UNL     1     -19.907  98.327  -5.909  1.00  0.00     0.119 A 
ATOM      4  C   UNL     1     -21.211  98.698  -5.564  1.00  0.00     0.046 A 
ATOM      5  C   UNL     1     -22.179  97.729  -5.325  1.00  0.00     0.004 A 
ATOM      6  C   UNL     1     -21.851  96.379  -5.412  1.00  0.00     0.004 A 
ENDROOT
BRANCH   1   7
ATOM      7  C   UNL     1     -20.269  94.479  -5.756  1.00  0.00     0.036 C 
BRANCH   7   8
ATOM      8  C   UNL     1     -20.445  93.879  -4.350  1.00  0.00     0.004 C 
BRANCH   8   9
ATOM      9  C   UNL     1     -19.104  93.586  -3.660  1.00  0.00    -0.003 C 
ATOM     10  C   UNL     1     -18.772  94.598  -2.566  1.00  0.00     0.004 C 
ENDBRANCH   8   9
ENDBRANCH   7   8
ENDBRANCH   1   7
BRANCH   2  11
ATOM     11  C   UNL     1     -18.136  96.598  -6.430  1.00  0.00     0.040 C 
BRANCH  11  12
ATOM     12  C   UNL     1     -17.175  96.468  -5.238  1.00  0.00     0.005 C 
BRANCH  12  13
ATOM     13  C   UNL     1     -16.184  95.308  -5.406  1.00  0.00    -0.003 C 
ATOM     14  C   UNL     1     -16.673  94.318  -6.459  1.00  0.00     0.004 C 
ENDBRANCH  12  13
ENDBRANCH  11  12
ENDBRANCH   2  11
BRANCH   3  15
ATOM     15  O   UNL     1     -18.955  99.322  -6.139  1.00  0.00    -0.508 OA
ATOM     16  H   UNL     1     -18.586  99.892  -5.387  1.00  0.00     0.293 HD
ENDBRANCH   3  15
TORSDOF 7
ENDMDL
MODEL 7
REMARK VINA RESULT:    -4.541      2.328      3.031
REMARK INTER + INTRA:          -7.579
REMARK INTER:                  -6.415
REMARK INTRA:                  -1.164
REMARK UNBOUND:                -1.312
REMARK SMILES CCCCc1cccc(O)c1CCCC
REMARK SMILES IDX 5 1 11 2 9 3 8 4 7 5 6 6 4 7 3 8 2 9 1 10 12 11 13 12 14 13
REMARK SMILES IDX 15 14 10 15
REMARK H PARENT 10 16
REMARK Flexibility Score: inf
ROOT
ATOM      1  C   UNL     1     -17.265  94.916  -6.767  1.00  0.00    -0.041 A 
ATOM      2  C   UNL     1     -17.293  95.833  -5.675  1.00  0.00    -0.003 A 
ATOM      3  C   UNL     1     -16.575  95.515  -4.496  1.00  0.00     0.119 A 
ATOM      4  C   UNL     1     -15.875  94.308  -4.398  1.00  0.00     0.046 A 
ATOM      5  C   UNL     1     -15.875  93.405  -5.456  1.00  0.00     0.004 A 
ATOM      6  C   UNL     1     -16.560  93.706  -6.630  1.00  0.00     0.004 A 
ENDROOT
BRANCH   1   7
ATOM      7  C   UNL     1     -17.931  95.183  -8.103  1.00  0.00     0.036 C 
BRANCH   7   8
ATOM      8  C   UNL     1     -19.307  94.496  -8.177  1.00  0.00     0.004 C 
BRANCH   8   9
ATOM      9  C   UNL     1     -20.466  95.500  -8.253  1.00  0.00    -0.003 C 
ATOM     10  C   UNL     1     -21.684  95.055  -7.446  1.00  0.00     0.004 C 
ENDBRANCH   8   9
ENDBRANCH   7   8
ENDBRANCH   1   7
BRANCH   2  11
ATOM     11  C   UNL     1     -18.070  97.141  -5.728  1.00  0.00     0.040 C 
BRANCH  11  12
ATOM     12  C   UNL     1     -19.393  97.090  -4.948  1.00  0.00     0.005 C 
BRANCH  12  13
ATOM     13  C   UNL     1     -20.459  98.025  -5.535  1.00  0.00    -0.003 C 
ATOM     14  C   UNL     1     -19.829  99.054  -6.470  1.00  0.00     0.004 C 
ENDBRANCH  12  13
ENDBRANCH  11  12
ENDBRANCH   2  11
BRANCH   3  15
ATOM     15  O   UNL     1     -16.554  96.403  -3.419  1.00  0.00    -0.508 OA
ATOM     16  H   UNL     1     -17.383  96.594  -2.869  1.00  0.00     0.293 HD
ENDBRANCH   3  15
TORSDOF 7
ENDMDL
MODEL 8
REMARK VINA RESULT:    -4.528     17.057     18.996
REMARK INTER + INTRA:          -7.560
REMARK INTER:                  -6.319
REMARK INTRA:                  -1.241
REMARK UNBOUND:                -1.312
REMARK SMILES CCCCc1cccc(O)c1CCCC
REMARK SMILES IDX 5 1 11 2 9 3 8 4 7 5 6 6 4 7 3 8 2 9 1 10 12 11 13 12 14 13
REMARK SMILES IDX 15 14 10 15
REMARK H PARENT 10 16
REMARK Flexibility Score: inf
ROOT
ATOM      1  C   UNL     1     -32.589  91.724   7.149  1.00  0.00    -0.041 A 
ATOM      2  C   UNL     1     -32.996  92.575   8.219  1.00  0.00    -0.003 A 
ATOM      3  C   UNL     1     -34.043  93.502   7.994  1.00  0.00     0.119 A 
ATOM      4  C   UNL     1     -34.646  93.597   6.735  1.00  0.00     0.046 A 
ATOM      5  C   UNL     1     -34.226  92.782   5.689  1.00  0.00     0.004 A 
ATOM      6  C   UNL     1     -33.210  91.853   5.894  1.00  0.00     0.004 A 
ENDROOT
BRANCH   1   7
ATOM      7  C   UNL     1     -31.534  90.643   7.293  1.00  0.00     0.036 C 
BRANCH   7   8
ATOM      8  C   UNL     1     -30.250  91.027   6.535  1.00  0.00     0.004 C 
BRANCH   8   9
ATOM      9  C   UNL     1     -28.999  90.347   7.109  1.00  0.00    -0.003 C 
ATOM     10  C   UNL     1     -28.120  91.308   7.907  1.00  0.00     0.004 C 
ENDBRANCH   8   9
ENDBRANCH   7   8
ENDBRANCH   1   7
BRANCH   2  11
ATOM     11  C   UNL     1     -32.342  92.528   9.592  1.00  0.00     0.040 C 
BRANCH  11  12
ATOM     12  C   UNL     1     -30.930  93.136   9.610  1.00  0.00     0.005 C 
BRANCH  12  13
ATOM     13  C   UNL     1     -30.889  94.544   9.001  1.00  0.00    -0.003 C 
ATOM     14  C   UNL     1     -29.997  94.580   7.763  1.00  0.00     0.004 C 
ENDBRANCH  12  13
ENDBRANCH  11  12
ENDBRANCH   2  11
BRANCH   3  15
ATOM     15  O   UNL     1     -34.488  94.331   9.026  1.00  0.00    -0.508 OA
ATOM     16  H   UNL     1     -33.949  94.464   9.873  1.00  0.00     0.293 HD
ENDBRANCH   3  15
TORSDOF 7
ENDMDL
MODEL 9
REMARK VINA RESULT:    -4.525     18.795     20.526
REMARK INTER + INTRA:          -7.557
REMARK INTER:                  -6.377
REMARK INTRA:                  -1.180
REMARK UNBOUND:                -1.312
REMARK SMILES CCCCc1cccc(O)c1CCCC
REMARK SMILES IDX 5 1 11 2 9 3 8 4 7 5 6 6 4 7 3 8 2 9 1 10 12 11 13 12 14 13
REMARK SMILES IDX 15 14 10 15
REMARK H PARENT 10 16
REMARK Flexibility Score: inf
ROOT
ATOM      1  C   UNL     1     -32.567  94.243   8.663  1.00  0.00    -0.041 A 
ATOM      2  C   UNL     1     -33.946  93.880   8.728  1.00  0.00    -0.003 A 
ATOM      3  C   UNL     1     -34.444  93.300   9.920  1.00  0.00     0.119 A 
ATOM      4  C   UNL     1     -33.590  93.064  11.003  1.00  0.00     0.046 A 
ATOM      5  C   UNL     1     -32.242  93.396  10.923  1.00  0.00     0.004 A 
ATOM      6  C   UNL     1     -31.736  93.982   9.767  1.00  0.00     0.004 A 
ENDROOT
BRANCH   1   7
ATOM      7  C   UNL     1     -31.940  94.939   7.471  1.00  0.00     0.036 C 
BRANCH   7   8
ATOM      8  C   UNL     1     -31.833  96.456   7.715  1.00  0.00     0.004 C 
BRANCH   8   9
ATOM      9  C   UNL     1     -33.020  97.233   7.126  1.00  0.00    -0.003 C 
ATOM     10  C   UNL     1     -34.014  97.687   8.194  1.00  0.00     0.004 C 
ENDBRANCH   8   9
ENDBRANCH   7   8
ENDBRANCH   1   7
BRANCH   2  11
ATOM     11  C   UNL     1     -34.899  94.087   7.560  1.00  0.00     0.040 C 
BRANCH  11  12
ATOM     12  C   UNL     1     -35.074  92.832   6.692  1.00  0.00     0.005 C 
BRANCH  12  13
ATOM     13  C   UNL     1     -34.105  92.801   5.501  1.00  0.00    -0.003 C 
ATOM     14  C   UNL     1     -32.964  91.819   5.748  1.00  0.00     0.004 C 
ENDBRANCH  12  13
ENDBRANCH  11  12
ENDBRANCH   2  11
BRANCH   3  15
ATOM     15  O   UNL     1     -35.794  92.959  10.031  1.00  0.00    -0.508 OA
ATOM     16  H   UNL     1     -36.529  93.591   9.738  1.00  0.00     0.293 HD
ENDBRANCH   3  15
TORSDOF 7
ENDMDL
