MODEL 1
REMARK VINA RESULT:    -5.475      0.000      0.000
REMARK INTER + INTRA:          -8.816
REMARK INTER:                  -8.356
REMARK INTRA:                  -0.460
REMARK UNBOUND:                -0.460
REMARK SMILES CC1=CCC[C@@H](C)C(=O)C[C@H](C(C)C)C(=O)C1
REMARK SMILES IDX 8 1 9 2 6 3 7 4 5 5 4 6 3 7 2 8 1 9 10 11 11 12 15 13 16 14
REMARK SMILES IDX 17 15 12 17 13 18 14 19
REMARK H PARENT
REMARK Flexibility Score: 70.00
ROOT
ATOM      1  C   UNL     1      -8.351  32.797  22.210  1.00  0.00     0.136 C 
ATOM      2  O   UNL     1      -7.648  32.408  21.289  1.00  0.00    -0.299 OA
ENDROOT
BRANCH   1   3
ATOM      3  C   UNL     1      -8.290  34.283  22.565  1.00  0.00     0.053 C 
ATOM      4  C   UNL     1      -7.468  35.015  21.491  1.00  0.00     0.016 C 
BRANCH   3   5
ATOM      5  C   UNL     1      -7.723  34.648  23.961  1.00  0.00     0.015 C 
BRANCH   5   6
ATOM      6  C   UNL     1      -8.729  34.776  25.120  1.00  0.00     0.028 C 
BRANCH   6   7
ATOM      7  C   UNL     1      -8.357  34.026  26.376  1.00  0.00    -0.028 C 
ATOM      8  C   UNL     1      -8.697  32.753  26.708  1.00  0.00    -0.070 CG0
ATOM      9  C   UNL     1      -8.098  32.203  27.981  1.00  0.00     0.039 C 
ATOM     10  G   UNL     1      -9.721  31.885  25.981  1.00  0.00     0.000 G0
ENDBRANCH   6   7
ENDBRANCH   5   6
ENDBRANCH   3   5
ENDBRANCH   1   3
BRANCH   1  11
ATOM     11  C   UNL     1      -9.214  31.769  22.912  1.00  0.00     0.087 C 
BRANCH  11  12
ATOM     12  C   UNL     1      -8.440  30.855  23.909  1.00  0.00     0.066 C 
BRANCH  12  13
ATOM     13  C   UNL     1      -9.177  30.700  25.236  1.00  0.00     0.140 C 
ATOM     14  O   UNL     1      -9.403  29.575  25.661  1.00  0.00    -0.299 OA
BRANCH  13  15
ATOM     15  C   UNL     1      -9.730  31.885  25.993  1.00  0.00     0.106 CG0
ATOM     16  G   UNL     1      -8.701  32.754  26.714  1.00  0.00     0.000 G0
ENDBRANCH  13  15
ENDBRANCH  12  13
BRANCH  12  17
ATOM     17  C   UNL     1      -8.007  29.466  23.330  1.00  0.00    -0.006 C 
ATOM     18  C   UNL     1      -6.492  29.429  23.055  1.00  0.00     0.008 C 
ATOM     19  C   UNL     1      -8.752  29.118  22.029  1.00  0.00     0.008 C 
ENDBRANCH  12  17
ENDBRANCH  11  12
ENDBRANCH   1  11
TORSDOF 1
ENDMDL
MODEL 2
REMARK VINA RESULT:    -5.006      1.782      3.973
REMARK INTER + INTRA:          -8.100
REMARK INTER:                  -7.755
REMARK INTRA:                  -0.345
REMARK UNBOUND:                -0.460
REMARK SMILES CC1=CCC[C@@H](C)C(=O)C[C@H](C(C)C)C(=O)C1
REMARK SMILES IDX 8 1 9 2 6 3 7 4 5 5 4 6 3 7 2 8 1 9 10 11 11 12 15 13 16 14
REMARK SMILES IDX 17 15 12 17 13 18 14 19
REMARK H PARENT
REMARK Flexibility Score: 70.00
ROOT
ATOM      1  C   UNL     1      -7.847  30.372  23.493  1.00  0.00     0.136 C 
ATOM      2  O   UNL     1      -7.730  29.391  22.773  1.00  0.00    -0.299 OA
ENDROOT
BRANCH   1   3
ATOM      3  C   UNL     1      -8.590  30.193  24.816  1.00  0.00     0.053 C 
ATOM      4  C   UNL     1      -9.684  29.128  24.629  1.00  0.00     0.016 C 
BRANCH   3   5
ATOM      5  C   UNL     1      -9.231  31.460  25.438  1.00  0.00     0.015 C 
BRANCH   5   6
ATOM      6  C   UNL     1      -8.362  32.289  26.403  1.00  0.00     0.028 C 
BRANCH   6   7
ATOM      7  C   UNL     1      -8.626  33.775  26.385  1.00  0.00    -0.028 C 
ATOM      8  C   UNL     1      -8.266  34.665  25.423  1.00  0.00    -0.070 CG0
ATOM      9  C   UNL     1      -8.753  36.084  25.598  1.00  0.00     0.039 C 
ATOM     10  G   UNL     1      -7.317  34.387  24.260  1.00  0.00     0.000 G0
ENDBRANCH   6   7
ENDBRANCH   5   6
ENDBRANCH   3   5
ENDBRANCH   1   3
BRANCH   1  11
ATOM     11  C   UNL     1      -7.243  31.673  23.004  1.00  0.00     0.087 C 
BRANCH  11  12
ATOM     12  C   UNL     1      -8.282  32.692  22.447  1.00  0.00     0.066 C 
BRANCH  12  13
ATOM     13  C   UNL     1      -7.988  34.118  22.905  1.00  0.00     0.140 C 
ATOM     14  O   UNL     1      -8.221  35.046  22.142  1.00  0.00    -0.299 OA
BRANCH  13  15
ATOM     15  C   UNL     1      -7.322  34.417  24.228  1.00  0.00     0.106 CG0
ATOM     16  G   UNL     1      -8.261  34.663  25.406  1.00  0.00     0.000 G0
ENDBRANCH  13  15
ENDBRANCH  12  13
BRANCH  12  17
ATOM     17  C   UNL     1      -8.508  32.625  20.899  1.00  0.00    -0.006 C 
ATOM     18  C   UNL     1      -9.442  31.458  20.527  1.00  0.00     0.008 C 
ATOM     19  C   UNL     1      -7.188  32.465  20.122  1.00  0.00     0.008 C 
ENDBRANCH  12  17
ENDBRANCH  11  12
ENDBRANCH   1  11
TORSDOF 1
ENDMDL
MODEL 3
REMARK VINA RESULT:    -4.743      1.620      4.027
REMARK INTER + INTRA:          -7.699
REMARK INTER:                  -7.284
REMARK INTRA:                  -0.415
REMARK UNBOUND:                -0.460
REMARK SMILES CC1=CCC[C@@H](C)C(=O)C[C@H](C(C)C)C(=O)C1
REMARK SMILES IDX 8 1 9 2 6 3 7 4 5 5 4 6 3 7 2 8 1 9 10 11 11 12 15 13 16 14
REMARK SMILES IDX 17 15 12 17 13 18 14 19
REMARK H PARENT
REMARK Flexibility Score: 70.00
ROOT
ATOM      1  C   UNL     1      -7.882  33.349  22.276  1.00  0.00     0.136 C 
ATOM      2  O   UNL     1      -7.918  34.452  21.749  1.00  0.00    -0.299 OA
ENDROOT
BRANCH   1   3
ATOM      3  C   UNL     1      -8.200  32.138  21.401  1.00  0.00     0.053 C 
ATOM      4  C   UNL     1      -9.727  31.970  21.323  1.00  0.00     0.016 C 
BRANCH   3   5
ATOM      5  C   UNL     1      -7.571  30.785  21.822  1.00  0.00     0.015 C 
BRANCH   5   6
ATOM      6  C   UNL     1      -8.430  29.848  22.691  1.00  0.00     0.028 C 
BRANCH   6   7
ATOM      7  C   UNL     1      -7.909  29.616  24.089  1.00  0.00    -0.028 C 
ATOM      8  C   UNL     1      -8.403  30.124  25.248  1.00  0.00    -0.070 CG0
ATOM      9  C   UNL     1      -7.757  29.643  26.527  1.00  0.00     0.039 C 
ATOM     10  G   UNL     1      -9.457  31.221  25.364  1.00  0.00     0.000 G0
ENDBRANCH   6   7
ENDBRANCH   5   6
ENDBRANCH   3   5
ENDBRANCH   1   3
BRANCH   1  11
ATOM     11  C   UNL     1      -7.526  33.291  23.747  1.00  0.00     0.087 C 
BRANCH  11  12
ATOM     12  C   UNL     1      -8.692  33.679  24.705  1.00  0.00     0.066 C 
BRANCH  12  13
ATOM     13  C   UNL     1      -8.960  32.598  25.749  1.00  0.00     0.140 C 
ATOM     14  O   UNL     1      -8.678  32.820  26.918  1.00  0.00    -0.299 OA
BRANCH  13  15
ATOM     15  C   UNL     1      -9.464  31.224  25.373  1.00  0.00     0.106 CG0
ATOM     16  G   UNL     1      -8.402  30.134  25.255  1.00  0.00     0.000 G0
ENDBRANCH  13  15
ENDBRANCH  12  13
BRANCH  12  17
ATOM     17  C   UNL     1      -8.560  35.092  25.367  1.00  0.00    -0.006 C 
ATOM     18  C   UNL     1      -9.459  36.121  24.656  1.00  0.00     0.008 C 
ATOM     19  C   UNL     1      -7.111  35.611  25.353  1.00  0.00     0.008 C 
ENDBRANCH  12  17
ENDBRANCH  11  12
ENDBRANCH   1  11
TORSDOF 1
ENDMDL
MODEL 4
REMARK VINA RESULT:    -4.525      1.752      2.894
REMARK INTER + INTRA:          -7.366
REMARK INTER:                  -7.061
REMARK INTRA:                  -0.305
REMARK UNBOUND:                -0.460
REMARK SMILES CC1=CCC[C@@H](C)C(=O)C[C@H](C(C)C)C(=O)C1
REMARK SMILES IDX 8 1 9 2 6 3 7 4 5 5 4 6 3 7 2 8 1 9 10 11 11 12 15 13 16 14
REMARK SMILES IDX 17 15 12 17 13 18 14 19
REMARK H PARENT
REMARK Flexibility Score: 70.00
ROOT
ATOM      1  C   UNL     1      -8.294  34.090  23.929  1.00  0.00     0.136 C 
ATOM      2  O   UNL     1      -7.232  34.552  23.538  1.00  0.00    -0.299 OA
ENDROOT
BRANCH   1   3
ATOM      3  C   UNL     1      -8.870  34.649  25.229  1.00  0.00     0.053 C 
ATOM      4  C   UNL     1      -8.323  36.070  25.444  1.00  0.00     0.016 C 
BRANCH   3   5
ATOM      5  C   UNL     1      -8.625  33.821  26.517  1.00  0.00     0.015 C 
BRANCH   5   6
ATOM      6  C   UNL     1      -9.505  32.576  26.735  1.00  0.00     0.028 C 
BRANCH   6   7
ATOM      7  C   UNL     1      -8.750  31.275  26.867  1.00  0.00    -0.028 C 
ATOM      8  C   UNL     1      -8.445  30.395  25.879  1.00  0.00    -0.070 CG0
ATOM      9  C   UNL     1      -7.580  29.217  26.265  1.00  0.00     0.039 C 
ATOM     10  G   UNL     1      -8.997  30.423  24.456  1.00  0.00     0.000 G0
ENDBRANCH   6   7
ENDBRANCH   5   6
ENDBRANCH   3   5
ENDBRANCH   1   3
BRANCH   1  11
ATOM     11  C   UNL     1      -8.937  33.007  23.086  1.00  0.00     0.087 C 
BRANCH  11  12
ATOM     12  C   UNL     1      -7.940  31.940  22.545  1.00  0.00     0.066 C 
BRANCH  12  13
ATOM     13  C   UNL     1      -8.018  30.632  23.328  1.00  0.00     0.140 C 
ATOM     14  O   UNL     1      -7.310  29.694  22.987  1.00  0.00    -0.299 OA
BRANCH  13  15
ATOM     15  C   UNL     1      -9.013  30.421  24.444  1.00  0.00     0.106 CG0
ATOM     16  G   UNL     1      -8.435  30.396  25.857  1.00  0.00     0.000 G0
ENDBRANCH  13  15
ENDBRANCH  12  13
BRANCH  12  17
ATOM     17  C   UNL     1      -8.018  31.687  21.001  1.00  0.00    -0.006 C 
ATOM     18  C   UNL     1      -7.524  32.915  20.214  1.00  0.00     0.008 C 
ATOM     19  C   UNL     1      -9.446  31.346  20.537  1.00  0.00     0.008 C 
ENDBRANCH  12  17
ENDBRANCH  11  12
ENDBRANCH   1  11
TORSDOF 1
ENDMDL
MODEL 5
REMARK VINA RESULT:    -4.210      1.553      2.344
REMARK INTER + INTRA:          -6.885
REMARK INTER:                  -7.583
REMARK INTRA:                   0.698
REMARK UNBOUND:                -0.460
REMARK SMILES CC1=CCC[C@@H](C)C(=O)C[C@H](C(C)C)C(=O)C1
REMARK SMILES IDX 8 1 9 2 6 3 7 4 5 5 4 6 3 7 2 8 1 9 10 11 11 12 15 13 16 14
REMARK SMILES IDX 17 15 12 17 13 18 14 19
REMARK H PARENT
REMARK Flexibility Score: 70.00
ROOT
ATOM      1  C   UNL     1      -7.526  34.349  23.591  1.00  0.00     0.136 C 
ATOM      2  O   UNL     1      -6.723  35.220  23.288  1.00  0.00    -0.299 OA
ENDROOT
BRANCH   1   3
ATOM      3  C   UNL     1      -8.413  34.600  24.809  1.00  0.00     0.053 C 
ATOM      4  C   UNL     1      -8.989  36.024  24.718  1.00  0.00     0.016 C 
BRANCH   3   5
ATOM      5  C   UNL     1      -7.760  34.416  26.203  1.00  0.00     0.015 C 
BRANCH   5   6
ATOM      6  C   UNL     1      -8.492  33.508  27.210  1.00  0.00     0.028 C 
BRANCH   6   7
ATOM      7  C   UNL     1      -7.998  32.083  27.262  1.00  0.00    -0.028 C 
ATOM      8  C   UNL     1      -8.358  31.055  26.448  1.00  0.00    -0.070 CG0
ATOM      9  C   UNL     1      -7.628  29.748  26.646  1.00  0.00     0.039 C 
ATOM     10  G   UNL     1      -9.512  31.071  25.448  1.00  0.00     0.000 G0
ENDBRANCH   6   7
ENDBRANCH   5   6
ENDBRANCH   3   5
ENDBRANCH   1   3
BRANCH   1  11
ATOM     11  C   UNL     1      -7.562  33.104  22.729  1.00  0.00     0.087 C 
BRANCH  11  12
ATOM     12  C   UNL     1      -7.793  31.782  23.521  1.00  0.00     0.066 C 
BRANCH  12  13
ATOM     13  C   UNL     1      -9.210  31.687  24.079  1.00  0.00     0.140 C 
ATOM     14  O   UNL     1     -10.124  32.223  23.469  1.00  0.00    -0.299 OA
BRANCH  13  15
ATOM     15  C   UNL     1      -9.508  31.044  25.414  1.00  0.00     0.106 CG0
ATOM     16  G   UNL     1      -8.366  31.053  26.427  1.00  0.00     0.000 G0
ENDBRANCH  13  15
ENDBRANCH  12  13
BRANCH  12  17
ATOM     17  C   UNL     1      -7.392  30.476  22.756  1.00  0.00    -0.006 C 
ATOM     18  C   UNL     1      -8.571  29.486  22.695  1.00  0.00     0.008 C 
ATOM     19  C   UNL     1      -6.187  29.767  23.401  1.00  0.00     0.008 C 
ENDBRANCH  12  17
ENDBRANCH  11  12
ENDBRANCH   1  11
TORSDOF 1
ENDMDL
MODEL 6
REMARK VINA RESULT:    -4.157      1.475      3.812
REMARK INTER + INTRA:          -6.805
REMARK INTER:                  -7.438
REMARK INTRA:                   0.633
REMARK UNBOUND:                -0.460
REMARK SMILES CC1=CCC[C@@H](C)C(=O)C[C@H](C(C)C)C(=O)C1
REMARK SMILES IDX 8 1 9 2 6 3 7 4 5 5 4 6 3 7 2 8 1 9 10 11 11 12 15 13 16 14
REMARK SMILES IDX 17 15 12 17 13 18 14 19
REMARK H PARENT
REMARK Flexibility Score: 70.00
ROOT
ATOM      1  C   UNL     1      -8.539  31.143  22.717  1.00  0.00     0.136 C 
ATOM      2  O   UNL     1      -8.016  31.197  21.614  1.00  0.00    -0.299 OA
ENDROOT
BRANCH   1   3
ATOM      3  C   UNL     1      -8.032  30.077  23.688  1.00  0.00     0.053 C 
ATOM      4  C   UNL     1      -6.685  29.539  23.174  1.00  0.00     0.016 C 
BRANCH   3   5
ATOM      5  C   UNL     1      -8.973  28.876  23.965  1.00  0.00     0.015 C 
BRANCH   5   6
ATOM      6  C   UNL     1      -9.965  29.013  25.136  1.00  0.00     0.028 C 
BRANCH   6   7
ATOM      7  C   UNL     1      -9.374  29.563  26.412  1.00  0.00    -0.028 C 
ATOM      8  C   UNL     1      -9.483  30.830  26.892  1.00  0.00    -0.070 CG0
ATOM      9  C   UNL     1      -8.886  31.091  28.255  1.00  0.00     0.039 C 
ATOM     10  G   UNL     1     -10.039  32.029  26.128  1.00  0.00     0.000 G0
ENDBRANCH   6   7
ENDBRANCH   5   6
ENDBRANCH   3   5
ENDBRANCH   1   3
BRANCH   1  11
ATOM     11  C   UNL     1      -9.641  32.138  23.016  1.00  0.00     0.087 C 
BRANCH  11  12
ATOM     12  C   UNL     1      -9.204  33.325  23.926  1.00  0.00     0.066 C 
BRANCH  12  13
ATOM     13  C   UNL     1      -9.016  32.895  25.379  1.00  0.00     0.140 C 
ATOM     14  O   UNL     1      -7.970  33.175  25.948  1.00  0.00    -0.299 OA
BRANCH  13  15
ATOM     15  C   UNL     1     -10.033  32.046  26.105  1.00  0.00     0.106 CG0
ATOM     16  G   UNL     1      -9.476  30.851  26.874  1.00  0.00     0.000 G0
ENDBRANCH  13  15
ENDBRANCH  12  13
BRANCH  12  17
ATOM     17  C   UNL     1      -7.970  34.136  23.406  1.00  0.00    -0.006 C 
ATOM     18  C   UNL     1      -7.702  35.367  24.293  1.00  0.00     0.008 C 
ATOM     19  C   UNL     1      -8.152  34.609  21.952  1.00  0.00     0.008 C 
ENDBRANCH  12  17
ENDBRANCH  11  12
ENDBRANCH   1  11
TORSDOF 1
ENDMDL
MODEL 7
REMARK VINA RESULT:    -4.021      1.503      3.839
REMARK INTER + INTRA:          -6.598
REMARK INTER:                  -6.706
REMARK INTRA:                   0.108
REMARK UNBOUND:                -0.460
REMARK SMILES CC1=CCC[C@@H](C)C(=O)C[C@H](C(C)C)C(=O)C1
REMARK SMILES IDX 8 1 9 2 6 3 7 4 5 5 4 6 3 7 2 8 1 9 10 11 11 12 15 13 16 14
REMARK SMILES IDX 17 15 12 17 13 18 14 19
REMARK H PARENT
REMARK Flexibility Score: 70.00
ROOT
ATOM      1  C   UNL     1      -9.613  30.733  25.220  1.00  0.00     0.136 C 
ATOM      2  O   UNL     1     -10.106  29.619  25.120  1.00  0.00    -0.299 OA
ENDROOT
BRANCH   1   3
ATOM      3  C   UNL     1      -8.560  30.944  26.307  1.00  0.00     0.053 C 
ATOM      4  C   UNL     1      -8.506  29.689  27.195  1.00  0.00     0.016 C 
BRANCH   3   5
ATOM      5  C   UNL     1      -8.730  32.189  27.215  1.00  0.00     0.015 C 
BRANCH   5   6
ATOM      6  C   UNL     1      -7.733  33.347  27.018  1.00  0.00     0.028 C 
BRANCH   6   7
ATOM      7  C   UNL     1      -8.268  34.525  26.241  1.00  0.00    -0.028 C 
ATOM      8  C   UNL     1      -8.315  34.670  24.891  1.00  0.00    -0.070 CG0
ATOM      9  C   UNL     1      -9.005  35.907  24.366  1.00  0.00     0.039 C 
ATOM     10  G   UNL     1      -7.629  33.763  23.872  1.00  0.00     0.000 G0
ENDBRANCH   6   7
ENDBRANCH   5   6
ENDBRANCH   3   5
ENDBRANCH   1   3
BRANCH   1  11
ATOM     11  C   UNL     1     -10.095  31.798  24.257  1.00  0.00     0.087 C 
BRANCH  11  12
ATOM     12  C   UNL     1      -9.297  31.863  22.920  1.00  0.00     0.066 C 
BRANCH  12  13
ATOM     13  C   UNL     1      -8.534  33.176  22.770  1.00  0.00     0.140 C 
ATOM     14  O   UNL     1      -8.580  33.769  21.701  1.00  0.00    -0.299 OA
BRANCH  13  15
ATOM     15  C   UNL     1      -7.640  33.717  23.862  1.00  0.00     0.106 CG0
ATOM     16  G   UNL     1      -8.307  34.655  24.865  1.00  0.00     0.000 G0
ENDBRANCH  13  15
ENDBRANCH  12  13
BRANCH  12  17
ATOM     17  C   UNL     1      -8.371  30.630  22.644  1.00  0.00    -0.006 C 
ATOM     18  C   UNL     1      -7.016  31.075  22.061  1.00  0.00     0.008 C 
ATOM     19  C   UNL     1      -9.015  29.621  21.676  1.00  0.00     0.008 C 
ENDBRANCH  12  17
ENDBRANCH  11  12
ENDBRANCH   1  11
TORSDOF 1
ENDMDL
MODEL 8
REMARK VINA RESULT:    -3.766      2.022      3.971
REMARK INTER + INTRA:          -6.208
REMARK INTER:                  -7.081
REMARK INTRA:                   0.872
REMARK UNBOUND:                -0.460
REMARK SMILES CC1=CCC[C@@H](C)C(=O)C[C@H](C(C)C)C(=O)C1
REMARK SMILES IDX 8 1 9 2 6 3 7 4 5 5 4 6 3 7 2 8 1 9 10 11 11 12 15 13 16 14
REMARK SMILES IDX 17 15 12 17 13 18 14 19
REMARK H PARENT
REMARK Flexibility Score: 70.00
ROOT
ATOM      1  C   UNL     1      -8.719  33.524  25.938  1.00  0.00     0.136 C 
ATOM      2  O   UNL     1      -8.430  33.318  27.108  1.00  0.00    -0.299 OA
ENDROOT
BRANCH   1   3
ATOM      3  C   UNL     1      -8.068  34.722  25.250  1.00  0.00     0.053 C 
ATOM      4  C   UNL     1      -8.273  35.969  26.126  1.00  0.00     0.016 C 
BRANCH   3   5
ATOM      5  C   UNL     1      -8.538  35.044  23.808  1.00  0.00     0.015 C 
BRANCH   5   6
ATOM      6  C   UNL     1      -7.649  34.555  22.650  1.00  0.00     0.028 C 
BRANCH   6   7
ATOM      7  C   UNL     1      -8.281  33.519  21.752  1.00  0.00    -0.028 C 
ATOM      8  C   UNL     1      -8.424  32.190  21.999  1.00  0.00    -0.070 CG0
ATOM      9  C   UNL     1      -9.196  31.391  20.976  1.00  0.00     0.039 C 
ATOM     10  G   UNL     1      -7.771  31.420  23.144  1.00  0.00     0.000 G0
ENDBRANCH   6   7
ENDBRANCH   5   6
ENDBRANCH   3   5
ENDBRANCH   1   3
BRANCH   1  11
ATOM     11  C   UNL     1      -9.698  32.570  25.284  1.00  0.00     0.087 C 
BRANCH  11  12
ATOM     12  C   UNL     1      -9.269  31.073  25.338  1.00  0.00     0.066 C 
BRANCH  12  13
ATOM     13  C   UNL     1      -8.711  30.587  24.003  1.00  0.00     0.140 C 
ATOM     14  O   UNL     1      -8.957  29.446  23.638  1.00  0.00    -0.299 OA
BRANCH  13  15
ATOM     15  C   UNL     1      -7.779  31.432  23.166  1.00  0.00     0.106 CG0
ATOM     16  G   UNL     1      -8.422  32.172  21.995  1.00  0.00     0.000 G0
ENDBRANCH  13  15
ENDBRANCH  12  13
BRANCH  12  17
ATOM     17  C   UNL     1      -8.316  30.702  26.524  1.00  0.00    -0.006 C 
ATOM     18  C   UNL     1      -7.154  29.812  26.043  1.00  0.00     0.008 C 
ATOM     19  C   UNL     1      -9.054  29.975  27.662  1.00  0.00     0.008 C 
ENDBRANCH  12  17
ENDBRANCH  11  12
ENDBRANCH   1  11
TORSDOF 1
ENDMDL
MODEL 9
REMARK VINA RESULT:    -3.334     18.621     20.274
REMARK INTER + INTRA:          -5.549
REMARK INTER:                  -5.419
REMARK INTRA:                  -0.130
REMARK UNBOUND:                -0.460
REMARK SMILES CC1=CCC[C@@H](C)C(=O)C[C@H](C(C)C)C(=O)C1
REMARK SMILES IDX 8 1 9 2 6 3 7 4 5 5 4 6 3 7 2 8 1 9 10 11 11 12 15 13 16 14
REMARK SMILES IDX 17 15 12 17 13 18 14 19
REMARK H PARENT
REMARK Flexibility Score: 70.00
ROOT
ATOM      1  C   UNL     1      -2.574  46.309  10.714  1.00  0.00     0.136 C 
ATOM      2  O   UNL     1      -1.859  46.580   9.760  1.00  0.00    -0.299 OA
ENDROOT
BRANCH   1   3
ATOM      3  C   UNL     1      -4.081  46.492  10.541  1.00  0.00     0.053 C 
ATOM      4  C   UNL     1      -4.514  45.825   9.225  1.00  0.00     0.016 C 
BRANCH   3   5
ATOM      5  C   UNL     1      -4.618  47.946  10.562  1.00  0.00     0.015 C 
BRANCH   5   6
ATOM      6  C   UNL     1      -5.027  48.528  11.928  1.00  0.00     0.028 C 
BRANCH   6   7
ATOM      7  C   UNL     1      -4.777  47.622  13.109  1.00  0.00    -0.028 C 
ATOM      8  C   UNL     1      -3.766  47.705  14.013  1.00  0.00    -0.070 CG0
ATOM      9  C   UNL     1      -3.810  46.734  15.169  1.00  0.00     0.039 C 
ATOM     10  G   UNL     1      -2.536  48.601  13.895  1.00  0.00     0.000 G0
ENDBRANCH   6   7
ENDBRANCH   5   6
ENDBRANCH   3   5
ENDBRANCH   1   3
BRANCH   1  11
ATOM     11  C   UNL     1      -1.895  45.819  11.976  1.00  0.00     0.087 C 
BRANCH  11  12
ATOM     12  C   UNL     1      -0.942  46.859  12.637  1.00  0.00     0.066 C 
BRANCH  12  13
ATOM     13  C   UNL     1      -1.588  48.236  12.755  1.00  0.00     0.140 C 
ATOM     14  O   UNL     1      -1.273  49.108  11.956  1.00  0.00    -0.299 OA
BRANCH  13  15
ATOM     15  C   UNL     1      -2.524  48.592  13.886  1.00  0.00     0.106 CG0
ATOM     16  G   UNL     1      -3.762  47.711  14.028  1.00  0.00     0.000 G0
ENDBRANCH  13  15
ENDBRANCH  12  13
BRANCH  12  17
ATOM     17  C   UNL     1      -0.312  46.405  13.997  1.00  0.00    -0.006 C 
ATOM     18  C   UNL     1       1.140  46.902  14.128  1.00  0.00     0.008 C 
ATOM     19  C   UNL     1      -0.325  44.875  14.166  1.00  0.00     0.008 C 
ENDBRANCH  12  17
ENDBRANCH  11  12
ENDBRANCH   1  11
TORSDOF 1
ENDMDL
