MODEL 1
REMARK VINA RESULT:    -5.123      0.000      0.000
REMARK INTER + INTRA:         -11.736
REMARK INTER:                  -9.915
REMARK INTRA:                  -1.821
REMARK UNBOUND:                -1.821
REMARK SMILES CCCCCCCCCCCCCCCCCC(=O)[O-]
REMARK SMILES IDX 10 1 11 2 12 3 13 4 14 5 15 6 16 7 17 8 18 9 19 10 20 11
REMARK SMILES IDX 9 12 8 13 7 14 6 15 5 16 4 17 3 18 2 19 1 20
REMARK H PARENT
REMARK Flexibility Score: inf
ROOT
ATOM      1  C   UNL     1       5.798 -10.760 -19.175  1.00  0.00     0.000 C 
ENDROOT
BRANCH   1   2
ATOM      2  C   UNL     1       6.336 -10.410 -20.575  1.00  0.00     0.000 C 
BRANCH   2   3
ATOM      3  C   UNL     1       7.866 -10.263 -20.605  1.00  0.00     0.000 C 
BRANCH   3   4
ATOM      4  C   UNL     1       8.357  -9.327 -21.724  1.00  0.00     0.000 C 
BRANCH   4   5
ATOM      5  C   UNL     1       7.498  -8.070 -21.956  1.00  0.00     0.000 C 
BRANCH   5   6
ATOM      6  C   UNL     1       7.538  -7.575 -23.412  1.00  0.00     0.000 C 
BRANCH   6   7
ATOM      7  C   UNL     1       6.195  -6.980 -23.869  1.00  0.00     0.006 C 
BRANCH   7   8
ATOM      8  C   UNL     1       5.427  -6.313 -22.721  1.00  0.00     0.053 C 
BRANCH   8   9
ATOM      9  C   UNL     1       4.106  -6.985 -22.515  1.00  0.00     0.041 C 
ATOM     10  O   UNL     1       4.045  -8.092 -21.918  1.00  0.00    -0.550 OA
ATOM     11  O   UNL     1       2.947  -6.410 -23.023  1.00  0.00    -0.550 OA
ENDBRANCH   8   9
ENDBRANCH   7   8
ENDBRANCH   6   7
ENDBRANCH   5   6
ENDBRANCH   4   5
ENDBRANCH   3   4
ENDBRANCH   2   3
ENDBRANCH   1   2
BRANCH   1  12
ATOM     12  C   UNL     1       4.601 -11.734 -19.197  1.00  0.00     0.000 C 
BRANCH  12  13
ATOM     13  C   UNL     1       3.294 -11.054 -18.764  1.00  0.00    -0.000 C 
BRANCH  13  14
ATOM     14  C   UNL     1       3.549  -9.623 -18.278  1.00  0.00    -0.000 C 
BRANCH  14  15
ATOM     15  C   UNL     1       2.657  -9.283 -17.074  1.00  0.00    -0.000 C 
BRANCH  15  16
ATOM     16  C   UNL     1       3.463  -8.870 -15.833  1.00  0.00    -0.000 C 
BRANCH  16  17
ATOM     17  C   UNL     1       4.580  -9.872 -15.493  1.00  0.00    -0.000 C 
BRANCH  17  18
ATOM     18  C   UNL     1       4.057 -11.096 -14.721  1.00  0.00    -0.000 C 
BRANCH  18  19
ATOM     19  C   UNL     1       4.307 -12.415 -15.466  1.00  0.00    -0.003 C 
ATOM     20  C   UNL     1       2.994 -13.134 -15.765  1.00  0.00     0.004 C 
ENDBRANCH  18  19
ENDBRANCH  17  18
ENDBRANCH  16  17
ENDBRANCH  15  16
ENDBRANCH  14  15
ENDBRANCH  13  14
ENDBRANCH  12  13
ENDBRANCH   1  12
TORSDOF 16
ENDMDL
MODEL 2
REMARK VINA RESULT:    -5.109      2.650      7.724
REMARK INTER + INTRA:         -11.708
REMARK INTER:                 -10.166
REMARK INTRA:                  -1.543
REMARK UNBOUND:                -1.821
REMARK SMILES CCCCCCCCCCCCCCCCCC(=O)[O-]
REMARK SMILES IDX 10 1 11 2 12 3 13 4 14 5 15 6 16 7 17 8 18 9 19 10 20 11
REMARK SMILES IDX 9 12 8 13 7 14 6 15 5 16 4 17 3 18 2 19 1 20
REMARK H PARENT
REMARK Flexibility Score: inf
ROOT
ATOM      1  C   UNL     1       5.192 -10.867 -19.732  1.00  0.00     0.000 C 
ENDROOT
BRANCH   1   2
ATOM      2  C   UNL     1       5.967 -11.182 -18.440  1.00  0.00     0.000 C 
BRANCH   2   3
ATOM      3  C   UNL     1       5.540 -10.295 -17.258  1.00  0.00     0.000 C 
BRANCH   3   4
ATOM      4  C   UNL     1       4.128  -9.706 -17.428  1.00  0.00     0.000 C 
BRANCH   4   5
ATOM      5  C   UNL     1       3.428  -9.287 -16.123  1.00  0.00     0.000 C 
BRANCH   5   6
ATOM      6  C   UNL     1       4.148  -9.798 -14.863  1.00  0.00     0.000 C 
BRANCH   6   7
ATOM      7  C   UNL     1       3.414 -10.979 -14.205  1.00  0.00     0.006 C 
BRANCH   7   8
ATOM      8  C   UNL     1       3.911 -12.338 -14.715  1.00  0.00     0.053 C 
BRANCH   8   9
ATOM      9  C   UNL     1       2.893 -12.962 -15.615  1.00  0.00     0.041 C 
ATOM     10  O   UNL     1       1.957 -13.650 -15.132  1.00  0.00    -0.550 OA
ATOM     11  O   UNL     1       3.004 -12.821 -16.994  1.00  0.00    -0.550 OA
ENDBRANCH   8   9
ENDBRANCH   7   8
ENDBRANCH   6   7
ENDBRANCH   5   6
ENDBRANCH   4   5
ENDBRANCH   3   4
ENDBRANCH   2   3
ENDBRANCH   1   2
BRANCH   1  12
ATOM     12  C   UNL     1       6.026 -10.109 -20.786  1.00  0.00     0.000 C 
BRANCH  12  13
ATOM     13  C   UNL     1       7.530 -10.388 -20.643  1.00  0.00    -0.000 C 
BRANCH  13  14
ATOM     14  C   UNL     1       8.359  -9.380 -21.448  1.00  0.00    -0.000 C 
BRANCH  14  15
ATOM     15  C   UNL     1       7.505  -8.172 -21.861  1.00  0.00    -0.000 C 
BRANCH  15  16
ATOM     16  C   UNL     1       7.576  -7.879 -23.368  1.00  0.00    -0.000 C 
BRANCH  16  17
ATOM     17  C   UNL     1       6.403  -7.013 -23.858  1.00  0.00    -0.000 C 
BRANCH  17  18
ATOM     18  C   UNL     1       5.560  -6.455 -22.699  1.00  0.00    -0.000 C 
BRANCH  18  19
ATOM     19  C   UNL     1       4.167  -7.097 -22.619  1.00  0.00    -0.003 C 
ATOM     20  C   UNL     1       3.076  -6.033 -22.529  1.00  0.00     0.004 C 
ENDBRANCH  18  19
ENDBRANCH  17  18
ENDBRANCH  16  17
ENDBRANCH  15  16
ENDBRANCH  14  15
ENDBRANCH  13  14
ENDBRANCH  12  13
ENDBRANCH   1  12
TORSDOF 16
ENDMDL
MODEL 3
REMARK VINA RESULT:    -5.102      2.927      7.687
REMARK INTER + INTRA:         -11.694
REMARK INTER:                 -10.284
REMARK INTRA:                  -1.410
REMARK UNBOUND:                -1.821
REMARK SMILES CCCCCCCCCCCCCCCCCC(=O)[O-]
REMARK SMILES IDX 10 1 11 2 12 3 13 4 14 5 15 6 16 7 17 8 18 9 19 10 20 11
REMARK SMILES IDX 9 12 8 13 7 14 6 15 5 16 4 17 3 18 2 19 1 20
REMARK H PARENT
REMARK Flexibility Score: inf
ROOT
ATOM      1  C   UNL     1       5.391 -10.732 -19.094  1.00  0.00     0.000 C 
ENDROOT
BRANCH   1   2
ATOM      2  C   UNL     1       4.190 -11.692 -19.020  1.00  0.00     0.000 C 
BRANCH   2   3
ATOM      3  C   UNL     1       2.921 -11.017 -18.473  1.00  0.00     0.000 C 
BRANCH   3   4
ATOM      4  C   UNL     1       3.139  -9.539 -18.103  1.00  0.00     0.000 C 
BRANCH   4   5
ATOM      5  C   UNL     1       3.025  -9.211 -16.602  1.00  0.00     0.000 C 
BRANCH   5   6
ATOM      6  C   UNL     1       4.346  -9.411 -15.841  1.00  0.00     0.000 C 
BRANCH   6   7
ATOM      7  C   UNL     1       4.167 -10.244 -14.561  1.00  0.00     0.006 C 
BRANCH   7   8
ATOM      8  C   UNL     1       3.042 -11.280 -14.685  1.00  0.00     0.053 C 
BRANCH   8   9
ATOM      9  C   UNL     1       3.554 -12.534 -15.319  1.00  0.00     0.041 C 
ATOM     10  O   UNL     1       4.790 -12.695 -15.498  1.00  0.00    -0.550 OA
ATOM     11  O   UNL     1       2.662 -13.508 -15.754  1.00  0.00    -0.550 OA
ENDBRANCH   8   9
ENDBRANCH   7   8
ENDBRANCH   6   7
ENDBRANCH   5   6
ENDBRANCH   4   5
ENDBRANCH   3   4
ENDBRANCH   2   3
ENDBRANCH   1   2
BRANCH   1  12
ATOM     12  C   UNL     1       5.920 -10.511 -20.527  1.00  0.00     0.000 C 
BRANCH  12  13
ATOM     13  C   UNL     1       7.444 -10.320 -20.558  1.00  0.00    -0.000 C 
BRANCH  13  14
ATOM     14  C   UNL     1       7.835  -9.129 -21.440  1.00  0.00    -0.000 C 
BRANCH  14  15
ATOM     15  C   UNL     1       6.598  -8.516 -22.116  1.00  0.00    -0.000 C 
BRANCH  15  16
ATOM     16  C   UNL     1       6.951  -7.372 -23.079  1.00  0.00    -0.000 C 
BRANCH  16  17
ATOM     17  C   UNL     1       5.718  -6.557 -23.506  1.00  0.00    -0.000 C 
BRANCH  17  18
ATOM     18  C   UNL     1       4.698  -6.394 -22.366  1.00  0.00    -0.000 C 
BRANCH  18  19
ATOM     19  C   UNL     1       3.245  -6.431 -22.864  1.00  0.00    -0.003 C 
ATOM     20  C   UNL     1       3.149  -5.956 -24.312  1.00  0.00     0.004 C 
ENDBRANCH  18  19
ENDBRANCH  17  18
ENDBRANCH  16  17
ENDBRANCH  15  16
ENDBRANCH  14  15
ENDBRANCH  13  14
ENDBRANCH  12  13
ENDBRANCH   1  12
TORSDOF 16
ENDMDL
MODEL 4
REMARK VINA RESULT:    -4.956      3.172      7.658
REMARK INTER + INTRA:         -11.412
REMARK INTER:                 -10.202
REMARK INTRA:                  -1.210
REMARK UNBOUND:                -1.821
REMARK SMILES CCCCCCCCCCCCCCCCCC(=O)[O-]
REMARK SMILES IDX 10 1 11 2 12 3 13 4 14 5 15 6 16 7 17 8 18 9 19 10 20 11
REMARK SMILES IDX 9 12 8 13 7 14 6 15 5 16 4 17 3 18 2 19 1 20
REMARK H PARENT
REMARK Flexibility Score: inf
ROOT
ATOM      1  C   UNL     1       5.323 -10.804 -18.421  1.00  0.00     0.000 C 
ENDROOT
BRANCH   1   2
ATOM      2  C   UNL     1       4.021 -11.617 -18.307  1.00  0.00     0.000 C 
BRANCH   2   3
ATOM      3  C   UNL     1       2.767 -10.730 -18.267  1.00  0.00     0.000 C 
BRANCH   3   4
ATOM      4  C   UNL     1       3.057  -9.301 -17.773  1.00  0.00     0.000 C 
BRANCH   4   5
ATOM      5  C   UNL     1       2.910  -9.087 -16.255  1.00  0.00     0.000 C 
BRANCH   5   6
ATOM      6  C   UNL     1       4.258  -9.091 -15.514  1.00  0.00     0.000 C 
BRANCH   6   7
ATOM      7  C   UNL     1       4.384 -10.266 -14.530  1.00  0.00     0.006 C 
BRANCH   7   8
ATOM      8  C   UNL     1       3.110 -11.117 -14.463  1.00  0.00     0.053 C 
BRANCH   8   9
ATOM      9  C   UNL     1       3.381 -12.505 -14.951  1.00  0.00     0.041 C 
ATOM     10  O   UNL     1       2.432 -13.314 -15.119  1.00  0.00    -0.550 OA
ATOM     11  O   UNL     1       4.689 -12.919 -15.178  1.00  0.00    -0.550 OA
ENDBRANCH   8   9
ENDBRANCH   7   8
ENDBRANCH   6   7
ENDBRANCH   5   6
ENDBRANCH   4   5
ENDBRANCH   3   4
ENDBRANCH   2   3
ENDBRANCH   1   2
BRANCH   1  12
ATOM     12  C   UNL     1       6.176 -11.168 -19.655  1.00  0.00     0.000 C 
BRANCH  12  13
ATOM     13  C   UNL     1       6.135 -10.071 -20.730  1.00  0.00    -0.000 C 
BRANCH  13  14
ATOM     14  C   UNL     1       4.691  -9.684 -21.071  1.00  0.00    -0.000 C 
BRANCH  14  15
ATOM     15  C   UNL     1       4.654  -8.630 -22.188  1.00  0.00    -0.000 C 
BRANCH  15  16
ATOM     16  C   UNL     1       3.941  -7.336 -21.764  1.00  0.00    -0.000 C 
BRANCH  16  17
ATOM     17  C   UNL     1       4.150  -6.189 -22.767  1.00  0.00    -0.000 C 
BRANCH  17  18
ATOM     18  C   UNL     1       5.306  -6.465 -23.743  1.00  0.00    -0.000 C 
BRANCH  18  19
ATOM     19  C   UNL     1       6.667  -6.559 -23.036  1.00  0.00    -0.003 C 
ATOM     20  C   UNL     1       7.708  -7.222 -23.935  1.00  0.00     0.004 C 
ENDBRANCH  18  19
ENDBRANCH  17  18
ENDBRANCH  16  17
ENDBRANCH  15  16
ENDBRANCH  14  15
ENDBRANCH  13  14
ENDBRANCH  12  13
ENDBRANCH   1  12
TORSDOF 16
ENDMDL
MODEL 5
REMARK VINA RESULT:    -4.911      1.275      1.958
REMARK INTER + INTRA:         -11.324
REMARK INTER:                  -9.221
REMARK INTRA:                  -2.103
REMARK UNBOUND:                -1.821
REMARK SMILES CCCCCCCCCCCCCCCCCC(=O)[O-]
REMARK SMILES IDX 10 1 11 2 12 3 13 4 14 5 15 6 16 7 17 8 18 9 19 10 20 11
REMARK SMILES IDX 9 12 8 13 7 14 6 15 5 16 4 17 3 18 2 19 1 20
REMARK H PARENT
REMARK Flexibility Score: inf
ROOT
ATOM      1  C   UNL     1       4.085 -11.537 -19.086  1.00  0.00     0.000 C 
ENDROOT
BRANCH   1   2
ATOM      2  C   UNL     1       5.398 -10.839 -18.687  1.00  0.00     0.000 C 
BRANCH   2   3
ATOM      3  C   UNL     1       6.249 -10.433 -19.901  1.00  0.00     0.000 C 
BRANCH   3   4
ATOM      4  C   UNL     1       5.426 -10.304 -21.195  1.00  0.00     0.000 C 
BRANCH   4   5
ATOM      5  C   UNL     1       5.029  -8.867 -21.582  1.00  0.00     0.000 C 
BRANCH   5   6
ATOM      6  C   UNL     1       6.113  -8.143 -22.399  1.00  0.00     0.000 C 
BRANCH   6   7
ATOM      7  C   UNL     1       5.835  -6.638 -22.542  1.00  0.00     0.006 C 
BRANCH   7   8
ATOM      8  C   UNL     1       4.369  -6.282 -22.262  1.00  0.00     0.053 C 
BRANCH   8   9
ATOM      9  C   UNL     1       3.605  -6.169 -23.543  1.00  0.00     0.041 C 
ATOM     10  O   UNL     1       2.348  -6.245 -23.540  1.00  0.00    -0.550 OA
ATOM     11  O   UNL     1       4.284  -6.023 -24.748  1.00  0.00    -0.550 OA
ENDBRANCH   8   9
ENDBRANCH   7   8
ENDBRANCH   6   7
ENDBRANCH   5   6
ENDBRANCH   4   5
ENDBRANCH   3   4
ENDBRANCH   2   3
ENDBRANCH   1   2
BRANCH   1  12
ATOM     12  C   UNL     1       2.818 -10.788 -18.618  1.00  0.00     0.000 C 
BRANCH  12  13
ATOM     13  C   UNL     1       3.142  -9.391 -18.067  1.00  0.00    -0.000 C 
BRANCH  13  14
ATOM     14  C   UNL     1       2.720  -9.264 -16.599  1.00  0.00    -0.000 C 
BRANCH  14  15
ATOM     15  C   UNL     1       3.930  -8.954 -15.704  1.00  0.00    -0.000 C 
BRANCH  15  16
ATOM     16  C   UNL     1       4.577 -10.218 -15.117  1.00  0.00    -0.000 C 
BRANCH  16  17
ATOM     17  C   UNL     1       3.766 -10.810 -13.951  1.00  0.00    -0.000 C 
BRANCH  17  18
ATOM     18  C   UNL     1       2.945 -12.041 -14.372  1.00  0.00    -0.000 C 
BRANCH  18  19
ATOM     19  C   UNL     1       3.553 -12.775 -15.576  1.00  0.00    -0.003 C 
ATOM     20  C   UNL     1       2.513 -13.654 -16.266  1.00  0.00     0.004 C 
ENDBRANCH  18  19
ENDBRANCH  17  18
ENDBRANCH  16  17
ENDBRANCH  15  16
ENDBRANCH  14  15
ENDBRANCH  13  14
ENDBRANCH  12  13
ENDBRANCH   1  12
TORSDOF 16
ENDMDL
MODEL 6
REMARK VINA RESULT:    -4.900      2.562      7.796
REMARK INTER + INTRA:         -11.304
REMARK INTER:                  -9.586
REMARK INTRA:                  -1.717
REMARK UNBOUND:                -1.821
REMARK SMILES CCCCCCCCCCCCCCCCCC(=O)[O-]
REMARK SMILES IDX 10 1 11 2 12 3 13 4 14 5 15 6 16 7 17 8 18 9 19 10 20 11
REMARK SMILES IDX 9 12 8 13 7 14 6 15 5 16 4 17 3 18 2 19 1 20
REMARK H PARENT
REMARK Flexibility Score: inf
ROOT
ATOM      1  C   UNL     1       3.184  -9.920 -18.262  1.00  0.00     0.000 C 
ENDROOT
BRANCH   1   2
ATOM      2  C   UNL     1       2.897  -9.230 -16.916  1.00  0.00     0.000 C 
BRANCH   2   3
ATOM      3  C   UNL     1       4.083  -9.311 -15.941  1.00  0.00     0.000 C 
BRANCH   3   4
ATOM      4  C   UNL     1       3.770 -10.141 -14.683  1.00  0.00     0.000 C 
BRANCH   4   5
ATOM      5  C   UNL     1       4.148 -11.632 -14.766  1.00  0.00     0.000 C 
BRANCH   5   6
ATOM      6  C   UNL     1       3.037 -12.563 -14.252  1.00  0.00     0.000 C 
BRANCH   6   7
ATOM      7  C   UNL     1       2.288 -13.271 -15.394  1.00  0.00     0.006 C 
BRANCH   7   8
ATOM      8  C   UNL     1       3.083 -13.271 -16.706  1.00  0.00     0.053 C 
BRANCH   8   9
ATOM      9  C   UNL     1       2.210 -13.691 -17.846  1.00  0.00     0.041 C 
ATOM     10  O   UNL     1       2.179 -13.009 -18.905  1.00  0.00    -0.550 OA
ATOM     11  O   UNL     1       1.395 -14.811 -17.723  1.00  0.00    -0.550 OA
ENDBRANCH   8   9
ENDBRANCH   7   8
ENDBRANCH   6   7
ENDBRANCH   5   6
ENDBRANCH   4   5
ENDBRANCH   3   4
ENDBRANCH   2   3
ENDBRANCH   1   2
BRANCH   1  12
ATOM     12  C   UNL     1       4.668 -10.294 -18.462  1.00  0.00     0.000 C 
BRANCH  12  13
ATOM     13  C   UNL     1       4.918 -10.962 -19.823  1.00  0.00    -0.000 C 
BRANCH  13  14
ATOM     14  C   UNL     1       5.642 -10.010 -20.782  1.00  0.00    -0.000 C 
BRANCH  14  15
ATOM     15  C   UNL     1       4.647  -9.327 -21.733  1.00  0.00    -0.000 C 
BRANCH  15  16
ATOM     16  C   UNL     1       4.404  -7.851 -21.381  1.00  0.00    -0.000 C 
BRANCH  16  17
ATOM     17  C   UNL     1       3.886  -7.034 -22.577  1.00  0.00    -0.000 C 
BRANCH  17  18
ATOM     18  C   UNL     1       5.017  -6.602 -23.527  1.00  0.00    -0.000 C 
BRANCH  18  19
ATOM     19  C   UNL     1       6.389  -6.574 -22.838  1.00  0.00    -0.003 C 
ATOM     20  C   UNL     1       7.446  -7.270 -23.692  1.00  0.00     0.004 C 
ENDBRANCH  18  19
ENDBRANCH  17  18
ENDBRANCH  16  17
ENDBRANCH  15  16
ENDBRANCH  14  15
ENDBRANCH  13  14
ENDBRANCH  12  13
ENDBRANCH   1  12
TORSDOF 16
ENDMDL
MODEL 7
REMARK VINA RESULT:    -4.613      2.311      7.563
REMARK INTER + INTRA:         -10.748
REMARK INTER:                  -9.583
REMARK INTRA:                  -1.164
REMARK UNBOUND:                -1.821
REMARK SMILES CCCCCCCCCCCCCCCCCC(=O)[O-]
REMARK SMILES IDX 10 1 11 2 12 3 13 4 14 5 15 6 16 7 17 8 18 9 19 10 20 11
REMARK SMILES IDX 9 12 8 13 7 14 6 15 5 16 4 17 3 18 2 19 1 20
REMARK H PARENT
REMARK Flexibility Score: inf
ROOT
ATOM      1  C   UNL     1       2.805 -11.866 -18.414  1.00  0.00     0.000 C 
ENDROOT
BRANCH   1   2
ATOM      2  C   UNL     1       2.371 -13.340 -18.313  1.00  0.00     0.000 C 
BRANCH   2   3
ATOM      3  C   UNL     1       2.265 -13.831 -16.859  1.00  0.00     0.000 C 
BRANCH   3   4
ATOM      4  C   UNL     1       3.241 -13.112 -15.910  1.00  0.00     0.000 C 
BRANCH   4   5
ATOM      5  C   UNL     1       2.602 -12.499 -14.650  1.00  0.00     0.000 C 
BRANCH   5   6
ATOM      6  C   UNL     1       3.182 -11.120 -14.293  1.00  0.00     0.000 C 
BRANCH   6   7
ATOM      7  C   UNL     1       4.626 -10.942 -14.792  1.00  0.00     0.006 C 
BRANCH   7   8
ATOM      8  C   UNL     1       4.732  -9.919 -15.931  1.00  0.00     0.053 C 
BRANCH   8   9
ATOM      9  C   UNL     1       3.603  -8.941 -15.862  1.00  0.00     0.041 C 
ATOM     10  O   UNL     1       2.705  -8.948 -16.745  1.00  0.00    -0.550 OA
ATOM     11  O   UNL     1       3.565  -7.992 -14.847  1.00  0.00    -0.550 OA
ENDBRANCH   8   9
ENDBRANCH   7   8
ENDBRANCH   6   7
ENDBRANCH   5   6
ENDBRANCH   4   5
ENDBRANCH   3   4
ENDBRANCH   2   3
ENDBRANCH   1   2
BRANCH   1  12
ATOM     12  C   UNL     1       4.225 -11.677 -18.988  1.00  0.00     0.000 C 
BRANCH  12  13
ATOM     13  C   UNL     1       4.374 -10.343 -19.736  1.00  0.00    -0.000 C 
BRANCH  13  14
ATOM     14  C   UNL     1       5.578 -10.372 -20.683  1.00  0.00    -0.000 C 
BRANCH  14  15
ATOM     15  C   UNL     1       5.551  -9.172 -21.643  1.00  0.00    -0.000 C 
BRANCH  15  16
ATOM     16  C   UNL     1       4.223  -8.401 -21.596  1.00  0.00    -0.000 C 
BRANCH  16  17
ATOM     17  C   UNL     1       4.256  -7.114 -22.437  1.00  0.00    -0.000 C 
BRANCH  17  18
ATOM     18  C   UNL     1       5.685  -6.584 -22.645  1.00  0.00    -0.000 C 
BRANCH  18  19
ATOM     19  C   UNL     1       6.227  -6.881 -24.051  1.00  0.00    -0.003 C 
ATOM     20  C   UNL     1       7.722  -7.183 -24.011  1.00  0.00     0.004 C 
ENDBRANCH  18  19
ENDBRANCH  17  18
ENDBRANCH  16  17
ENDBRANCH  15  16
ENDBRANCH  14  15
ENDBRANCH  13  14
ENDBRANCH  12  13
ENDBRANCH   1  12
TORSDOF 16
ENDMDL
MODEL 8
REMARK VINA RESULT:    -4.573      3.566      7.990
REMARK INTER + INTRA:         -10.672
REMARK INTER:                  -9.197
REMARK INTRA:                  -1.475
REMARK UNBOUND:                -1.821
REMARK SMILES CCCCCCCCCCCCCCCCCC(=O)[O-]
REMARK SMILES IDX 10 1 11 2 12 3 13 4 14 5 15 6 16 7 17 8 18 9 19 10 20 11
REMARK SMILES IDX 9 12 8 13 7 14 6 15 5 16 4 17 3 18 2 19 1 20
REMARK H PARENT
REMARK Flexibility Score: inf
ROOT
ATOM      1  C   UNL     1       4.631  -9.623 -15.707  1.00  0.00     0.000 C 
ENDROOT
BRANCH   1   2
ATOM      2  C   UNL     1       3.546 -10.410 -14.951  1.00  0.00     0.000 C 
BRANCH   2   3
ATOM      3  C   UNL     1       4.070 -11.728 -14.358  1.00  0.00     0.000 C 
BRANCH   3   4
ATOM      4  C   UNL     1       4.083 -12.881 -15.377  1.00  0.00     0.000 C 
BRANCH   4   5
ATOM      5  C   UNL     1       2.726 -13.195 -16.034  1.00  0.00     0.000 C 
BRANCH   5   6
ATOM      6  C   UNL     1       2.720 -12.941 -17.551  1.00  0.00     0.000 C 
BRANCH   6   7
ATOM      7  C   UNL     1       1.974 -14.038 -18.329  1.00  0.00     0.006 C 
BRANCH   7   8
ATOM      8  C   UNL     1       1.150 -14.952 -17.412  1.00  0.00     0.053 C 
BRANCH   8   9
ATOM      9  C   UNL     1       0.190 -15.771 -18.216  1.00  0.00     0.041 C 
ATOM     10  O   UNL     1      -0.967 -15.337 -18.455  1.00  0.00    -0.550 OA
ATOM     11  O   UNL     1       0.559 -17.034 -18.664  1.00  0.00    -0.550 OA
ENDBRANCH   8   9
ENDBRANCH   7   8
ENDBRANCH   6   7
ENDBRANCH   5   6
ENDBRANCH   4   5
ENDBRANCH   3   4
ENDBRANCH   2   3
ENDBRANCH   1   2
BRANCH   1  12
ATOM     12  C   UNL     1       4.609  -9.845 -17.234  1.00  0.00     0.000 C 
BRANCH  12  13
ATOM     13  C   UNL     1       5.843 -10.616 -17.725  1.00  0.00    -0.000 C 
BRANCH  13  14
ATOM     14  C   UNL     1       5.590 -11.250 -19.098  1.00  0.00    -0.000 C 
BRANCH  14  15
ATOM     15  C   UNL     1       4.621 -10.394 -19.928  1.00  0.00    -0.000 C 
BRANCH  15  16
ATOM     16  C   UNL     1       5.299  -9.729 -21.136  1.00  0.00    -0.000 C 
BRANCH  16  17
ATOM     17  C   UNL     1       4.464  -8.578 -21.724  1.00  0.00    -0.000 C 
BRANCH  17  18
ATOM     18  C   UNL     1       5.318  -7.586 -22.532  1.00  0.00    -0.000 C 
BRANCH  18  19
ATOM     19  C   UNL     1       4.700  -6.180 -22.583  1.00  0.00    -0.003 C 
ATOM     20  C   UNL     1       3.177  -6.252 -22.647  1.00  0.00     0.004 C 
ENDBRANCH  18  19
ENDBRANCH  17  18
ENDBRANCH  16  17
ENDBRANCH  15  16
ENDBRANCH  14  15
ENDBRANCH  13  14
ENDBRANCH  12  13
ENDBRANCH   1  12
TORSDOF 16
ENDMDL
MODEL 9
REMARK VINA RESULT:    -4.517      2.229      7.586
REMARK INTER + INTRA:         -10.563
REMARK INTER:                  -9.267
REMARK INTRA:                  -1.296
REMARK UNBOUND:                -1.821
REMARK SMILES CCCCCCCCCCCCCCCCCC(=O)[O-]
REMARK SMILES IDX 10 1 11 2 12 3 13 4 14 5 15 6 16 7 17 8 18 9 19 10 20 11
REMARK SMILES IDX 9 12 8 13 7 14 6 15 5 16 4 17 3 18 2 19 1 20
REMARK H PARENT
REMARK Flexibility Score: inf
ROOT
ATOM      1  C   UNL     1       6.408 -11.154 -19.195  1.00  0.00     0.000 C 
ENDROOT
BRANCH   1   2
ATOM      2  C   UNL     1       5.137 -10.689 -18.461  1.00  0.00     0.000 C 
BRANCH   2   3
ATOM      3  C   UNL     1       3.874 -11.429 -18.931  1.00  0.00     0.000 C 
BRANCH   3   4
ATOM      4  C   UNL     1       3.149 -12.164 -17.790  1.00  0.00     0.000 C 
BRANCH   4   5
ATOM      5  C   UNL     1       3.971 -12.354 -16.501  1.00  0.00     0.000 C 
BRANCH   5   6
ATOM      6  C   UNL     1       3.100 -12.395 -15.234  1.00  0.00     0.000 C 
BRANCH   6   7
ATOM      7  C   UNL     1       3.298 -11.156 -14.344  1.00  0.00     0.006 C 
BRANCH   7   8
ATOM      8  C   UNL     1       4.280 -10.146 -14.953  1.00  0.00     0.053 C 
BRANCH   8   9
ATOM      9  C   UNL     1       3.554  -8.919 -15.406  1.00  0.00     0.041 C 
ATOM     10  O   UNL     1       2.902  -8.931 -16.483  1.00  0.00    -0.550 OA
ATOM     11  O   UNL     1       3.635  -7.748 -14.661  1.00  0.00    -0.550 OA
ENDBRANCH   8   9
ENDBRANCH   7   8
ENDBRANCH   6   7
ENDBRANCH   5   6
ENDBRANCH   4   5
ENDBRANCH   3   4
ENDBRANCH   2   3
ENDBRANCH   1   2
BRANCH   1  12
ATOM     12  C   UNL     1       6.645 -10.436 -20.541  1.00  0.00     0.000 C 
BRANCH  12  13
ATOM     13  C   UNL     1       8.129 -10.115 -20.772  1.00  0.00    -0.000 C 
BRANCH  13  14
ATOM     14  C   UNL     1       8.306  -9.102 -21.908  1.00  0.00    -0.000 C 
BRANCH  14  15
ATOM     15  C   UNL     1       7.082  -8.179 -22.017  1.00  0.00    -0.000 C 
BRANCH  15  16
ATOM     16  C   UNL     1       7.070  -7.355 -23.314  1.00  0.00    -0.000 C 
BRANCH  16  17
ATOM     17  C   UNL     1       5.719  -6.665 -23.564  1.00  0.00    -0.000 C 
BRANCH  17  18
ATOM     18  C   UNL     1       4.728  -6.875 -22.406  1.00  0.00    -0.000 C 
BRANCH  18  19
ATOM     19  C   UNL     1       3.450  -6.038 -22.562  1.00  0.00    -0.003 C 
ATOM     20  C   UNL     1       2.947  -6.067 -24.003  1.00  0.00     0.004 C 
ENDBRANCH  18  19
ENDBRANCH  17  18
ENDBRANCH  16  17
ENDBRANCH  15  16
ENDBRANCH  14  15
ENDBRANCH  13  14
ENDBRANCH  12  13
ENDBRANCH   1  12
TORSDOF 16
ENDMDL
