MODEL 1
REMARK VINA RESULT:    -5.005      0.000      0.000
REMARK INTER + INTRA:          -8.110
REMARK INTER:                  -7.346
REMARK INTRA:                  -0.764
REMARK UNBOUND:                -0.764
REMARK SMILES O=C([O-])CCCCCCCC(=O)[O-]
REMARK SMILES IDX 7 1 6 2 5 3 4 4 2 5 1 6 3 7 8 8 9 9 10 10 11 11 12 12 13 13
REMARK H PARENT
REMARK Flexibility Score: inf
ROOT
ATOM      1  C   UNL     1      20.097  11.959  -0.105  1.00  0.00     0.000 C 
ENDROOT
BRANCH   1   2
ATOM      2  C   UNL     1      19.343  13.282   0.075  1.00  0.00     0.000 C 
BRANCH   2   3
ATOM      3  C   UNL     1      20.208  14.473  -0.361  1.00  0.00     0.006 C 
BRANCH   3   4
ATOM      4  C   UNL     1      20.165  15.626   0.651  1.00  0.00     0.053 C 
BRANCH   4   5
ATOM      5  C   UNL     1      21.521  15.922   1.214  1.00  0.00     0.041 C 
ATOM      6  O   UNL     1      22.548  15.783   0.499  1.00  0.00    -0.550 OA
ATOM      7  O   UNL     1      21.654  16.320   2.539  1.00  0.00    -0.550 OA
ENDBRANCH   4   5
ENDBRANCH   3   4
ENDBRANCH   2   3
ENDBRANCH   1   2
BRANCH   1   8
ATOM      8  C   UNL     1      21.611  12.163   0.052  1.00  0.00     0.000 C 
BRANCH   8   9
ATOM      9  C   UNL     1      22.158  11.617   1.384  1.00  0.00     0.006 C 
BRANCH   9  10
ATOM     10  C   UNL     1      21.943  12.560   2.581  1.00  0.00     0.053 C 
BRANCH  10  11
ATOM     11  C   UNL     1      23.197  12.789   3.367  1.00  0.00     0.041 C 
ATOM     12  O   UNL     1      23.353  12.233   4.487  1.00  0.00    -0.550 OA
ATOM     13  O   UNL     1      24.210  13.587   2.851  1.00  0.00    -0.550 OA
ENDBRANCH  10  11
ENDBRANCH   9  10
ENDBRANCH   8   9
ENDBRANCH   1   8
TORSDOF 8
ENDMDL
MODEL 2
REMARK VINA RESULT:    -4.878      2.193      4.732
REMARK INTER + INTRA:          -7.923
REMARK INTER:                  -7.334
REMARK INTRA:                  -0.589
REMARK UNBOUND:                -0.764
REMARK SMILES O=C([O-])CCCCCCCC(=O)[O-]
REMARK SMILES IDX 7 1 6 2 5 3 4 4 2 5 1 6 3 7 8 8 9 9 10 10 11 11 12 12 13 13
REMARK H PARENT
REMARK Flexibility Score: inf
ROOT
ATOM      1  C   UNL     1      22.450  15.895   0.726  1.00  0.00     0.000 C 
ENDROOT
BRANCH   1   2
ATOM      2  C   UNL     1      22.258  16.161   2.224  1.00  0.00     0.000 C 
BRANCH   2   3
ATOM      3  C   UNL     1      21.789  14.893   2.952  1.00  0.00     0.006 C 
BRANCH   3   4
ATOM      4  C   UNL     1      22.840  14.368   3.940  1.00  0.00     0.053 C 
BRANCH   4   5
ATOM      5  C   UNL     1      22.758  12.881   4.100  1.00  0.00     0.041 C 
ATOM      6  O   UNL     1      23.329  12.316   5.069  1.00  0.00    -0.550 OA
ATOM      7  O   UNL     1      22.079  12.116   3.160  1.00  0.00    -0.550 OA
ENDBRANCH   4   5
ENDBRANCH   3   4
ENDBRANCH   2   3
ENDBRANCH   1   2
BRANCH   1   8
ATOM      8  C   UNL     1      22.776  14.417   0.467  1.00  0.00     0.000 C 
BRANCH   8   9
ATOM      9  C   UNL     1      21.857  13.772  -0.588  1.00  0.00     0.006 C 
BRANCH   9  10
ATOM     10  C   UNL     1      20.636  13.049   0.006  1.00  0.00     0.053 C 
BRANCH  10  11
ATOM     11  C   UNL     1      19.348  13.758  -0.287  1.00  0.00     0.041 C 
ATOM     12  O   UNL     1      18.940  14.671   0.479  1.00  0.00    -0.550 OA
ATOM     13  O   UNL     1      18.616  13.437  -1.423  1.00  0.00    -0.550 OA
ENDBRANCH  10  11
ENDBRANCH   9  10
ENDBRANCH   8   9
ENDBRANCH   1   8
TORSDOF 8
ENDMDL
MODEL 3
REMARK VINA RESULT:    -4.877      2.386      3.597
REMARK INTER + INTRA:          -7.922
REMARK INTER:                  -7.415
REMARK INTRA:                  -0.507
REMARK UNBOUND:                -0.764
REMARK SMILES O=C([O-])CCCCCCCC(=O)[O-]
REMARK SMILES IDX 7 1 6 2 5 3 4 4 2 5 1 6 3 7 8 8 9 9 10 10 11 11 12 12 13 13
REMARK H PARENT
REMARK Flexibility Score: inf
ROOT
ATOM      1  C   UNL     1      22.623  15.413   1.002  1.00  0.00     0.000 C 
ENDROOT
BRANCH   1   2
ATOM      2  C   UNL     1      21.683  14.491   0.215  1.00  0.00     0.000 C 
BRANCH   2   3
ATOM      3  C   UNL     1      20.290  15.121   0.069  1.00  0.00     0.006 C 
BRANCH   3   4
ATOM      4  C   UNL     1      19.166  14.133   0.410  1.00  0.00     0.053 C 
BRANCH   4   5
ATOM      5  C   UNL     1      19.064  13.036  -0.605  1.00  0.00     0.041 C 
ATOM      6  O   UNL     1      19.459  11.875  -0.324  1.00  0.00    -0.550 OA
ATOM      7  O   UNL     1      18.562  13.305  -1.873  1.00  0.00    -0.550 OA
ENDBRANCH   4   5
ENDBRANCH   3   4
ENDBRANCH   2   3
ENDBRANCH   1   2
BRANCH   1   8
ATOM      8  C   UNL     1      21.914  16.006   2.228  1.00  0.00     0.000 C 
BRANCH   8   9
ATOM      9  C   UNL     1      22.394  15.395   3.557  1.00  0.00     0.006 C 
BRANCH   9  10
ATOM     10  C   UNL     1      23.288  14.154   3.387  1.00  0.00     0.053 C 
BRANCH  10  11
ATOM     11  C   UNL     1      22.661  12.912   3.945  1.00  0.00     0.041 C 
ATOM     12  O   UNL     1      21.978  12.159   3.201  1.00  0.00    -0.550 OA
ATOM     13  O   UNL     1      22.859  12.566   5.276  1.00  0.00    -0.550 OA
ENDBRANCH  10  11
ENDBRANCH   9  10
ENDBRANCH   8   9
ENDBRANCH   1   8
TORSDOF 8
ENDMDL
MODEL 4
REMARK VINA RESULT:    -4.840      2.634      4.888
REMARK INTER + INTRA:          -7.867
REMARK INTER:                  -7.340
REMARK INTRA:                  -0.527
REMARK UNBOUND:                -0.764
REMARK SMILES O=C([O-])CCCCCCCC(=O)[O-]
REMARK SMILES IDX 7 1 6 2 5 3 4 4 2 5 1 6 3 7 8 8 9 9 10 10 11 11 12 12 13 13
REMARK H PARENT
REMARK Flexibility Score: inf
ROOT
ATOM      1  C   UNL     1      23.015  15.412   1.180  1.00  0.00     0.000 C 
ENDROOT
BRANCH   1   2
ATOM      2  C   UNL     1      22.038  15.982   2.215  1.00  0.00     0.000 C 
BRANCH   2   3
ATOM      3  C   UNL     1      22.149  15.231   3.549  1.00  0.00     0.006 C 
BRANCH   3   4
ATOM      4  C   UNL     1      23.306  14.223   3.554  1.00  0.00     0.053 C 
BRANCH   4   5
ATOM      5  C   UNL     1      22.830  12.832   3.840  1.00  0.00     0.041 C 
ATOM      6  O   UNL     1      21.860  12.351   3.199  1.00  0.00    -0.550 OA
ATOM      7  O   UNL     1      23.437  12.079   4.838  1.00  0.00    -0.550 OA
ENDBRANCH   4   5
ENDBRANCH   3   4
ENDBRANCH   2   3
ENDBRANCH   1   2
BRANCH   1   8
ATOM      8  C   UNL     1      22.274  14.587   0.118  1.00  0.00     0.000 C 
BRANCH   8   9
ATOM      9  C   UNL     1      22.917  13.212  -0.136  1.00  0.00     0.006 C 
BRANCH   9  10
ATOM     10  C   UNL     1      23.278  12.953  -1.609  1.00  0.00     0.053 C 
BRANCH  10  11
ATOM     11  C   UNL     1      22.205  12.207  -2.342  1.00  0.00     0.041 C 
ATOM     12  O   UNL     1      21.659  12.717  -3.357  1.00  0.00    -0.550 OA
ATOM     13  O   UNL     1      21.831  10.934  -1.929  1.00  0.00    -0.550 OA
ENDBRANCH  10  11
ENDBRANCH   9  10
ENDBRANCH   8   9
ENDBRANCH   1   8
TORSDOF 8
ENDMDL
MODEL 5
REMARK VINA RESULT:    -4.807      2.402      4.169
REMARK INTER + INTRA:          -7.818
REMARK INTER:                  -7.078
REMARK INTRA:                  -0.740
REMARK UNBOUND:                -0.764
REMARK SMILES O=C([O-])CCCCCCCC(=O)[O-]
REMARK SMILES IDX 7 1 6 2 5 3 4 4 2 5 1 6 3 7 8 8 9 9 10 10 11 11 12 12 13 13
REMARK H PARENT
REMARK Flexibility Score: inf
ROOT
ATOM      1  C   UNL     1      23.384  12.549  -0.223  1.00  0.00     0.000 C 
ENDROOT
BRANCH   1   2
ATOM      2  C   UNL     1      22.539  11.463   0.453  1.00  0.00     0.000 C 
BRANCH   2   3
ATOM      3  C   UNL     1      21.265  11.175  -0.354  1.00  0.00     0.006 C 
BRANCH   3   4
ATOM      4  C   UNL     1      20.164  12.212  -0.092  1.00  0.00     0.053 C 
BRANCH   4   5
ATOM      5  C   UNL     1      19.748  12.911  -1.350  1.00  0.00     0.041 C 
ATOM      6  O   UNL     1      20.577  13.081  -2.282  1.00  0.00    -0.550 OA
ATOM      7  O   UNL     1      18.456  13.403  -1.479  1.00  0.00    -0.550 OA
ENDBRANCH   4   5
ENDBRANCH   3   4
ENDBRANCH   2   3
ENDBRANCH   1   2
BRANCH   1   8
ATOM      8  C   UNL     1      24.216  13.322   0.810  1.00  0.00     0.000 C 
BRANCH   8   9
ATOM      9  C   UNL     1      23.492  14.565   1.361  1.00  0.00     0.006 C 
BRANCH   9  10
ATOM     10  C   UNL     1      22.468  15.174   0.387  1.00  0.00     0.053 C 
BRANCH  10  11
ATOM     11  C   UNL     1      21.375  15.919   1.092  1.00  0.00     0.041 C 
ATOM     12  O   UNL     1      21.629  16.578   2.135  1.00  0.00    -0.550 OA
ATOM     13  O   UNL     1      20.084  15.916   0.580  1.00  0.00    -0.550 OA
ENDBRANCH  10  11
ENDBRANCH   9  10
ENDBRANCH   8   9
ENDBRANCH   1   8
TORSDOF 8
ENDMDL
MODEL 6
REMARK VINA RESULT:    -4.766      2.599      4.328
REMARK INTER + INTRA:          -7.759
REMARK INTER:                  -7.080
REMARK INTRA:                  -0.679
REMARK UNBOUND:                -0.764
REMARK SMILES O=C([O-])CCCCCCCC(=O)[O-]
REMARK SMILES IDX 7 1 6 2 5 3 4 4 2 5 1 6 3 7 8 8 9 9 10 10 11 11 12 12 13 13
REMARK H PARENT
REMARK Flexibility Score: inf
ROOT
ATOM      1  C   UNL     1      23.124  12.527   0.013  1.00  0.00     0.000 C 
ENDROOT
BRANCH   1   2
ATOM      2  C   UNL     1      24.162  13.178   0.935  1.00  0.00     0.000 C 
BRANCH   2   3
ATOM      3  C   UNL     1      23.509  14.231   1.842  1.00  0.00     0.006 C 
BRANCH   3   4
ATOM      4  C   UNL     1      23.178  15.525   1.086  1.00  0.00     0.053 C 
BRANCH   4   5
ATOM      5  C   UNL     1      21.935  16.174   1.612  1.00  0.00     0.041 C 
ATOM      6  O   UNL     1      20.911  16.262   0.886  1.00  0.00    -0.550 OA
ATOM      7  O   UNL     1      21.918  16.709   2.894  1.00  0.00    -0.550 OA
ENDBRANCH   4   5
ENDBRANCH   3   4
ENDBRANCH   2   3
ENDBRANCH   1   2
BRANCH   1   8
ATOM      8  C   UNL     1      21.923  12.008   0.817  1.00  0.00     0.000 C 
BRANCH   8   9
ATOM      9  C   UNL     1      20.576  12.563   0.316  1.00  0.00     0.006 C 
BRANCH   9  10
ATOM     10  C   UNL     1      20.686  13.403  -0.969  1.00  0.00     0.053 C 
BRANCH  10  11
ATOM     11  C   UNL     1      19.709  12.975  -2.022  1.00  0.00     0.041 C 
ATOM     12  O   UNL     1      18.489  13.265  -1.908  1.00  0.00    -0.550 OA
ATOM     13  O   UNL     1      20.150  12.287  -3.145  1.00  0.00    -0.550 OA
ENDBRANCH  10  11
ENDBRANCH   9  10
ENDBRANCH   8   9
ENDBRANCH   1   8
TORSDOF 8
ENDMDL
MODEL 7
REMARK VINA RESULT:    -4.732      2.081      4.741
REMARK INTER + INTRA:          -7.708
REMARK INTER:                  -6.973
REMARK INTRA:                  -0.735
REMARK UNBOUND:                -0.764
REMARK SMILES O=C([O-])CCCCCCCC(=O)[O-]
REMARK SMILES IDX 7 1 6 2 5 3 4 4 2 5 1 6 3 7 8 8 9 9 10 10 11 11 12 12 13 13
REMARK H PARENT
REMARK Flexibility Score: inf
ROOT
ATOM      1  C   UNL     1      21.035  15.505   1.488  1.00  0.00     0.000 C 
ENDROOT
BRANCH   1   2
ATOM      2  C   UNL     1      22.461  15.409   0.934  1.00  0.00     0.000 C 
BRANCH   2   3
ATOM      3  C   UNL     1      23.152  14.124   1.413  1.00  0.00     0.006 C 
BRANCH   3   4
ATOM      4  C   UNL     1      23.275  14.065   2.942  1.00  0.00     0.053 C 
BRANCH   4   5
ATOM      5  C   UNL     1      22.821  12.746   3.486  1.00  0.00     0.041 C 
ATOM      6  O   UNL     1      21.870  12.129   2.938  1.00  0.00    -0.550 OA
ATOM      7  O   UNL     1      23.427  12.213   4.616  1.00  0.00    -0.550 OA
ENDBRANCH   4   5
ENDBRANCH   3   4
ENDBRANCH   2   3
ENDBRANCH   1   2
BRANCH   1   8
ATOM      8  C   UNL     1      19.998  15.435   0.357  1.00  0.00     0.000 C 
BRANCH   8   9
ATOM      9  C   UNL     1      19.142  14.156   0.402  1.00  0.00     0.006 C 
BRANCH   9  10
ATOM     10  C   UNL     1      19.829  12.921  -0.206  1.00  0.00     0.053 C 
BRANCH  10  11
ATOM     11  C   UNL     1      20.356  13.176  -1.586  1.00  0.00     0.041 C 
ATOM     12  O   UNL     1      21.594  13.110  -1.813  1.00  0.00    -0.550 OA
ATOM     13  O   UNL     1      19.481  13.453  -2.628  1.00  0.00    -0.550 OA
ENDBRANCH  10  11
ENDBRANCH   9  10
ENDBRANCH   8   9
ENDBRANCH   1   8
TORSDOF 8
ENDMDL
MODEL 8
REMARK VINA RESULT:    -4.730      8.390     10.680
REMARK INTER + INTRA:          -7.705
REMARK INTER:                  -7.001
REMARK INTRA:                  -0.704
REMARK UNBOUND:                -0.764
REMARK SMILES O=C([O-])CCCCCCCC(=O)[O-]
REMARK SMILES IDX 7 1 6 2 5 3 4 4 2 5 1 6 3 7 8 8 9 9 10 10 11 11 12 12 13 13
REMARK H PARENT
REMARK Flexibility Score: inf
ROOT
ATOM      1  C   UNL     1      15.769  22.707  -0.670  1.00  0.00     0.000 C 
ENDROOT
BRANCH   1   2
ATOM      2  C   UNL     1      14.570  21.863  -1.118  1.00  0.00     0.000 C 
BRANCH   2   3
ATOM      3  C   UNL     1      14.983  20.403  -1.353  1.00  0.00     0.006 C 
BRANCH   3   4
ATOM      4  C   UNL     1      14.369  19.451  -0.316  1.00  0.00     0.053 C 
BRANCH   4   5
ATOM      5  C   UNL     1      15.375  19.023   0.708  1.00  0.00     0.041 C 
ATOM      6  O   UNL     1      16.594  18.944   0.403  1.00  0.00    -0.550 OA
ATOM      7  O   UNL     1      14.961  18.679   1.989  1.00  0.00    -0.550 OA
ENDBRANCH   4   5
ENDBRANCH   3   4
ENDBRANCH   2   3
ENDBRANCH   1   2
BRANCH   1   8
ATOM      8  C   UNL     1      15.395  23.608   0.517  1.00  0.00     0.000 C 
BRANCH   8   9
ATOM      9  C   UNL     1      14.628  22.860   1.623  1.00  0.00     0.006 C 
BRANCH   9  10
ATOM     10  C   UNL     1      15.535  22.225   2.692  1.00  0.00     0.053 C 
BRANCH  10  11
ATOM     11  C   UNL     1      16.005  23.217   3.713  1.00  0.00     0.041 C 
ATOM     12  O   UNL     1      15.186  23.729   4.521  1.00  0.00    -0.550 OA
ATOM     13  O   UNL     1      17.350  23.551   3.796  1.00  0.00    -0.550 OA
ENDBRANCH  10  11
ENDBRANCH   9  10
ENDBRANCH   8   9
ENDBRANCH   1   8
TORSDOF 8
ENDMDL
MODEL 9
REMARK VINA RESULT:    -4.640      2.625      4.012
REMARK INTER + INTRA:          -7.574
REMARK INTER:                  -6.831
REMARK INTRA:                  -0.744
REMARK UNBOUND:                -0.764
REMARK SMILES O=C([O-])CCCCCCCC(=O)[O-]
REMARK SMILES IDX 7 1 6 2 5 3 4 4 2 5 1 6 3 7 8 8 9 9 10 10 11 11 12 12 13 13
REMARK H PARENT
REMARK Flexibility Score: inf
ROOT
ATOM      1  C   UNL     1      20.484  13.008   0.727  1.00  0.00     0.000 C 
ENDROOT
BRANCH   1   2
ATOM      2  C   UNL     1      20.040  13.747  -0.541  1.00  0.00     0.000 C 
BRANCH   2   3
ATOM      3  C   UNL     1      19.476  12.767  -1.580  1.00  0.00     0.006 C 
BRANCH   3   4
ATOM      4  C   UNL     1      20.233  12.834  -2.914  1.00  0.00     0.053 C 
BRANCH   4   5
ATOM      5  C   UNL     1      21.600  12.232  -2.807  1.00  0.00     0.041 C 
ATOM      6  O   UNL     1      22.573  12.762  -3.404  1.00  0.00    -0.550 OA
ATOM      7  O   UNL     1      21.793  11.067  -2.075  1.00  0.00    -0.550 OA
ENDBRANCH   4   5
ENDBRANCH   3   4
ENDBRANCH   2   3
ENDBRANCH   1   2
BRANCH   1   8
ATOM      8  C   UNL     1      22.016  12.942   0.818  1.00  0.00     0.000 C 
BRANCH   8   9
ATOM      9  C   UNL     1      22.707  14.208   0.279  1.00  0.00     0.006 C 
BRANCH   9  10
ATOM     10  C   UNL     1      23.178  15.178   1.377  1.00  0.00     0.053 C 
BRANCH  10  11
ATOM     11  C   UNL     1      22.047  15.946   1.991  1.00  0.00     0.041 C 
ATOM     12  O   UNL     1      21.252  16.594   1.260  1.00  0.00    -0.550 OA
ATOM     13  O   UNL     1      21.848  15.919   3.365  1.00  0.00    -0.550 OA
ENDBRANCH  10  11
ENDBRANCH   9  10
ENDBRANCH   8   9
ENDBRANCH   1   8
TORSDOF 8
ENDMDL
