MODEL 1
REMARK VINA RESULT:    -3.719      0.000      0.000
REMARK INTER + INTRA:          -5.290
REMARK INTER:                  -5.023
REMARK INTRA:                  -0.266
REMARK UNBOUND:                -0.266
REMARK SMILES C=C1C(=O)O[C@@H]2[C@@H]1CCC(C)=CCC[C@@]1(C)O[C@@H]21
REMARK SMILES IDX 6 1 7 2 2 3 1 4 3 5 4 6 5 7 8 8 9 9 10 10 11 11 12 12 18 14
REMARK SMILES IDX 15 15 17 16 16 17 14 18 13 19
REMARK H PARENT
REMARK Flexibility Score: 70.00
ROOT
ATOM      1  C   UNL     1     480.380  37.346 459.227  1.00  0.00     0.216 C 
ATOM      2  C   UNL     1     479.721  38.271 460.320  1.00  0.00     0.070 C 
ATOM      3  C   UNL     1     478.809  37.332 461.062  1.00  0.00     0.037 C 
ATOM      4  C   UNL     1     477.929  37.668 462.007  1.00  0.00     0.021 C 
ATOM      5  C   UNL     1     478.887  36.042 460.430  1.00  0.00     0.334 C 
ATOM      6  O   UNL     1     478.237  35.018 460.769  1.00  0.00    -0.247 OA
ATOM      7  O   UNL     1     479.753  36.073 459.364  1.00  0.00    -0.455 OA
ENDROOT
BRANCH   2   8
ATOM      8  C   UNL     1     480.642  39.095 461.295  1.00  0.00     0.017 C 
BRANCH   8   9
ATOM      9  C   UNL     1     481.579  40.207 460.746  1.00  0.00     0.031 C 
BRANCH   9  10
ATOM     10  C   UNL     1     483.027  39.746 460.631  1.00  0.00    -0.077 C 
ATOM     11  C   UNL     1     483.812  39.513 461.899  1.00  0.00     0.039 C 
ATOM     12  C   UNL     1     483.654  39.515 459.451  1.00  0.00    -0.028 CG0
ATOM     13  G   UNL     1     483.052  39.727 458.085  1.00  0.00     0.000 G0
ENDBRANCH   9  10
ENDBRANCH   8   9
ENDBRANCH   2   8
BRANCH   1  14
ATOM     14  C   UNL     1     480.168  37.839 457.781  1.00  0.00     0.192 C 
ATOM     15  C   UNL     1     481.292  38.220 456.869  1.00  0.00     0.096 C 
ATOM     16  O   UNL     1     480.755  36.920 456.874  1.00  0.00    -0.362 OA
ATOM     17  C   UNL     1     480.908  39.006 455.615  1.00  0.00     0.045 C 
BRANCH  15  18
ATOM     18  C   UNL     1     482.726  38.376 457.419  1.00  0.00     0.042 C 
BRANCH  18  19
ATOM     19  C   UNL     1     483.069  39.727 458.076  1.00  0.00     0.030 CG0
ATOM     20  G   UNL     1     483.657  39.514 459.449  1.00  0.00     0.000 G0
ENDBRANCH  18  19
ENDBRANCH  15  18
ENDBRANCH   1  14
TORSDOF 0
ENDMDL
MODEL 2
REMARK VINA RESULT:    -3.670      1.138      1.356
REMARK INTER + INTRA:          -5.224
REMARK INTER:                  -4.949
REMARK INTRA:                  -0.275
REMARK UNBOUND:                -0.266
REMARK SMILES C=C1C(=O)O[C@@H]2[C@@H]1CCC(C)=CCC[C@@]1(C)O[C@@H]21
REMARK SMILES IDX 6 1 7 2 2 3 1 4 3 5 4 6 5 7 8 8 9 9 10 10 11 11 12 12 18 14
REMARK SMILES IDX 15 15 17 16 16 17 14 18 13 19
REMARK H PARENT
REMARK Flexibility Score: 70.00
ROOT
ATOM      1  C   UNL     1     480.849  37.773 458.970  1.00  0.00     0.216 C 
ATOM      2  C   UNL     1     480.772  38.998 459.958  1.00  0.00     0.070 C 
ATOM      3  C   UNL     1     479.678  38.604 460.912  1.00  0.00     0.037 C 
ATOM      4  C   UNL     1     479.146  39.373 461.865  1.00  0.00     0.021 C 
ATOM      5  C   UNL     1     479.148  37.337 460.485  1.00  0.00     0.334 C 
ATOM      6  O   UNL     1     478.201  36.714 461.034  1.00  0.00    -0.247 OA
ATOM      7  O   UNL     1     479.796  36.894 459.357  1.00  0.00    -0.455 OA
ENDROOT
BRANCH   2   8
ATOM      8  C   UNL     1     482.072  39.470 460.710  1.00  0.00     0.017 C 
BRANCH   8   9
ATOM      9  C   UNL     1     483.136  40.338 459.981  1.00  0.00     0.031 C 
BRANCH   9  10
ATOM     10  C   UNL     1     484.431  39.577 459.723  1.00  0.00    -0.077 C 
ATOM     11  C   UNL     1     485.376  39.349 460.878  1.00  0.00     0.039 C 
ATOM     12  C   UNL     1     484.782  39.074 458.514  1.00  0.00    -0.028 CG0
ATOM     13  G   UNL     1     483.993  39.232 457.238  1.00  0.00     0.000 G0
ENDBRANCH   9  10
ENDBRANCH   8   9
ENDBRANCH   2   8
BRANCH   1  14
ATOM     14  C   UNL     1     480.647  38.151 457.488  1.00  0.00     0.192 C 
ATOM     15  C   UNL     1     481.748  38.119 456.475  1.00  0.00     0.096 C 
ATOM     16  O   UNL     1     480.895  37.019 456.670  1.00  0.00    -0.362 OA
ATOM     17  C   UNL     1     481.474  38.844 455.156  1.00  0.00     0.045 C 
BRANCH  15  18
ATOM     18  C   UNL     1     483.215  37.942 456.919  1.00  0.00     0.042 C 
BRANCH  18  19
ATOM     19  C   UNL     1     484.002  39.231 457.229  1.00  0.00     0.030 CG0
ATOM     20  G   UNL     1     484.789  39.078 458.507  1.00  0.00     0.000 G0
ENDBRANCH  18  19
ENDBRANCH  15  18
ENDBRANCH   1  14
TORSDOF 0
ENDMDL
MODEL 3
REMARK VINA RESULT:    -3.451      2.001      3.999
REMARK INTER + INTRA:          -4.927
REMARK INTER:                  -4.700
REMARK INTRA:                  -0.227
REMARK UNBOUND:                -0.266
REMARK SMILES C=C1C(=O)O[C@@H]2[C@@H]1CCC(C)=CCC[C@@]1(C)O[C@@H]21
REMARK SMILES IDX 6 1 7 2 2 3 1 4 3 5 4 6 5 7 8 8 9 9 10 10 11 11 12 12 18 14
REMARK SMILES IDX 15 15 17 16 16 17 14 18 13 19
REMARK H PARENT
REMARK Flexibility Score: 70.00
ROOT
ATOM      1  C   UNL     1     481.033  39.026 459.810  1.00  0.00     0.216 C 
ATOM      2  C   UNL     1     480.615  37.652 459.159  1.00  0.00     0.070 C 
ATOM      3  C   UNL     1     479.568  37.127 460.104  1.00  0.00     0.037 C 
ATOM      4  C   UNL     1     478.995  35.923 460.057  1.00  0.00     0.021 C 
ATOM      5  C   UNL     1     479.447  38.055 461.197  1.00  0.00     0.334 C 
ATOM      6  O   UNL     1     478.682  37.925 462.189  1.00  0.00    -0.247 OA
ATOM      7  O   UNL     1     480.313  39.110 461.038  1.00  0.00    -0.455 OA
ENDROOT
BRANCH   2   8
ATOM      8  C   UNL     1     480.131  37.620 457.662  1.00  0.00     0.017 C 
BRANCH   8   9
ATOM      9  C   UNL     1     481.000  36.942 456.566  1.00  0.00     0.031 C 
BRANCH   9  10
ATOM     10  C   UNL     1     481.419  37.914 455.469  1.00  0.00    -0.077 C 
ATOM     11  C   UNL     1     480.573  38.004 454.222  1.00  0.00     0.039 C 
ATOM     12  C   UNL     1     482.504  38.723 455.553  1.00  0.00    -0.028 CG0
ATOM     13  G   UNL     1     483.488  38.751 456.696  1.00  0.00     0.000 G0
ENDBRANCH   9  10
ENDBRANCH   8   9
ENDBRANCH   2   8
BRANCH   1  14
ATOM     14  C   UNL     1     482.539  39.137 460.121  1.00  0.00     0.192 C 
ATOM     15  C   UNL     1     483.544  39.663 459.144  1.00  0.00     0.096 C 
ATOM     16  O   UNL     1     482.931  40.501 460.094  1.00  0.00    -0.362 OA
ATOM     17  C   UNL     1     485.012  39.387 459.469  1.00  0.00     0.045 C 
BRANCH  15  18
ATOM     18  C   UNL     1     483.153  39.893 457.669  1.00  0.00     0.042 C 
BRANCH  18  19
ATOM     19  C   UNL     1     483.500  38.762 456.680  1.00  0.00     0.030 CG0
ATOM     20  G   UNL     1     482.502  38.721 455.550  1.00  0.00     0.000 G0
ENDBRANCH  18  19
ENDBRANCH  15  18
ENDBRANCH   1  14
TORSDOF 0
ENDMDL
MODEL 4
REMARK VINA RESULT:    -3.330      4.133      6.513
REMARK INTER + INTRA:          -4.764
REMARK INTER:                  -4.490
REMARK INTRA:                  -0.274
REMARK UNBOUND:                -0.266
REMARK SMILES C=C1C(=O)O[C@@H]2[C@@H]1CCC(C)=CCC[C@@]1(C)O[C@@H]21
REMARK SMILES IDX 6 1 7 2 2 3 1 4 3 5 4 6 5 7 8 8 9 9 10 10 11 11 12 12 18 14
REMARK SMILES IDX 15 15 17 16 16 17 14 18 13 19
REMARK H PARENT
REMARK Flexibility Score: 70.00
ROOT
ATOM      1  C   UNL     1     485.158  39.676 461.458  1.00  0.00     0.216 C 
ATOM      2  C   UNL     1     483.582  39.677 461.409  1.00  0.00     0.070 C 
ATOM      3  C   UNL     1     483.275  38.915 460.148  1.00  0.00     0.037 C 
ATOM      4  C   UNL     1     482.071  38.754 459.597  1.00  0.00     0.021 C 
ATOM      5  C   UNL     1     484.522  38.575 459.518  1.00  0.00     0.334 C 
ATOM      6  O   UNL     1     484.649  37.957 458.427  1.00  0.00    -0.247 OA
ATOM      7  O   UNL     1     485.584  39.048 460.251  1.00  0.00    -0.455 OA
ENDROOT
BRANCH   2   8
ATOM      8  C   UNL     1     482.769  39.134 462.642  1.00  0.00     0.017 C 
BRANCH   8   9
ATOM      9  C   UNL     1     482.264  40.106 463.746  1.00  0.00     0.031 C 
BRANCH   9  10
ATOM     10  C   UNL     1     482.890  39.819 465.105  1.00  0.00    -0.077 C 
ATOM     11  C   UNL     1     482.275  38.746 465.971  1.00  0.00     0.039 C 
ATOM     12  C   UNL     1     483.984  40.462 465.583  1.00  0.00    -0.028 CG0
ATOM     13  G   UNL     1     484.712  41.584 464.886  1.00  0.00     0.000 G0
ENDBRANCH   9  10
ENDBRANCH   8   9
ENDBRANCH   2   8
BRANCH   1  14
ATOM     14  C   UNL     1     485.782  41.085 461.519  1.00  0.00     0.192 C 
ATOM     15  C   UNL     1     486.284  41.708 462.783  1.00  0.00     0.096 C 
ATOM     16  O   UNL     1     487.137  40.988 461.929  1.00  0.00    -0.362 OA
ATOM     17  C   UNL     1     486.545  43.214 462.738  1.00  0.00     0.045 C 
BRANCH  15  18
ATOM     18  C   UNL     1     485.971  41.061 464.150  1.00  0.00     0.042 C 
BRANCH  18  19
ATOM     19  C   UNL     1     484.727  41.587 464.893  1.00  0.00     0.030 CG0
ATOM     20  G   UNL     1     483.995  40.454 465.568  1.00  0.00     0.000 G0
ENDBRANCH  18  19
ENDBRANCH  15  18
ENDBRANCH   1  14
TORSDOF 0
ENDMDL
MODEL 5
REMARK VINA RESULT:    -3.323      2.942      5.371
REMARK INTER + INTRA:          -4.755
REMARK INTER:                  -4.486
REMARK INTRA:                  -0.269
REMARK UNBOUND:                -0.266
REMARK SMILES C=C1C(=O)O[C@@H]2[C@@H]1CCC(C)=CCC[C@@]1(C)O[C@@H]21
REMARK SMILES IDX 6 1 7 2 2 3 1 4 3 5 4 6 5 7 8 8 9 9 10 10 11 11 12 12 18 14
REMARK SMILES IDX 15 15 17 16 16 17 14 18 13 19
REMARK H PARENT
REMARK Flexibility Score: 70.00
ROOT
ATOM      1  C   UNL     1     483.732  38.921 459.487  1.00  0.00     0.216 C 
ATOM      2  C   UNL     1     482.344  39.462 458.971  1.00  0.00     0.070 C 
ATOM      3  C   UNL     1     482.403  39.205 457.489  1.00  0.00     0.037 C 
ATOM      4  C   UNL     1     481.510  39.607 456.583  1.00  0.00     0.021 C 
ATOM      5  C   UNL     1     483.692  38.644 457.184  1.00  0.00     0.334 C 
ATOM      6  O   UNL     1     484.102  38.328 456.036  1.00  0.00    -0.247 OA
ATOM      7  O   UNL     1     484.453  38.525 458.323  1.00  0.00    -0.455 OA
ENDROOT
BRANCH   2   8
ATOM      8  C   UNL     1     481.014  38.920 459.614  1.00  0.00     0.017 C 
BRANCH   8   9
ATOM      9  C   UNL     1     480.269  39.744 460.702  1.00  0.00     0.031 C 
BRANCH   9  10
ATOM     10  C   UNL     1     480.188  39.009 462.035  1.00  0.00    -0.077 C 
ATOM     11  C   UNL     1     479.038  38.059 462.266  1.00  0.00     0.039 C 
ATOM     12  C   UNL     1     481.101  39.145 463.028  1.00  0.00    -0.028 CG0
ATOM     13  G   UNL     1     482.292  40.071 463.000  1.00  0.00     0.000 G0
ENDBRANCH   9  10
ENDBRANCH   8   9
ENDBRANCH   2   8
BRANCH   1  14
ATOM     14  C   UNL     1     484.570  39.971 460.244  1.00  0.00     0.192 C 
ATOM     15  C   UNL     1     484.593  40.085 461.736  1.00  0.00     0.096 C 
ATOM     16  O   UNL     1     485.544  39.317 461.041  1.00  0.00    -0.362 OA
ATOM     17  C   UNL     1     485.185  41.374 462.307  1.00  0.00     0.045 C 
BRANCH  15  18
ATOM     18  C   UNL     1     483.573  39.306 462.595  1.00  0.00     0.042 C 
BRANCH  18  19
ATOM     19  C   UNL     1     482.301  40.069 463.015  1.00  0.00     0.030 CG0
ATOM     20  G   UNL     1     481.110  39.143 463.033  1.00  0.00     0.000 G0
ENDBRANCH  18  19
ENDBRANCH  15  18
ENDBRANCH   1  14
TORSDOF 0
ENDMDL
MODEL 6
REMARK VINA RESULT:    -3.255      2.452      4.864
REMARK INTER + INTRA:          -4.663
REMARK INTER:                  -4.391
REMARK INTRA:                  -0.271
REMARK UNBOUND:                -0.266
REMARK SMILES C=C1C(=O)O[C@@H]2[C@@H]1CCC(C)=CCC[C@@]1(C)O[C@@H]21
REMARK SMILES IDX 6 1 7 2 2 3 1 4 3 5 4 6 5 7 8 8 9 9 10 10 11 11 12 12 18 14
REMARK SMILES IDX 15 15 17 16 16 17 14 18 13 19
REMARK H PARENT
REMARK Flexibility Score: 70.00
ROOT
ATOM      1  C   UNL     1     481.272  39.052 459.292  1.00  0.00     0.216 C 
ATOM      2  C   UNL     1     482.659  38.870 460.018  1.00  0.00     0.070 C 
ATOM      3  C   UNL     1     483.654  38.965 458.893  1.00  0.00     0.037 C 
ATOM      4  C   UNL     1     484.966  38.744 458.979  1.00  0.00     0.021 C 
ATOM      5  C   UNL     1     482.922  39.118 457.663  1.00  0.00     0.334 C 
ATOM      6  O   UNL     1     483.429  39.204 456.513  1.00  0.00    -0.247 OA
ATOM      7  O   UNL     1     481.569  39.126 457.900  1.00  0.00    -0.455 OA
ENDROOT
BRANCH   2   8
ATOM      8  C   UNL     1     483.034  39.814 461.221  1.00  0.00     0.017 C 
BRANCH   8   9
ATOM      9  C   UNL     1     482.853  39.334 462.688  1.00  0.00     0.031 C 
BRANCH   9  10
ATOM     10  C   UNL     1     481.853  40.185 463.461  1.00  0.00    -0.077 C 
ATOM     11  C   UNL     1     482.349  41.434 464.150  1.00  0.00     0.039 C 
ATOM     12  C   UNL     1     480.532  39.898 463.555  1.00  0.00    -0.028 CG0
ATOM     13  G   UNL     1     479.858  38.681 462.971  1.00  0.00     0.000 G0
ENDBRANCH   9  10
ENDBRANCH   8   9
ENDBRANCH   2   8
BRANCH   1  14
ATOM     14  C   UNL     1     480.290  37.885 459.518  1.00  0.00     0.192 C 
ATOM     15  C   UNL     1     479.212  37.907 460.556  1.00  0.00     0.096 C 
ATOM     16  O   UNL     1     478.968  38.313 459.233  1.00  0.00    -0.362 OA
ATOM     17  C   UNL     1     478.562  36.562 460.885  1.00  0.00     0.045 C 
BRANCH  15  18
ATOM     18  C   UNL     1     479.187  39.013 461.633  1.00  0.00     0.042 C 
BRANCH  18  19
ATOM     19  C   UNL     1     479.846  38.674 462.985  1.00  0.00     0.030 CG0
ATOM     20  G   UNL     1     480.532  39.888 463.558  1.00  0.00     0.000 G0
ENDBRANCH  18  19
ENDBRANCH  15  18
ENDBRANCH   1  14
TORSDOF 0
ENDMDL
MODEL 7
REMARK VINA RESULT:    -3.151      3.404      6.098
REMARK INTER + INTRA:          -4.523
REMARK INTER:                  -4.260
REMARK INTRA:                  -0.263
REMARK UNBOUND:                -0.266
REMARK SMILES C=C1C(=O)O[C@@H]2[C@@H]1CCC(C)=CCC[C@@]1(C)O[C@@H]21
REMARK SMILES IDX 6 1 7 2 2 3 1 4 3 5 4 6 5 7 8 8 9 9 10 10 11 11 12 12 18 14
REMARK SMILES IDX 15 15 17 16 16 17 14 18 13 19
REMARK H PARENT
REMARK Flexibility Score: 70.00
ROOT
ATOM      1  C   UNL     1     483.501  39.190 461.172  1.00  0.00     0.216 C 
ATOM      2  C   UNL     1     482.482  39.611 460.045  1.00  0.00     0.070 C 
ATOM      3  C   UNL     1     483.340  39.677 458.811  1.00  0.00     0.037 C 
ATOM      4  C   UNL     1     482.962  40.117 457.610  1.00  0.00     0.021 C 
ATOM      5  C   UNL     1     484.697  39.391 459.195  1.00  0.00     0.334 C 
ATOM      6  O   UNL     1     485.692  39.383 458.423  1.00  0.00    -0.247 OA
ATOM      7  O   UNL     1     484.781  39.155 460.546  1.00  0.00    -0.455 OA
ENDROOT
BRANCH   2   8
ATOM      8  C   UNL     1     481.181  38.755 459.817  1.00  0.00     0.017 C 
BRANCH   8   9
ATOM      9  C   UNL     1     479.809  39.242 460.361  1.00  0.00     0.031 C 
BRANCH   9  10
ATOM     10  C   UNL     1     479.210  38.279 461.379  1.00  0.00    -0.077 C 
ATOM     11  C   UNL     1     478.348  37.145 460.879  1.00  0.00     0.039 C 
ATOM     12  C   UNL     1     479.419  38.368 462.716  1.00  0.00    -0.028 CG0
ATOM     13  G   UNL     1     480.214  39.447 463.407  1.00  0.00     0.000 G0
ENDBRANCH   9  10
ENDBRANCH   8   9
ENDBRANCH   2   8
BRANCH   1  14
ATOM     14  C   UNL     1     483.565  40.176 462.356  1.00  0.00     0.192 C 
ATOM     15  C   UNL     1     482.772  40.003 463.614  1.00  0.00     0.096 C 
ATOM     16  O   UNL     1     484.086  39.514 463.499  1.00  0.00    -0.362 OA
ATOM     17  C   UNL     1     482.681  41.225 464.529  1.00  0.00     0.045 C 
BRANCH  15  18
ATOM     18  C   UNL     1     481.648  38.948 463.690  1.00  0.00     0.042 C 
BRANCH  18  19
ATOM     19  C   UNL     1     480.215  39.447 463.417  1.00  0.00     0.030 CG0
ATOM     20  G   UNL     1     479.407  38.379 462.723  1.00  0.00     0.000 G0
ENDBRANCH  18  19
ENDBRANCH  15  18
ENDBRANCH   1  14
TORSDOF 0
ENDMDL
MODEL 8
REMARK VINA RESULT:    -3.110      3.451      5.187
REMARK INTER + INTRA:          -4.467
REMARK INTER:                  -4.191
REMARK INTRA:                  -0.276
REMARK UNBOUND:                -0.266
REMARK SMILES C=C1C(=O)O[C@@H]2[C@@H]1CCC(C)=CCC[C@@]1(C)O[C@@H]21
REMARK SMILES IDX 6 1 7 2 2 3 1 4 3 5 4 6 5 7 8 8 9 9 10 10 11 11 12 12 18 14
REMARK SMILES IDX 15 15 17 16 16 17 14 18 13 19
REMARK H PARENT
REMARK Flexibility Score: 70.00
ROOT
ATOM      1  C   UNL     1     483.242  40.521 457.904  1.00  0.00     0.216 C 
ATOM      2  C   UNL     1     483.244  39.355 458.964  1.00  0.00     0.070 C 
ATOM      3  C   UNL     1     484.214  39.839 460.008  1.00  0.00     0.037 C 
ATOM      4  C   UNL     1     484.658  39.143 461.056  1.00  0.00     0.021 C 
ATOM      5  C   UNL     1     484.751  41.099 459.568  1.00  0.00     0.334 C 
ATOM      6  O   UNL     1     485.612  41.784 460.181  1.00  0.00    -0.247 OA
ATOM      7  O   UNL     1     484.220  41.456 458.352  1.00  0.00    -0.455 OA
ENDROOT
BRANCH   2   8
ATOM      8  C   UNL     1     481.883  38.879 459.595  1.00  0.00     0.017 C 
BRANCH   8   9
ATOM      9  C   UNL     1     480.992  37.839 458.860  1.00  0.00     0.031 C 
BRANCH   9  10
ATOM     10  C   UNL     1     479.673  38.436 458.383  1.00  0.00    -0.077 C 
ATOM     11  C   UNL     1     478.564  38.632 459.387  1.00  0.00     0.039 C 
ATOM     12  C   UNL     1     479.439  38.820 457.103  1.00  0.00    -0.028 CG0
ATOM     13  G   UNL     1     480.404  38.669 455.954  1.00  0.00     0.000 G0
ENDBRANCH   9  10
ENDBRANCH   8   9
ENDBRANCH   2   8
BRANCH   1  14
ATOM     14  C   UNL     1     483.619  40.070 456.478  1.00  0.00     0.192 C 
ATOM     15  C   UNL     1     482.624  39.939 455.368  1.00  0.00     0.096 C 
ATOM     16  O   UNL     1     483.358  41.122 455.562  1.00  0.00    -0.362 OA
ATOM     17  C   UNL     1     483.084  39.160 454.135  1.00  0.00     0.045 C 
BRANCH  15  18
ATOM     18  C   UNL     1     481.110  40.011 455.662  1.00  0.00     0.042 C 
BRANCH  18  19
ATOM     19  C   UNL     1     480.399  38.674 455.948  1.00  0.00     0.030 CG0
ATOM     20  G   UNL     1     479.457  38.813 457.117  1.00  0.00     0.000 G0
ENDBRANCH  18  19
ENDBRANCH  15  18
ENDBRANCH   1  14
TORSDOF 0
ENDMDL
MODEL 9
REMARK VINA RESULT:    -3.095      1.905      3.856
REMARK INTER + INTRA:          -4.446
REMARK INTER:                  -4.188
REMARK INTRA:                  -0.258
REMARK UNBOUND:                -0.266
REMARK SMILES C=C1C(=O)O[C@@H]2[C@@H]1CCC(C)=CCC[C@@]1(C)O[C@@H]21
REMARK SMILES IDX 6 1 7 2 2 3 1 4 3 5 4 6 5 7 8 8 9 9 10 10 11 11 12 12 18 14
REMARK SMILES IDX 15 15 17 16 16 17 14 18 13 19
REMARK H PARENT
REMARK Flexibility Score: 70.00
ROOT
ATOM      1  C   UNL     1     479.383  38.777 460.730  1.00  0.00     0.216 C 
ATOM      2  C   UNL     1     479.927  37.531 459.932  1.00  0.00     0.070 C 
ATOM      3  C   UNL     1     478.992  36.425 460.341  1.00  0.00     0.037 C 
ATOM      4  C   UNL     1     479.114  35.133 460.030  1.00  0.00     0.021 C 
ATOM      5  C   UNL     1     478.065  36.956 461.304  1.00  0.00     0.334 C 
ATOM      6  O   UNL     1     477.154  36.307 461.883  1.00  0.00    -0.247 OA
ATOM      7  O   UNL     1     478.323  38.284 461.546  1.00  0.00    -0.455 OA
ENDROOT
BRANCH   2   8
ATOM      8  C   UNL     1     480.089  37.622 458.370  1.00  0.00     0.017 C 
BRANCH   8   9
ATOM      9  C   UNL     1     481.463  37.984 457.738  1.00  0.00     0.031 C 
BRANCH   9  10
ATOM     10  C   UNL     1     481.419  39.291 456.956  1.00  0.00    -0.077 C 
ATOM     11  C   UNL     1     480.947  39.260 455.523  1.00  0.00     0.039 C 
ATOM     12  C   UNL     1     481.764  40.494 457.478  1.00  0.00    -0.028 CG0
ATOM     13  G   UNL     1     482.294  40.723 458.872  1.00  0.00     0.000 G0
ENDBRANCH   9  10
ENDBRANCH   8   9
ENDBRANCH   2   8
BRANCH   1  14
ATOM     14  C   UNL     1     480.433  39.440 461.645  1.00  0.00     0.192 C 
ATOM     15  C   UNL     1     481.203  40.664 461.260  1.00  0.00     0.096 C 
ATOM     16  O   UNL     1     480.005  40.748 461.991  1.00  0.00    -0.362 OA
ATOM     17  C   UNL     1     482.431  40.986 462.111  1.00  0.00     0.045 C 
BRANCH  15  18
ATOM     18  C   UNL     1     481.163  41.188 459.808  1.00  0.00     0.042 C 
BRANCH  18  19
ATOM     19  C   UNL     1     482.299  40.723 458.876  1.00  0.00     0.030 CG0
ATOM     20  G   UNL     1     481.776  40.480 457.483  1.00  0.00     0.000 G0
ENDBRANCH  18  19
ENDBRANCH  15  18
ENDBRANCH   1  14
TORSDOF 0
ENDMDL
