MODEL 1
REMARK VINA RESULT:    -2.986      0.000      0.000
REMARK INTER + INTRA:          -4.821
REMARK INTER:                  -4.208
REMARK INTRA:                  -0.614
REMARK UNBOUND:                -0.614
REMARK SMILES CCCCCCCCC(=O)[O-]
REMARK SMILES IDX 6 1 7 2 8 3 9 4 10 5 11 6 5 7 4 8 3 9 2 10 1 11
REMARK H PARENT
REMARK Flexibility Score: inf
ROOT
ATOM      1  C   UNL     1      -8.605 -17.620  13.250  1.00  0.00     0.000 C 
ENDROOT
BRANCH   1   2
ATOM      2  C   UNL     1      -9.367 -16.791  14.300  1.00  0.00     0.006 C 
BRANCH   2   3
ATOM      3  C   UNL     1     -10.892 -16.776  14.110  1.00  0.00     0.053 C 
BRANCH   3   4
ATOM      4  C   UNL     1     -11.614 -17.247  15.335  1.00  0.00     0.041 C 
ATOM      5  O   UNL     1     -11.557 -18.456  15.680  1.00  0.00    -0.550 OA
ATOM      6  O   UNL     1     -12.325 -16.342  16.114  1.00  0.00    -0.550 OA
ENDBRANCH   3   4
ENDBRANCH   2   3
ENDBRANCH   1   2
BRANCH   1   7
ATOM      7  C   UNL     1      -9.053 -19.089  13.211  1.00  0.00     0.000 C 
BRANCH   7   8
ATOM      8  C   UNL     1      -9.082 -19.614  11.767  1.00  0.00    -0.000 C 
BRANCH   8   9
ATOM      9  C   UNL     1     -10.060 -18.835  10.873  1.00  0.00    -0.000 C 
BRANCH   9  10
ATOM     10  C   UNL     1      -9.378 -18.235   9.633  1.00  0.00    -0.003 C 
ATOM     11  C   UNL     1      -9.475 -16.713   9.637  1.00  0.00     0.004 C 
ENDBRANCH   9  10
ENDBRANCH   8   9
ENDBRANCH   7   8
ENDBRANCH   1   7
TORSDOF 7
ENDMDL
MODEL 2
REMARK VINA RESULT:    -2.728     14.269     15.728
REMARK INTER + INTRA:          -4.458
REMARK INTER:                  -3.815
REMARK INTRA:                  -0.644
REMARK UNBOUND:                -0.614
REMARK SMILES CCCCCCCCC(=O)[O-]
REMARK SMILES IDX 6 1 7 2 8 3 9 4 10 5 11 6 5 7 4 8 3 9 2 10 1 11
REMARK H PARENT
REMARK Flexibility Score: inf
ROOT
ATOM      1  C   UNL     1     -10.131 -20.765  -3.400  1.00  0.00     0.000 C 
ENDROOT
BRANCH   1   2
ATOM      2  C   UNL     1      -9.560 -19.349  -3.198  1.00  0.00     0.006 C 
BRANCH   2   3
ATOM      3  C   UNL     1      -9.839 -18.747  -1.812  1.00  0.00     0.053 C 
BRANCH   3   4
ATOM      4  C   UNL     1      -8.994 -17.540  -1.545  1.00  0.00     0.041 C 
ATOM      5  O   UNL     1      -8.756 -16.716  -2.467  1.00  0.00    -0.550 OA
ATOM      6  O   UNL     1      -8.493 -17.308  -0.270  1.00  0.00    -0.550 OA
ENDBRANCH   3   4
ENDBRANCH   2   3
ENDBRANCH   1   2
BRANCH   1   7
ATOM      7  C   UNL     1      -9.065 -21.780  -3.840  1.00  0.00     0.000 C 
BRANCH   7   8
ATOM      8  C   UNL     1      -9.032 -22.985  -2.889  1.00  0.00    -0.000 C 
BRANCH   8   9
ATOM      9  C   UNL     1      -9.907 -22.782  -1.642  1.00  0.00    -0.000 C 
BRANCH   9  10
ATOM     10  C   UNL     1      -9.096 -22.809  -0.338  1.00  0.00    -0.003 C 
ATOM     11  C   UNL     1      -7.992 -21.756  -0.357  1.00  0.00     0.004 C 
ENDBRANCH   9  10
ENDBRANCH   8   9
ENDBRANCH   7   8
ENDBRANCH   1   7
TORSDOF 7
ENDMDL
MODEL 3
REMARK VINA RESULT:    -2.692     14.900     15.822
REMARK INTER + INTRA:          -4.407
REMARK INTER:                  -3.882
REMARK INTRA:                  -0.524
REMARK UNBOUND:                -0.614
REMARK SMILES CCCCCCCCC(=O)[O-]
REMARK SMILES IDX 6 1 7 2 8 3 9 4 10 5 11 6 5 7 4 8 3 9 2 10 1 11
REMARK H PARENT
REMARK Flexibility Score: inf
ROOT
ATOM      1  C   UNL     1      -9.697 -19.170  -1.525  1.00  0.00     0.000 C 
ENDROOT
BRANCH   1   2
ATOM      2  C   UNL     1      -9.971 -17.832  -2.236  1.00  0.00     0.006 C 
BRANCH   2   3
ATOM      3  C   UNL     1      -8.761 -17.258  -2.991  1.00  0.00     0.053 C 
BRANCH   3   4
ATOM      4  C   UNL     1      -8.218 -16.031  -2.327  1.00  0.00     0.041 C 
ATOM      5  O   UNL     1      -7.876 -16.064  -1.115  1.00  0.00    -0.550 OA
ATOM      6  O   UNL     1      -8.059 -14.858  -3.055  1.00  0.00    -0.550 OA
ENDBRANCH   3   4
ENDBRANCH   2   3
ENDBRANCH   1   2
BRANCH   1   7
ATOM      7  C   UNL     1      -8.337 -19.777  -1.898  1.00  0.00     0.000 C 
BRANCH   7   8
ATOM      8  C   UNL     1      -8.478 -21.268  -2.239  1.00  0.00    -0.000 C 
BRANCH   8   9
ATOM      9  C   UNL     1      -9.376 -22.021  -1.245  1.00  0.00    -0.000 C 
BRANCH   9  10
ATOM     10  C   UNL     1     -10.471 -22.843  -1.942  1.00  0.00    -0.003 C 
ATOM     11  C   UNL     1     -10.668 -22.383  -3.383  1.00  0.00     0.004 C 
ENDBRANCH   9  10
ENDBRANCH   8   9
ENDBRANCH   7   8
ENDBRANCH   1   7
TORSDOF 7
ENDMDL
MODEL 4
REMARK VINA RESULT:    -2.593      1.140      2.523
REMARK INTER + INTRA:          -4.267
REMARK INTER:                  -3.668
REMARK INTRA:                  -0.600
REMARK UNBOUND:                -0.614
REMARK SMILES CCCCCCCCC(=O)[O-]
REMARK SMILES IDX 6 1 7 2 8 3 9 4 10 5 11 6 5 7 4 8 3 9 2 10 1 11
REMARK H PARENT
REMARK Flexibility Score: inf
ROOT
ATOM      1  C   UNL     1     -10.196 -17.240  12.326  1.00  0.00     0.000 C 
ENDROOT
BRANCH   1   2
ATOM      2  C   UNL     1      -9.108 -17.367  13.408  1.00  0.00     0.006 C 
BRANCH   2   3
ATOM      3  C   UNL     1      -9.494 -16.758  14.766  1.00  0.00     0.053 C 
BRANCH   3   4
ATOM      4  C   UNL     1     -10.817 -17.265  15.251  1.00  0.00     0.041 C 
ATOM      5  O   UNL     1     -11.772 -16.467  15.438  1.00  0.00    -0.550 OA
ATOM      6  O   UNL     1     -11.004 -18.625  15.469  1.00  0.00    -0.550 OA
ENDBRANCH   3   4
ENDBRANCH   2   3
ENDBRANCH   1   2
BRANCH   1   7
ATOM      7  C   UNL     1      -9.653 -17.463  10.906  1.00  0.00     0.000 C 
BRANCH   7   8
ATOM      8  C   UNL     1      -9.845 -18.924  10.470  1.00  0.00    -0.000 C 
BRANCH   8   9
ATOM      9  C   UNL     1      -8.552 -19.748  10.572  1.00  0.00    -0.000 C 
BRANCH   9  10
ATOM     10  C   UNL     1      -8.567 -20.728  11.756  1.00  0.00    -0.003 C 
ATOM     11  C   UNL     1      -9.990 -20.971  12.249  1.00  0.00     0.004 C 
ENDBRANCH   9  10
ENDBRANCH   8   9
ENDBRANCH   7   8
ENDBRANCH   1   7
TORSDOF 7
ENDMDL
MODEL 5
REMARK VINA RESULT:    -2.529      2.993      4.616
REMARK INTER + INTRA:          -4.177
REMARK INTER:                  -3.466
REMARK INTRA:                  -0.711
REMARK UNBOUND:                -0.614
REMARK SMILES CCCCCCCCC(=O)[O-]
REMARK SMILES IDX 6 1 7 2 8 3 9 4 10 5 11 6 5 7 4 8 3 9 2 10 1 11
REMARK H PARENT
REMARK Flexibility Score: inf
ROOT
ATOM      1  C   UNL     1      -9.805 -20.613  12.198  1.00  0.00     0.000 C 
ENDROOT
BRANCH   1   2
ATOM      2  C   UNL     1      -9.040 -19.618  11.305  1.00  0.00     0.006 C 
BRANCH   2   3
ATOM      3  C   UNL     1      -9.929 -18.563  10.628  1.00  0.00     0.053 C 
BRANCH   3   4
ATOM      4  C   UNL     1      -9.158 -17.333  10.261  1.00  0.00     0.041 C 
ATOM      5  O   UNL     1      -7.975 -17.181  10.666  1.00  0.00    -0.550 OA
ATOM      6  O   UNL     1      -9.735 -16.367   9.445  1.00  0.00    -0.550 OA
ENDBRANCH   3   4
ENDBRANCH   2   3
ENDBRANCH   1   2
BRANCH   1   7
ATOM      7  C   UNL     1      -9.733 -20.253  13.689  1.00  0.00     0.000 C 
BRANCH   7   8
ATOM      8  C   UNL     1      -8.685 -19.158  13.938  1.00  0.00    -0.000 C 
BRANCH   8   9
ATOM      9  C   UNL     1      -9.160 -18.100  14.947  1.00  0.00    -0.000 C 
BRANCH   9  10
ATOM     10  C   UNL     1      -9.431 -16.737  14.292  1.00  0.00    -0.003 C 
ATOM     11  C   UNL     1     -10.821 -16.697  13.664  1.00  0.00     0.004 C 
ENDBRANCH   9  10
ENDBRANCH   8   9
ENDBRANCH   7   8
ENDBRANCH   1   7
TORSDOF 7
ENDMDL
MODEL 6
REMARK VINA RESULT:    -2.523     14.780     15.816
REMARK INTER + INTRA:          -4.169
REMARK INTER:                  -3.703
REMARK INTRA:                  -0.467
REMARK UNBOUND:                -0.614
REMARK SMILES CCCCCCCCC(=O)[O-]
REMARK SMILES IDX 6 1 7 2 8 3 9 4 10 5 11 6 5 7 4 8 3 9 2 10 1 11
REMARK H PARENT
REMARK Flexibility Score: inf
ROOT
ATOM      1  C   UNL     1      -9.129 -17.867  -0.839  1.00  0.00     0.000 C 
ENDROOT
BRANCH   1   2
ATOM      2  C   UNL     1      -7.876 -17.198  -1.434  1.00  0.00     0.006 C 
BRANCH   2   3
ATOM      3  C   UNL     1      -7.876 -15.663  -1.344  1.00  0.00     0.053 C 
BRANCH   3   4
ATOM      4  C   UNL     1      -8.100 -15.024  -2.680  1.00  0.00     0.041 C 
ATOM      5  O   UNL     1      -8.234 -15.736  -3.709  1.00  0.00    -0.550 OA
ATOM      6  O   UNL     1      -8.190 -13.641  -2.783  1.00  0.00    -0.550 OA
ENDBRANCH   3   4
ENDBRANCH   2   3
ENDBRANCH   1   2
BRANCH   1   7
ATOM      7  C   UNL     1      -9.933 -18.660  -1.880  1.00  0.00     0.000 C 
BRANCH   7   8
ATOM      8  C   UNL     1      -8.998 -19.327  -2.901  1.00  0.00    -0.000 C 
BRANCH   8   9
ATOM      9  C   UNL     1      -8.825 -20.833  -2.651  1.00  0.00    -0.000 C 
BRANCH   9  10
ATOM     10  C   UNL     1     -10.049 -21.465  -1.971  1.00  0.00    -0.003 C 
ATOM     11  C   UNL     1      -9.697 -22.813  -1.350  1.00  0.00     0.004 C 
ENDBRANCH   9  10
ENDBRANCH   8   9
ENDBRANCH   7   8
ENDBRANCH   1   7
TORSDOF 7
ENDMDL
MODEL 7
REMARK VINA RESULT:    -2.519     13.926     15.968
REMARK INTER + INTRA:          -4.164
REMARK INTER:                  -3.569
REMARK INTRA:                  -0.594
REMARK UNBOUND:                -0.614
REMARK SMILES CCCCCCCCC(=O)[O-]
REMARK SMILES IDX 6 1 7 2 8 3 9 4 10 5 11 6 5 7 4 8 3 9 2 10 1 11
REMARK H PARENT
REMARK Flexibility Score: inf
ROOT
ATOM      1  C   UNL     1      -9.829 -19.984  -3.283  1.00  0.00     0.000 C 
ENDROOT
BRANCH   1   2
ATOM      2  C   UNL     1      -9.039 -21.238  -3.703  1.00  0.00     0.006 C 
BRANCH   2   3
ATOM      3  C   UNL     1      -8.454 -22.039  -2.529  1.00  0.00     0.053 C 
BRANCH   3   4
ATOM      4  C   UNL     1      -9.526 -22.609  -1.651  1.00  0.00     0.041 C 
ATOM      5  O   UNL     1     -10.576 -23.082  -2.158  1.00  0.00    -0.550 OA
ATOM      6  O   UNL     1      -9.349 -22.644  -0.273  1.00  0.00    -0.550 OA
ENDBRANCH   3   4
ENDBRANCH   2   3
ENDBRANCH   1   2
BRANCH   1   7
ATOM      7  C   UNL     1      -9.346 -18.710  -3.991  1.00  0.00     0.000 C 
BRANCH   7   8
ATOM      8  C   UNL     1      -9.446 -17.494  -3.059  1.00  0.00    -0.000 C 
BRANCH   8   9
ATOM      9  C   UNL     1      -9.658 -17.890  -1.589  1.00  0.00    -0.000 C 
BRANCH   9  10
ATOM     10  C   UNL     1      -8.395 -17.695  -0.736  1.00  0.00    -0.003 C 
ATOM     11  C   UNL     1      -7.875 -19.030  -0.212  1.00  0.00     0.004 C 
ENDBRANCH   9  10
ENDBRANCH   8   9
ENDBRANCH   7   8
ENDBRANCH   1   7
TORSDOF 7
ENDMDL
