MODEL 1
REMARK VINA RESULT:    -1.325      0.000      0.000
REMARK INTER + INTRA:          -2.032
REMARK INTER:                  -1.635
REMARK INTRA:                  -0.397
REMARK UNBOUND:                -0.397
REMARK SMILES CC(C)=CCC[C@@H](C)c1ccc(C)cc1
REMARK SMILES IDX 6 1 7 2 8 3 9 4 13 5 12 6 11 7 14 8 10 9 15 10 5 11 4 12
REMARK SMILES IDX 2 13 1 14 3 15
REMARK H PARENT
REMARK Flexibility Score: inf
ROOT
ATOM      1  C   UNL     1      53.755   4.863 137.998  1.00  0.00     0.012 C 
ENDROOT
BRANCH   1   2
ATOM      2  C   UNL     1      52.326   4.367 137.678  1.00  0.00     0.016 C 
ATOM      3  C   UNL     1      51.930   4.635 136.217  1.00  0.00     0.013 C 
BRANCH   2   4
ATOM      4  C   UNL     1      52.198   2.888 137.995  1.00  0.00    -0.045 A 
ATOM      5  C   UNL     1      51.877  -1.319 138.924  1.00  0.00     0.044 C 
ATOM      6  C   UNL     1      51.958   0.144 138.605  1.00  0.00    -0.051 A 
ATOM      7  C   UNL     1      52.180   1.080 139.625  1.00  0.00     0.004 A 
ATOM      8  C   UNL     1      51.882   0.583 137.274  1.00  0.00     0.004 A 
ATOM      9  C   UNL     1      52.293   2.440 139.324  1.00  0.00     0.004 A 
ATOM     10  C   UNL     1      51.995   1.941 136.972  1.00  0.00     0.004 A 
ENDBRANCH   2   4
ENDBRANCH   1   2
BRANCH   1  11
ATOM     11  C   UNL     1      54.188   6.037 137.106  1.00  0.00     0.028 C 
BRANCH  11  12
ATOM     12  C   UNL     1      53.741   7.350 137.699  1.00  0.00    -0.028 C 
ATOM     13  C   UNL     1      52.820   8.167 137.137  1.00  0.00    -0.080 C 
ATOM     14  C   UNL     1      52.468   9.470 137.805  1.00  0.00     0.039 C 
ATOM     15  C   UNL     1      52.083   7.794 135.874  1.00  0.00     0.039 C 
ENDBRANCH  11  12
ENDBRANCH   1  11
TORSDOF 4
ENDMDL
MODEL 2
REMARK VINA RESULT:    -0.011      1.107      6.574
REMARK INTER + INTRA:          -0.410
REMARK INTER:                  -0.110
REMARK INTRA:                  -0.300
REMARK UNBOUND:                -0.397
REMARK SMILES CC(C)=CCC[C@@H](C)c1ccc(C)cc1
REMARK SMILES IDX 6 1 7 2 8 3 9 4 13 5 12 6 11 7 14 8 10 9 15 10 5 11 4 12
REMARK SMILES IDX 2 13 1 14 3 15
REMARK H PARENT
REMARK Flexibility Score: inf
ROOT
ATOM      1  C   UNL     1      53.276   3.028 137.931  1.00  0.00     0.012 C 
ENDROOT
BRANCH   1   2
ATOM      2  C   UNL     1      53.237   4.321 138.777  1.00  0.00     0.016 C 
ATOM      3  C   UNL     1      54.532   4.531 139.578  1.00  0.00     0.013 C 
BRANCH   2   4
ATOM      4  C   UNL     1      52.966   5.523 137.891  1.00  0.00    -0.045 A 
ATOM      5  C   UNL     1      52.148   8.954 135.396  1.00  0.00     0.044 C 
ATOM      6  C   UNL     1      52.461   7.771 136.263  1.00  0.00    -0.051 A 
ATOM      7  C   UNL     1      52.377   7.875 137.659  1.00  0.00     0.004 A 
ATOM      8  C   UNL     1      52.774   6.533 135.683  1.00  0.00     0.004 A 
ATOM      9  C   UNL     1      52.633   6.762 138.466  1.00  0.00     0.004 A 
ATOM     10  C   UNL     1      53.029   5.421 136.488  1.00  0.00     0.004 A 
ENDBRANCH   2   4
ENDBRANCH   1   2
BRANCH   1  11
ATOM     11  C   UNL     1      51.876   2.536 137.536  1.00  0.00     0.028 C 
BRANCH  11  12
ATOM     12  C   UNL     1      51.875   1.043 137.322  1.00  0.00    -0.028 C 
ATOM     13  C   UNL     1      51.909   0.129 138.320  1.00  0.00    -0.080 C 
ATOM     14  C   UNL     1      51.932  -1.340 137.990  1.00  0.00     0.039 C 
ATOM     15  C   UNL     1      51.876   0.529 139.775  1.00  0.00     0.039 C 
ENDBRANCH  11  12
ENDBRANCH   1  11
TORSDOF 4
ENDMDL
