MODEL 1
REMARK VINA RESULT:    -5.979      0.000      0.000
REMARK INTER + INTRA:          -6.430
REMARK INTER:                  -6.329
REMARK INTRA:                  -0.102
REMARK UNBOUND:                -0.102
REMARK SMILES C=C1CC[C@H](C(C)C)[C@@H]2C=C(C)CC[C@H]12
REMARK SMILES IDX 12 1 11 2 10 3 9 4 15 5 14 6 13 7 2 8 1 9 3 10 4 11 5 12
REMARK SMILES IDX 6 13 7 14 8 15
REMARK H PARENT
REMARK Flexibility Score: inf
ROOT
ATOM      1  C   UNL     1      -0.410  14.397  -0.245  1.00  0.00     0.039 C 
ATOM      2  C   UNL     1       0.140  14.087   1.120  1.00  0.00    -0.077 C 
ATOM      3  C   UNL     1       1.349  13.496   1.221  1.00  0.00    -0.024 C 
ATOM      4  C   UNL     1       1.993  13.121   2.539  1.00  0.00     0.022 C 
ATOM      5  C   UNL     1       1.050  13.274   3.769  1.00  0.00     0.022 C 
ATOM      6  C   UNL     1       0.130  14.500   3.616  1.00  0.00     0.013 C 
ATOM      7  C   UNL     1      -0.705  14.379   2.339  1.00  0.00     0.031 C 
ATOM      8  C   UNL     1       1.771  13.267   5.117  1.00  0.00    -0.074 C 
ATOM      9  C   UNL     1       1.051  13.147   6.245  1.00  0.00     0.008 C 
ATOM     10  C   UNL     1       3.280  13.377   5.248  1.00  0.00     0.031 C 
ATOM     11  C   UNL     1       4.031  13.033   3.959  1.00  0.00     0.009 C 
ATOM     12  C   UNL     1       3.418  13.733   2.728  1.00  0.00    -0.001 C 
ENDROOT
BRANCH  12  13
ATOM     13  C   UNL     1       3.523  15.304   2.814  1.00  0.00    -0.014 C 
ATOM     14  C   UNL     1       4.904  15.753   3.336  1.00  0.00     0.007 C 
ATOM     15  C   UNL     1       3.277  15.997   1.460  1.00  0.00     0.007 C 
ENDBRANCH  12  13
TORSDOF 1
ENDMDL
MODEL 2
REMARK VINA RESULT:    -5.171      1.389      3.877
REMARK INTER + INTRA:          -5.575
REMARK INTER:                  -5.481
REMARK INTRA:                  -0.095
REMARK UNBOUND:                -0.102
REMARK SMILES C=C1CC[C@H](C(C)C)[C@@H]2C=C(C)CC[C@H]12
REMARK SMILES IDX 12 1 11 2 10 3 9 4 15 5 14 6 13 7 2 8 1 9 3 10 4 11 5 12
REMARK SMILES IDX 6 13 7 14 8 15
REMARK H PARENT
REMARK Flexibility Score: inf
ROOT
ATOM      1  C   UNL     1      -1.530  11.630   6.489  1.00  0.00     0.039 C 
ATOM      2  C   UNL     1      -0.211  12.204   6.048  1.00  0.00    -0.077 C 
ATOM      3  C   UNL     1       0.272  11.877   4.831  1.00  0.00    -0.024 C 
ATOM      4  C   UNL     1       1.594  12.378   4.289  1.00  0.00     0.022 C 
ATOM      5  C   UNL     1       2.461  13.133   5.341  1.00  0.00     0.022 C 
ATOM      6  C   UNL     1       1.584  13.971   6.290  1.00  0.00     0.013 C 
ATOM      7  C   UNL     1       0.572  13.073   7.005  1.00  0.00     0.031 C 
ATOM      8  C   UNL     1       3.600  13.957   4.739  1.00  0.00    -0.074 C 
ATOM      9  C   UNL     1       4.553  14.448   5.549  1.00  0.00     0.008 C 
ATOM     10  C   UNL     1       3.717  14.244   3.253  1.00  0.00     0.031 C 
ATOM     11  C   UNL     1       2.902  13.285   2.381  1.00  0.00     0.009 C 
ATOM     12  C   UNL     1       1.465  13.100   2.910  1.00  0.00    -0.001 C 
ENDROOT
BRANCH  12  13
ATOM     13  C   UNL     1       0.633  14.439   2.872  1.00  0.00    -0.014 C 
ATOM     14  C   UNL     1       0.843  15.200   1.546  1.00  0.00     0.007 C 
ATOM     15  C   UNL     1      -0.880  14.211   3.057  1.00  0.00     0.007 C 
ENDBRANCH  12  13
TORSDOF 1
ENDMDL
MODEL 3
REMARK VINA RESULT:    -4.969      1.578      5.447
REMARK INTER + INTRA:          -5.361
REMARK INTER:                  -5.258
REMARK INTRA:                  -0.103
REMARK UNBOUND:                -0.102
REMARK SMILES C=C1CC[C@H](C(C)C)[C@@H]2C=C(C)CC[C@H]12
REMARK SMILES IDX 12 1 11 2 10 3 9 4 15 5 14 6 13 7 2 8 1 9 3 10 4 11 5 12
REMARK SMILES IDX 6 13 7 14 8 15
REMARK H PARENT
REMARK Flexibility Score: inf
ROOT
ATOM      1  C   UNL     1       2.999  13.386   4.125  1.00  0.00     0.039 C 
ATOM      2  C   UNL     1       2.621  13.996   2.803  1.00  0.00    -0.077 C 
ATOM      3  C   UNL     1       1.753  13.341   2.003  1.00  0.00    -0.024 C 
ATOM      4  C   UNL     1       1.316  13.849   0.646  1.00  0.00     0.022 C 
ATOM      5  C   UNL     1       2.118  15.087   0.146  1.00  0.00     0.022 C 
ATOM      6  C   UNL     1       2.466  16.033   1.310  1.00  0.00     0.013 C 
ATOM      7  C   UNL     1       3.277  15.288   2.373  1.00  0.00     0.031 C 
ATOM      8  C   UNL     1       1.461  15.831  -1.018  1.00  0.00    -0.074 C 
ATOM      9  C   UNL     1       2.169  16.758  -1.686  1.00  0.00     0.008 C 
ATOM     10  C   UNL     1       0.036  15.566  -1.470  1.00  0.00     0.031 C 
ATOM     11  C   UNL     1      -0.513  14.218  -0.997  1.00  0.00     0.009 C 
ATOM     12  C   UNL     1      -0.235  13.973   0.501  1.00  0.00    -0.001 C 
ENDROOT
BRANCH  12  13
ATOM     13  C   UNL     1      -0.964  15.020   1.428  1.00  0.00    -0.014 C 
ATOM     14  C   UNL     1      -2.363  15.380   0.885  1.00  0.00     0.007 C 
ATOM     15  C   UNL     1      -1.128  14.525   2.878  1.00  0.00     0.007 C 
ENDBRANCH  12  13
TORSDOF 1
ENDMDL
MODEL 4
REMARK VINA RESULT:    -4.916      1.487      4.477
REMARK INTER + INTRA:          -5.305
REMARK INTER:                  -5.334
REMARK INTRA:                   0.029
REMARK UNBOUND:                -0.102
REMARK SMILES C=C1CC[C@H](C(C)C)[C@@H]2C=C(C)CC[C@H]12
REMARK SMILES IDX 12 1 11 2 10 3 9 4 15 5 14 6 13 7 2 8 1 9 3 10 4 11 5 12
REMARK SMILES IDX 6 13 7 14 8 15
REMARK H PARENT
REMARK Flexibility Score: inf
ROOT
ATOM      1  C   UNL     1       3.125  13.374   5.237  1.00  0.00     0.039 C 
ATOM      2  C   UNL     1       2.529  13.421   3.857  1.00  0.00    -0.077 C 
ATOM      3  C   UNL     1       1.806  14.500   3.492  1.00  0.00    -0.024 C 
ATOM      4  C   UNL     1       1.144  14.649   2.138  1.00  0.00     0.022 C 
ATOM      5  C   UNL     1       1.184  13.355   1.271  1.00  0.00     0.022 C 
ATOM      6  C   UNL     1       2.507  12.593   1.466  1.00  0.00     0.013 C 
ATOM      7  C   UNL     1       2.696  12.230   2.941  1.00  0.00     0.031 C 
ATOM      8  C   UNL     1       0.869  13.582  -0.208  1.00  0.00    -0.074 C 
ATOM      9  C   UNL     1       0.635  12.521  -0.999  1.00  0.00     0.008 C 
ATOM     10  C   UNL     1       0.795  14.963  -0.835  1.00  0.00     0.031 C 
ATOM     11  C   UNL     1       0.599  16.087   0.186  1.00  0.00     0.009 C 
ATOM     12  C   UNL     1       1.561  15.953   1.386  1.00  0.00    -0.001 C 
ENDROOT
BRANCH  12  13
ATOM     13  C   UNL     1       3.074  16.090   0.963  1.00  0.00    -0.014 C 
ATOM     14  C   UNL     1       3.220  16.798  -0.401  1.00  0.00     0.007 C 
ATOM     15  C   UNL     1       3.916  16.864   1.995  1.00  0.00     0.007 C 
ENDBRANCH  12  13
TORSDOF 1
ENDMDL
MODEL 5
REMARK VINA RESULT:    -4.745      1.579      2.639
REMARK INTER + INTRA:          -5.124
REMARK INTER:                  -5.021
REMARK INTRA:                  -0.103
REMARK UNBOUND:                -0.102
REMARK SMILES C=C1CC[C@H](C(C)C)[C@@H]2C=C(C)CC[C@H]12
REMARK SMILES IDX 12 1 11 2 10 3 9 4 15 5 14 6 13 7 2 8 1 9 3 10 4 11 5 12
REMARK SMILES IDX 6 13 7 14 8 15
REMARK H PARENT
REMARK Flexibility Score: inf
ROOT
ATOM      1  C   UNL     1      -2.168  15.212  -2.041  1.00  0.00     0.039 C 
ATOM      2  C   UNL     1      -1.677  14.899  -0.654  1.00  0.00    -0.077 C 
ATOM      3  C   UNL     1      -0.563  14.154  -0.506  1.00  0.00    -0.024 C 
ATOM      4  C   UNL     1       0.012  13.761   0.839  1.00  0.00     0.022 C 
ATOM      5  C   UNL     1      -0.911  14.105   2.045  1.00  0.00     0.022 C 
ATOM      6  C   UNL     1      -1.652  15.436   1.818  1.00  0.00     0.013 C 
ATOM      7  C   UNL     1      -2.484  15.367   0.536  1.00  0.00     0.031 C 
ATOM      8  C   UNL     1      -0.209  14.067   3.403  1.00  0.00    -0.074 C 
ATOM      9  C   UNL     1      -0.949  14.105   4.524  1.00  0.00     0.008 C 
ATOM     10  C   UNL     1       1.298  13.975   3.552  1.00  0.00     0.031 C 
ATOM     11  C   UNL     1       2.006  13.466   2.293  1.00  0.00     0.009 C 
ATOM     12  C   UNL     1       1.506  14.180   1.019  1.00  0.00    -0.001 C 
ENDROOT
BRANCH  12  13
ATOM     13  C   UNL     1       1.826  15.724   1.030  1.00  0.00    -0.014 C 
ATOM     14  C   UNL     1       3.187  16.016   1.698  1.00  0.00     0.007 C 
ATOM     15  C   UNL     1       1.845  16.342  -0.381  1.00  0.00     0.007 C 
ENDBRANCH  12  13
TORSDOF 1
ENDMDL
MODEL 6
REMARK VINA RESULT:    -4.675      2.014      4.622
REMARK INTER + INTRA:          -5.050
REMARK INTER:                  -4.964
REMARK INTRA:                  -0.087
REMARK UNBOUND:                -0.102
REMARK SMILES C=C1CC[C@H](C(C)C)[C@@H]2C=C(C)CC[C@H]12
REMARK SMILES IDX 12 1 11 2 10 3 9 4 15 5 14 6 13 7 2 8 1 9 3 10 4 11 5 12
REMARK SMILES IDX 6 13 7 14 8 15
REMARK H PARENT
REMARK Flexibility Score: inf
ROOT
ATOM      1  C   UNL     1      -4.284  16.026   2.386  1.00  0.00     0.039 C 
ATOM      2  C   UNL     1      -3.162  15.330   1.665  1.00  0.00    -0.077 C 
ATOM      3  C   UNL     1      -1.910  15.820   1.773  1.00  0.00    -0.024 C 
ATOM      4  C   UNL     1      -0.708  15.215   1.078  1.00  0.00     0.022 C 
ATOM      5  C   UNL     1      -1.069  14.103   0.047  1.00  0.00     0.022 C 
ATOM      6  C   UNL     1      -2.258  13.255   0.535  1.00  0.00     0.013 C 
ATOM      7  C   UNL     1      -3.478  14.145   0.781  1.00  0.00     0.031 C 
ATOM      8  C   UNL     1       0.115  13.235  -0.379  1.00  0.00    -0.074 C 
ATOM      9  C   UNL     1      -0.020  12.413  -1.433  1.00  0.00     0.008 C 
ATOM     10  C   UNL     1       1.458  13.263   0.330  1.00  0.00     0.031 C 
ATOM     11  C   UNL     1       1.676  14.521   1.174  1.00  0.00     0.009 C 
ATOM     12  C   UNL     1       0.452  14.846   2.056  1.00  0.00    -0.001 C 
ENDROOT
BRANCH  12  13
ATOM     13  C   UNL     1       0.166  13.723   3.125  1.00  0.00    -0.014 C 
ATOM     14  C   UNL     1       1.463  13.262   3.825  1.00  0.00     0.007 C 
ATOM     15  C   UNL     1      -0.829  14.171   4.213  1.00  0.00     0.007 C 
ENDBRANCH  12  13
TORSDOF 1
ENDMDL
MODEL 7
REMARK VINA RESULT:    -4.656      1.529      4.465
REMARK INTER + INTRA:          -5.030
REMARK INTER:                  -4.962
REMARK INTRA:                  -0.068
REMARK UNBOUND:                -0.102
REMARK SMILES C=C1CC[C@H](C(C)C)[C@@H]2C=C(C)CC[C@H]12
REMARK SMILES IDX 12 1 11 2 10 3 9 4 15 5 14 6 13 7 2 8 1 9 3 10 4 11 5 12
REMARK SMILES IDX 6 13 7 14 8 15
REMARK H PARENT
REMARK Flexibility Score: inf
ROOT
ATOM      1  C   UNL     1       4.026  12.623   3.511  1.00  0.00     0.039 C 
ATOM      2  C   UNL     1       2.644  13.208   3.420  1.00  0.00    -0.077 C 
ATOM      3  C   UNL     1       2.405  14.189   2.525  1.00  0.00    -0.024 C 
ATOM      4  C   UNL     1       1.060  14.865   2.358  1.00  0.00     0.022 C 
ATOM      5  C   UNL     1       0.023  14.487   3.457  1.00  0.00     0.022 C 
ATOM      6  C   UNL     1       0.162  13.009   3.870  1.00  0.00     0.013 C 
ATOM      7  C   UNL     1       1.578  12.734   4.381  1.00  0.00     0.031 C 
ATOM      8  C   UNL     1      -1.421  14.848   3.108  1.00  0.00    -0.074 C 
ATOM      9  C   UNL     1      -2.361  14.795   4.067  1.00  0.00     0.008 C 
ATOM     10  C   UNL     1      -1.852  15.281   1.718  1.00  0.00     0.031 C 
ATOM     11  C   UNL     1      -0.692  15.766   0.843  1.00  0.00     0.009 C 
ATOM     12  C   UNL     1       0.514  14.804   0.896  1.00  0.00    -0.001 C 
ENDROOT
BRANCH  12  13
ATOM     13  C   UNL     1       0.174  13.380   0.311  1.00  0.00    -0.014 C 
ATOM     14  C   UNL     1      -0.913  13.460  -0.782  1.00  0.00     0.007 C 
ATOM     15  C   UNL     1       1.403  12.670  -0.289  1.00  0.00     0.007 C 
ENDBRANCH  12  13
TORSDOF 1
ENDMDL
MODEL 8
REMARK VINA RESULT:    -4.526      1.751      5.329
REMARK INTER + INTRA:          -4.893
REMARK INTER:                  -4.819
REMARK INTRA:                  -0.074
REMARK UNBOUND:                -0.102
REMARK SMILES C=C1CC[C@H](C(C)C)[C@@H]2C=C(C)CC[C@H]12
REMARK SMILES IDX 12 1 11 2 10 3 9 4 15 5 14 6 13 7 2 8 1 9 3 10 4 11 5 12
REMARK SMILES IDX 6 13 7 14 8 15
REMARK H PARENT
REMARK Flexibility Score: inf
ROOT
ATOM      1  C   UNL     1       3.038  13.935   2.789  1.00  0.00     0.039 C 
ATOM      2  C   UNL     1       1.621  14.348   2.497  1.00  0.00    -0.077 C 
ATOM      3  C   UNL     1       1.350  14.980   1.336  1.00  0.00    -0.024 C 
ATOM      4  C   UNL     1      -0.032  15.459   0.944  1.00  0.00     0.022 C 
ATOM      5  C   UNL     1      -1.085  15.356   2.088  1.00  0.00     0.022 C 
ATOM      6  C   UNL     1      -0.856  14.096   2.944  1.00  0.00     0.013 C 
ATOM      7  C   UNL     1       0.554  14.110   3.540  1.00  0.00     0.031 C 
ATOM      8  C   UNL     1      -2.535  15.472   1.619  1.00  0.00    -0.074 C 
ATOM      9  C   UNL     1      -3.507  15.642   2.530  1.00  0.00     0.008 C 
ATOM     10  C   UNL     1      -2.937  15.416   0.156  1.00  0.00     0.031 C 
ATOM     11  C   UNL     1      -1.781  15.699  -0.806  1.00  0.00     0.009 C 
ATOM     12  C   UNL     1      -0.511  14.903  -0.435  1.00  0.00    -0.001 C 
ENDROOT
BRANCH  12  13
ATOM     13  C   UNL     1      -0.723  13.345  -0.552  1.00  0.00    -0.014 C 
ATOM     14  C   UNL     1      -1.747  12.991  -1.651  1.00  0.00     0.007 C 
ATOM     15  C   UNL     1       0.583  12.584  -0.854  1.00  0.00     0.007 C 
ENDBRANCH  12  13
TORSDOF 1
ENDMDL
