MODEL 1
REMARK VINA RESULT:    -5.883      0.000      0.000
REMARK INTER + INTRA:          -6.262
REMARK INTER:                  -6.227
REMARK INTRA:                  -0.035
REMARK UNBOUND:                -0.035
REMARK SMILES COc1ccc2ccc(=O)oc2c1
REMARK SMILES IDX 3 1 13 2 12 3 6 4 5 5 4 6 7 7 8 8 9 9 10 10 11 11 2 12 1 13
REMARK H PARENT
REMARK Flexibility Score: inf
ROOT
ATOM      1  C   UNL     1       7.271   6.116  10.945  1.00  0.00     0.122 A 
ATOM      2  C   UNL     1       8.046   5.084  11.490  1.00  0.00     0.094 A 
ATOM      3  C   UNL     1       7.824   3.755  11.114  1.00  0.00     0.142 A 
ATOM      4  C   UNL     1       6.811   3.449  10.181  1.00  0.00     0.018 A 
ATOM      5  C   UNL     1       6.032   4.477   9.634  1.00  0.00     0.016 A 
ATOM      6  C   UNL     1       6.260   5.803  10.013  1.00  0.00     0.047 A 
ATOM      7  C   UNL     1       6.612   2.111   9.826  1.00  0.00     0.019 A 
ATOM      8  C   UNL     1       7.413   1.125  10.400  1.00  0.00     0.094 A 
ATOM      9  C   UNL     1       8.399   1.502  11.319  1.00  0.00     0.336 A 
ATOM     10  O   UNL     1       9.132   0.626  11.847  1.00  0.00    -0.246 OA
ATOM     11  O   UNL     1       8.566   2.783  11.639  1.00  0.00    -0.423 OA
ENDROOT
BRANCH   1  12
ATOM     12  O   UNL     1       7.535   7.431  11.354  1.00  0.00    -0.497 OA
ATOM     13  C   UNL     1       7.084   8.593  10.665  1.00  0.00     0.278 C 
ENDBRANCH   1  12
TORSDOF 1
ENDMDL
MODEL 2
REMARK VINA RESULT:    -5.732      1.003      4.801
REMARK INTER + INTRA:          -6.102
REMARK INTER:                  -6.069
REMARK INTRA:                  -0.033
REMARK UNBOUND:                -0.035
REMARK SMILES COc1ccc2ccc(=O)oc2c1
REMARK SMILES IDX 3 1 13 2 12 3 6 4 5 5 4 6 7 7 8 8 9 9 10 10 11 11 2 12 1 13
REMARK H PARENT
REMARK Flexibility Score: inf
ROOT
ATOM      1  C   UNL     1       8.353   1.561  11.367  1.00  0.00     0.122 A 
ATOM      2  C   UNL     1       8.505   2.910  11.715  1.00  0.00     0.094 A 
ATOM      3  C   UNL     1       7.730   3.895  11.095  1.00  0.00     0.142 A 
ATOM      4  C   UNL     1       6.787   3.531  10.111  1.00  0.00     0.018 A 
ATOM      5  C   UNL     1       6.631   2.184   9.758  1.00  0.00     0.016 A 
ATOM      6  C   UNL     1       7.409   1.204  10.382  1.00  0.00     0.047 A 
ATOM      7  C   UNL     1       6.027   4.539   9.509  1.00  0.00     0.019 A 
ATOM      8  C   UNL     1       6.221   5.864   9.895  1.00  0.00     0.094 A 
ATOM      9  C   UNL     1       7.174   6.152  10.878  1.00  0.00     0.336 A 
ATOM     10  O   UNL     1       7.363   7.342  11.240  1.00  0.00    -0.246 OA
ATOM     11  O   UNL     1       7.884   5.173  11.435  1.00  0.00    -0.423 OA
ENDROOT
BRANCH   1  12
ATOM     12  O   UNL     1       9.155   0.613  12.019  1.00  0.00    -0.497 OA
ATOM     13  C   UNL     1      10.212  -0.109  11.396  1.00  0.00     0.278 C 
ENDBRANCH   1  12
TORSDOF 1
ENDMDL
MODEL 3
REMARK VINA RESULT:    -5.602     10.175     12.222
REMARK INTER + INTRA:          -5.965
REMARK INTER:                  -5.929
REMARK INTRA:                  -0.036
REMARK UNBOUND:                -0.035
REMARK SMILES COc1ccc2ccc(=O)oc2c1
REMARK SMILES IDX 3 1 13 2 12 3 6 4 5 5 4 6 7 7 8 8 9 9 10 10 11 11 2 12 1 13
REMARK H PARENT
REMARK Flexibility Score: inf
ROOT
ATOM      1  C   UNL     1      10.739  -1.766  19.253  1.00  0.00     0.122 A 
ATOM      2  C   UNL     1       9.537  -2.460  19.446  1.00  0.00     0.094 A 
ATOM      3  C   UNL     1       9.538  -3.849  19.611  1.00  0.00     0.142 A 
ATOM      4  C   UNL     1      10.757  -4.559  19.583  1.00  0.00     0.018 A 
ATOM      5  C   UNL     1      11.961  -3.870  19.389  1.00  0.00     0.016 A 
ATOM      6  C   UNL     1      11.953  -2.481  19.226  1.00  0.00     0.047 A 
ATOM      7  C   UNL     1      10.726  -5.947  19.750  1.00  0.00     0.019 A 
ATOM      8  C   UNL     1       9.501  -6.585  19.939  1.00  0.00     0.094 A 
ATOM      9  C   UNL     1       8.332  -5.818  19.956  1.00  0.00     0.336 A 
ATOM     10  O   UNL     1       7.216  -6.376  20.125  1.00  0.00    -0.246 OA
ATOM     11  O   UNL     1       8.390  -4.498  19.793  1.00  0.00    -0.423 OA
ENDROOT
BRANCH   1  12
ATOM     12  O   UNL     1      10.682  -0.374  19.093  1.00  0.00    -0.497 OA
ATOM     13  C   UNL     1      11.805   0.446  18.784  1.00  0.00     0.278 C 
ENDBRANCH   1  12
TORSDOF 1
ENDMDL
MODEL 4
REMARK VINA RESULT:    -5.559      1.626      2.258
REMARK INTER + INTRA:          -5.919
REMARK INTER:                  -5.884
REMARK INTRA:                  -0.035
REMARK UNBOUND:                -0.035
REMARK SMILES COc1ccc2ccc(=O)oc2c1
REMARK SMILES IDX 3 1 13 2 12 3 6 4 5 5 4 6 7 7 8 8 9 9 10 10 11 11 2 12 1 13
REMARK H PARENT
REMARK Flexibility Score: inf
ROOT
ATOM      1  C   UNL     1       6.625   6.137  10.512  1.00  0.00     0.122 A 
ATOM      2  C   UNL     1       6.161   4.938   9.955  1.00  0.00     0.094 A 
ATOM      3  C   UNL     1       6.791   3.725  10.254  1.00  0.00     0.142 A 
ATOM      4  C   UNL     1       7.902   3.707  11.122  1.00  0.00     0.018 A 
ATOM      5  C   UNL     1       8.371   4.902  11.682  1.00  0.00     0.016 A 
ATOM      6  C   UNL     1       7.736   6.111  11.379  1.00  0.00     0.047 A 
ATOM      7  C   UNL     1       8.512   2.479  11.402  1.00  0.00     0.019 A 
ATOM      8  C   UNL     1       8.007   1.318  10.819  1.00  0.00     0.094 A 
ATOM      9  C   UNL     1       6.901   1.411   9.967  1.00  0.00     0.336 A 
ATOM     10  O   UNL     1       6.431   0.374   9.431  1.00  0.00    -0.246 OA
ATOM     11  O   UNL     1       6.341   2.593   9.718  1.00  0.00    -0.423 OA
ENDROOT
BRANCH   1  12
ATOM     12  O   UNL     1       5.957   7.325  10.180  1.00  0.00    -0.497 OA
ATOM     13  C   UNL     1       5.894   7.871   8.866  1.00  0.00     0.278 C 
ENDBRANCH   1  12
TORSDOF 1
ENDMDL
MODEL 5
REMARK VINA RESULT:    -5.320     11.074     12.409
REMARK INTER + INTRA:          -5.666
REMARK INTER:                  -5.632
REMARK INTRA:                  -0.034
REMARK UNBOUND:                -0.035
REMARK SMILES COc1ccc2ccc(=O)oc2c1
REMARK SMILES IDX 3 1 13 2 12 3 6 4 5 5 4 6 7 7 8 8 9 9 10 10 11 11 2 12 1 13
REMARK H PARENT
REMARK Flexibility Score: inf
ROOT
ATOM      1  C   UNL     1      12.330  -2.111  18.998  1.00  0.00     0.122 A 
ATOM      2  C   UNL     1      12.313  -3.503  19.160  1.00  0.00     0.094 A 
ATOM      3  C   UNL     1      11.116  -4.171  19.444  1.00  0.00     0.142 A 
ATOM      4  C   UNL     1       9.917  -3.438  19.570  1.00  0.00     0.018 A 
ATOM      5  C   UNL     1       9.928  -2.047  19.411  1.00  0.00     0.016 A 
ATOM      6  C   UNL     1      11.127  -1.386  19.126  1.00  0.00     0.047 A 
ATOM      7  C   UNL     1       8.737  -4.134  19.855  1.00  0.00     0.019 A 
ATOM      8  C   UNL     1       8.780  -5.519  20.006  1.00  0.00     0.094 A 
ATOM      9  C   UNL     1      10.005  -6.179  19.867  1.00  0.00     0.336 A 
ATOM     10  O   UNL     1      10.064  -7.430  19.999  1.00  0.00    -0.246 OA
ATOM     11  O   UNL     1      11.113  -5.493  19.596  1.00  0.00    -0.423 OA
ENDROOT
BRANCH   1  12
ATOM     12  O   UNL     1      13.555  -1.492  18.714  1.00  0.00    -0.497 OA
ATOM     13  C   UNL     1      14.600  -1.305  19.663  1.00  0.00     0.278 C 
ENDBRANCH   1  12
TORSDOF 1
ENDMDL
MODEL 6
REMARK VINA RESULT:    -5.225     10.493     12.538
REMARK INTER + INTRA:          -5.565
REMARK INTER:                  -5.531
REMARK INTRA:                  -0.034
REMARK UNBOUND:                -0.035
REMARK SMILES COc1ccc2ccc(=O)oc2c1
REMARK SMILES IDX 3 1 13 2 12 3 6 4 5 5 4 6 7 7 8 8 9 9 10 10 11 11 2 12 1 13
REMARK H PARENT
REMARK Flexibility Score: inf
ROOT
ATOM      1  C   UNL     1       9.094  -4.566  19.816  1.00  0.00     0.122 A 
ATOM      2  C   UNL     1       9.244  -3.191  19.594  1.00  0.00     0.094 A 
ATOM      3  C   UNL     1      10.498  -2.655  19.282  1.00  0.00     0.142 A 
ATOM      4  C   UNL     1      11.622  -3.503  19.192  1.00  0.00     0.018 A 
ATOM      5  C   UNL     1      11.478  -4.878  19.415  1.00  0.00     0.016 A 
ATOM      6  C   UNL     1      10.221  -5.408  19.725  1.00  0.00     0.047 A 
ATOM      7  C   UNL     1      12.862  -2.937  18.880  1.00  0.00     0.019 A 
ATOM      8  C   UNL     1      12.952  -1.563  18.668  1.00  0.00     0.094 A 
ATOM      9  C   UNL     1      11.796  -0.782  18.775  1.00  0.00     0.336 A 
ATOM     10  O   UNL     1      11.858   0.461  18.587  1.00  0.00    -0.246 OA
ATOM     11  O   UNL     1      10.628  -1.347  19.074  1.00  0.00    -0.423 OA
ENDROOT
BRANCH   1  12
ATOM     12  O   UNL     1       7.815  -5.053  20.125  1.00  0.00    -0.497 OA
ATOM     13  C   UNL     1       7.367  -6.374  19.838  1.00  0.00     0.278 C 
ENDBRANCH   1  12
TORSDOF 1
ENDMDL
MODEL 7
REMARK VINA RESULT:    -5.127      9.566     12.138
REMARK INTER + INTRA:          -5.462
REMARK INTER:                  -5.421
REMARK INTRA:                  -0.041
REMARK UNBOUND:                -0.035
REMARK SMILES COc1ccc2ccc(=O)oc2c1
REMARK SMILES IDX 3 1 13 2 12 3 6 4 5 5 4 6 7 7 8 8 9 9 10 10 11 11 2 12 1 13
REMARK H PARENT
REMARK Flexibility Score: inf
ROOT
ATOM      1  C   UNL     1      11.180  -4.436  19.435  1.00  0.00     0.122 A 
ATOM      2  C   UNL     1       9.991  -3.794  19.806  1.00  0.00     0.094 A 
ATOM      3  C   UNL     1       9.740  -2.478  19.406  1.00  0.00     0.142 A 
ATOM      4  C   UNL     1      10.690  -1.788  18.623  1.00  0.00     0.018 A 
ATOM      5  C   UNL     1      11.881  -2.424  18.251  1.00  0.00     0.016 A 
ATOM      6  C   UNL     1      12.126  -3.741  18.654  1.00  0.00     0.047 A 
ATOM      7  C   UNL     1      10.411  -0.473  18.239  1.00  0.00     0.019 A 
ATOM      8  C   UNL     1       9.211   0.115  18.636  1.00  0.00     0.094 A 
ATOM      9  C   UNL     1       8.315  -0.628  19.412  1.00  0.00     0.336 A 
ATOM     10  O   UNL     1       7.227  -0.115  19.781  1.00  0.00    -0.246 OA
ATOM     11  O   UNL     1       8.606  -1.879  19.764  1.00  0.00    -0.423 OA
ENDROOT
BRANCH   1  12
ATOM     12  O   UNL     1      11.383  -5.756  19.862  1.00  0.00    -0.497 OA
ATOM     13  C   UNL     1      10.335  -6.685  20.125  1.00  0.00     0.278 C 
ENDBRANCH   1  12
TORSDOF 1
ENDMDL
MODEL 8
REMARK VINA RESULT:    -4.903      9.883     11.844
REMARK INTER + INTRA:          -5.225
REMARK INTER:                  -5.190
REMARK INTRA:                  -0.034
REMARK UNBOUND:                -0.035
REMARK SMILES COc1ccc2ccc(=O)oc2c1
REMARK SMILES IDX 3 1 13 2 12 3 6 4 5 5 4 6 7 7 8 8 9 9 10 10 11 11 2 12 1 13
REMARK H PARENT
REMARK Flexibility Score: inf
ROOT
ATOM      1  C   UNL     1       9.670  -1.257  19.765  1.00  0.00     0.122 A 
ATOM      2  C   UNL     1      10.578  -2.323  19.826  1.00  0.00     0.094 A 
ATOM      3  C   UNL     1      10.123  -3.646  19.802  1.00  0.00     0.142 A 
ATOM      4  C   UNL     1       8.740  -3.911  19.716  1.00  0.00     0.018 A 
ATOM      5  C   UNL     1       7.828  -2.849  19.656  1.00  0.00     0.016 A 
ATOM      6  C   UNL     1       8.290  -1.529  19.680  1.00  0.00     0.047 A 
ATOM      7  C   UNL     1       8.315  -5.243  19.695  1.00  0.00     0.019 A 
ATOM      8  C   UNL     1       9.263  -6.263  19.758  1.00  0.00     0.094 A 
ATOM      9  C   UNL     1      10.618  -5.927  19.842  1.00  0.00     0.336 A 
ATOM     10  O   UNL     1      11.489  -6.834  19.900  1.00  0.00    -0.246 OA
ATOM     11  O   UNL     1      10.995  -4.650  19.861  1.00  0.00    -0.423 OA
ENDROOT
BRANCH   1  12
ATOM     12  O   UNL     1      10.179   0.050  19.792  1.00  0.00    -0.497 OA
ATOM     13  C   UNL     1      10.865   0.667  18.708  1.00  0.00     0.278 C 
ENDBRANCH   1  12
TORSDOF 1
ENDMDL
MODEL 9
REMARK VINA RESULT:    -4.765     16.103     18.211
REMARK INTER + INTRA:          -5.079
REMARK INTER:                  -5.039
REMARK INTRA:                  -0.040
REMARK UNBOUND:                -0.035
REMARK SMILES COc1ccc2ccc(=O)oc2c1
REMARK SMILES IDX 3 1 13 2 12 3 6 4 5 5 4 6 7 7 8 8 9 9 10 10 11 11 2 12 1 13
REMARK H PARENT
REMARK Flexibility Score: inf
ROOT
ATOM      1  C   UNL     1      18.918  -5.265  19.338  1.00  0.00     0.122 A 
ATOM      2  C   UNL     1      19.741  -5.993  18.468  1.00  0.00     0.094 A 
ATOM      3  C   UNL     1      19.625  -7.384  18.378  1.00  0.00     0.142 A 
ATOM      4  C   UNL     1      18.672  -8.062  19.168  1.00  0.00     0.018 A 
ATOM      5  C   UNL     1      17.847  -7.339  20.039  1.00  0.00     0.016 A 
ATOM      6  C   UNL     1      17.968  -5.949  20.124  1.00  0.00     0.047 A 
ATOM      7  C   UNL     1      18.579  -9.453  19.056  1.00  0.00     0.019 A 
ATOM      8  C   UNL     1      19.424 -10.125  18.174  1.00  0.00     0.094 A 
ATOM      9  C   UNL     1      20.345  -9.388  17.422  1.00  0.00     0.336 A 
ATOM     10  O   UNL     1      21.117  -9.977  16.620  1.00  0.00    -0.246 OA
ATOM     11  O   UNL     1      20.413  -8.065  17.548  1.00  0.00    -0.423 OA
ENDROOT
BRANCH   1  12
ATOM     12  O   UNL     1      19.075  -3.872  19.390  1.00  0.00    -0.497 OA
ATOM     13  C   UNL     1      19.336  -3.051  18.256  1.00  0.00     0.278 C 
ENDBRANCH   1  12
TORSDOF 1
ENDMDL
