MODEL 1
REMARK VINA RESULT:    -4.428      0.000      0.000
REMARK INTER + INTRA:          -5.229
REMARK INTER:                  -5.076
REMARK INTRA:                  -0.154
REMARK UNBOUND:                -0.154
REMARK SMILES CC=Cc1ccc(O)c(OC)c1
REMARK SMILES IDX 4 1 12 2 9 3 7 4 6 5 5 6 3 7 1 8 2 9 10 10 11 11 8 12
REMARK H PARENT 8 13
REMARK Flexibility Score: inf
ROOT
ATOM      1  C   UNL     1      10.547  32.384  43.155  1.00  0.00    -0.022 A 
ATOM      2  C   UNL     1      11.016  31.968  41.898  1.00  0.00     0.058 A 
ATOM      3  C   UNL     1      12.320  32.288  41.470  1.00  0.00     0.161 A 
ATOM      4  C   UNL     1      13.154  33.043  42.313  1.00  0.00     0.157 A 
ATOM      5  C   UNL     1      12.685  33.471  43.557  1.00  0.00     0.051 A 
ATOM      6  C   UNL     1      11.393  33.151  43.978  1.00  0.00     0.012 A 
ENDROOT
BRANCH   1   7
ATOM      7  C   UNL     1       9.162  32.027  43.550  1.00  0.00     0.003 C 
ATOM      8  C   UNL     1       6.719  31.875  43.264  1.00  0.00     0.035 C 
ATOM      9  C   UNL     1       8.086  32.252  42.788  1.00  0.00    -0.030 C 
ENDBRANCH   1   7
BRANCH   3  10
ATOM     10  O   UNL     1      12.815  31.875  40.221  1.00  0.00    -0.493 OA
ATOM     11  C   UNL     1      12.076  31.915  39.005  1.00  0.00     0.278 C 
ENDBRANCH   3  10
BRANCH   4  12
ATOM     12  O   UNL     1      14.451  33.382  41.929  1.00  0.00    -0.504 OA
ATOM     13  H   UNL     1      14.677  34.282  41.523  1.00  0.00     0.293 HD
ENDBRANCH   4  12
TORSDOF 3
ENDMDL
MODEL 2
REMARK VINA RESULT:    -3.276      8.048     10.680
REMARK INTER + INTRA:          -3.909
REMARK INTER:                  -3.739
REMARK INTRA:                  -0.170
REMARK UNBOUND:                -0.154
REMARK SMILES CC=Cc1ccc(O)c(OC)c1
REMARK SMILES IDX 4 1 12 2 9 3 7 4 6 5 5 6 3 7 1 8 2 9 10 10 11 11 8 12
REMARK H PARENT 8 13
REMARK Flexibility Score: inf
ROOT
ATOM      1  C   UNL     1      21.657  33.986  40.735  1.00  0.00    -0.022 A 
ATOM      2  C   UNL     1      20.516  33.202  40.976  1.00  0.00     0.058 A 
ATOM      3  C   UNL     1      19.569  32.971  39.958  1.00  0.00     0.161 A 
ATOM      4  C   UNL     1      19.769  33.546  38.691  1.00  0.00     0.157 A 
ATOM      5  C   UNL     1      20.893  34.339  38.453  1.00  0.00     0.051 A 
ATOM      6  C   UNL     1      21.830  34.565  39.464  1.00  0.00     0.012 A 
ENDROOT
BRANCH   1   7
ATOM      7  C   UNL     1      22.616  34.203  41.846  1.00  0.00     0.003 C 
ATOM      8  C   UNL     1      23.611  35.425  43.740  1.00  0.00     0.035 C 
ATOM      9  C   UNL     1      22.599  35.273  42.650  1.00  0.00    -0.030 C 
ENDBRANCH   1   7
BRANCH   3  10
ATOM     10  O   UNL     1      18.426  32.183  40.171  1.00  0.00    -0.493 OA
ATOM     11  C   UNL     1      17.241  32.633  40.819  1.00  0.00     0.278 C 
ENDBRANCH   3  10
BRANCH   4  12
ATOM     12  O   UNL     1      18.857  33.344  37.655  1.00  0.00    -0.504 OA
ATOM     13  H   UNL     1      19.150  33.235  36.691  1.00  0.00     0.293 HD
ENDBRANCH   4  12
TORSDOF 3
ENDMDL
MODEL 3
REMARK VINA RESULT:    -3.237      8.420     10.724
REMARK INTER + INTRA:          -3.864
REMARK INTER:                  -3.698
REMARK INTRA:                  -0.166
REMARK UNBOUND:                -0.154
REMARK SMILES CC=Cc1ccc(O)c(OC)c1
REMARK SMILES IDX 4 1 12 2 9 3 7 4 6 5 5 6 3 7 1 8 2 9 10 10 11 11 8 12
REMARK H PARENT 8 13
REMARK Flexibility Score: inf
ROOT
ATOM      1  C   UNL     1      21.298  33.820  41.003  1.00  0.00    -0.022 A 
ATOM      2  C   UNL     1      21.373  34.138  39.636  1.00  0.00     0.058 A 
ATOM      3  C   UNL     1      20.291  33.876  38.772  1.00  0.00     0.161 A 
ATOM      4  C   UNL     1      19.129  33.278  39.288  1.00  0.00     0.157 A 
ATOM      5  C   UNL     1      19.057  32.946  40.643  1.00  0.00     0.051 A 
ATOM      6  C   UNL     1      20.130  33.208  41.496  1.00  0.00     0.012 A 
ENDROOT
BRANCH   1   7
ATOM      7  C   UNL     1      22.471  34.110  41.864  1.00  0.00     0.003 C 
ATOM      8  C   UNL     1      23.814  35.437  43.448  1.00  0.00     0.035 C 
ATOM      9  C   UNL     1      22.592  35.211  42.617  1.00  0.00    -0.030 C 
ENDBRANCH   1   7
BRANCH   3  10
ATOM     10  O   UNL     1      20.339  34.194  37.404  1.00  0.00    -0.493 OA
ATOM     11  C   UNL     1      20.928  33.372  36.403  1.00  0.00     0.278 C 
ENDBRANCH   3  10
BRANCH   4  12
ATOM     12  O   UNL     1      18.035  33.001  38.469  1.00  0.00    -0.504 OA
ATOM     13  H   UNL     1      17.106  33.350  38.672  1.00  0.00     0.293 HD
ENDBRANCH   4  12
TORSDOF 3
ENDMDL
MODEL 4
REMARK VINA RESULT:    -3.131      6.823      8.561
REMARK INTER + INTRA:          -3.743
REMARK INTER:                  -3.582
REMARK INTRA:                  -0.161
REMARK UNBOUND:                -0.154
REMARK SMILES CC=Cc1ccc(O)c(OC)c1
REMARK SMILES IDX 4 1 12 2 9 3 7 4 6 5 5 6 3 7 1 8 2 9 10 10 11 11 8 12
REMARK H PARENT 8 13
REMARK Flexibility Score: inf
ROOT
ATOM      1  C   UNL     1      18.832  32.752  40.855  1.00  0.00    -0.022 A 
ATOM      2  C   UNL     1      19.036  33.321  39.586  1.00  0.00     0.058 A 
ATOM      3  C   UNL     1      20.267  33.920  39.251  1.00  0.00     0.161 A 
ATOM      4  C   UNL     1      21.296  33.955  40.207  1.00  0.00     0.157 A 
ATOM      5  C   UNL     1      21.092  33.405  41.475  1.00  0.00     0.051 A 
ATOM      6  C   UNL     1      19.871  32.812  41.802  1.00  0.00     0.012 A 
ENDROOT
BRANCH   1   7
ATOM      7  C   UNL     1      17.513  32.143  41.156  1.00  0.00     0.003 C 
ATOM      8  C   UNL     1      15.052  32.020  41.165  1.00  0.00     0.035 C 
ATOM      9  C   UNL     1      16.341  32.691  40.812  1.00  0.00    -0.030 C 
ENDBRANCH   1   7
BRANCH   3  10
ATOM     10  O   UNL     1      20.499  34.485  37.986  1.00  0.00    -0.493 OA
ATOM     11  C   UNL     1      20.333  33.799  36.750  1.00  0.00     0.278 C 
ENDBRANCH   3  10
BRANCH   4  12
ATOM     12  O   UNL     1      22.530  34.538  39.918  1.00  0.00    -0.504 OA
ATOM     13  H   UNL     1      23.116  34.213  39.158  1.00  0.00     0.293 HD
ENDBRANCH   4  12
TORSDOF 3
ENDMDL
MODEL 5
REMARK VINA RESULT:    -3.124      5.291      6.805
REMARK INTER + INTRA:          -3.735
REMARK INTER:                  -3.576
REMARK INTRA:                  -0.159
REMARK UNBOUND:                -0.154
REMARK SMILES CC=Cc1ccc(O)c(OC)c1
REMARK SMILES IDX 4 1 12 2 9 3 7 4 6 5 5 6 3 7 1 8 2 9 10 10 11 11 8 12
REMARK H PARENT 8 13
REMARK Flexibility Score: inf
ROOT
ATOM      1  C   UNL     1      16.771  32.258  40.239  1.00  0.00    -0.022 A 
ATOM      2  C   UNL     1      17.074  32.227  38.867  1.00  0.00     0.058 A 
ATOM      3  C   UNL     1      18.354  32.588  38.400  1.00  0.00     0.161 A 
ATOM      4  C   UNL     1      19.332  32.995  39.325  1.00  0.00     0.157 A 
ATOM      5  C   UNL     1      19.029  33.042  40.687  1.00  0.00     0.051 A 
ATOM      6  C   UNL     1      17.760  32.682  41.145  1.00  0.00     0.012 A 
ENDROOT
BRANCH   1   7
ATOM      7  C   UNL     1      15.404  31.875  40.672  1.00  0.00     0.003 C 
ATOM      8  C   UNL     1      13.273  32.162  41.875  1.00  0.00     0.035 C 
ATOM      9  C   UNL     1      14.636  32.626  41.471  1.00  0.00    -0.030 C 
ENDBRANCH   1   7
BRANCH   3  10
ATOM     10  O   UNL     1      18.684  32.556  37.036  1.00  0.00    -0.493 OA
ATOM     11  C   UNL     1      17.797  32.911  35.980  1.00  0.00     0.278 C 
ENDBRANCH   3  10
BRANCH   4  12
ATOM     12  O   UNL     1      20.611  33.361  38.907  1.00  0.00    -0.504 OA
ATOM     13  H   UNL     1      20.776  33.841  38.029  1.00  0.00     0.293 HD
ENDBRANCH   4  12
TORSDOF 3
ENDMDL
MODEL 6
REMARK VINA RESULT:    -3.056     11.495     12.476
REMARK INTER + INTRA:          -3.656
REMARK INTER:                  -3.483
REMARK INTRA:                  -0.173
REMARK UNBOUND:                -0.154
REMARK SMILES CC=Cc1ccc(O)c(OC)c1
REMARK SMILES IDX 4 1 12 2 9 3 7 4 6 5 5 6 3 7 1 8 2 9 10 10 11 11 8 12
REMARK H PARENT 8 13
REMARK Flexibility Score: inf
ROOT
ATOM      1  C   UNL     1      22.138  35.157  40.240  1.00  0.00    -0.022 A 
ATOM      2  C   UNL     1      22.544  36.376  40.808  1.00  0.00     0.058 A 
ATOM      3  C   UNL     1      23.183  36.411  42.064  1.00  0.00     0.161 A 
ATOM      4  C   UNL     1      23.403  35.208  42.756  1.00  0.00     0.157 A 
ATOM      5  C   UNL     1      22.987  33.996  42.201  1.00  0.00     0.051 A 
ATOM      6  C   UNL     1      22.355  33.965  40.957  1.00  0.00     0.012 A 
ENDROOT
BRANCH   1   7
ATOM      7  C   UNL     1      21.462  35.180  38.919  1.00  0.00     0.003 C 
ATOM      8  C   UNL     1      20.438  34.190  36.908  1.00  0.00     0.035 C 
ATOM      9  C   UNL     1      21.104  34.082  38.243  1.00  0.00    -0.030 C 
ENDBRANCH   1   7
BRANCH   3  10
ATOM     10  O   UNL     1      23.606  37.616  42.649  1.00  0.00    -0.493 OA
ATOM     11  C   UNL     1      24.880  38.215  42.435  1.00  0.00     0.278 C 
ENDBRANCH   3  10
BRANCH   4  12
ATOM     12  O   UNL     1      24.032  35.197  44.001  1.00  0.00    -0.504 OA
ATOM     13  H   UNL     1      23.874  35.921  44.693  1.00  0.00     0.293 HD
ENDBRANCH   4  12
TORSDOF 3
ENDMDL
MODEL 7
REMARK VINA RESULT:    -2.963     11.487     12.289
REMARK INTER + INTRA:          -3.550
REMARK INTER:                  -3.370
REMARK INTRA:                  -0.180
REMARK UNBOUND:                -0.154
REMARK SMILES CC=Cc1ccc(O)c(OC)c1
REMARK SMILES IDX 4 1 12 2 9 3 7 4 6 5 5 6 3 7 1 8 2 9 10 10 11 11 8 12
REMARK H PARENT 8 13
REMARK Flexibility Score: inf
ROOT
ATOM      1  C   UNL     1      22.025  34.919  40.097  1.00  0.00    -0.022 A 
ATOM      2  C   UNL     1      22.420  34.667  41.421  1.00  0.00     0.058 A 
ATOM      3  C   UNL     1      22.793  35.722  42.278  1.00  0.00     0.161 A 
ATOM      4  C   UNL     1      22.778  37.040  41.791  1.00  0.00     0.157 A 
ATOM      5  C   UNL     1      22.402  37.292  40.470  1.00  0.00     0.051 A 
ATOM      6  C   UNL     1      22.032  36.245  39.625  1.00  0.00     0.012 A 
ENDROOT
BRANCH   1   7
ATOM      7  C   UNL     1      21.651  33.769  39.237  1.00  0.00     0.003 C 
ATOM      8  C   UNL     1      20.986  32.665  37.137  1.00  0.00     0.035 C 
ATOM      9  C   UNL     1      21.369  33.871  37.932  1.00  0.00    -0.030 C 
ENDBRANCH   1   7
BRANCH   3  10
ATOM     10  O   UNL     1      23.181  35.496  43.609  1.00  0.00    -0.493 OA
ATOM     11  C   UNL     1      24.339  34.768  44.002  1.00  0.00     0.278 C 
ENDBRANCH   3  10
BRANCH   4  12
ATOM     12  O   UNL     1      23.140  38.114  42.604  1.00  0.00    -0.504 OA
ATOM     13  H   UNL     1      24.108  38.342  42.799  1.00  0.00     0.293 HD
ENDBRANCH   4  12
TORSDOF 3
ENDMDL
MODEL 8
REMARK VINA RESULT:    -2.946      7.087      9.129
REMARK INTER + INTRA:          -3.530
REMARK INTER:                  -3.400
REMARK INTRA:                  -0.130
REMARK UNBOUND:                -0.154
REMARK SMILES CC=Cc1ccc(O)c(OC)c1
REMARK SMILES IDX 4 1 12 2 9 3 7 4 6 5 5 6 3 7 1 8 2 9 10 10 11 11 8 12
REMARK H PARENT 8 13
REMARK Flexibility Score: inf
ROOT
ATOM      1  C   UNL     1      18.787  32.956  40.564  1.00  0.00    -0.022 A 
ATOM      2  C   UNL     1      19.865  33.108  41.453  1.00  0.00     0.058 A 
ATOM      3  C   UNL     1      21.155  33.418  40.978  1.00  0.00     0.161 A 
ATOM      4  C   UNL     1      21.361  33.565  39.595  1.00  0.00     0.157 A 
ATOM      5  C   UNL     1      20.295  33.398  38.709  1.00  0.00     0.051 A 
ATOM      6  C   UNL     1      19.018  33.092  39.183  1.00  0.00     0.012 A 
ENDROOT
BRANCH   1   7
ATOM      7  C   UNL     1      17.452  32.620  41.119  1.00  0.00     0.003 C 
ATOM      8  C   UNL     1      15.105  31.878  41.016  1.00  0.00     0.035 C 
ATOM      9  C   UNL     1      16.425  32.181  40.382  1.00  0.00    -0.030 C 
ENDBRANCH   1   7
BRANCH   3  10
ATOM     10  O   UNL     1      22.246  33.585  41.846  1.00  0.00    -0.493 OA
ATOM     11  C   UNL     1      22.727  34.842  42.309  1.00  0.00     0.278 C 
ENDBRANCH   3  10
BRANCH   4  12
ATOM     12  O   UNL     1      22.621  33.872  39.082  1.00  0.00    -0.504 OA
ATOM     13  H   UNL     1      22.746  34.494  38.292  1.00  0.00     0.293 HD
ENDBRANCH   4  12
TORSDOF 3
ENDMDL
