MODEL 1
REMARK VINA RESULT:    -4.144      0.000      0.000
REMARK INTER + INTRA:          -4.629
REMARK INTER:                  -4.629
REMARK INTRA:                   0.000
REMARK UNBOUND:                 0.000
REMARK SMILES Oc1cc(O)c2c(c1)CCc1cc(O)c(O)cc1-2
REMARK SMILES IDX 10 1 9 2 7 3 6 4 18 5 17 6 15 7 13 8 12 9 11 10 4 11 3 12
REMARK SMILES IDX 2 13 8 14 14 15 5 17 1 19 16 21
REMARK H PARENT 14 16 5 18 1 20 16 22
REMARK Flexibility Score: inf
ROOT
ATOM      1  C   UNL     1     124.742 121.972 109.108  1.00  0.00     0.041 C 
ATOM      2  C   UNL     1     125.677 123.171 109.305  1.00  0.00     0.041 C 
ATOM      3  C   UNL     1     125.941 123.859 107.989  1.00  0.00    -0.032 A 
ATOM      4  C   UNL     1     124.916 123.944 107.015  1.00  0.00     0.027 A 
ATOM      5  C   UNL     1     123.575 123.365 107.350  1.00  0.00    -0.007 A 
ATOM      6  C   UNL     1     122.383 123.819 106.753  1.00  0.00     0.059 A 
ATOM      7  C   UNL     1     121.149 123.244 107.092  1.00  0.00     0.158 A 
ATOM      8  C   UNL     1     121.091 122.229 108.053  1.00  0.00     0.157 A 
ATOM      9  C   UNL     1     122.260 121.811 108.696  1.00  0.00     0.054 A 
ATOM     10  C   UNL     1     123.494 122.395 108.375  1.00  0.00    -0.036 A 
ATOM     11  C   UNL     1     125.226 124.504 105.749  1.00  0.00     0.127 A 
ATOM     12  C   UNL     1     126.486 125.076 105.527  1.00  0.00     0.093 A 
ATOM     13  C   UNL     1     127.463 125.057 106.523  1.00  0.00     0.119 A 
ATOM     14  C   UNL     1     127.193 124.442 107.749  1.00  0.00     0.050 A 
ENDROOT
BRANCH   8  15
ATOM     15  O   UNL     1     119.863 121.652 108.373  1.00  0.00    -0.504 OA
ATOM     16  H   UNL     1     119.085 121.666 107.725  1.00  0.00     0.293 HD
ENDBRANCH   8  15
BRANCH  11  17
ATOM     17  O   UNL     1     124.310 124.461 104.699  1.00  0.00    -0.507 OA
ATOM     18  H   UNL     1     123.310 124.503 104.860  1.00  0.00     0.293 HD
ENDBRANCH  11  17
BRANCH  13  19
ATOM     19  O   UNL     1     128.705 125.639 106.278  1.00  0.00    -0.508 OA
ATOM     20  H   UNL     1     129.388 125.197 105.673  1.00  0.00     0.293 HD
ENDBRANCH  13  19
BRANCH   7  21
ATOM     21  O   UNL     1     119.975 123.685 106.483  1.00  0.00    -0.504 OA
ATOM     22  H   UNL     1     119.091 123.212 106.632  1.00  0.00     0.293 HD
ENDBRANCH   7  21
TORSDOF 4
ENDMDL
MODEL 2
REMARK VINA RESULT:    -4.119      3.380      4.826
REMARK INTER + INTRA:          -4.601
REMARK INTER:                  -4.601
REMARK INTRA:                   0.000
REMARK UNBOUND:                 0.000
REMARK SMILES Oc1cc(O)c2c(c1)CCc1cc(O)c(O)cc1-2
REMARK SMILES IDX 10 1 9 2 7 3 6 4 18 5 17 6 15 7 13 8 12 9 11 10 4 11 3 12
REMARK SMILES IDX 2 13 8 14 14 15 5 17 1 19 16 21
REMARK H PARENT 14 16 5 18 1 20 16 22
REMARK Flexibility Score: inf
ROOT
ATOM      1  C   UNL     1     122.982 124.749 105.829  1.00  0.00     0.041 C 
ATOM      2  C   UNL     1     123.417 126.218 105.766  1.00  0.00     0.041 C 
ATOM      3  C   UNL     1     123.989 126.659 107.091  1.00  0.00    -0.032 A 
ATOM      4  C   UNL     1     124.749 125.753 107.872  1.00  0.00     0.027 A 
ATOM      5  C   UNL     1     124.985 124.378 107.326  1.00  0.00    -0.007 A 
ATOM      6  C   UNL     1     126.097 123.596 107.697  1.00  0.00     0.059 A 
ATOM      7  C   UNL     1     126.277 122.310 107.165  1.00  0.00     0.158 A 
ATOM      8  C   UNL     1     125.364 121.804 106.235  1.00  0.00     0.157 A 
ATOM      9  C   UNL     1     124.290 122.594 105.813  1.00  0.00     0.054 A 
ATOM     10  C   UNL     1     124.114 123.887 106.326  1.00  0.00    -0.036 A 
ATOM     11  C   UNL     1     125.185 126.164 109.157  1.00  0.00     0.127 A 
ATOM     12  C   UNL     1     124.973 127.485 109.579  1.00  0.00     0.093 A 
ATOM     13  C   UNL     1     124.292 128.391 108.767  1.00  0.00     0.119 A 
ATOM     14  C   UNL     1     123.793 127.976 107.528  1.00  0.00     0.050 A 
ENDROOT
BRANCH   8  15
ATOM     15  O   UNL     1     125.541 120.520 105.723  1.00  0.00    -0.504 OA
ATOM     16  H   UNL     1     124.912 120.135 105.028  1.00  0.00     0.293 HD
ENDBRANCH   8  15
BRANCH  11  17
ATOM     17  O   UNL     1     125.787 125.264 110.035  1.00  0.00    -0.507 OA
ATOM     18  H   UNL     1     126.705 124.874 109.855  1.00  0.00     0.293 HD
ENDBRANCH  11  17
BRANCH  13  19
ATOM     19  O   UNL     1     124.102 129.699 109.206  1.00  0.00    -0.508 OA
ATOM     20  H   UNL     1     123.651 130.394 108.623  1.00  0.00     0.293 HD
ENDBRANCH  13  19
BRANCH   7  21
ATOM     21  O   UNL     1     127.368 121.534 107.552  1.00  0.00    -0.504 OA
ATOM     22  H   UNL     1     127.605 120.674 107.071  1.00  0.00     0.293 HD
ENDBRANCH   7  21
TORSDOF 4
ENDMDL
MODEL 3
REMARK VINA RESULT:    -4.119      1.884      3.217
REMARK INTER + INTRA:          -4.601
REMARK INTER:                  -4.601
REMARK INTRA:                   0.000
REMARK UNBOUND:                 0.000
REMARK SMILES Oc1cc(O)c2c(c1)CCc1cc(O)c(O)cc1-2
REMARK SMILES IDX 10 1 9 2 7 3 6 4 18 5 17 6 15 7 13 8 12 9 11 10 4 11 3 12
REMARK SMILES IDX 2 13 8 14 14 15 5 17 1 19 16 21
REMARK H PARENT 14 16 5 18 1 20 16 22
REMARK Flexibility Score: inf
ROOT
ATOM      1  C   UNL     1     124.768 125.967 105.819  1.00  0.00     0.041 C 
ATOM      2  C   UNL     1     126.229 125.507 105.760  1.00  0.00     0.041 C 
ATOM      3  C   UNL     1     126.659 124.934 107.088  1.00  0.00    -0.032 A 
ATOM      4  C   UNL     1     125.740 124.192 107.870  1.00  0.00     0.027 A 
ATOM      5  C   UNL     1     124.362 123.976 107.323  1.00  0.00    -0.007 A 
ATOM      6  C   UNL     1     123.561 122.879 107.698  1.00  0.00     0.059 A 
ATOM      7  C   UNL     1     122.274 122.718 107.165  1.00  0.00     0.158 A 
ATOM      8  C   UNL     1     121.784 123.635 106.230  1.00  0.00     0.157 A 
ATOM      9  C   UNL     1     122.592 124.695 105.805  1.00  0.00     0.054 A 
ATOM     10  C   UNL     1     123.886 124.851 106.320  1.00  0.00    -0.036 A 
ATOM     11  C   UNL     1     126.142 123.754 109.158  1.00  0.00     0.127 A 
ATOM     12  C   UNL     1     127.465 123.946 109.580  1.00  0.00     0.093 A 
ATOM     13  C   UNL     1     128.384 124.609 108.767  1.00  0.00     0.119 A 
ATOM     14  C   UNL     1     127.979 125.109 107.526  1.00  0.00     0.050 A 
ENDROOT
BRANCH   8  15
ATOM     15  O   UNL     1     120.498 123.478 105.717  1.00  0.00    -0.504 OA
ATOM     16  H   UNL     1     120.192 123.976 104.889  1.00  0.00     0.293 HD
ENDBRANCH   8  15
BRANCH  11  17
ATOM     17  O   UNL     1     125.231 123.171 110.037  1.00  0.00    -0.507 OA
ATOM     18  H   UNL     1     125.146 122.165 110.129  1.00  0.00     0.293 HD
ENDBRANCH  11  17
BRANCH  13  19
ATOM     19  O   UNL     1     129.694 124.779 109.208  1.00  0.00    -0.508 OA
ATOM     20  H   UNL     1     129.900 125.144 110.131  1.00  0.00     0.293 HD
ENDBRANCH  13  19
BRANCH   7  21
ATOM     21  O   UNL     1     121.479 121.641 107.555  1.00  0.00    -0.504 OA
ATOM     22  H   UNL     1     121.282 120.871 106.925  1.00  0.00     0.293 HD
ENDBRANCH   7  21
TORSDOF 4
ENDMDL
MODEL 4
REMARK VINA RESULT:    -4.119      2.160      6.014
REMARK INTER + INTRA:          -4.600
REMARK INTER:                  -4.600
REMARK INTRA:                   0.000
REMARK UNBOUND:                 0.000
REMARK SMILES Oc1cc(O)c2c(c1)CCc1cc(O)c(O)cc1-2
REMARK SMILES IDX 10 1 9 2 7 3 6 4 18 5 17 6 15 7 13 8 12 9 11 10 4 11 3 12
REMARK SMILES IDX 2 13 8 14 14 15 5 17 1 19 16 21
REMARK H PARENT 14 16 5 18 1 20 16 22
REMARK Flexibility Score: inf
ROOT
ATOM      1  C   UNL     1     124.224 123.041 105.820  1.00  0.00     0.041 C 
ATOM      2  C   UNL     1     122.761 123.495 105.793  1.00  0.00     0.041 C 
ATOM      3  C   UNL     1     122.350 124.043 107.137  1.00  0.00    -0.032 A 
ATOM      4  C   UNL     1     123.278 124.775 107.917  1.00  0.00     0.027 A 
ATOM      5  C   UNL     1     124.647 125.007 107.352  1.00  0.00    -0.007 A 
ATOM      6  C   UNL     1     125.449 126.101 107.733  1.00  0.00     0.059 A 
ATOM      7  C   UNL     1     126.727 126.277 107.182  1.00  0.00     0.158 A 
ATOM      8  C   UNL     1     127.205 125.378 106.223  1.00  0.00     0.157 A 
ATOM      9  C   UNL     1     126.395 124.322 105.793  1.00  0.00     0.054 A 
ATOM     10  C   UNL     1     125.110 124.152 106.326  1.00  0.00    -0.036 A 
ATOM     11  C   UNL     1     122.896 125.188 109.219  1.00  0.00     0.127 A 
ATOM     12  C   UNL     1     121.580 124.983 109.659  1.00  0.00     0.093 A 
ATOM     13  C   UNL     1     120.651 124.330 108.849  1.00  0.00     0.119 A 
ATOM     14  C   UNL     1     121.038 123.854 107.593  1.00  0.00     0.050 A 
ENDROOT
BRANCH   8  15
ATOM     15  O   UNL     1     128.482 125.551 105.692  1.00  0.00    -0.504 OA
ATOM     16  H   UNL     1     129.258 125.859 106.266  1.00  0.00     0.293 HD
ENDBRANCH   8  15
BRANCH  11  17
ATOM     17  O   UNL     1     123.818 125.761 110.093  1.00  0.00    -0.507 OA
ATOM     18  H   UNL     1     124.313 126.615 109.864  1.00  0.00     0.293 HD
ENDBRANCH  11  17
BRANCH  13  19
ATOM     19  O   UNL     1     119.349 124.147 109.308  1.00  0.00    -0.508 OA
ATOM     20  H   UNL     1     118.742 124.933 109.509  1.00  0.00     0.293 HD
ENDBRANCH  13  19
BRANCH   7  21
ATOM     21  O   UNL     1     127.523 127.350 107.578  1.00  0.00    -0.504 OA
ATOM     22  H   UNL     1     128.534 127.313 107.513  1.00  0.00     0.293 HD
ENDBRANCH   7  21
TORSDOF 4
ENDMDL
MODEL 5
REMARK VINA RESULT:    -4.107      3.071      4.264
REMARK INTER + INTRA:          -4.587
REMARK INTER:                  -4.587
REMARK INTRA:                   0.000
REMARK UNBOUND:                 0.000
REMARK SMILES Oc1cc(O)c2c(c1)CCc1cc(O)c(O)cc1-2
REMARK SMILES IDX 10 1 9 2 7 3 6 4 18 5 17 6 15 7 13 8 12 9 11 10 4 11 3 12
REMARK SMILES IDX 2 13 8 14 14 15 5 17 1 19 16 21
REMARK H PARENT 14 16 5 18 1 20 16 22
REMARK Flexibility Score: inf
ROOT
ATOM      1  C   UNL     1     127.077 124.835 109.176  1.00  0.00     0.041 C 
ATOM      2  C   UNL     1     125.863 125.731 109.442  1.00  0.00     0.041 C 
ATOM      3  C   UNL     1     125.135 126.034 108.155  1.00  0.00    -0.032 A 
ATOM      4  C   UNL     1     125.048 125.048 107.142  1.00  0.00     0.027 A 
ATOM      5  C   UNL     1     125.667 123.709 107.406  1.00  0.00    -0.007 A 
ATOM      6  C   UNL     1     125.226 122.531 106.771  1.00  0.00     0.059 A 
ATOM      7  C   UNL     1     125.837 121.299 107.044  1.00  0.00     0.158 A 
ATOM      8  C   UNL     1     126.878 121.225 107.976  1.00  0.00     0.157 A 
ATOM      9  C   UNL     1     127.286 122.377 108.657  1.00  0.00     0.054 A 
ATOM     10  C   UNL     1     126.665 123.608 108.402  1.00  0.00    -0.036 A 
ATOM     11  C   UNL     1     124.448 125.395 105.905  1.00  0.00     0.127 A 
ATOM     12  C   UNL     1     123.842 126.650 105.750  1.00  0.00     0.093 A 
ATOM     13  C   UNL     1     123.864 127.585 106.785  1.00  0.00     0.119 A 
ATOM     14  C   UNL     1     124.517 127.280 107.983  1.00  0.00     0.050 A 
ENDROOT
BRANCH   8  15
ATOM     15  O   UNL     1     127.492 120.000 108.230  1.00  0.00    -0.504 OA
ATOM     16  H   UNL     1     127.792 119.740 109.162  1.00  0.00     0.293 HD
ENDBRANCH   8  15
BRANCH  11  17
ATOM     17  O   UNL     1     124.485 124.525 104.817  1.00  0.00    -0.507 OA
ATOM     18  H   UNL     1     125.285 124.479 104.196  1.00  0.00     0.293 HD
ENDBRANCH  11  17
BRANCH  13  19
ATOM     19  O   UNL     1     123.247 128.821 106.607  1.00  0.00    -0.508 OA
ATOM     20  H   UNL     1     122.936 129.376 107.396  1.00  0.00     0.293 HD
ENDBRANCH  13  19
BRANCH   7  21
ATOM     21  O   UNL     1     125.408 120.140 106.398  1.00  0.00    -0.504 OA
ATOM     22  H   UNL     1     124.485 120.074 105.985  1.00  0.00     0.293 HD
ENDBRANCH   7  21
TORSDOF 4
ENDMDL
MODEL 6
REMARK VINA RESULT:    -4.102      2.761      4.844
REMARK INTER + INTRA:          -4.582
REMARK INTER:                  -4.582
REMARK INTRA:                   0.000
REMARK UNBOUND:                 0.000
REMARK SMILES Oc1cc(O)c2c(c1)CCc1cc(O)c(O)cc1-2
REMARK SMILES IDX 10 1 9 2 7 3 6 4 18 5 17 6 15 7 13 8 12 9 11 10 4 11 3 12
REMARK SMILES IDX 2 13 8 14 14 15 5 17 1 19 16 21
REMARK H PARENT 14 16 5 18 1 20 16 22
REMARK Flexibility Score: inf
ROOT
ATOM      1  C   UNL     1     125.949 124.139 105.882  1.00  0.00     0.041 C 
ATOM      2  C   UNL     1     125.474 122.681 105.869  1.00  0.00     0.041 C 
ATOM      3  C   UNL     1     124.909 122.295 107.213  1.00  0.00    -0.032 A 
ATOM      4  C   UNL     1     124.184 123.243 107.976  1.00  0.00     0.027 A 
ATOM      5  C   UNL     1     123.976 124.608 107.392  1.00  0.00    -0.007 A 
ATOM      6  C   UNL     1     122.891 125.430 107.754  1.00  0.00     0.059 A 
ATOM      7  C   UNL     1     122.738 126.704 107.186  1.00  0.00     0.158 A 
ATOM      8  C   UNL     1     123.651 127.157 106.230  1.00  0.00     0.157 A 
ATOM      9  C   UNL     1     124.699 126.327 105.818  1.00  0.00     0.054 A 
ATOM     10  C   UNL     1     124.846 125.046 106.368  1.00  0.00    -0.036 A 
ATOM     11  C   UNL     1     123.754 122.883 109.278  1.00  0.00     0.127 A 
ATOM     12  C   UNL     1     123.936 121.570 109.736  1.00  0.00     0.093 A 
ATOM     13  C   UNL     1     124.583 120.622 108.943  1.00  0.00     0.119 A 
ATOM     14  C   UNL     1     125.075 120.987 107.687  1.00  0.00     0.050 A 
ENDROOT
BRANCH   8  15
ATOM     15  O   UNL     1     123.502 128.430 105.682  1.00  0.00    -0.504 OA
ATOM     16  H   UNL     1     123.289 129.235 106.259  1.00  0.00     0.293 HD
ENDBRANCH   8  15
BRANCH  11  17
ATOM     17  O   UNL     1     123.188 123.824 110.136  1.00  0.00    -0.507 OA
ATOM     18  H   UNL     1     123.568 124.005 111.058  1.00  0.00     0.293 HD
ENDBRANCH  11  17
BRANCH  13  19
ATOM     19  O   UNL     1     124.744 119.323 109.419  1.00  0.00    -0.508 OA
ATOM     20  H   UNL     1     125.662 118.938 109.609  1.00  0.00     0.293 HD
ENDBRANCH  13  19
BRANCH   7  21
ATOM     21  O   UNL     1     121.673 127.520 107.564  1.00  0.00    -0.504 OA
ATOM     22  H   UNL     1     121.506 128.414 107.117  1.00  0.00     0.293 HD
ENDBRANCH   7  21
TORSDOF 4
ENDMDL
MODEL 7
REMARK VINA RESULT:    -4.102      3.066      4.146
REMARK INTER + INTRA:          -4.581
REMARK INTER:                  -4.581
REMARK INTRA:                   0.000
REMARK UNBOUND:                 0.000
REMARK SMILES Oc1cc(O)c2c(c1)CCc1cc(O)c(O)cc1-2
REMARK SMILES IDX 10 1 9 2 7 3 6 4 18 5 17 6 15 7 13 8 12 9 11 10 4 11 3 12
REMARK SMILES IDX 2 13 8 14 14 15 5 17 1 19 16 21
REMARK H PARENT 14 16 5 18 1 20 16 22
REMARK Flexibility Score: inf
ROOT
ATOM      1  C   UNL     1     122.033 124.235 109.026  1.00  0.00     0.041 C 
ATOM      2  C   UNL     1     123.248 123.322 109.221  1.00  0.00     0.041 C 
ATOM      3  C   UNL     1     123.974 123.119 107.914  1.00  0.00    -0.032 A 
ATOM      4  C   UNL     1     124.059 124.179 106.978  1.00  0.00     0.027 A 
ATOM      5  C   UNL     1     123.440 125.494 107.344  1.00  0.00    -0.007 A 
ATOM      6  C   UNL     1     123.880 126.717 106.801  1.00  0.00     0.059 A 
ATOM      7  C   UNL     1     123.268 127.924 107.167  1.00  0.00     0.158 A 
ATOM      8  C   UNL     1     122.229 127.926 108.103  1.00  0.00     0.157 A 
ATOM      9  C   UNL     1     121.823 126.726 108.696  1.00  0.00     0.054 A 
ATOM     10  C   UNL     1     122.443 125.517 108.347  1.00  0.00    -0.036 A 
ATOM     11  C   UNL     1     124.657 123.927 105.718  1.00  0.00     0.127 A 
ATOM     12  C   UNL     1     125.264 122.688 105.467  1.00  0.00     0.093 A 
ATOM     13  C   UNL     1     125.243 121.677 106.428  1.00  0.00     0.119 A 
ATOM     14  C   UNL     1     124.592 121.890 107.646  1.00  0.00     0.050 A 
ENDROOT
BRANCH   8  15
ATOM     15  O   UNL     1     121.615 129.128 108.451  1.00  0.00    -0.504 OA
ATOM     16  H   UNL     1     122.058 129.788 109.079  1.00  0.00     0.293 HD
ENDBRANCH   8  15
BRANCH  11  17
ATOM     17  O   UNL     1     124.618 124.878 104.699  1.00  0.00    -0.507 OA
ATOM     18  H   UNL     1     125.395 125.012 104.063  1.00  0.00     0.293 HD
ENDBRANCH  11  17
BRANCH  13  19
ATOM     19  O   UNL     1     125.860 120.458 106.155  1.00  0.00    -0.508 OA
ATOM     20  H   UNL     1     125.430 119.577 106.412  1.00  0.00     0.293 HD
ENDBRANCH  13  19
BRANCH   7  21
ATOM     21  O   UNL     1     123.695 129.129 106.611  1.00  0.00    -0.504 OA
ATOM     22  H   UNL     1     124.680 129.337 106.489  1.00  0.00     0.293 HD
ENDBRANCH   7  21
TORSDOF 4
ENDMDL
MODEL 8
REMARK VINA RESULT:    -4.069      2.020      5.922
REMARK INTER + INTRA:          -4.545
REMARK INTER:                  -4.545
REMARK INTRA:                   0.000
REMARK UNBOUND:                 0.000
REMARK SMILES Oc1cc(O)c2c(c1)CCc1cc(O)c(O)cc1-2
REMARK SMILES IDX 10 1 9 2 7 3 6 4 18 5 17 6 15 7 13 8 12 9 11 10 4 11 3 12
REMARK SMILES IDX 2 13 8 14 14 15 5 17 1 19 16 21
REMARK H PARENT 14 16 5 18 1 20 16 22
REMARK Flexibility Score: inf
ROOT
ATOM      1  C   UNL     1     124.233 127.014 109.259  1.00  0.00     0.041 C 
ATOM      2  C   UNL     1     123.328 125.800 109.498  1.00  0.00     0.041 C 
ATOM      3  C   UNL     1     123.031 125.095 108.197  1.00  0.00    -0.032 A 
ATOM      4  C   UNL     1     124.023 125.021 107.189  1.00  0.00     0.027 A 
ATOM      5  C   UNL     1     125.364 125.628 107.472  1.00  0.00    -0.007 A 
ATOM      6  C   UNL     1     126.544 125.191 106.838  1.00  0.00     0.059 A 
ATOM      7  C   UNL     1     127.777 125.792 107.129  1.00  0.00     0.158 A 
ATOM      8  C   UNL     1     127.849 126.816 108.079  1.00  0.00     0.157 A 
ATOM      9  C   UNL     1     126.695 127.218 108.759  1.00  0.00     0.054 A 
ATOM     10  C   UNL     1     125.462 126.609 108.486  1.00  0.00    -0.036 A 
ATOM     11  C   UNL     1     123.681 124.444 105.939  1.00  0.00     0.127 A 
ATOM     12  C   UNL     1     122.424 123.846 105.766  1.00  0.00     0.093 A 
ATOM     13  C   UNL     1     121.482 123.856 106.795  1.00  0.00     0.119 A 
ATOM     14  C   UNL     1     121.783 124.487 108.006  1.00  0.00     0.050 A 
ENDROOT
BRANCH   8  15
ATOM     15  O   UNL     1     129.076 127.419 108.351  1.00  0.00    -0.504 OA
ATOM     16  H   UNL     1     129.848 126.896 108.747  1.00  0.00     0.293 HD
ENDBRANCH   8  15
BRANCH  11  17
ATOM     17  O   UNL     1     124.559 124.495 104.858  1.00  0.00    -0.507 OA
ATOM     18  H   UNL     1     124.754 125.360 104.368  1.00  0.00     0.293 HD
ENDBRANCH  11  17
BRANCH  13  19
ATOM     19  O   UNL     1     120.244 123.249 106.598  1.00  0.00    -0.508 OA
ATOM     20  H   UNL     1     119.474 123.745 106.164  1.00  0.00     0.293 HD
ENDBRANCH  13  19
BRANCH   7  21
ATOM     21  O   UNL     1     128.938 125.368 106.484  1.00  0.00    -0.504 OA
ATOM     22  H   UNL     1     128.901 124.828 105.626  1.00  0.00     0.293 HD
ENDBRANCH   7  21
TORSDOF 4
ENDMDL
MODEL 9
REMARK VINA RESULT:    -4.031      3.380      4.827
REMARK INTER + INTRA:          -4.503
REMARK INTER:                  -4.503
REMARK INTRA:                   0.000
REMARK UNBOUND:                 0.000
REMARK SMILES Oc1cc(O)c2c(c1)CCc1cc(O)c(O)cc1-2
REMARK SMILES IDX 10 1 9 2 7 3 6 4 18 5 17 6 15 7 13 8 12 9 11 10 4 11 3 12
REMARK SMILES IDX 2 13 8 14 14 15 5 17 1 19 16 21
REMARK H PARENT 14 16 5 18 1 20 16 22
REMARK Flexibility Score: inf
ROOT
ATOM      1  C   UNL     1     124.448 124.116 105.009  1.00  0.00     0.041 C 
ATOM      2  C   UNL     1     124.254 122.776 105.729  1.00  0.00     0.041 C 
ATOM      3  C   UNL     1     125.294 122.598 106.807  1.00  0.00    -0.032 A 
ATOM      4  C   UNL     1     125.740 123.716 107.553  1.00  0.00     0.027 A 
ATOM      5  C   UNL     1     125.127 125.052 107.257  1.00  0.00    -0.007 A 
ATOM      6  C   UNL     1     125.067 126.087 108.211  1.00  0.00     0.059 A 
ATOM      7  C   UNL     1     124.488 127.323 107.890  1.00  0.00     0.158 A 
ATOM      8  C   UNL     1     123.938 127.529 106.622  1.00  0.00     0.157 A 
ATOM      9  C   UNL     1     123.937 126.490 105.685  1.00  0.00     0.054 A 
ATOM     10  C   UNL     1     124.497 125.246 106.006  1.00  0.00    -0.036 A 
ATOM     11  C   UNL     1     126.791 123.535 108.488  1.00  0.00     0.127 A 
ATOM     12  C   UNL     1     127.277 122.246 108.751  1.00  0.00     0.093 A 
ATOM     13  C   UNL     1     126.774 121.141 108.066  1.00  0.00     0.119 A 
ATOM     14  C   UNL     1     125.789 121.318 107.089  1.00  0.00     0.050 A 
ENDROOT
BRANCH   8  15
ATOM     15  O   UNL     1     123.379 128.766 106.304  1.00  0.00    -0.504 OA
ATOM     16  H   UNL     1     122.455 128.842 105.895  1.00  0.00     0.293 HD
ENDBRANCH   8  15
BRANCH  11  17
ATOM     17  O   UNL     1     127.384 124.623 109.125  1.00  0.00    -0.507 OA
ATOM     18  H   UNL     1     127.692 124.575 110.089  1.00  0.00     0.293 HD
ENDBRANCH  11  17
BRANCH  13  19
ATOM     19  O   UNL     1     127.270 119.871 108.352  1.00  0.00    -0.508 OA
ATOM     20  H   UNL     1     126.981 119.057 107.821  1.00  0.00     0.293 HD
ENDBRANCH  13  19
BRANCH   7  21
ATOM     21  O   UNL     1     124.450 128.350 108.833  1.00  0.00    -0.504 OA
ATOM     22  H   UNL     1     123.913 128.265 109.688  1.00  0.00     0.293 HD
ENDBRANCH   7  21
TORSDOF 4
ENDMDL
