MODEL 1
REMARK VINA RESULT:    -4.548      0.000      0.000
REMARK INTER + INTRA:          -7.401
REMARK INTER:                  -6.941
REMARK INTRA:                  -0.461
REMARK UNBOUND:                -0.461
REMARK SMILES O=C([O-])CCCCCCCCC(=O)[O-]
REMARK SMILES IDX 7 1 6 2 5 3 4 4 2 5 1 6 3 7 8 8 9 9 10 10 11 11 12 12 13 13
REMARK SMILES IDX 14 14
REMARK H PARENT
REMARK Flexibility Score: inf
ROOT
ATOM      1  C   UNL     1     127.965 142.312 141.009  1.00  0.00     0.000 C 
ENDROOT
BRANCH   1   2
ATOM      2  C   UNL     1     127.554 143.069 139.733  1.00  0.00     0.000 C 
BRANCH   2   3
ATOM      3  C   UNL     1     126.076 143.493 139.741  1.00  0.00     0.006 C 
BRANCH   3   4
ATOM      4  C   UNL     1     125.912 145.016 139.837  1.00  0.00     0.053 C 
BRANCH   4   5
ATOM      5  C   UNL     1     126.013 145.672 138.494  1.00  0.00     0.041 C 
ATOM      6  O   UNL     1     126.471 146.841 138.393  1.00  0.00    -0.550 OA
ATOM      7  O   UNL     1     125.573 145.004 137.359  1.00  0.00    -0.550 OA
ENDBRANCH   4   5
ENDBRANCH   3   4
ENDBRANCH   2   3
ENDBRANCH   1   2
BRANCH   1   8
ATOM      8  C   UNL     1     129.453 142.439 141.392  1.00  0.00     0.000 C 
BRANCH   8   9
ATOM      9  C   UNL     1     130.363 141.309 140.871  1.00  0.00     0.000 C 
BRANCH   9  10
ATOM     10  C   UNL     1     130.847 141.482 139.420  1.00  0.00     0.006 C 
BRANCH  10  11
ATOM     11  C   UNL     1     130.152 140.526 138.443  1.00  0.00     0.053 C 
BRANCH  11  12
ATOM     12  C   UNL     1     131.081 139.426 138.038  1.00  0.00     0.041 C 
ATOM     13  O   UNL     1     130.914 138.826 136.944  1.00  0.00    -0.550 OA
ATOM     14  O   UNL     1     132.103 139.030 138.891  1.00  0.00    -0.550 OA
ENDBRANCH  11  12
ENDBRANCH  10  11
ENDBRANCH   9  10
ENDBRANCH   8   9
ENDBRANCH   1   8
TORSDOF 9
ENDMDL
MODEL 2
REMARK VINA RESULT:    -4.440      1.894      2.266
REMARK INTER + INTRA:          -7.237
REMARK INTER:                  -6.564
REMARK INTRA:                  -0.672
REMARK UNBOUND:                -0.461
REMARK SMILES O=C([O-])CCCCCCCCC(=O)[O-]
REMARK SMILES IDX 7 1 6 2 5 3 4 4 2 5 1 6 3 7 8 8 9 9 10 10 11 11 12 12 13 13
REMARK SMILES IDX 14 14
REMARK H PARENT
REMARK Flexibility Score: inf
ROOT
ATOM      1  C   UNL     1     128.137 142.170 141.358  1.00  0.00     0.000 C 
ENDROOT
BRANCH   1   2
ATOM      2  C   UNL     1     127.537 143.162 140.344  1.00  0.00     0.000 C 
BRANCH   2   3
ATOM      3  C   UNL     1     127.540 142.619 138.906  1.00  0.00     0.006 C 
BRANCH   3   4
ATOM      4  C   UNL     1     126.458 143.275 138.038  1.00  0.00     0.053 C 
BRANCH   4   5
ATOM      5  C   UNL     1     126.086 142.415 136.869  1.00  0.00     0.041 C 
ATOM      6  O   UNL     1     125.707 142.941 135.790  1.00  0.00    -0.550 OA
ATOM      7  O   UNL     1     126.130 141.031 136.982  1.00  0.00    -0.550 OA
ENDBRANCH   4   5
ENDBRANCH   3   4
ENDBRANCH   2   3
ENDBRANCH   1   2
BRANCH   1   8
ATOM      8  C   UNL     1     129.630 142.388 141.679  1.00  0.00     0.000 C 
BRANCH   8   9
ATOM      9  C   UNL     1     130.535 141.160 141.454  1.00  0.00     0.000 C 
BRANCH   9  10
ATOM     10  C   UNL     1     131.625 141.345 140.383  1.00  0.00     0.006 C 
BRANCH  10  11
ATOM     11  C   UNL     1     131.055 141.434 138.962  1.00  0.00     0.053 C 
BRANCH  11  12
ATOM     12  C   UNL     1     130.730 140.069 138.444  1.00  0.00     0.041 C 
ATOM     13  O   UNL     1     129.558 139.793 138.077  1.00  0.00    -0.550 OA
ATOM     14  O   UNL     1     131.711 139.086 138.411  1.00  0.00    -0.550 OA
ENDBRANCH  11  12
ENDBRANCH  10  11
ENDBRANCH   9  10
ENDBRANCH   8   9
ENDBRANCH   1   8
TORSDOF 9
ENDMDL
MODEL 3
REMARK VINA RESULT:    -4.433      1.658      2.183
REMARK INTER + INTRA:          -7.227
REMARK INTER:                  -6.715
REMARK INTRA:                  -0.511
REMARK UNBOUND:                -0.461
REMARK SMILES O=C([O-])CCCCCCCCC(=O)[O-]
REMARK SMILES IDX 7 1 6 2 5 3 4 4 2 5 1 6 3 7 8 8 9 9 10 10 11 11 12 12 13 13
REMARK SMILES IDX 14 14
REMARK H PARENT
REMARK Flexibility Score: inf
ROOT
ATOM      1  C   UNL     1     128.617 142.149 139.456  1.00  0.00     0.000 C 
ENDROOT
BRANCH   1   2
ATOM      2  C   UNL     1     127.906 142.939 140.571  1.00  0.00     0.000 C 
BRANCH   2   3
ATOM      3  C   UNL     1     126.456 143.303 140.211  1.00  0.00     0.006 C 
BRANCH   3   4
ATOM      4  C   UNL     1     126.285 144.806 139.950  1.00  0.00     0.053 C 
BRANCH   4   5
ATOM      5  C   UNL     1     125.972 145.089 138.512  1.00  0.00     0.041 C 
ATOM      6  O   UNL     1     126.006 144.161 137.662  1.00  0.00    -0.550 OA
ATOM      7  O   UNL     1     125.671 146.384 138.108  1.00  0.00    -0.550 OA
ENDBRANCH   4   5
ENDBRANCH   3   4
ENDBRANCH   2   3
ENDBRANCH   1   2
BRANCH   1   8
ATOM      8  C   UNL     1     130.041 141.671 139.803  1.00  0.00     0.000 C 
BRANCH   8   9
ATOM      9  C   UNL     1     130.841 141.084 138.622  1.00  0.00     0.000 C 
BRANCH   9  10
ATOM     10  C   UNL     1     130.735 139.558 138.461  1.00  0.00     0.006 C 
BRANCH  10  11
ATOM     11  C   UNL     1     129.904 139.144 137.240  1.00  0.00     0.053 C 
BRANCH  11  12
ATOM     12  C   UNL     1     128.488 138.872 137.639  1.00  0.00     0.041 C 
ATOM     13  O   UNL     1     127.538 139.373 136.984  1.00  0.00    -0.550 OA
ATOM     14  O   UNL     1     128.219 138.103 138.765  1.00  0.00    -0.550 OA
ENDBRANCH  11  12
ENDBRANCH  10  11
ENDBRANCH   9  10
ENDBRANCH   8   9
ENDBRANCH   1   8
TORSDOF 9
ENDMDL
MODEL 4
REMARK VINA RESULT:    -4.393      9.522     13.248
REMARK INTER + INTRA:          -7.165
REMARK INTER:                  -6.266
REMARK INTRA:                  -0.899
REMARK UNBOUND:                -0.461
REMARK SMILES O=C([O-])CCCCCCCCC(=O)[O-]
REMARK SMILES IDX 7 1 6 2 5 3 4 4 2 5 1 6 3 7 8 8 9 9 10 10 11 11 12 12 13 13
REMARK SMILES IDX 14 14
REMARK H PARENT
REMARK Flexibility Score: inf
ROOT
ATOM      1  C   UNL     1     140.536 134.870 141.655  1.00  0.00     0.000 C 
ENDROOT
BRANCH   1   2
ATOM      2  C   UNL     1     141.257 134.921 140.295  1.00  0.00     0.000 C 
BRANCH   2   3
ATOM      3  C   UNL     1     140.684 133.919 139.279  1.00  0.00     0.006 C 
BRANCH   3   4
ATOM      4  C   UNL     1     139.546 133.079 139.874  1.00  0.00     0.053 C 
BRANCH   4   5
ATOM      5  C   UNL     1     138.241 133.345 139.188  1.00  0.00     0.041 C 
ATOM      6  O   UNL     1     137.222 133.654 139.861  1.00  0.00    -0.550 OA
ATOM      7  O   UNL     1     138.143 133.224 137.807  1.00  0.00    -0.550 OA
ENDBRANCH   4   5
ENDBRANCH   3   4
ENDBRANCH   2   3
ENDBRANCH   1   2
BRANCH   1   8
ATOM      8  C   UNL     1     139.931 136.209 142.122  1.00  0.00     0.000 C 
BRANCH   8   9
ATOM      9  C   UNL     1     138.531 136.529 141.559  1.00  0.00     0.000 C 
BRANCH   9  10
ATOM     10  C   UNL     1     138.513 137.548 140.407  1.00  0.00     0.006 C 
BRANCH  10  11
ATOM     11  C   UNL     1     137.643 137.098 139.227  1.00  0.00     0.053 C 
BRANCH  11  12
ATOM     12  C   UNL     1     136.415 137.946 139.128  1.00  0.00     0.041 C 
ATOM     13  O   UNL     1     135.643 138.059 140.115  1.00  0.00    -0.550 OA
ATOM     14  O   UNL     1     136.097 138.572 137.930  1.00  0.00    -0.550 OA
ENDBRANCH  11  12
ENDBRANCH  10  11
ENDBRANCH   9  10
ENDBRANCH   8   9
ENDBRANCH   1   8
TORSDOF 9
ENDMDL
MODEL 5
REMARK VINA RESULT:    -4.370      1.138      6.307
REMARK INTER + INTRA:          -7.131
REMARK INTER:                  -6.621
REMARK INTRA:                  -0.509
REMARK UNBOUND:                -0.461
REMARK SMILES O=C([O-])CCCCCCCCC(=O)[O-]
REMARK SMILES IDX 7 1 6 2 5 3 4 4 2 5 1 6 3 7 8 8 9 9 10 10 11 11 12 12 13 13
REMARK SMILES IDX 14 14
REMARK H PARENT
REMARK Flexibility Score: inf
ROOT
ATOM      1  C   UNL     1     130.190 141.049 141.115  1.00  0.00     0.000 C 
ENDROOT
BRANCH   1   2
ATOM      2  C   UNL     1     131.509 141.349 140.378  1.00  0.00     0.000 C 
BRANCH   2   3
ATOM      3  C   UNL     1     131.610 140.633 139.021  1.00  0.00     0.006 C 
BRANCH   3   4
ATOM      4  C   UNL     1     130.230 140.308 138.434  1.00  0.00     0.053 C 
BRANCH   4   5
ATOM      5  C   UNL     1     130.269 139.090 137.563  1.00  0.00     0.041 C 
ATOM      6  O   UNL     1     129.699 138.030 137.930  1.00  0.00    -0.550 OA
ATOM      7  O   UNL     1     130.961 139.119 136.358  1.00  0.00    -0.550 OA
ENDBRANCH   4   5
ENDBRANCH   3   4
ENDBRANCH   2   3
ENDBRANCH   1   2
BRANCH   1   8
ATOM      8  C   UNL     1     129.463 142.285 141.682  1.00  0.00     0.000 C 
BRANCH   8   9
ATOM      9  C   UNL     1     127.955 142.359 141.370  1.00  0.00     0.000 C 
BRANCH   9  10
ATOM     10  C   UNL     1     127.605 142.958 139.997  1.00  0.00     0.006 C 
BRANCH  10  11
ATOM     11  C   UNL     1     126.307 143.775 140.017  1.00  0.00     0.053 C 
BRANCH  11  12
ATOM     12  C   UNL     1     126.096 144.454 138.701  1.00  0.00     0.041 C 
ATOM     13  O   UNL     1     125.880 145.693 138.654  1.00  0.00    -0.550 OA
ATOM     14  O   UNL     1     126.090 143.709 137.528  1.00  0.00    -0.550 OA
ENDBRANCH  11  12
ENDBRANCH  10  11
ENDBRANCH   9  10
ENDBRANCH   8   9
ENDBRANCH   1   8
TORSDOF 9
ENDMDL
MODEL 6
REMARK VINA RESULT:    -4.360      1.852      5.717
REMARK INTER + INTRA:          -7.114
REMARK INTER:                  -6.403
REMARK INTRA:                  -0.711
REMARK UNBOUND:                -0.461
REMARK SMILES O=C([O-])CCCCCCCCC(=O)[O-]
REMARK SMILES IDX 7 1 6 2 5 3 4 4 2 5 1 6 3 7 8 8 9 9 10 10 11 11 12 12 13 13
REMARK SMILES IDX 14 14
REMARK H PARENT
REMARK Flexibility Score: inf
ROOT
ATOM      1  C   UNL     1     129.614 142.377 141.404  1.00  0.00     0.000 C 
ENDROOT
BRANCH   1   2
ATOM      2  C   UNL     1     130.557 141.161 141.349  1.00  0.00     0.000 C 
BRANCH   2   3
ATOM      3  C   UNL     1     131.602 141.267 140.226  1.00  0.00     0.006 C 
BRANCH   3   4
ATOM      4  C   UNL     1     130.954 141.323 138.836  1.00  0.00     0.053 C 
BRANCH   4   5
ATOM      5  C   UNL     1     130.453 139.980 138.402  1.00  0.00     0.041 C 
ATOM      6  O   UNL     1     129.216 139.758 138.327  1.00  0.00    -0.550 OA
ATOM      7  O   UNL     1     131.353 138.963 138.108  1.00  0.00    -0.550 OA
ENDBRANCH   4   5
ENDBRANCH   3   4
ENDBRANCH   2   3
ENDBRANCH   1   2
BRANCH   1   8
ATOM      8  C   UNL     1     128.110 142.037 141.386  1.00  0.00     0.000 C 
BRANCH   8   9
ATOM      9  C   UNL     1     127.249 142.921 140.461  1.00  0.00     0.000 C 
BRANCH   9  10
ATOM     10  C   UNL     1     127.479 142.703 138.956  1.00  0.00     0.006 C 
BRANCH  10  11
ATOM     11  C   UNL     1     126.415 143.382 138.085  1.00  0.00     0.053 C 
BRANCH  11  12
ATOM     12  C   UNL     1     126.011 142.486 136.958  1.00  0.00     0.041 C 
ATOM     13  O   UNL     1     126.115 141.237 137.073  1.00  0.00    -0.550 OA
ATOM     14  O   UNL     1     125.566 143.033 135.761  1.00  0.00    -0.550 OA
ENDBRANCH  11  12
ENDBRANCH  10  11
ENDBRANCH   9  10
ENDBRANCH   8   9
ENDBRANCH   1   8
TORSDOF 9
ENDMDL
MODEL 7
REMARK VINA RESULT:    -4.296      9.217     11.938
REMARK INTER + INTRA:          -7.017
REMARK INTER:                  -6.208
REMARK INTRA:                  -0.809
REMARK UNBOUND:                -0.461
REMARK SMILES O=C([O-])CCCCCCCCC(=O)[O-]
REMARK SMILES IDX 7 1 6 2 5 3 4 4 2 5 1 6 3 7 8 8 9 9 10 10 11 11 12 12 13 13
REMARK SMILES IDX 14 14
REMARK H PARENT
REMARK Flexibility Score: inf
ROOT
ATOM      1  C   UNL     1     139.532 137.059 139.814  1.00  0.00     0.000 C 
ENDROOT
BRANCH   1   2
ATOM      2  C   UNL     1     138.217 136.727 139.085  1.00  0.00     0.000 C 
BRANCH   2   3
ATOM      3  C   UNL     1     137.004 136.696 140.030  1.00  0.00     0.006 C 
BRANCH   3   4
ATOM      4  C   UNL     1     137.148 137.691 141.190  1.00  0.00     0.053 C 
BRANCH   4   5
ATOM      5  C   UNL     1     136.479 138.997 140.888  1.00  0.00     0.041 C 
ATOM      6  O   UNL     1     135.772 139.123 139.854  1.00  0.00    -0.550 OA
ATOM      7  O   UNL     1     136.661 140.083 141.735  1.00  0.00    -0.550 OA
ENDBRANCH   4   5
ENDBRANCH   3   4
ENDBRANCH   2   3
ENDBRANCH   1   2
BRANCH   1   8
ATOM      8  C   UNL     1     140.531 135.889 139.921  1.00  0.00     0.000 C 
BRANCH   8   9
ATOM      9  C   UNL     1     140.193 134.834 140.993  1.00  0.00     0.000 C 
BRANCH   9  10
ATOM     10  C   UNL     1     139.551 133.543 140.453  1.00  0.00     0.006 C 
BRANCH  10  11
ATOM     11  C   UNL     1     140.036 133.181 139.044  1.00  0.00     0.053 C 
BRANCH  11  12
ATOM     12  C   UNL     1     138.933 133.361 138.050  1.00  0.00     0.041 C 
ATOM     13  O   UNL     1     139.174 133.861 136.920  1.00  0.00    -0.550 OA
ATOM     14  O   UNL     1     137.629 133.022 138.389  1.00  0.00    -0.550 OA
ENDBRANCH  11  12
ENDBRANCH  10  11
ENDBRANCH   9  10
ENDBRANCH   8   9
ENDBRANCH   1   8
TORSDOF 9
ENDMDL
MODEL 8
REMARK VINA RESULT:    -4.272      8.508     12.948
REMARK INTER + INTRA:          -6.980
REMARK INTER:                  -6.550
REMARK INTRA:                  -0.430
REMARK UNBOUND:                -0.461
REMARK SMILES O=C([O-])CCCCCCCCC(=O)[O-]
REMARK SMILES IDX 7 1 6 2 5 3 4 4 2 5 1 6 3 7 8 8 9 9 10 10 11 11 12 12 13 13
REMARK SMILES IDX 14 14
REMARK H PARENT
REMARK Flexibility Score: inf
ROOT
ATOM      1  C   UNL     1     139.653 136.808 139.227  1.00  0.00     0.000 C 
ENDROOT
BRANCH   1   2
ATOM      2  C   UNL     1     140.531 135.814 140.011  1.00  0.00     0.000 C 
BRANCH   2   3
ATOM      3  C   UNL     1     139.797 134.504 140.343  1.00  0.00     0.006 C 
BRANCH   3   4
ATOM      4  C   UNL     1     140.040 133.420 139.283  1.00  0.00     0.053 C 
BRANCH   4   5
ATOM      5  C   UNL     1     139.004 133.458 138.201  1.00  0.00     0.041 C 
ATOM      6  O   UNL     1     137.828 133.077 138.436  1.00  0.00    -0.550 OA
ATOM      7  O   UNL     1     139.347 133.888 136.925  1.00  0.00    -0.550 OA
ENDBRANCH   4   5
ENDBRANCH   3   4
ENDBRANCH   2   3
ENDBRANCH   1   2
BRANCH   1   8
ATOM      8  C   UNL     1     138.174 136.854 139.661  1.00  0.00     0.000 C 
BRANCH   8   9
ATOM      9  C   UNL     1     137.867 137.791 140.846  1.00  0.00     0.000 C 
BRANCH   9  10
ATOM     10  C   UNL     1     136.642 138.702 140.652  1.00  0.00     0.006 C 
BRANCH  10  11
ATOM     11  C   UNL     1     136.310 139.526 141.902  1.00  0.00     0.053 C 
BRANCH  11  12
ATOM     12  C   UNL     1     136.188 140.976 141.555  1.00  0.00     0.041 C 
ATOM     13  O   UNL     1     137.220 141.681 141.409  1.00  0.00    -0.550 OA
ATOM     14  O   UNL     1     134.933 141.561 141.442  1.00  0.00    -0.550 OA
ENDBRANCH  11  12
ENDBRANCH  10  11
ENDBRANCH   9  10
ENDBRANCH   8   9
ENDBRANCH   1   8
TORSDOF 9
ENDMDL
MODEL 9
REMARK VINA RESULT:    -4.235      2.775      7.087
REMARK INTER + INTRA:          -6.923
REMARK INTER:                  -6.599
REMARK INTRA:                  -0.324
REMARK UNBOUND:                -0.461
REMARK SMILES O=C([O-])CCCCCCCCC(=O)[O-]
REMARK SMILES IDX 7 1 6 2 5 3 4 4 2 5 1 6 3 7 8 8 9 9 10 10 11 11 12 12 13 13
REMARK SMILES IDX 14 14
REMARK H PARENT
REMARK Flexibility Score: inf
ROOT
ATOM      1  C   UNL     1     130.525 141.164 141.321  1.00  0.00     0.000 C 
ENDROOT
BRANCH   1   2
ATOM      2  C   UNL     1     131.726 141.428 140.394  1.00  0.00     0.000 C 
BRANCH   2   3
ATOM      3  C   UNL     1     132.869 140.420 140.599  1.00  0.00     0.006 C 
BRANCH   3   4
ATOM      4  C   UNL     1     133.565 140.603 141.954  1.00  0.00     0.053 C 
BRANCH   4   5
ATOM      5  C   UNL     1     134.792 141.455 141.838  1.00  0.00     0.041 C 
ATOM      6  O   UNL     1     135.935 140.929 141.868  1.00  0.00    -0.550 OA
ATOM      7  O   UNL     1     134.672 142.835 141.726  1.00  0.00    -0.550 OA
ENDBRANCH   4   5
ENDBRANCH   3   4
ENDBRANCH   2   3
ENDBRANCH   1   2
BRANCH   1   8
ATOM      8  C   UNL     1     129.540 142.342 141.463  1.00  0.00     0.000 C 
BRANCH   8   9
ATOM      9  C   UNL     1     128.048 141.953 141.466  1.00  0.00     0.000 C 
BRANCH   9  10
ATOM     10  C   UNL     1     127.141 142.852 140.608  1.00  0.00     0.006 C 
BRANCH  10  11
ATOM     11  C   UNL     1     127.449 142.751 139.109  1.00  0.00     0.053 C 
BRANCH  11  12
ATOM     12  C   UNL     1     126.498 143.597 138.322  1.00  0.00     0.041 C 
ATOM     13  O   UNL     1     126.113 143.225 137.183  1.00  0.00    -0.550 OA
ATOM     14  O   UNL     1     126.077 144.821 138.826  1.00  0.00    -0.550 OA
ENDBRANCH  11  12
ENDBRANCH  10  11
ENDBRANCH   9  10
ENDBRANCH   8   9
ENDBRANCH   1   8
TORSDOF 9
ENDMDL
