MODEL 1
REMARK VINA RESULT:    -4.213      0.000      0.000
REMARK INTER + INTRA:          -6.500
REMARK INTER:                  -6.184
REMARK INTRA:                  -0.316
REMARK UNBOUND:                -0.316
REMARK SMILES O=C([O-])CCCCCCCC(=O)[O-]
REMARK SMILES IDX 7 1 6 2 5 3 4 4 2 5 1 6 3 7 8 8 9 9 10 10 11 11 12 12 13 13
REMARK H PARENT
REMARK Flexibility Score: inf
ROOT
ATOM      1  C   UNL     1      -4.745  -2.740   5.441  1.00  0.00     0.000 C 
ENDROOT
BRANCH   1   2
ATOM      2  C   UNL     1      -4.201  -1.518   4.680  1.00  0.00     0.000 C 
BRANCH   2   3
ATOM      3  C   UNL     1      -3.787  -0.375   5.619  1.00  0.00     0.006 C 
BRANCH   3   4
ATOM      4  C   UNL     1      -2.350  -0.526   6.134  1.00  0.00     0.053 C 
BRANCH   4   5
ATOM      5  C   UNL     1      -1.406   0.268   5.288  1.00  0.00     0.041 C 
ATOM      6  O   UNL     1      -1.738   1.406   4.865  1.00  0.00    -0.550 OA
ATOM      7  O   UNL     1      -0.139  -0.229   5.006  1.00  0.00    -0.550 OA
ENDBRANCH   4   5
ENDBRANCH   3   4
ENDBRANCH   2   3
ENDBRANCH   1   2
BRANCH   1   8
ATOM      8  C   UNL     1      -4.935  -3.967   4.533  1.00  0.00     0.000 C 
BRANCH   8   9
ATOM      9  C   UNL     1      -5.375  -3.584   3.110  1.00  0.00     0.006 C 
BRANCH   9  10
ATOM     10  C   UNL     1      -5.478  -4.806   2.188  1.00  0.00     0.053 C 
BRANCH  10  11
ATOM     11  C   UNL     1      -4.887  -4.538   0.837  1.00  0.00     0.041 C 
ATOM     12  O   UNL     1      -4.335  -3.431   0.597  1.00  0.00    -0.550 OA
ATOM     13  O   UNL     1      -4.972  -5.496  -0.163  1.00  0.00    -0.550 OA
ENDBRANCH  10  11
ENDBRANCH   9  10
ENDBRANCH   8   9
ENDBRANCH   1   8
TORSDOF 8
ENDMDL
MODEL 2
REMARK VINA RESULT:    -4.158      0.828      6.090
REMARK INTER + INTRA:          -6.419
REMARK INTER:                  -6.056
REMARK INTRA:                  -0.363
REMARK UNBOUND:                -0.316
REMARK SMILES O=C([O-])CCCCCCCC(=O)[O-]
REMARK SMILES IDX 7 1 6 2 5 3 4 4 2 5 1 6 3 7 8 8 9 9 10 10 11 11 12 12 13 13
REMARK H PARENT
REMARK Flexibility Score: inf
ROOT
ATOM      1  C   UNL     1      -4.484  -2.519   4.970  1.00  0.00     0.000 C 
ENDROOT
BRANCH   1   2
ATOM      2  C   UNL     1      -4.226  -1.625   3.744  1.00  0.00     0.000 C 
BRANCH   2   3
ATOM      3  C   UNL     1      -5.035  -2.063   2.513  1.00  0.00     0.006 C 
BRANCH   3   4
ATOM      4  C   UNL     1      -5.113  -3.588   2.371  1.00  0.00     0.053 C 
BRANCH   4   5
ATOM      5  C   UNL     1      -4.849  -3.996   0.956  1.00  0.00     0.041 C 
ATOM      6  O   UNL     1      -4.883  -3.140   0.034  1.00  0.00    -0.550 OA
ATOM      7  O   UNL     1      -4.518  -5.312   0.662  1.00  0.00    -0.550 OA
ENDBRANCH   4   5
ENDBRANCH   3   4
ENDBRANCH   2   3
ENDBRANCH   1   2
BRANCH   1   8
ATOM      8  C   UNL     1      -4.337  -1.759   6.298  1.00  0.00     0.000 C 
BRANCH   8   9
ATOM      9  C   UNL     1      -3.653  -0.393   6.123  1.00  0.00     0.006 C 
BRANCH   9  10
ATOM     10  C   UNL     1      -2.155  -0.450   6.449  1.00  0.00     0.053 C 
BRANCH  10  11
ATOM     11  C   UNL     1      -1.335   0.295   5.440  1.00  0.00     0.041 C 
ATOM     12  O   UNL     1      -0.253  -0.194   5.020  1.00  0.00    -0.550 OA
ATOM     13  O   UNL     1      -1.750   1.540   4.988  1.00  0.00    -0.550 OA
ENDBRANCH  10  11
ENDBRANCH   9  10
ENDBRANCH   8   9
ENDBRANCH   1   8
TORSDOF 8
ENDMDL
MODEL 3
REMARK VINA RESULT:    -3.918      1.494      6.696
REMARK INTER + INTRA:          -6.067
REMARK INTER:                  -5.783
REMARK INTRA:                  -0.283
REMARK UNBOUND:                -0.316
REMARK SMILES O=C([O-])CCCCCCCC(=O)[O-]
REMARK SMILES IDX 7 1 6 2 5 3 4 4 2 5 1 6 3 7 8 8 9 9 10 10 11 11 12 12 13 13
REMARK H PARENT
REMARK Flexibility Score: inf
ROOT
ATOM      1  C   UNL     1      -4.292  -1.555   5.544  1.00  0.00     0.000 C 
ENDROOT
BRANCH   1   2
ATOM      2  C   UNL     1      -4.206  -1.685   4.013  1.00  0.00     0.000 C 
BRANCH   2   3
ATOM      3  C   UNL     1      -4.932  -2.932   3.485  1.00  0.00     0.006 C 
BRANCH   3   4
ATOM      4  C   UNL     1      -4.948  -3.000   1.952  1.00  0.00     0.053 C 
BRANCH   4   5
ATOM      5  C   UNL     1      -4.935  -4.423   1.493  1.00  0.00     0.041 C 
ATOM      6  O   UNL     1      -5.349  -5.338   2.252  1.00  0.00    -0.550 OA
ATOM      7  O   UNL     1      -4.512  -4.735   0.207  1.00  0.00    -0.550 OA
ENDBRANCH   4   5
ENDBRANCH   3   4
ENDBRANCH   2   3
ENDBRANCH   1   2
BRANCH   1   8
ATOM      8  C   UNL     1      -3.305  -0.520   6.107  1.00  0.00     0.000 C 
BRANCH   8   9
ATOM      9  C   UNL     1      -2.288  -0.043   5.056  1.00  0.00     0.006 C 
BRANCH   9  10
ATOM     10  C   UNL     1      -1.135   0.750   5.685  1.00  0.00     0.053 C 
BRANCH  10  11
ATOM     11  C   UNL     1      -0.424  -0.040   6.741  1.00  0.00     0.041 C 
ATOM     12  O   UNL     1       0.339  -0.988   6.415  1.00  0.00    -0.550 OA
ATOM     13  O   UNL     1      -0.627   0.251   8.083  1.00  0.00    -0.550 OA
ENDBRANCH  10  11
ENDBRANCH   9  10
ENDBRANCH   8   9
ENDBRANCH   1   8
TORSDOF 8
ENDMDL
MODEL 4
REMARK VINA RESULT:    -3.844      1.463      6.729
REMARK INTER + INTRA:          -5.957
REMARK INTER:                  -5.601
REMARK INTRA:                  -0.356
REMARK UNBOUND:                -0.316
REMARK SMILES O=C([O-])CCCCCCCC(=O)[O-]
REMARK SMILES IDX 7 1 6 2 5 3 4 4 2 5 1 6 3 7 8 8 9 9 10 10 11 11 12 12 13 13
REMARK H PARENT
REMARK Flexibility Score: inf
ROOT
ATOM      1  C   UNL     1      -4.843  -2.078   3.188  1.00  0.00     0.000 C 
ENDROOT
BRANCH   1   2
ATOM      2  C   UNL     1      -4.912  -2.726   1.794  1.00  0.00     0.000 C 
BRANCH   2   3
ATOM      3  C   UNL     1      -5.288  -4.214   1.853  1.00  0.00     0.006 C 
BRANCH   3   4
ATOM      4  C   UNL     1      -4.753  -5.005   0.652  1.00  0.00     0.053 C 
BRANCH   4   5
ATOM      5  C   UNL     1      -5.864  -5.335  -0.293  1.00  0.00     0.041 C 
ATOM      6  O   UNL     1      -5.650  -5.380  -1.533  1.00  0.00    -0.550 OA
ATOM      7  O   UNL     1      -7.127  -5.641   0.199  1.00  0.00    -0.550 OA
ENDBRANCH   4   5
ENDBRANCH   3   4
ENDBRANCH   2   3
ENDBRANCH   1   2
BRANCH   1   8
ATOM      8  C   UNL     1      -4.744  -3.115   4.318  1.00  0.00     0.000 C 
BRANCH   8   9
ATOM      9  C   UNL     1      -4.254  -2.501   5.641  1.00  0.00     0.006 C 
BRANCH   9  10
ATOM     10  C   UNL     1      -4.100  -0.977   5.549  1.00  0.00     0.053 C 
BRANCH  10  11
ATOM     11  C   UNL     1      -2.684  -0.545   5.779  1.00  0.00     0.041 C 
ATOM     12  O   UNL     1      -2.044   0.036   4.862  1.00  0.00    -0.550 OA
ATOM     13  O   UNL     1      -2.062  -0.809   6.992  1.00  0.00    -0.550 OA
ENDBRANCH  10  11
ENDBRANCH   9  10
ENDBRANCH   8   9
ENDBRANCH   1   8
TORSDOF 8
ENDMDL
MODEL 5
REMARK VINA RESULT:    -3.803      2.511      6.932
REMARK INTER + INTRA:          -5.898
REMARK INTER:                  -5.390
REMARK INTRA:                  -0.507
REMARK UNBOUND:                -0.316
REMARK SMILES O=C([O-])CCCCCCCC(=O)[O-]
REMARK SMILES IDX 7 1 6 2 5 3 4 4 2 5 1 6 3 7 8 8 9 9 10 10 11 11 12 12 13 13
REMARK H PARENT
REMARK Flexibility Score: inf
ROOT
ATOM      1  C   UNL     1      -5.032  -2.730   2.130  1.00  0.00     0.000 C 
ENDROOT
BRANCH   1   2
ATOM      2  C   UNL     1      -4.681  -3.356   0.768  1.00  0.00     0.000 C 
BRANCH   2   3
ATOM      3  C   UNL     1      -4.865  -4.881   0.756  1.00  0.00     0.006 C 
BRANCH   3   4
ATOM      4  C   UNL     1      -5.537  -5.383  -0.529  1.00  0.00     0.053 C 
BRANCH   4   5
ATOM      5  C   UNL     1      -7.001  -5.592  -0.305  1.00  0.00     0.041 C 
ATOM      6  O   UNL     1      -7.738  -5.976  -1.251  1.00  0.00    -0.550 OA
ATOM      7  O   UNL     1      -7.543  -5.411   0.961  1.00  0.00    -0.550 OA
ENDBRANCH   4   5
ENDBRANCH   3   4
ENDBRANCH   2   3
ENDBRANCH   1   2
BRANCH   1   8
ATOM      8  C   UNL     1      -5.209  -3.781   3.237  1.00  0.00     0.000 C 
BRANCH   8   9
ATOM      9  C   UNL     1      -4.828  -3.244   4.627  1.00  0.00     0.006 C 
BRANCH   9  10
ATOM     10  C   UNL     1      -4.251  -1.824   4.561  1.00  0.00     0.053 C 
BRANCH  10  11
ATOM     11  C   UNL     1      -5.096  -0.842   5.313  1.00  0.00     0.041 C 
ATOM     12  O   UNL     1      -4.570  -0.078   6.166  1.00  0.00    -0.550 OA
ATOM     13  O   UNL     1      -6.466  -0.791   5.096  1.00  0.00    -0.550 OA
ENDBRANCH  10  11
ENDBRANCH   9  10
ENDBRANCH   8   9
ENDBRANCH   1   8
TORSDOF 8
ENDMDL
MODEL 6
REMARK VINA RESULT:    -3.766      4.247      5.152
REMARK INTER + INTRA:          -5.843
REMARK INTER:                  -5.187
REMARK INTRA:                  -0.656
REMARK UNBOUND:                -0.316
REMARK SMILES O=C([O-])CCCCCCCC(=O)[O-]
REMARK SMILES IDX 7 1 6 2 5 3 4 4 2 5 1 6 3 7 8 8 9 9 10 10 11 11 12 12 13 13
REMARK H PARENT
REMARK Flexibility Score: inf
ROOT
ATOM      1  C   UNL     1      -6.062  -2.893   0.696  1.00  0.00     0.000 C 
ENDROOT
BRANCH   1   2
ATOM      2  C   UNL     1      -5.889  -2.194   2.056  1.00  0.00     0.000 C 
BRANCH   2   3
ATOM      3  C   UNL     1      -4.873  -2.908   2.961  1.00  0.00     0.006 C 
BRANCH   3   4
ATOM      4  C   UNL     1      -5.538  -3.615   4.150  1.00  0.00     0.053 C 
BRANCH   4   5
ATOM      5  C   UNL     1      -6.148  -4.909   3.713  1.00  0.00     0.041 C 
ATOM      6  O   UNL     1      -7.383  -4.980   3.481  1.00  0.00    -0.550 OA
ATOM      7  O   UNL     1      -5.344  -6.024   3.515  1.00  0.00    -0.550 OA
ENDBRANCH   4   5
ENDBRANCH   3   4
ENDBRANCH   2   3
ENDBRANCH   1   2
BRANCH   1   8
ATOM      8  C   UNL     1      -4.820  -3.697   0.280  1.00  0.00     0.000 C 
BRANCH   8   9
ATOM      9  C   UNL     1      -5.116  -5.198   0.120  1.00  0.00     0.006 C 
BRANCH   9  10
ATOM     10  C   UNL     1      -6.313  -5.456  -0.804  1.00  0.00     0.053 C 
BRANCH  10  11
ATOM     11  C   UNL     1      -5.922  -5.415  -2.250  1.00  0.00     0.041 C 
ATOM     12  O   UNL     1      -5.211  -6.333  -2.739  1.00  0.00    -0.550 OA
ATOM     13  O   UNL     1      -6.316  -4.349  -3.048  1.00  0.00    -0.550 OA
ENDBRANCH  10  11
ENDBRANCH   9  10
ENDBRANCH   8   9
ENDBRANCH   1   8
TORSDOF 8
ENDMDL
MODEL 7
REMARK VINA RESULT:    -3.754      4.751      5.700
REMARK INTER + INTRA:          -5.826
REMARK INTER:                  -5.416
REMARK INTRA:                  -0.411
REMARK UNBOUND:                -0.316
REMARK SMILES O=C([O-])CCCCCCCC(=O)[O-]
REMARK SMILES IDX 7 1 6 2 5 3 4 4 2 5 1 6 3 7 8 8 9 9 10 10 11 11 12 12 13 13
REMARK H PARENT
REMARK Flexibility Score: inf
ROOT
ATOM      1  C   UNL     1      -5.271  -2.525   1.435  1.00  0.00     0.000 C 
ENDROOT
BRANCH   1   2
ATOM      2  C   UNL     1      -6.117  -1.332   0.957  1.00  0.00     0.000 C 
BRANCH   2   3
ATOM      3  C   UNL     1      -5.988  -1.083  -0.554  1.00  0.00     0.006 C 
BRANCH   3   4
ATOM      4  C   UNL     1      -6.227   0.384  -0.933  1.00  0.00     0.053 C 
BRANCH   4   5
ATOM      5  C   UNL     1      -5.249   0.819  -1.978  1.00  0.00     0.041 C 
ATOM      6  O   UNL     1      -4.993   0.071  -2.956  1.00  0.00    -0.550 OA
ATOM      7  O   UNL     1      -4.658   2.074  -1.897  1.00  0.00    -0.550 OA
ENDBRANCH   4   5
ENDBRANCH   3   4
ENDBRANCH   2   3
ENDBRANCH   1   2
BRANCH   1   8
ATOM      8  C   UNL     1      -4.832  -3.440   0.280  1.00  0.00     0.000 C 
BRANCH   8   9
ATOM      9  C   UNL     1      -5.205  -4.912   0.520  1.00  0.00     0.006 C 
BRANCH   9  10
ATOM     10  C   UNL     1      -6.366  -5.368  -0.375  1.00  0.00     0.053 C 
BRANCH  10  11
ATOM     11  C   UNL     1      -6.030  -5.247  -1.830  1.00  0.00     0.041 C 
ATOM     12  O   UNL     1      -6.511  -4.305  -2.513  1.00  0.00    -0.550 OA
ATOM     13  O   UNL     1      -5.213  -6.191  -2.437  1.00  0.00    -0.550 OA
ENDBRANCH  10  11
ENDBRANCH   9  10
ENDBRANCH   8   9
ENDBRANCH   1   8
TORSDOF 8
ENDMDL
MODEL 8
REMARK VINA RESULT:    -3.734      1.644      2.689
REMARK INTER + INTRA:          -5.797
REMARK INTER:                  -5.472
REMARK INTRA:                  -0.325
REMARK UNBOUND:                -0.316
REMARK SMILES O=C([O-])CCCCCCCC(=O)[O-]
REMARK SMILES IDX 7 1 6 2 5 3 4 4 2 5 1 6 3 7 8 8 9 9 10 10 11 11 12 12 13 13
REMARK H PARENT
REMARK Flexibility Score: inf
ROOT
ATOM      1  C   UNL     1      -5.246  -3.643   2.965  1.00  0.00     0.000 C 
ENDROOT
BRANCH   1   2
ATOM      2  C   UNL     1      -5.256  -3.962   4.471  1.00  0.00     0.000 C 
BRANCH   2   3
ATOM      3  C   UNL     1      -4.518  -2.903   5.303  1.00  0.00     0.006 C 
BRANCH   3   4
ATOM      4  C   UNL     1      -4.163  -1.653   4.487  1.00  0.00     0.053 C 
BRANCH   4   5
ATOM      5  C   UNL     1      -3.430  -0.665   5.337  1.00  0.00     0.041 C 
ATOM      6  O   UNL     1      -2.305  -0.231   4.977  1.00  0.00    -0.550 OA
ATOM      7  O   UNL     1      -4.013  -0.185   6.503  1.00  0.00    -0.550 OA
ENDBRANCH   4   5
ENDBRANCH   3   4
ENDBRANCH   2   3
ENDBRANCH   1   2
BRANCH   1   8
ATOM      8  C   UNL     1      -5.507  -4.884   2.095  1.00  0.00     0.000 C 
BRANCH   8   9
ATOM      9  C   UNL     1      -4.614  -4.924   0.844  1.00  0.00     0.006 C 
BRANCH   9  10
ATOM     10  C   UNL     1      -5.412  -5.242  -0.427  1.00  0.00     0.053 C 
BRANCH  10  11
ATOM     11  C   UNL     1      -6.098  -4.028  -0.974  1.00  0.00     0.041 C 
ATOM     12  O   UNL     1      -5.520  -2.909  -0.947  1.00  0.00    -0.550 OA
ATOM     13  O   UNL     1      -7.386  -4.126  -1.484  1.00  0.00    -0.550 OA
ENDBRANCH  10  11
ENDBRANCH   9  10
ENDBRANCH   8   9
ENDBRANCH   1   8
TORSDOF 8
ENDMDL
MODEL 9
REMARK VINA RESULT:    -3.722      3.654      4.333
REMARK INTER + INTRA:          -5.779
REMARK INTER:                  -5.155
REMARK INTRA:                  -0.624
REMARK UNBOUND:                -0.316
REMARK SMILES O=C([O-])CCCCCCCC(=O)[O-]
REMARK SMILES IDX 7 1 6 2 5 3 4 4 2 5 1 6 3 7 8 8 9 9 10 10 11 11 12 12 13 13
REMARK H PARENT
REMARK Flexibility Score: inf
ROOT
ATOM      1  C   UNL     1      -5.523  -4.976   2.471  1.00  0.00     0.000 C 
ENDROOT
BRANCH   1   2
ATOM      2  C   UNL     1      -5.403  -4.230   3.811  1.00  0.00     0.000 C 
BRANCH   2   3
ATOM      3  C   UNL     1      -4.956  -2.770   3.636  1.00  0.00     0.006 C 
BRANCH   3   4
ATOM      4  C   UNL     1      -4.842  -2.362   2.161  1.00  0.00     0.053 C 
BRANCH   4   5
ATOM      5  C   UNL     1      -5.990  -1.487   1.772  1.00  0.00     0.041 C 
ATOM      6  O   UNL     1      -6.949  -1.308   2.568  1.00  0.00    -0.550 OA
ATOM      7  O   UNL     1      -5.979  -0.828   0.549  1.00  0.00    -0.550 OA
ENDBRANCH   4   5
ENDBRANCH   3   4
ENDBRANCH   2   3
ENDBRANCH   1   2
BRANCH   1   8
ATOM      8  C   UNL     1      -6.980  -5.297   2.100  1.00  0.00     0.000 C 
BRANCH   8   9
ATOM      9  C   UNL     1      -7.214  -5.301   0.580  1.00  0.00     0.006 C 
BRANCH   9  10
ATOM     10  C   UNL     1      -5.898  -5.352  -0.208  1.00  0.00     0.053 C 
BRANCH  10  11
ATOM     11  C   UNL     1      -6.002  -4.627  -1.515  1.00  0.00     0.041 C 
ATOM     12  O   UNL     1      -6.231  -3.388  -1.535  1.00  0.00    -0.550 OA
ATOM     13  O   UNL     1      -5.875  -5.323  -2.710  1.00  0.00    -0.550 OA
ENDBRANCH  10  11
ENDBRANCH   9  10
ENDBRANCH   8   9
ENDBRANCH   1   8
TORSDOF 8
ENDMDL
