MODEL 1
REMARK VINA RESULT:    -5.453      0.000      0.000
REMARK INTER + INTRA:          -5.612
REMARK INTER:                  -5.612
REMARK INTRA:                   0.000
REMARK UNBOUND:                 0.000
REMARK SMILES Oc1ccc2[nH]ccc2c1
REMARK SMILES IDX 3 1 4 2 5 3 9 4 8 5 7 6 6 7 10 8 2 9 1 11
REMARK H PARENT 6 10 1 12
REMARK Flexibility Score: inf
ROOT
ATOM      1  C   UNL     1      29.498  20.769  27.585  1.00  0.00     0.048 A 
ATOM      2  C   UNL     1      28.260  20.849  28.249  1.00  0.00     0.030 A 
ATOM      3  C   UNL     1      28.271  21.126  29.615  1.00  0.00     0.046 A 
ATOM      4  C   UNL     1      29.441  21.316  30.301  1.00  0.00     0.003 A 
ATOM      5  C   UNL     1      29.111  21.567  31.616  1.00  0.00     0.028 A 
ATOM      6  C   UNL     1      27.721  21.515  31.657  1.00  0.00     0.083 A 
ATOM      7  N   UNL     1      27.213  21.245  30.433  1.00  0.00    -0.361 N 
ATOM      8  C   UNL     1      30.683  21.243  29.674  1.00  0.00     0.056 A 
ATOM      9  C   UNL     1      30.709  20.964  28.294  1.00  0.00     0.116 A 
ATOM     10  H   UNL     1      26.203  21.150  30.180  1.00  0.00     0.166 HD
ENDROOT
BRANCH   9  11
ATOM     11  O   UNL     1      31.934  20.886  27.636  1.00  0.00    -0.508 OA
ATOM     12  H   UNL     1      32.478  20.031  27.633  1.00  0.00     0.293 HD
ENDBRANCH   9  11
TORSDOF 1
ENDMDL
MODEL 2
REMARK VINA RESULT:    -5.387      2.271      3.317
REMARK INTER + INTRA:          -5.545
REMARK INTER:                  -5.545
REMARK INTRA:                   0.000
REMARK UNBOUND:                 0.000
REMARK SMILES Oc1ccc2[nH]ccc2c1
REMARK SMILES IDX 3 1 4 2 5 3 9 4 8 5 7 6 6 7 10 8 2 9 1 11
REMARK H PARENT 6 10 1 12
REMARK Flexibility Score: inf
ROOT
ATOM      1  C   UNL     1      30.647  22.905  30.404  1.00  0.00     0.048 A 
ATOM      2  C   UNL     1      30.297  21.542  30.412  1.00  0.00     0.030 A 
ATOM      3  C   UNL     1      29.533  21.060  29.350  1.00  0.00     0.046 A 
ATOM      4  C   UNL     1      29.129  21.875  28.327  1.00  0.00     0.003 A 
ATOM      5  C   UNL     1      28.399  21.102  27.449  1.00  0.00     0.028 A 
ATOM      6  C   UNL     1      28.401  19.825  28.002  1.00  0.00     0.083 A 
ATOM      7  N   UNL     1      29.094  19.804  29.163  1.00  0.00    -0.361 N 
ATOM      8  C   UNL     1      29.458  23.228  28.288  1.00  0.00     0.056 A 
ATOM      9  C   UNL     1      30.228  23.749  29.346  1.00  0.00     0.116 A 
ATOM     10  H   UNL     1      29.254  18.979  29.784  1.00  0.00     0.166 HD
ENDROOT
BRANCH   9  11
ATOM     11  O   UNL     1      30.576  25.098  29.338  1.00  0.00    -0.508 OA
ATOM     12  H   UNL     1      31.534  25.397  29.471  1.00  0.00     0.293 HD
ENDBRANCH   9  11
TORSDOF 1
ENDMDL
MODEL 3
REMARK VINA RESULT:    -5.354     17.166     17.804
REMARK INTER + INTRA:          -5.510
REMARK INTER:                  -5.510
REMARK INTRA:                   0.000
REMARK UNBOUND:                 0.000
REMARK SMILES Oc1ccc2[nH]ccc2c1
REMARK SMILES IDX 3 1 4 2 5 3 9 4 8 5 7 6 6 7 10 8 2 9 1 11
REMARK H PARENT 6 10 1 12
REMARK Flexibility Score: inf
ROOT
ATOM      1  C   UNL     1      22.597  36.030  20.234  1.00  0.00     0.048 A 
ATOM      2  C   UNL     1      23.118  35.109  19.305  1.00  0.00     0.030 A 
ATOM      3  C   UNL     1      24.400  34.613  19.531  1.00  0.00     0.046 A 
ATOM      4  C   UNL     1      25.141  34.997  20.617  1.00  0.00     0.003 A 
ATOM      5  C   UNL     1      26.347  34.334  20.549  1.00  0.00     0.028 A 
ATOM      6  C   UNL     1      26.271  33.560  19.395  1.00  0.00     0.083 A 
ATOM      7  N   UNL     1      25.081  33.733  18.777  1.00  0.00    -0.361 N 
ATOM      8  C   UNL     1      24.655  35.906  21.555  1.00  0.00     0.056 A 
ATOM      9  C   UNL     1      23.363  36.429  21.357  1.00  0.00     0.116 A 
ATOM     10  H   UNL     1      24.760  33.276  17.894  1.00  0.00     0.166 HD
ENDROOT
BRANCH   9  11
ATOM     11  O   UNL     1      22.846  37.339  22.277  1.00  0.00    -0.508 OA
ATOM     12  H   UNL     1      23.020  37.243  23.270  1.00  0.00     0.293 HD
ENDBRANCH   9  11
TORSDOF 1
ENDMDL
MODEL 4
REMARK VINA RESULT:    -5.307     13.621     14.097
REMARK INTER + INTRA:          -5.462
REMARK INTER:                  -5.462
REMARK INTRA:                   0.000
REMARK UNBOUND:                 0.000
REMARK SMILES Oc1ccc2[nH]ccc2c1
REMARK SMILES IDX 3 1 4 2 5 3 9 4 8 5 7 6 6 7 10 8 2 9 1 11
REMARK H PARENT 6 10 1 12
REMARK Flexibility Score: inf
ROOT
ATOM      1  C   UNL     1      35.915  34.912  29.267  1.00  0.00     0.048 A 
ATOM      2  C   UNL     1      35.479  33.782  29.984  1.00  0.00     0.030 A 
ATOM      3  C   UNL     1      34.163  33.362  29.798  1.00  0.00     0.046 A 
ATOM      4  C   UNL     1      33.311  34.017  28.950  1.00  0.00     0.003 A 
ATOM      5  C   UNL     1      32.100  33.360  28.992  1.00  0.00     0.028 A 
ATOM      6  C   UNL     1      32.288  32.312  29.888  1.00  0.00     0.083 A 
ATOM      7  N   UNL     1      33.549  32.317  30.378  1.00  0.00    -0.361 N 
ATOM      8  C   UNL     1      33.711  35.139  28.226  1.00  0.00     0.056 A 
ATOM      9  C   UNL     1      35.034  35.592  28.390  1.00  0.00     0.116 A 
ATOM     10  H   UNL     1      33.958  31.645  31.065  1.00  0.00     0.166 HD
ENDROOT
BRANCH   9  11
ATOM     11  O   UNL     1      35.467  36.710  27.681  1.00  0.00    -0.508 OA
ATOM     12  H   UNL     1      36.231  37.284  28.016  1.00  0.00     0.293 HD
ENDBRANCH   9  11
TORSDOF 1
ENDMDL
MODEL 5
REMARK VINA RESULT:    -5.282     16.947     17.624
REMARK INTER + INTRA:          -5.436
REMARK INTER:                  -5.436
REMARK INTRA:                   0.000
REMARK UNBOUND:                 0.000
REMARK SMILES Oc1ccc2[nH]ccc2c1
REMARK SMILES IDX 3 1 4 2 5 3 9 4 8 5 7 6 6 7 10 8 2 9 1 11
REMARK H PARENT 6 10 1 12
REMARK Flexibility Score: inf
ROOT
ATOM      1  C   UNL     1      24.186  36.687  22.497  1.00  0.00     0.048 A 
ATOM      2  C   UNL     1      25.473  36.135  22.351  1.00  0.00     0.030 A 
ATOM      3  C   UNL     1      25.681  35.240  21.304  1.00  0.00     0.046 A 
ATOM      4  C   UNL     1      24.678  34.898  20.438  1.00  0.00     0.003 A 
ATOM      5  C   UNL     1      25.203  34.004  19.530  1.00  0.00     0.028 A 
ATOM      6  C   UNL     1      26.534  33.848  19.904  1.00  0.00     0.083 A 
ATOM      7  N   UNL     1      26.822  34.604  20.988  1.00  0.00    -0.361 N 
ATOM      8  C   UNL     1      23.393  35.425  20.554  1.00  0.00     0.056 A 
ATOM      9  C   UNL     1      23.146  36.333  21.602  1.00  0.00     0.116 A 
ATOM     10  H   UNL     1      27.743  34.676  21.476  1.00  0.00     0.166 HD
ENDROOT
BRANCH   9  11
ATOM     11  O   UNL     1      21.873  36.880  21.747  1.00  0.00    -0.508 OA
ATOM     12  H   UNL     1      21.086  36.315  22.044  1.00  0.00     0.293 HD
ENDBRANCH   9  11
TORSDOF 1
ENDMDL
MODEL 6
REMARK VINA RESULT:    -5.265     14.269     14.893
REMARK INTER + INTRA:          -5.419
REMARK INTER:                  -5.419
REMARK INTRA:                   0.000
REMARK UNBOUND:                 0.000
REMARK SMILES Oc1ccc2[nH]ccc2c1
REMARK SMILES IDX 3 1 4 2 5 3 9 4 8 5 7 6 6 7 10 8 2 9 1 11
REMARK H PARENT 6 10 1 12
REMARK Flexibility Score: inf
ROOT
ATOM      1  C   UNL     1      35.120  33.599  30.377  1.00  0.00     0.048 A 
ATOM      2  C   UNL     1      35.852  34.590  29.696  1.00  0.00     0.030 A 
ATOM      3  C   UNL     1      35.251  35.205  28.600  1.00  0.00     0.046 A 
ATOM      4  C   UNL     1      33.990  34.867  28.186  1.00  0.00     0.003 A 
ATOM      5  C   UNL     1      33.693  35.648  27.090  1.00  0.00     0.028 A 
ATOM      6  C   UNL     1      34.820  36.440  26.893  1.00  0.00     0.083 A 
ATOM      7  N   UNL     1      35.769  36.166  27.816  1.00  0.00    -0.361 N 
ATOM      8  C   UNL     1      33.238  33.891  28.837  1.00  0.00     0.056 A 
ATOM      9  C   UNL     1      33.815  33.248  29.949  1.00  0.00     0.116 A 
ATOM     10  H   UNL     1      36.710  36.612  27.900  1.00  0.00     0.166 HD
ENDROOT
BRANCH   9  11
ATOM     11  O   UNL     1      33.091  32.268  30.624  1.00  0.00    -0.508 OA
ATOM     12  H   UNL     1      32.088  32.180  30.510  1.00  0.00     0.293 HD
ENDBRANCH   9  11
TORSDOF 1
ENDMDL
MODEL 7
REMARK VINA RESULT:    -5.210     17.083     17.517
REMARK INTER + INTRA:          -5.363
REMARK INTER:                  -5.363
REMARK INTRA:                   0.000
REMARK UNBOUND:                 0.000
REMARK SMILES Oc1ccc2[nH]ccc2c1
REMARK SMILES IDX 3 1 4 2 5 3 9 4 8 5 7 6 6 7 10 8 2 9 1 11
REMARK H PARENT 6 10 1 12
REMARK Flexibility Score: inf
ROOT
ATOM      1  C   UNL     1      23.690  34.878  19.122  1.00  0.00     0.048 A 
ATOM      2  C   UNL     1      22.877  35.760  19.858  1.00  0.00     0.030 A 
ATOM      3  C   UNL     1      23.282  36.093  21.149  1.00  0.00     0.046 A 
ATOM      4  C   UNL     1      24.431  35.588  21.696  1.00  0.00     0.003 A 
ATOM      5  C   UNL     1      24.544  36.105  22.969  1.00  0.00     0.028 A 
ATOM      6  C   UNL     1      23.427  36.920  23.129  1.00  0.00     0.083 A 
ATOM      7  N   UNL     1      22.659  36.909  22.016  1.00  0.00    -0.361 N 
ATOM      8  C   UNL     1      25.258  34.713  20.995  1.00  0.00     0.056 A 
ATOM      9  C   UNL     1      24.879  34.354  19.687  1.00  0.00     0.116 A 
ATOM     10  H   UNL     1      21.766  37.430  21.865  1.00  0.00     0.166 HD
ENDROOT
BRANCH   9  11
ATOM     11  O   UNL     1      25.683  33.483  18.957  1.00  0.00    -0.508 OA
ATOM     12  H   UNL     1      25.350  32.570  18.672  1.00  0.00     0.293 HD
ENDBRANCH   9  11
TORSDOF 1
ENDMDL
MODEL 8
REMARK VINA RESULT:    -5.198     13.737     14.077
REMARK INTER + INTRA:          -5.349
REMARK INTER:                  -5.349
REMARK INTRA:                   0.000
REMARK UNBOUND:                 0.000
REMARK SMILES Oc1ccc2[nH]ccc2c1
REMARK SMILES IDX 3 1 4 2 5 3 9 4 8 5 7 6 6 7 10 8 2 9 1 11
REMARK H PARENT 6 10 1 12
REMARK Flexibility Score: inf
ROOT
ATOM      1  C   UNL     1      34.111  35.890  27.451  1.00  0.00     0.048 A 
ATOM      2  C   UNL     1      32.842  35.292  27.565  1.00  0.00     0.030 A 
ATOM      3  C   UNL     1      32.697  34.239  28.466  1.00  0.00     0.046 A 
ATOM      4  C   UNL     1      33.746  33.791  29.224  1.00  0.00     0.003 A 
ATOM      5  C   UNL     1      33.279  32.754  30.002  1.00  0.00     0.028 A 
ATOM      6  C   UNL     1      31.934  32.626  29.667  1.00  0.00     0.083 A 
ATOM      7  N   UNL     1      31.584  33.534  28.729  1.00  0.00    -0.361 N 
ATOM      8  C   UNL     1      35.015  34.360  29.136  1.00  0.00     0.056 A 
ATOM      9  C   UNL     1      35.197  35.426  28.233  1.00  0.00     0.116 A 
ATOM     10  H   UNL     1      30.640  33.660  28.298  1.00  0.00     0.166 HD
ENDROOT
BRANCH   9  11
ATOM     11  O   UNL     1      36.452  36.019  28.121  1.00  0.00    -0.508 OA
ATOM     12  H   UNL     1      37.023  36.206  28.937  1.00  0.00     0.293 HD
ENDBRANCH   9  11
TORSDOF 1
ENDMDL
MODEL 9
REMARK VINA RESULT:    -5.085      2.825      4.106
REMARK INTER + INTRA:          -5.234
REMARK INTER:                  -5.234
REMARK INTRA:                   0.000
REMARK UNBOUND:                 0.000
REMARK SMILES Oc1ccc2[nH]ccc2c1
REMARK SMILES IDX 3 1 4 2 5 3 9 4 8 5 7 6 6 7 10 8 2 9 1 11
REMARK H PARENT 6 10 1 12
REMARK Flexibility Score: inf
ROOT
ATOM      1  C   UNL     1      28.654  23.010  29.925  1.00  0.00     0.048 A 
ATOM      2  C   UNL     1      29.790  23.575  29.315  1.00  0.00     0.030 A 
ATOM      3  C   UNL     1      30.563  22.755  28.496  1.00  0.00     0.046 A 
ATOM      4  C   UNL     1      30.241  21.442  28.281  1.00  0.00     0.003 A 
ATOM      5  C   UNL     1      31.193  20.917  27.435  1.00  0.00     0.028 A 
ATOM      6  C   UNL     1      32.066  21.969  27.173  1.00  0.00     0.083 A 
ATOM      7  N   UNL     1      31.678  23.089  27.824  1.00  0.00    -0.361 N 
ATOM      8  C   UNL     1      29.124  20.852  28.869  1.00  0.00     0.056 A 
ATOM      9  C   UNL     1      28.320  21.651  29.704  1.00  0.00     0.116 A 
ATOM     10  H   UNL     1      32.150  24.021  27.805  1.00  0.00     0.166 HD
ENDROOT
BRANCH   9  11
ATOM     11  O   UNL     1      27.195  21.094  30.307  1.00  0.00    -0.508 OA
ATOM     12  H   UNL     1      26.481  20.625  29.762  1.00  0.00     0.293 HD
ENDBRANCH   9  11
TORSDOF 1
ENDMDL
