MODEL 1
REMARK VINA RESULT:    -3.686      0.000      0.000
REMARK INTER + INTRA:          -4.753
REMARK INTER:                  -4.441
REMARK INTRA:                  -0.312
REMARK UNBOUND:                -0.312
REMARK SMILES O=c1c(O)c(-c2ccc(O)c(O)c2)oc2cc(O)cc(O)c12
REMARK SMILES IDX 5 1 3 2 2 3 1 4 22 5 20 6 19 7 17 8 16 9 15 10 14 11 6 12
REMARK SMILES IDX 7 13 8 14 9 15 13 16 11 17 10 18 12 20 4 22 21 24 18 26
REMARK H PARENT 10 19 12 21 4 23 21 25 18 27
REMARK Flexibility Score: inf
ROOT
ATOM      1  C   UNL     1     112.451  88.082  56.915  1.00  0.00     0.180 A 
ATOM      2  C   UNL     1     112.107  88.628  55.666  1.00  0.00     0.208 A 
ATOM      3  C   UNL     1     110.760  88.629  55.270  1.00  0.00     0.238 A 
ATOM      4  O   UNL     1     110.465  89.069  54.129  1.00  0.00    -0.285 OA
ATOM      5  C   UNL     1     109.772  88.100  56.135  1.00  0.00     0.111 A 
ATOM      6  C   UNL     1     108.372  88.086  55.854  1.00  0.00     0.134 A 
ATOM      7  C   UNL     1     107.499  87.420  56.724  1.00  0.00     0.093 A 
ATOM      8  C   UNL     1     107.965  86.825  57.895  1.00  0.00     0.123 A 
ATOM      9  C   UNL     1     109.324  86.885  58.210  1.00  0.00     0.094 A 
ATOM     10  C   UNL     1     110.225  87.510  57.344  1.00  0.00     0.146 A 
ATOM     11  O   UNL     1     111.509  87.535  57.676  1.00  0.00    -0.452 OA
ENDROOT
BRANCH   1  12
ATOM     12  C   UNL     1     113.846  88.068  57.413  1.00  0.00     0.025 A 
ATOM     13  C   UNL     1     114.320  89.057  58.292  1.00  0.00     0.016 A 
ATOM     14  C   UNL     1     115.633  89.011  58.766  1.00  0.00     0.051 A 
ATOM     15  C   UNL     1     116.487  87.969  58.382  1.00  0.00     0.157 A 
ATOM     16  C   UNL     1     114.699  87.015  57.046  1.00  0.00     0.062 A 
ATOM     17  C   UNL     1     116.016  86.965  57.519  1.00  0.00     0.158 A 
BRANCH  15  18
ATOM     18  O   UNL     1     117.798  87.927  58.856  1.00  0.00    -0.504 OA
ATOM     19  H   UNL     1     118.540  87.491  58.323  1.00  0.00     0.293 HD
ENDBRANCH  15  18
BRANCH  17  20
ATOM     20  O   UNL     1     116.839  85.911  57.123  1.00  0.00    -0.504 OA
ATOM     21  H   UNL     1     116.591  85.293  56.359  1.00  0.00     0.293 HD
ENDBRANCH  17  20
ENDBRANCH   1  12
BRANCH   2  22
ATOM     22  O   UNL     1     113.101  89.125  54.818  1.00  0.00    -0.502 OA
ATOM     23  H   UNL     1     114.022  89.382  55.151  1.00  0.00     0.293 HD
ENDBRANCH   2  22
BRANCH   6  24
ATOM     24  O   UNL     1     107.790  88.730  54.758  1.00  0.00    -0.507 OA
ATOM     25  H   UNL     1     108.212  88.807  53.845  1.00  0.00     0.293 HD
ENDBRANCH   6  24
BRANCH   8  26
ATOM     26  O   UNL     1     107.067  86.184  58.746  1.00  0.00    -0.508 OA
ATOM     27  H   UNL     1     107.106  85.184  58.902  1.00  0.00     0.293 HD
ENDBRANCH   8  26
TORSDOF 6
ENDMDL
MODEL 2
REMARK VINA RESULT:    -3.653      2.154      2.981
REMARK INTER + INTRA:          -4.712
REMARK INTER:                  -4.378
REMARK INTRA:                  -0.334
REMARK UNBOUND:                -0.312
REMARK SMILES O=c1c(O)c(-c2ccc(O)c(O)c2)oc2cc(O)cc(O)c12
REMARK SMILES IDX 5 1 3 2 2 3 1 4 22 5 20 6 19 7 17 8 16 9 15 10 14 11 6 12
REMARK SMILES IDX 7 13 8 14 9 15 13 16 11 17 10 18 12 20 4 22 21 24 18 26
REMARK H PARENT 10 19 12 21 4 23 21 25 18 27
REMARK Flexibility Score: inf
ROOT
ATOM      1  C   UNL     1     111.638  86.958  58.018  1.00  0.00     0.180 A 
ATOM      2  C   UNL     1     110.511  87.732  57.692  1.00  0.00     0.208 A 
ATOM      3  C   UNL     1     109.237  87.146  57.764  1.00  0.00     0.238 A 
ATOM      4  O   UNL     1     108.237  87.827  57.419  1.00  0.00    -0.285 OA
ATOM      5  C   UNL     1     109.105  85.798  58.177  1.00  0.00     0.111 A 
ATOM      6  C   UNL     1     107.861  85.114  58.325  1.00  0.00     0.134 A 
ATOM      7  C   UNL     1     107.856  83.743  58.613  1.00  0.00     0.093 A 
ATOM      8  C   UNL     1     109.045  83.048  58.824  1.00  0.00     0.123 A 
ATOM      9  C   UNL     1     110.266  83.720  58.742  1.00  0.00     0.094 A 
ATOM     10  C   UNL     1     110.305  85.079  58.419  1.00  0.00     0.146 A 
ATOM     11  O   UNL     1     111.486  85.678  58.340  1.00  0.00    -0.452 OA
ENDROOT
BRANCH   1  12
ATOM     12  C   UNL     1     113.011  87.514  57.991  1.00  0.00     0.025 A 
ATOM     13  C   UNL     1     113.565  88.151  59.114  1.00  0.00     0.016 A 
ATOM     14  C   UNL     1     114.871  88.647  59.073  1.00  0.00     0.051 A 
ATOM     15  C   UNL     1     115.646  88.500  57.915  1.00  0.00     0.157 A 
ATOM     16  C   UNL     1     113.798  87.351  56.839  1.00  0.00     0.062 A 
ATOM     17  C   UNL     1     115.107  87.847  56.794  1.00  0.00     0.158 A 
BRANCH  15  18
ATOM     18  O   UNL     1     116.948  88.998  57.876  1.00  0.00    -0.504 OA
ATOM     19  H   UNL     1     117.683  88.521  57.369  1.00  0.00     0.293 HD
ENDBRANCH  15  18
BRANCH  17  20
ATOM     20  O   UNL     1     115.855  87.679  55.629  1.00  0.00    -0.504 OA
ATOM     21  H   UNL     1     116.792  88.050  55.533  1.00  0.00     0.293 HD
ENDBRANCH  17  20
ENDBRANCH   1  12
BRANCH   2  22
ATOM     22  O   UNL     1     110.665  89.055  57.266  1.00  0.00    -0.502 OA
ATOM     23  H   UNL     1     109.957  89.762  57.417  1.00  0.00     0.293 HD
ENDBRANCH   2  22
BRANCH   6  24
ATOM     24  O   UNL     1     106.612  85.735  58.227  1.00  0.00    -0.507 OA
ATOM     25  H   UNL     1     106.449  86.632  57.795  1.00  0.00     0.293 HD
ENDBRANCH   6  24
BRANCH   8  26
ATOM     26  O   UNL     1     109.003  81.688  59.125  1.00  0.00    -0.508 OA
ATOM     27  H   UNL     1     108.810  81.358  60.064  1.00  0.00     0.293 HD
ENDBRANCH   8  26
TORSDOF 6
ENDMDL
MODEL 3
REMARK VINA RESULT:    -3.376      3.782      8.809
REMARK INTER + INTRA:          -4.379
REMARK INTER:                  -4.062
REMARK INTRA:                  -0.316
REMARK UNBOUND:                -0.312
REMARK SMILES O=c1c(O)c(-c2ccc(O)c(O)c2)oc2cc(O)cc(O)c12
REMARK SMILES IDX 5 1 3 2 2 3 1 4 22 5 20 6 19 7 17 8 16 9 15 10 14 11 6 12
REMARK SMILES IDX 7 13 8 14 9 15 13 16 11 17 10 18 12 20 4 22 21 24 18 26
REMARK H PARENT 10 19 12 21 4 23 21 25 18 27
REMARK Flexibility Score: inf
ROOT
ATOM      1  C   UNL     1     117.492  87.855  57.100  1.00  0.00     0.180 A 
ATOM      2  C   UNL     1     117.817  88.437  55.863  1.00  0.00     0.208 A 
ATOM      3  C   UNL     1     119.138  88.349  55.394  1.00  0.00     0.238 A 
ATOM      4  O   UNL     1     119.435  88.918  54.312  1.00  0.00    -0.285 OA
ATOM      5  C   UNL     1     120.112  87.666  56.161  1.00  0.00     0.111 A 
ATOM      6  C   UNL     1     121.471  87.481  55.765  1.00  0.00     0.134 A 
ATOM      7  C   UNL     1     122.380  86.904  56.661  1.00  0.00     0.093 A 
ATOM      8  C   UNL     1     121.966  86.446  57.910  1.00  0.00     0.123 A 
ATOM      9  C   UNL     1     120.627  86.567  58.285  1.00  0.00     0.094 A 
ATOM     10  C   UNL     1     119.704  87.172  57.428  1.00  0.00     0.146 A 
ATOM     11  O   UNL     1     118.443  87.278  57.826  1.00  0.00    -0.452 OA
ENDROOT
BRANCH   1  12
ATOM     12  C   UNL     1     116.116  87.884  57.648  1.00  0.00     0.025 A 
ATOM     13  C   UNL     1     115.645  88.984  58.385  1.00  0.00     0.016 A 
ATOM     14  C   UNL     1     114.336  89.001  58.872  1.00  0.00     0.051 A 
ATOM     15  C   UNL     1     113.474  87.925  58.619  1.00  0.00     0.157 A 
ATOM     16  C   UNL     1     115.243  86.817  57.380  1.00  0.00     0.062 A 
ATOM     17  C   UNL     1     113.931  86.830  57.867  1.00  0.00     0.158 A 
BRANCH  15  18
ATOM     18  O   UNL     1     112.169  87.944  59.109  1.00  0.00    -0.504 OA
ATOM     19  H   UNL     1     111.387  88.212  58.524  1.00  0.00     0.293 HD
ENDBRANCH  15  18
BRANCH  17  20
ATOM     20  O   UNL     1     113.096  85.747  57.592  1.00  0.00    -0.504 OA
ATOM     21  H   UNL     1     112.265  85.840  57.019  1.00  0.00     0.293 HD
ENDBRANCH  17  20
ENDBRANCH   1  12
BRANCH   2  22
ATOM     22  O   UNL     1     116.844  89.125  55.132  1.00  0.00    -0.502 OA
ATOM     23  H   UNL     1     116.085  88.653  54.657  1.00  0.00     0.293 HD
ENDBRANCH   2  22
BRANCH   6  24
ATOM     24  O   UNL     1     121.969  87.819  54.502  1.00  0.00    -0.507 OA
ATOM     25  H   UNL     1     121.852  87.260  53.670  1.00  0.00     0.293 HD
ENDBRANCH   6  24
BRANCH   8  26
ATOM     26  O   UNL     1     122.894  85.862  58.771  1.00  0.00    -0.508 OA
ATOM     27  H   UNL     1     123.891  85.978  58.633  1.00  0.00     0.293 HD
ENDBRANCH   8  26
TORSDOF 6
ENDMDL
MODEL 4
REMARK VINA RESULT:    -3.360      3.298      9.145
REMARK INTER + INTRA:          -4.360
REMARK INTER:                  -4.044
REMARK INTRA:                  -0.316
REMARK UNBOUND:                -0.312
REMARK SMILES O=c1c(O)c(-c2ccc(O)c(O)c2)oc2cc(O)cc(O)c12
REMARK SMILES IDX 5 1 3 2 2 3 1 4 22 5 20 6 19 7 17 8 16 9 15 10 14 11 6 12
REMARK SMILES IDX 7 13 8 14 9 15 13 16 11 17 10 18 12 20 4 22 21 24 18 26
REMARK H PARENT 10 19 12 21 4 23 21 25 18 27
REMARK Flexibility Score: inf
ROOT
ATOM      1  C   UNL     1     117.127  86.773  58.036  1.00  0.00     0.180 A 
ATOM      2  C   UNL     1     117.318  85.486  58.569  1.00  0.00     0.208 A 
ATOM      3  C   UNL     1     118.624  84.988  58.698  1.00  0.00     0.238 A 
ATOM      4  O   UNL     1     118.785  83.815  59.125  1.00  0.00    -0.285 OA
ATOM      5  C   UNL     1     119.724  85.788  58.308  1.00  0.00     0.111 A 
ATOM      6  C   UNL     1     121.093  85.401  58.432  1.00  0.00     0.134 A 
ATOM      7  C   UNL     1     122.094  86.219  57.893  1.00  0.00     0.093 A 
ATOM      8  C   UNL     1     121.783  87.439  57.296  1.00  0.00     0.123 A 
ATOM      9  C   UNL     1     120.453  87.856  57.223  1.00  0.00     0.094 A 
ATOM     10  C   UNL     1     119.428  87.045  57.718  1.00  0.00     0.146 A 
ATOM     11  O   UNL     1     118.176  87.474  57.619  1.00  0.00    -0.452 OA
ENDROOT
BRANCH   1  12
ATOM     12  C   UNL     1     115.783  87.377  57.893  1.00  0.00     0.025 A 
ATOM     13  C   UNL     1     115.264  88.247  58.866  1.00  0.00     0.016 A 
ATOM     14  C   UNL     1     114.002  88.823  58.699  1.00  0.00     0.051 A 
ATOM     15  C   UNL     1     113.247  88.550  57.551  1.00  0.00     0.157 A 
ATOM     16  C   UNL     1     115.031  87.121  56.734  1.00  0.00     0.062 A 
ATOM     17  C   UNL     1     113.766  87.697  56.563  1.00  0.00     0.158 A 
BRANCH  15  18
ATOM     18  O   UNL     1     111.987  89.125  57.387  1.00  0.00    -0.504 OA
ATOM     19  H   UNL     1     111.138  88.594  57.537  1.00  0.00     0.293 HD
ENDBRANCH  15  18
BRANCH  17  20
ATOM     20  O   UNL     1     113.043  87.410  55.405  1.00  0.00    -0.504 OA
ATOM     21  H   UNL     1     112.296  86.726  55.394  1.00  0.00     0.293 HD
ENDBRANCH  17  20
ENDBRANCH   1  12
BRANCH   2  22
ATOM     22  O   UNL     1     116.216  84.704  58.927  1.00  0.00    -0.502 OA
ATOM     23  H   UNL     1     115.386  84.635  58.351  1.00  0.00     0.293 HD
ENDBRANCH   2  22
BRANCH   6  24
ATOM     24  O   UNL     1     121.520  84.246  59.094  1.00  0.00    -0.507 OA
ATOM     25  H   UNL     1     122.388  84.160  59.600  1.00  0.00     0.293 HD
ENDBRANCH   6  24
BRANCH   8  26
ATOM     26  O   UNL     1     122.805  88.235  56.784  1.00  0.00    -0.508 OA
ATOM     27  H   UNL     1     122.747  89.247  56.798  1.00  0.00     0.293 HD
ENDBRANCH   8  26
TORSDOF 6
ENDMDL
MODEL 5
REMARK VINA RESULT:    -3.250      4.062      9.401
REMARK INTER + INTRA:          -4.227
REMARK INTER:                  -3.904
REMARK INTRA:                  -0.324
REMARK UNBOUND:                -0.312
REMARK SMILES O=c1c(O)c(-c2ccc(O)c(O)c2)oc2cc(O)cc(O)c12
REMARK SMILES IDX 5 1 3 2 2 3 1 4 22 5 20 6 19 7 17 8 16 9 15 10 14 11 6 12
REMARK SMILES IDX 7 13 8 14 9 15 13 16 11 17 10 18 12 20 4 22 21 24 18 26
REMARK H PARENT 10 19 12 21 4 23 21 25 18 27
REMARK Flexibility Score: inf
ROOT
ATOM      1  C   UNL     1     118.349  86.939  57.870  1.00  0.00     0.180 A 
ATOM      2  C   UNL     1     119.478  87.745  57.640  1.00  0.00     0.208 A 
ATOM      3  C   UNL     1     120.749  87.148  57.622  1.00  0.00     0.238 A 
ATOM      4  O   UNL     1     121.759  87.882  57.470  1.00  0.00    -0.285 OA
ATOM      5  C   UNL     1     120.874  85.752  57.819  1.00  0.00     0.111 A 
ATOM      6  C   UNL     1     122.108  85.035  57.781  1.00  0.00     0.134 A 
ATOM      7  C   UNL     1     122.128  83.676  58.119  1.00  0.00     0.093 A 
ATOM      8  C   UNL     1     120.953  82.994  58.427  1.00  0.00     0.123 A 
ATOM      9  C   UNL     1     119.732  83.670  58.408  1.00  0.00     0.094 A 
ATOM     10  C   UNL     1     119.684  85.035  58.112  1.00  0.00     0.146 A 
ATOM     11  O   UNL     1     118.505  85.643  58.115  1.00  0.00    -0.452 OA
ENDROOT
BRANCH   1  12
ATOM     12  C   UNL     1     116.975  87.491  57.877  1.00  0.00     0.025 A 
ATOM     13  C   UNL     1     116.389  87.980  59.058  1.00  0.00     0.016 A 
ATOM     14  C   UNL     1     115.100  88.518  59.037  1.00  0.00     0.051 A 
ATOM     15  C   UNL     1     114.383  88.589  57.835  1.00  0.00     0.157 A 
ATOM     16  C   UNL     1     116.260  87.583  56.672  1.00  0.00     0.062 A 
ATOM     17  C   UNL     1     114.969  88.121  56.647  1.00  0.00     0.158 A 
BRANCH  15  18
ATOM     18  O   UNL     1     113.096  89.125  57.818  1.00  0.00    -0.504 OA
ATOM     19  H   UNL     1     112.580  89.292  58.673  1.00  0.00     0.293 HD
ENDBRANCH  15  18
BRANCH  17  20
ATOM     20  O   UNL     1     114.284  88.184  55.433  1.00  0.00    -0.504 OA
ATOM     21  H   UNL     1     113.277  88.093  55.378  1.00  0.00     0.293 HD
ENDBRANCH  17  20
ENDBRANCH   1  12
BRANCH   2  22
ATOM     22  O   UNL     1     119.334  89.125  57.470  1.00  0.00    -0.502 OA
ATOM     23  H   UNL     1     119.865  89.647  56.783  1.00  0.00     0.293 HD
ENDBRANCH   2  22
BRANCH   6  24
ATOM     24  O   UNL     1     123.327  85.601  57.395  1.00  0.00    -0.507 OA
ATOM     25  H   UNL     1     124.234  85.229  57.633  1.00  0.00     0.293 HD
ENDBRANCH   6  24
BRANCH   8  26
ATOM     26  O   UNL     1     121.008  81.638  58.743  1.00  0.00    -0.508 OA
ATOM     27  H   UNL     1     121.880  81.122  58.717  1.00  0.00     0.293 HD
ENDBRANCH   8  26
TORSDOF 6
ENDMDL
MODEL 6
REMARK VINA RESULT:    -3.237      1.520      6.506
REMARK INTER + INTRA:          -4.212
REMARK INTER:                  -3.899
REMARK INTRA:                  -0.313
REMARK UNBOUND:                -0.312
REMARK SMILES O=c1c(O)c(-c2ccc(O)c(O)c2)oc2cc(O)cc(O)c12
REMARK SMILES IDX 5 1 3 2 2 3 1 4 22 5 20 6 19 7 17 8 16 9 15 10 14 11 6 12
REMARK SMILES IDX 7 13 8 14 9 15 13 16 11 17 10 18 12 20 4 22 21 24 18 26
REMARK H PARENT 10 19 12 21 4 23 21 25 18 27
REMARK Flexibility Score: inf
ROOT
ATOM      1  C   UNL     1     111.460  87.318  56.746  1.00  0.00     0.180 A 
ATOM      2  C   UNL     1     111.690  87.711  55.415  1.00  0.00     0.208 A 
ATOM      3  C   UNL     1     112.969  88.154  55.046  1.00  0.00     0.238 A 
ATOM      4  O   UNL     1     113.154  88.555  53.868  1.00  0.00    -0.285 OA
ATOM      5  C   UNL     1     114.008  88.184  56.007  1.00  0.00     0.111 A 
ATOM      6  C   UNL     1     115.353  88.577  55.735  1.00  0.00     0.134 A 
ATOM      7  C   UNL     1     116.267  88.694  56.791  1.00  0.00     0.093 A 
ATOM      8  C   UNL     1     115.903  88.370  58.096  1.00  0.00     0.123 A 
ATOM      9  C   UNL     1     114.607  87.926  58.365  1.00  0.00     0.094 A 
ATOM     10  C   UNL     1     113.663  87.835  57.339  1.00  0.00     0.146 A 
ATOM     11  O   UNL     1     112.439  87.420  57.639  1.00  0.00    -0.452 OA
ENDROOT
BRANCH   1  12
ATOM     12  C   UNL     1     110.145  86.816  57.205  1.00  0.00     0.025 A 
ATOM     13  C   UNL     1     109.120  87.696  57.592  1.00  0.00     0.016 A 
ATOM     14  C   UNL     1     107.879  87.200  57.999  1.00  0.00     0.051 A 
ATOM     15  C   UNL     1     107.639  85.819  58.011  1.00  0.00     0.157 A 
ATOM     16  C   UNL     1     109.894  85.434  57.199  1.00  0.00     0.062 A 
ATOM     17  C   UNL     1     108.651  84.934  57.607  1.00  0.00     0.158 A 
BRANCH  15  18
ATOM     18  O   UNL     1     106.400  85.327  58.419  1.00  0.00    -0.504 OA
ATOM     19  H   UNL     1     105.732  84.956  57.755  1.00  0.00     0.293 HD
ENDBRANCH  15  18
BRANCH  17  20
ATOM     20  O   UNL     1     108.442  83.554  57.601  1.00  0.00    -0.504 OA
ATOM     21  H   UNL     1     108.184  83.053  56.759  1.00  0.00     0.293 HD
ENDBRANCH  17  20
ENDBRANCH   1  12
BRANCH   2  22
ATOM     22  O   UNL     1     110.644  87.694  54.488  1.00  0.00    -0.502 OA
ATOM     23  H   UNL     1     110.773  87.401  53.527  1.00  0.00     0.293 HD
ENDBRANCH   2  22
BRANCH   6  24
ATOM     24  O   UNL     1     115.846  88.835  54.452  1.00  0.00    -0.507 OA
ATOM     25  H   UNL     1     116.429  89.621  54.207  1.00  0.00     0.293 HD
ENDBRANCH   6  24
BRANCH   8  26
ATOM     26  O   UNL     1     116.841  88.483  59.120  1.00  0.00    -0.508 OA
ATOM     27  H   UNL     1     116.560  88.585  60.088  1.00  0.00     0.293 HD
ENDBRANCH   8  26
TORSDOF 6
ENDMDL
MODEL 7
REMARK VINA RESULT:    -3.214      1.462      3.026
REMARK INTER + INTRA:          -4.183
REMARK INTER:                  -4.036
REMARK INTRA:                  -0.147
REMARK UNBOUND:                -0.312
REMARK SMILES O=c1c(O)c(-c2ccc(O)c(O)c2)oc2cc(O)cc(O)c12
REMARK SMILES IDX 5 1 3 2 2 3 1 4 22 5 20 6 19 7 17 8 16 9 15 10 14 11 6 12
REMARK SMILES IDX 7 13 8 14 9 15 13 16 11 17 10 18 12 20 4 22 21 24 18 26
REMARK H PARENT 10 19 12 21 4 23 21 25 18 27
REMARK Flexibility Score: inf
ROOT
ATOM      1  C   UNL     1     111.784  88.153  56.715  1.00  0.00     0.180 A 
ATOM      2  C   UNL     1     110.745  87.860  57.617  1.00  0.00     0.208 A 
ATOM      3  C   UNL     1     109.423  87.823  57.146  1.00  0.00     0.238 A 
ATOM      4  O   UNL     1     108.494  87.614  57.967  1.00  0.00    -0.285 OA
ATOM      5  C   UNL     1     109.157  88.062  55.776  1.00  0.00     0.111 A 
ATOM      6  C   UNL     1     107.861  88.010  55.181  1.00  0.00     0.134 A 
ATOM      7  C   UNL     1     107.698  88.393  53.844  1.00  0.00     0.093 A 
ATOM      8  C   UNL     1     108.791  88.761  53.063  1.00  0.00     0.123 A 
ATOM      9  C   UNL     1     110.073  88.758  53.617  1.00  0.00     0.094 A 
ATOM     10  C   UNL     1     110.262  88.417  54.958  1.00  0.00     0.146 A 
ATOM     11  O   UNL     1     111.495  88.437  55.450  1.00  0.00    -0.452 OA
ENDROOT
BRANCH   1  12
ATOM     12  C   UNL     1     113.204  88.185  57.131  1.00  0.00     0.025 A 
ATOM     13  C   UNL     1     113.671  89.123  58.069  1.00  0.00     0.016 A 
ATOM     14  C   UNL     1     115.011  89.120  58.465  1.00  0.00     0.051 A 
ATOM     15  C   UNL     1     115.900  88.172  57.941  1.00  0.00     0.157 A 
ATOM     16  C   UNL     1     114.095  87.225  56.625  1.00  0.00     0.062 A 
ATOM     17  C   UNL     1     115.438  87.219  57.019  1.00  0.00     0.158 A 
BRANCH  15  18
ATOM     18  O   UNL     1     117.237  88.173  58.337  1.00  0.00    -0.504 OA
ATOM     19  H   UNL     1     117.591  88.842  59.010  1.00  0.00     0.293 HD
ENDBRANCH  15  18
BRANCH  17  20
ATOM     20  O   UNL     1     116.296  86.258  56.484  1.00  0.00    -0.504 OA
ATOM     21  H   UNL     1     117.274  86.451  56.304  1.00  0.00     0.293 HD
ENDBRANCH  17  20
ENDBRANCH   1  12
BRANCH   2  22
ATOM     22  O   UNL     1     111.028  87.648  58.969  1.00  0.00    -0.502 OA
ATOM     23  H   UNL     1     111.170  88.409  59.622  1.00  0.00     0.293 HD
ENDBRANCH   2  22
BRANCH   6  24
ATOM     24  O   UNL     1     106.714  87.567  55.847  1.00  0.00    -0.507 OA
ATOM     25  H   UNL     1     106.698  86.831  56.538  1.00  0.00     0.293 HD
ENDBRANCH   6  24
BRANCH   8  26
ATOM     26  O   UNL     1     108.596  89.121  51.731  1.00  0.00    -0.508 OA
ATOM     27  H   UNL     1     109.128  88.694  50.982  1.00  0.00     0.293 HD
ENDBRANCH   8  26
TORSDOF 6
ENDMDL
MODEL 8
REMARK VINA RESULT:    -3.125      2.112      7.149
REMARK INTER + INTRA:          -4.076
REMARK INTER:                  -3.885
REMARK INTRA:                  -0.192
REMARK UNBOUND:                -0.312
REMARK SMILES O=c1c(O)c(-c2ccc(O)c(O)c2)oc2cc(O)cc(O)c12
REMARK SMILES IDX 5 1 3 2 2 3 1 4 22 5 20 6 19 7 17 8 16 9 15 10 14 11 6 12
REMARK SMILES IDX 7 13 8 14 9 15 13 16 11 17 10 18 12 20 4 22 21 24 18 26
REMARK H PARENT 10 19 12 21 4 23 21 25 18 27
REMARK Flexibility Score: inf
ROOT
ATOM      1  C   UNL     1     112.812  88.185  56.737  1.00  0.00     0.180 A 
ATOM      2  C   UNL     1     113.542  88.530  57.888  1.00  0.00     0.208 A 
ATOM      3  C   UNL     1     114.936  88.664  57.797  1.00  0.00     0.238 A 
ATOM      4  O   UNL     1     115.590  88.920  58.841  1.00  0.00    -0.285 OA
ATOM      5  C   UNL     1     115.582  88.468  56.552  1.00  0.00     0.111 A 
ATOM      6  C   UNL     1     116.985  88.618  56.334  1.00  0.00     0.134 A 
ATOM      7  C   UNL     1     117.532  88.272  55.092  1.00  0.00     0.093 A 
ATOM      8  C   UNL     1     116.722  87.845  54.042  1.00  0.00     0.123 A 
ATOM      9  C   UNL     1     115.341  87.753  54.225  1.00  0.00     0.094 A 
ATOM     10  C   UNL     1     114.769  88.056  55.464  1.00  0.00     0.146 A 
ATOM     11  O   UNL     1     113.454  87.944  55.599  1.00  0.00    -0.452 OA
ENDROOT
BRANCH   1  12
ATOM     12  C   UNL     1     111.337  88.050  56.749  1.00  0.00     0.025 A 
ATOM     13  C   UNL     1     110.515  88.941  56.040  1.00  0.00     0.016 A 
ATOM     14  C   UNL     1     109.127  88.781  56.047  1.00  0.00     0.051 A 
ATOM     15  C   UNL     1     108.542  87.720  56.750  1.00  0.00     0.157 A 
ATOM     16  C   UNL     1     110.748  86.976  57.436  1.00  0.00     0.062 A 
ATOM     17  C   UNL     1     109.358  86.812  57.445  1.00  0.00     0.158 A 
BRANCH  15  18
ATOM     18  O   UNL     1     107.156  87.563  56.756  1.00  0.00    -0.504 OA
ATOM     19  H   UNL     1     106.693  86.915  56.131  1.00  0.00     0.293 HD
ENDBRANCH  15  18
BRANCH  17  20
ATOM     20  O   UNL     1     108.807  85.741  58.149  1.00  0.00    -0.504 OA
ATOM     21  H   UNL     1     108.445  85.845  59.090  1.00  0.00     0.293 HD
ENDBRANCH  17  20
ENDBRANCH   1  12
BRANCH   2  22
ATOM     22  O   UNL     1     112.887  88.698  59.112  1.00  0.00    -0.502 OA
ATOM     23  H   UNL     1     112.188  88.047  59.449  1.00  0.00     0.293 HD
ENDBRANCH   2  22
BRANCH   6  24
ATOM     24  O   UNL     1     117.873  89.125  57.288  1.00  0.00    -0.507 OA
ATOM     25  H   UNL     1     118.820  88.803  57.421  1.00  0.00     0.293 HD
ENDBRANCH   6  24
BRANCH   8  26
ATOM     26  O   UNL     1     117.298  87.524  52.815  1.00  0.00    -0.508 OA
ATOM     27  H   UNL     1     117.705  86.612  52.643  1.00  0.00     0.293 HD
ENDBRANCH   8  26
TORSDOF 6
ENDMDL
MODEL 9
REMARK VINA RESULT:    -3.107      8.787     11.849
REMARK INTER + INTRA:          -4.055
REMARK INTER:                  -3.724
REMARK INTRA:                  -0.331
REMARK UNBOUND:                -0.312
REMARK SMILES O=c1c(O)c(-c2ccc(O)c(O)c2)oc2cc(O)cc(O)c12
REMARK SMILES IDX 5 1 3 2 2 3 1 4 22 5 20 6 19 7 17 8 16 9 15 10 14 11 6 12
REMARK SMILES IDX 7 13 8 14 9 15 13 16 11 17 10 18 12 20 4 22 21 24 18 26
REMARK H PARENT 10 19 12 21 4 23 21 25 18 27
REMARK Flexibility Score: inf
ROOT
ATOM      1  C   UNL     1     123.120  84.262  57.154  1.00  0.00     0.180 A 
ATOM      2  C   UNL     1     123.612  84.944  56.027  1.00  0.00     0.208 A 
ATOM      3  C   UNL     1     123.126  86.231  55.743  1.00  0.00     0.238 A 
ATOM      4  O   UNL     1     123.530  86.814  54.705  1.00  0.00    -0.285 OA
ATOM      5  C   UNL     1     122.167  86.825  56.598  1.00  0.00     0.111 A 
ATOM      6  C   UNL     1     121.635  88.139  56.430  1.00  0.00     0.134 A 
ATOM      7  C   UNL     1     120.595  88.576  57.260  1.00  0.00     0.093 A 
ATOM      8  C   UNL     1     120.114  87.773  58.293  1.00  0.00     0.123 A 
ATOM      9  C   UNL     1     120.668  86.510  58.505  1.00  0.00     0.094 A 
ATOM     10  C   UNL     1     121.681  86.032  57.670  1.00  0.00     0.146 A 
ATOM     11  O   UNL     1     122.173  84.821  57.899  1.00  0.00    -0.452 OA
ENDROOT
BRANCH   1  12
ATOM     12  C   UNL     1     123.602  82.914  57.532  1.00  0.00     0.025 A 
ATOM     13  C   UNL     1     124.702  82.745  58.392  1.00  0.00     0.016 A 
ATOM     14  C   UNL     1     125.125  81.463  58.754  1.00  0.00     0.051 A 
ATOM     15  C   UNL     1     124.448  80.334  58.275  1.00  0.00     0.157 A 
ATOM     16  C   UNL     1     122.915  81.780  57.071  1.00  0.00     0.062 A 
ATOM     17  C   UNL     1     123.336  80.495  57.432  1.00  0.00     0.158 A 
BRANCH  15  18
ATOM     18  O   UNL     1     124.874  79.056  58.636  1.00  0.00    -0.504 OA
ATOM     19  H   UNL     1     125.171  78.380  57.944  1.00  0.00     0.293 HD
ENDBRANCH  15  18
BRANCH  17  20
ATOM     20  O   UNL     1     122.636  79.391  56.943  1.00  0.00    -0.504 OA
ATOM     21  H   UNL     1     122.157  78.743  57.557  1.00  0.00     0.293 HD
ENDBRANCH  17  20
ENDBRANCH   1  12
BRANCH   2  22
ATOM     22  O   UNL     1     124.543  84.330  55.185  1.00  0.00    -0.502 OA
ATOM     23  H   UNL     1     125.525  84.256  55.420  1.00  0.00     0.293 HD
ENDBRANCH   2  22
BRANCH   6  24
ATOM     24  O   UNL     1     122.108  89.058  55.487  1.00  0.00    -0.507 OA
ATOM     25  H   UNL     1     121.533  89.532  54.807  1.00  0.00     0.293 HD
ENDBRANCH   6  24
BRANCH   8  26
ATOM     26  O   UNL     1     119.088  88.245  59.110  1.00  0.00    -0.508 OA
ATOM     27  H   UNL     1     118.909  89.237  59.217  1.00  0.00     0.293 HD
ENDBRANCH   8  26
TORSDOF 6
ENDMDL
