MODEL 1
REMARK VINA RESULT:    -3.654      0.000      0.000
REMARK INTER + INTRA:          -4.607
REMARK INTER:                  -4.509
REMARK INTRA:                  -0.098
REMARK UNBOUND:                -0.098
REMARK SMILES CCCCCC(=O)[O-]
REMARK SMILES IDX 4 1 5 2 6 3 7 4 8 5 3 6 2 7 1 8
REMARK H PARENT
REMARK Flexibility Score: inf
ROOT
ATOM      1  C   UNL     1     -42.787 -35.405  37.096  1.00  0.00     0.006 C 
ENDROOT
BRANCH   1   2
ATOM      2  C   UNL     1     -41.564 -35.667  36.212  1.00  0.00     0.053 C 
BRANCH   2   3
ATOM      3  C   UNL     1     -40.314 -35.217  36.901  1.00  0.00     0.041 C 
ATOM      4  O   UNL     1     -39.236 -35.845  36.732  1.00  0.00    -0.550 OA
ATOM      5  O   UNL     1     -40.328 -34.074  37.691  1.00  0.00    -0.550 OA
ENDBRANCH   2   3
ENDBRANCH   1   2
BRANCH   1   6
ATOM      6  C   UNL     1     -44.083 -35.467  36.273  1.00  0.00     0.000 C 
BRANCH   6   7
ATOM      7  C   UNL     1     -45.146 -36.372  36.913  1.00  0.00    -0.003 C 
ATOM      8  C   UNL     1     -44.933 -37.851  36.591  1.00  0.00     0.004 C 
ENDBRANCH   6   7
ENDBRANCH   1   6
TORSDOF 4
ENDMDL
MODEL 2
REMARK VINA RESULT:    -3.636      3.317      4.863
REMARK INTER + INTRA:          -4.584
REMARK INTER:                  -4.508
REMARK INTRA:                  -0.076
REMARK UNBOUND:                -0.098
REMARK SMILES CCCCCC(=O)[O-]
REMARK SMILES IDX 4 1 5 2 6 3 7 4 8 5 3 6 2 7 1 8
REMARK H PARENT
REMARK Flexibility Score: inf
ROOT
ATOM      1  C   UNL     1     -43.766 -35.527  36.151  1.00  0.00     0.006 C 
ENDROOT
BRANCH   1   2
ATOM      2  C   UNL     1     -44.963 -35.692  37.093  1.00  0.00     0.053 C 
BRANCH   2   3
ATOM      3  C   UNL     1     -45.493 -37.090  37.027  1.00  0.00     0.041 C 
ATOM      4  O   UNL     1     -46.628 -37.360  37.500  1.00  0.00    -0.550 OA
ATOM      5  O   UNL     1     -44.753 -38.085  36.400  1.00  0.00    -0.550 OA
ENDBRANCH   2   3
ENDBRANCH   1   2
BRANCH   1   6
ATOM      6  C   UNL     1     -42.451 -35.456  36.942  1.00  0.00     0.000 C 
BRANCH   6   7
ATOM      7  C   UNL     1     -41.223 -35.774  36.077  1.00  0.00    -0.003 C 
ATOM      8  C   UNL     1     -39.908 -35.640  36.844  1.00  0.00     0.004 C 
ENDBRANCH   6   7
ENDBRANCH   1   6
TORSDOF 4
ENDMDL
MODEL 3
REMARK VINA RESULT:    -3.585      3.070      4.607
REMARK INTER + INTRA:          -4.522
REMARK INTER:                  -4.412
REMARK INTRA:                  -0.110
REMARK UNBOUND:                -0.098
REMARK SMILES CCCCCC(=O)[O-]
REMARK SMILES IDX 4 1 5 2 6 3 7 4 8 5 3 6 2 7 1 8
REMARK H PARENT
REMARK Flexibility Score: inf
ROOT
ATOM      1  C   UNL     1     -43.134 -35.139  37.805  1.00  0.00     0.006 C 
ENDROOT
BRANCH   1   2
ATOM      2  C   UNL     1     -43.557 -35.804  36.491  1.00  0.00     0.053 C 
BRANCH   2   3
ATOM      3  C   UNL     1     -44.787 -36.632  36.696  1.00  0.00     0.041 C 
ATOM      4  O   UNL     1     -45.869 -36.086  37.037  1.00  0.00    -0.550 OA
ATOM      5  O   UNL     1     -44.750 -38.001  36.464  1.00  0.00    -0.550 OA
ENDBRANCH   2   3
ENDBRANCH   1   2
BRANCH   1   6
ATOM      6  C   UNL     1     -41.631 -34.821  37.799  1.00  0.00     0.000 C 
BRANCH   6   7
ATOM      7  C   UNL     1     -40.905 -35.418  36.585  1.00  0.00    -0.003 C 
ATOM      8  C   UNL     1     -39.444 -35.758  36.877  1.00  0.00     0.004 C 
ENDBRANCH   6   7
ENDBRANCH   1   6
TORSDOF 4
ENDMDL
MODEL 4
REMARK VINA RESULT:    -3.535      2.661      4.391
REMARK INTER + INTRA:          -4.459
REMARK INTER:                  -4.342
REMARK INTRA:                  -0.117
REMARK UNBOUND:                -0.098
REMARK SMILES CCCCCC(=O)[O-]
REMARK SMILES IDX 4 1 5 2 6 3 7 4 8 5 3 6 2 7 1 8
REMARK H PARENT
REMARK Flexibility Score: inf
ROOT
ATOM      1  C   UNL     1     -41.429 -35.879  36.199  1.00  0.00     0.006 C 
ENDROOT
BRANCH   1   2
ATOM      2  C   UNL     1     -42.484 -35.243  37.109  1.00  0.00     0.053 C 
BRANCH   2   3
ATOM      3  C   UNL     1     -43.860 -35.632  36.668  1.00  0.00     0.041 C 
ATOM      4  O   UNL     1     -44.188 -36.846  36.615  1.00  0.00    -0.550 OA
ATOM      5  O   UNL     1     -44.795 -34.651  36.361  1.00  0.00    -0.550 OA
ENDBRANCH   2   3
ENDBRANCH   1   2
BRANCH   1   6
ATOM      6  C   UNL     1     -40.012 -35.602  36.724  1.00  0.00     0.000 C 
BRANCH   6   7
ATOM      7  C   UNL     1     -40.013 -34.994  38.133  1.00  0.00    -0.003 C 
ATOM      8  C   UNL     1     -39.270 -35.860  39.151  1.00  0.00     0.004 C 
ENDBRANCH   6   7
ENDBRANCH   1   6
TORSDOF 4
ENDMDL
MODEL 5
REMARK VINA RESULT:    -3.325      1.028      1.961
REMARK INTER + INTRA:          -4.200
REMARK INTER:                  -4.137
REMARK INTRA:                  -0.064
REMARK UNBOUND:                -0.098
REMARK SMILES CCCCCC(=O)[O-]
REMARK SMILES IDX 4 1 5 2 6 3 7 4 8 5 3 6 2 7 1 8
REMARK H PARENT
REMARK Flexibility Score: inf
ROOT
ATOM      1  C   UNL     1     -42.739 -35.432  37.049  1.00  0.00     0.006 C 
ENDROOT
BRANCH   1   2
ATOM      2  C   UNL     1     -41.481 -35.646  36.201  1.00  0.00     0.053 C 
BRANCH   2   3
ATOM      3  C   UNL     1     -40.263 -35.201  36.949  1.00  0.00     0.041 C 
ATOM      4  O   UNL     1     -40.322 -34.209  37.721  1.00  0.00    -0.550 OA
ATOM      5  O   UNL     1     -39.076 -35.912  36.829  1.00  0.00    -0.550 OA
ENDBRANCH   2   3
ENDBRANCH   1   2
BRANCH   1   6
ATOM      6  C   UNL     1     -44.002 -35.463  36.175  1.00  0.00     0.000 C 
BRANCH   6   7
ATOM      7  C   UNL     1     -45.272 -35.107  36.960  1.00  0.00    -0.003 C 
ATOM      8  C   UNL     1     -45.529 -33.601  37.017  1.00  0.00     0.004 C 
ENDBRANCH   6   7
ENDBRANCH   1   6
TORSDOF 4
ENDMDL
MODEL 6
REMARK VINA RESULT:    -3.280      2.856      4.707
REMARK INTER + INTRA:          -4.144
REMARK INTER:                  -4.061
REMARK INTRA:                  -0.083
REMARK UNBOUND:                -0.098
REMARK SMILES CCCCCC(=O)[O-]
REMARK SMILES IDX 4 1 5 2 6 3 7 4 8 5 3 6 2 7 1 8
REMARK H PARENT
REMARK Flexibility Score: inf
ROOT
ATOM      1  C   UNL     1     -39.471 -35.672  38.558  1.00  0.00     0.006 C 
ENDROOT
BRANCH   1   2
ATOM      2  C   UNL     1     -40.082 -34.779  37.473  1.00  0.00     0.053 C 
BRANCH   2   3
ATOM      3  C   UNL     1     -41.161 -35.512  36.739  1.00  0.00     0.041 C 
ATOM      4  O   UNL     1     -40.864 -36.341  35.838  1.00  0.00    -0.550 OA
ATOM      5  O   UNL     1     -42.492 -35.314  37.081  1.00  0.00    -0.550 OA
ENDBRANCH   2   3
ENDBRANCH   1   2
BRANCH   1   6
ATOM      6  C   UNL     1     -39.372 -34.922  39.895  1.00  0.00     0.000 C 
BRANCH   6   7
ATOM      7  C   UNL     1     -38.814 -35.800  41.024  1.00  0.00    -0.003 C 
ATOM      8  C   UNL     1     -38.704 -37.273  40.629  1.00  0.00     0.004 C 
ENDBRANCH   6   7
ENDBRANCH   1   6
TORSDOF 4
ENDMDL
MODEL 7
REMARK VINA RESULT:    -3.213     16.145     16.899
REMARK INTER + INTRA:          -4.063
REMARK INTER:                  -3.991
REMARK INTRA:                  -0.072
REMARK UNBOUND:                -0.098
REMARK SMILES CCCCCC(=O)[O-]
REMARK SMILES IDX 4 1 5 2 6 3 7 4 8 5 3 6 2 7 1 8
REMARK H PARENT
REMARK Flexibility Score: inf
ROOT
ATOM      1  C   UNL     1     -49.623 -23.056  45.248  1.00  0.00     0.006 C 
ENDROOT
BRANCH   1   2
ATOM      2  C   UNL     1     -48.373 -23.149  46.129  1.00  0.00     0.053 C 
BRANCH   2   3
ATOM      3  C   UNL     1     -48.116 -21.844  46.814  1.00  0.00     0.041 C 
ATOM      4  O   UNL     1     -49.053 -21.241  47.399  1.00  0.00    -0.550 OA
ATOM      5  O   UNL     1     -46.831 -21.317  46.846  1.00  0.00    -0.550 OA
ENDBRANCH   2   3
ENDBRANCH   1   2
BRANCH   1   6
ATOM      6  C   UNL     1     -50.420 -24.369  45.285  1.00  0.00     0.000 C 
BRANCH   6   7
ATOM      7  C   UNL     1     -50.486 -25.058  43.914  1.00  0.00    -0.003 C 
ATOM      8  C   UNL     1     -50.790 -26.553  44.018  1.00  0.00     0.004 C 
ENDBRANCH   6   7
ENDBRANCH   1   6
TORSDOF 4
ENDMDL
MODEL 8
REMARK VINA RESULT:    -3.196     15.902     16.873
REMARK INTER + INTRA:          -4.041
REMARK INTER:                  -3.990
REMARK INTRA:                  -0.051
REMARK UNBOUND:                -0.098
REMARK SMILES CCCCCC(=O)[O-]
REMARK SMILES IDX 4 1 5 2 6 3 7 4 8 5 3 6 2 7 1 8
REMARK H PARENT
REMARK Flexibility Score: inf
ROOT
ATOM      1  C   UNL     1     -49.726 -23.883  45.526  1.00  0.00     0.006 C 
ENDROOT
BRANCH   1   2
ATOM      2  C   UNL     1     -50.383 -23.822  44.144  1.00  0.00     0.053 C 
BRANCH   2   3
ATOM      3  C   UNL     1     -51.158 -25.074  43.877  1.00  0.00     0.041 C 
ATOM      4  O   UNL     1     -50.760 -26.176  44.339  1.00  0.00    -0.550 OA
ATOM      5  O   UNL     1     -52.345 -25.018  43.158  1.00  0.00    -0.550 OA
ENDBRANCH   2   3
ENDBRANCH   1   2
BRANCH   1   6
ATOM      6  C   UNL     1     -49.011 -22.563  45.852  1.00  0.00     0.000 C 
BRANCH   6   7
ATOM      7  C   UNL     1     -47.718 -22.774  46.653  1.00  0.00    -0.003 C 
ATOM      8  C   UNL     1     -46.746 -21.602  46.527  1.00  0.00     0.004 C 
ENDBRANCH   6   7
ENDBRANCH   1   6
TORSDOF 4
ENDMDL
MODEL 9
REMARK VINA RESULT:    -3.096      3.234      4.038
REMARK INTER + INTRA:          -3.918
REMARK INTER:                  -3.770
REMARK INTRA:                  -0.148
REMARK UNBOUND:                -0.098
REMARK SMILES CCCCCC(=O)[O-]
REMARK SMILES IDX 4 1 5 2 6 3 7 4 8 5 3 6 2 7 1 8
REMARK H PARENT
REMARK Flexibility Score: inf
ROOT
ATOM      1  C   UNL     1     -44.210 -35.918  37.208  1.00  0.00     0.006 C 
ENDROOT
BRANCH   1   2
ATOM      2  C   UNL     1     -44.848 -34.782  36.401  1.00  0.00     0.053 C 
BRANCH   2   3
ATOM      3  C   UNL     1     -45.261 -33.664  37.307  1.00  0.00     0.041 C 
ATOM      4  O   UNL     1     -44.519 -33.316  38.263  1.00  0.00    -0.550 OA
ATOM      5  O   UNL     1     -46.443 -32.976  37.066  1.00  0.00    -0.550 OA
ENDBRANCH   2   3
ENDBRANCH   1   2
BRANCH   1   6
ATOM      6  C   UNL     1     -44.824 -37.273  36.826  1.00  0.00     0.000 C 
BRANCH   6   7
ATOM      7  C   UNL     1     -46.299 -37.389  37.235  1.00  0.00    -0.003 C 
ATOM      8  C   UNL     1     -46.492 -37.419  38.751  1.00  0.00     0.004 C 
ENDBRANCH   6   7
ENDBRANCH   1   6
TORSDOF 4
ENDMDL
