MODEL 1
REMARK VINA RESULT:    -3.810      0.000      0.000
REMARK INTER + INTRA:          -5.710
REMARK INTER:                  -5.369
REMARK INTRA:                  -0.341
REMARK UNBOUND:                -0.341
REMARK SMILES C=CCCCCCCC(=O)[O-]
REMARK SMILES IDX 6 1 7 2 8 3 9 4 10 5 11 6 5 7 4 8 3 9 2 10 1 11
REMARK H PARENT
REMARK Flexibility Score: inf
ROOT
ATOM      1  C   UNL     1      -1.487  -8.365   6.211  1.00  0.00     0.000 C 
ENDROOT
BRANCH   1   2
ATOM      2  C   UNL     1      -0.778  -8.109   7.553  1.00  0.00     0.006 C 
BRANCH   2   3
ATOM      3  C   UNL     1      -1.532  -7.095   8.421  1.00  0.00     0.053 C 
BRANCH   3   4
ATOM      4  C   UNL     1      -0.621  -6.028   8.946  1.00  0.00     0.041 C 
ATOM      5  O   UNL     1       0.621  -6.225   9.000  1.00  0.00    -0.550 OA
ATOM      6  O   UNL     1      -1.141  -4.801   9.340  1.00  0.00    -0.550 OA
ENDBRANCH   3   4
ENDBRANCH   2   3
ENDBRANCH   1   2
BRANCH   1   7
ATOM      7  C   UNL     1      -2.914  -8.906   6.389  1.00  0.00     0.000 C 
BRANCH   7   8
ATOM      8  C   UNL     1      -3.716  -8.899   5.079  1.00  0.00     0.004 C 
BRANCH   8   9
ATOM      9  C   UNL     1      -3.019  -8.043   4.014  1.00  0.00     0.027 C 
BRANCH   9  10
ATOM     10  C   UNL     1      -3.990  -7.582   2.964  1.00  0.00    -0.035 C 
ATOM     11  C   UNL     1      -5.071  -6.857   3.274  1.00  0.00     0.004 C 
ENDBRANCH   9  10
ENDBRANCH   8   9
ENDBRANCH   7   8
ENDBRANCH   1   7
TORSDOF 7
ENDMDL
MODEL 2
REMARK VINA RESULT:    -3.607      1.485      2.736
REMARK INTER + INTRA:          -5.423
REMARK INTER:                  -5.076
REMARK INTRA:                  -0.347
REMARK UNBOUND:                -0.341
REMARK SMILES C=CCCCCCCC(=O)[O-]
REMARK SMILES IDX 6 1 7 2 8 3 9 4 10 5 11 6 5 7 4 8 3 9 2 10 1 11
REMARK H PARENT
REMARK Flexibility Score: inf
ROOT
ATOM      1  C   UNL     1      -3.340  -9.169   4.990  1.00  0.00     0.000 C 
ENDROOT
BRANCH   1   2
ATOM      2  C   UNL     1      -2.688  -9.004   6.374  1.00  0.00     0.006 C 
BRANCH   2   3
ATOM      3  C   UNL     1      -1.418  -8.146   6.316  1.00  0.00     0.053 C 
BRANCH   3   4
ATOM      4  C   UNL     1      -0.527  -8.395   7.494  1.00  0.00     0.041 C 
ATOM      5  O   UNL     1      -0.023  -7.428   8.124  1.00  0.00    -0.550 OA
ATOM      6  O   UNL     1      -0.281  -9.695   7.918  1.00  0.00    -0.550 OA
ENDBRANCH   3   4
ENDBRANCH   2   3
ENDBRANCH   1   2
BRANCH   1   7
ATOM      7  C   UNL     1      -2.858  -8.117   3.979  1.00  0.00     0.000 C 
BRANCH   7   8
ATOM      8  C   UNL     1      -3.873  -7.872   2.853  1.00  0.00     0.004 C 
BRANCH   8   9
ATOM      9  C   UNL     1      -4.826  -6.724   3.214  1.00  0.00     0.027 C 
BRANCH   9  10
ATOM     10  C   UNL     1      -6.103  -7.244   3.814  1.00  0.00    -0.035 C 
ATOM     11  C   UNL     1      -7.007  -7.903   3.083  1.00  0.00     0.004 C 
ENDBRANCH   9  10
ENDBRANCH   8   9
ENDBRANCH   7   8
ENDBRANCH   1   7
TORSDOF 7
ENDMDL
MODEL 3
REMARK VINA RESULT:    -3.533     15.854     17.466
REMARK INTER + INTRA:          -5.319
REMARK INTER:                  -4.897
REMARK INTRA:                  -0.422
REMARK UNBOUND:                -0.341
REMARK SMILES C=CCCCCCCC(=O)[O-]
REMARK SMILES IDX 6 1 7 2 8 3 9 4 10 5 11 6 5 7 4 8 3 9 2 10 1 11
REMARK H PARENT
REMARK Flexibility Score: inf
ROOT
ATOM      1  C   UNL     1       6.421  -4.230  -9.683  1.00  0.00     0.000 C 
ENDROOT
BRANCH   1   2
ATOM      2  C   UNL     1       4.897  -4.250  -9.898  1.00  0.00     0.006 C 
BRANCH   2   3
ATOM      3  C   UNL     1       4.149  -4.812  -8.684  1.00  0.00     0.053 C 
BRANCH   3   4
ATOM      4  C   UNL     1       2.669  -4.610  -8.801  1.00  0.00     0.041 C 
ATOM      5  O   UNL     1       2.094  -3.722  -8.118  1.00  0.00    -0.550 OA
ATOM      6  O   UNL     1       1.931  -5.378  -9.694  1.00  0.00    -0.550 OA
ENDBRANCH   3   4
ENDBRANCH   2   3
ENDBRANCH   1   2
BRANCH   1   7
ATOM      7  C   UNL     1       6.996  -5.626  -9.399  1.00  0.00     0.000 C 
BRANCH   7   8
ATOM      8  C   UNL     1       7.963  -5.634  -8.205  1.00  0.00     0.004 C 
BRANCH   8   9
ATOM      9  C   UNL     1       7.797  -6.914  -7.375  1.00  0.00     0.027 C 
BRANCH   9  10
ATOM     10  C   UNL     1       6.586  -6.836  -6.488  1.00  0.00    -0.035 C 
ATOM     11  C   UNL     1       6.601  -7.299  -5.233  1.00  0.00     0.004 C 
ENDBRANCH   9  10
ENDBRANCH   8   9
ENDBRANCH   7   8
ENDBRANCH   1   7
TORSDOF 7
ENDMDL
MODEL 4
REMARK VINA RESULT:    -3.520      1.110      1.768
REMARK INTER + INTRA:          -5.301
REMARK INTER:                  -4.892
REMARK INTRA:                  -0.409
REMARK UNBOUND:                -0.341
REMARK SMILES C=CCCCCCCC(=O)[O-]
REMARK SMILES IDX 6 1 7 2 8 3 9 4 10 5 11 6 5 7 4 8 3 9 2 10 1 11
REMARK H PARENT
REMARK Flexibility Score: inf
ROOT
ATOM      1  C   UNL     1      -2.929  -8.935   5.459  1.00  0.00     0.000 C 
ENDROOT
BRANCH   1   2
ATOM      2  C   UNL     1      -2.400  -8.850   6.901  1.00  0.00     0.006 C 
BRANCH   2   3
ATOM      3  C   UNL     1      -1.042  -8.140   6.978  1.00  0.00     0.053 C 
BRANCH   3   4
ATOM      4  C   UNL     1      -0.934  -7.280   8.200  1.00  0.00     0.041 C 
ATOM      5  O   UNL     1       0.171  -6.769   8.520  1.00  0.00    -0.550 OA
ATOM      6  O   UNL     1      -2.063  -7.014   8.965  1.00  0.00    -0.550 OA
ENDBRANCH   3   4
ENDBRANCH   2   3
ENDBRANCH   1   2
BRANCH   1   7
ATOM      7  C   UNL     1      -2.284  -7.896   4.529  1.00  0.00     0.000 C 
BRANCH   7   8
ATOM      8  C   UNL     1      -2.553  -8.184   3.044  1.00  0.00     0.004 C 
BRANCH   8   9
ATOM      9  C   UNL     1      -4.051  -8.397   2.790  1.00  0.00     0.027 C 
BRANCH   9  10
ATOM     10  C   UNL     1      -4.827  -7.127   3.008  1.00  0.00    -0.035 C 
ATOM     11  C   UNL     1      -5.988  -7.117   3.671  1.00  0.00     0.004 C 
ENDBRANCH   9  10
ENDBRANCH   8   9
ENDBRANCH   7   8
ENDBRANCH   1   7
TORSDOF 7
ENDMDL
MODEL 5
REMARK VINA RESULT:    -3.453      4.816      6.860
REMARK INTER + INTRA:          -5.206
REMARK INTER:                  -4.612
REMARK INTRA:                  -0.595
REMARK UNBOUND:                -0.341
REMARK SMILES C=CCCCCCCC(=O)[O-]
REMARK SMILES IDX 6 1 7 2 8 3 9 4 10 5 11 6 5 7 4 8 3 9 2 10 1 11
REMARK H PARENT
REMARK Flexibility Score: inf
ROOT
ATOM      1  C   UNL     1      -5.230  -6.811   3.195  1.00  0.00     0.000 C 
ENDROOT
BRANCH   1   2
ATOM      2  C   UNL     1      -6.336  -7.404   4.086  1.00  0.00     0.006 C 
BRANCH   2   3
ATOM      3  C   UNL     1      -7.428  -8.102   3.266  1.00  0.00     0.053 C 
BRANCH   3   4
ATOM      4  C   UNL     1      -8.729  -7.361   3.332  1.00  0.00     0.041 C 
ATOM      5  O   UNL     1      -9.563  -7.459   2.393  1.00  0.00    -0.550 OA
ATOM      6  O   UNL     1      -9.036  -6.592   4.448  1.00  0.00    -0.550 OA
ENDBRANCH   3   4
ENDBRANCH   2   3
ENDBRANCH   1   2
BRANCH   1   7
ATOM      7  C   UNL     1      -4.655  -7.837   2.206  1.00  0.00     0.000 C 
BRANCH   7   8
ATOM      8  C   UNL     1      -3.361  -8.488   2.717  1.00  0.00     0.004 C 
BRANCH   8   9
ATOM      9  C   UNL     1      -2.648  -7.575   3.723  1.00  0.00     0.027 C 
BRANCH   9  10
ATOM     10  C   UNL     1      -2.326  -8.311   4.994  1.00  0.00    -0.035 C 
ATOM     11  C   UNL     1      -3.254  -9.010   5.657  1.00  0.00     0.004 C 
ENDBRANCH   9  10
ENDBRANCH   8   9
ENDBRANCH   7   8
ENDBRANCH   1   7
TORSDOF 7
ENDMDL
MODEL 6
REMARK VINA RESULT:    -3.348     15.725     17.442
REMARK INTER + INTRA:          -5.058
REMARK INTER:                  -4.681
REMARK INTRA:                  -0.377
REMARK UNBOUND:                -0.341
REMARK SMILES C=CCCCCCCC(=O)[O-]
REMARK SMILES IDX 6 1 7 2 8 3 9 4 10 5 11 6 5 7 4 8 3 9 2 10 1 11
REMARK H PARENT
REMARK Flexibility Score: inf
ROOT
ATOM      1  C   UNL     1       4.948  -5.224  -9.003  1.00  0.00     0.000 C 
ENDROOT
BRANCH   1   2
ATOM      2  C   UNL     1       3.867  -4.129  -9.025  1.00  0.00     0.006 C 
BRANCH   2   3
ATOM      3  C   UNL     1       2.624  -4.560  -9.813  1.00  0.00     0.053 C 
BRANCH   3   4
ATOM      4  C   UNL     1       1.588  -5.175  -8.922  1.00  0.00     0.041 C 
ATOM      5  O   UNL     1       0.844  -6.094  -9.355  1.00  0.00    -0.550 OA
ATOM      6  O   UNL     1       1.470  -4.757  -7.602  1.00  0.00    -0.550 OA
ENDBRANCH   3   4
ENDBRANCH   2   3
ENDBRANCH   1   2
BRANCH   1   7
ATOM      7  C   UNL     1       6.336  -4.692  -9.391  1.00  0.00     0.000 C 
BRANCH   7   8
ATOM      8  C   UNL     1       7.417  -5.784  -9.361  1.00  0.00     0.004 C 
BRANCH   8   9
ATOM      9  C   UNL     1       8.077  -5.863  -7.979  1.00  0.00     0.027 C 
BRANCH   9  10
ATOM     10  C   UNL     1       7.673  -7.117  -7.253  1.00  0.00    -0.035 C 
ATOM     11  C   UNL     1       6.942  -7.079  -6.134  1.00  0.00     0.004 C 
ENDBRANCH   9  10
ENDBRANCH   8   9
ENDBRANCH   7   8
ENDBRANCH   1   7
TORSDOF 7
ENDMDL
MODEL 7
REMARK VINA RESULT:    -3.295      5.190      6.760
REMARK INTER + INTRA:          -4.984
REMARK INTER:                  -4.631
REMARK INTRA:                  -0.354
REMARK UNBOUND:                -0.341
REMARK SMILES C=CCCCCCCC(=O)[O-]
REMARK SMILES IDX 6 1 7 2 8 3 9 4 10 5 11 6 5 7 4 8 3 9 2 10 1 11
REMARK H PARENT
REMARK Flexibility Score: inf
ROOT
ATOM      1  C   UNL     1      -6.253  -7.759   2.386  1.00  0.00     0.000 C 
ENDROOT
BRANCH   1   2
ATOM      2  C   UNL     1      -7.330  -8.364   3.303  1.00  0.00     0.006 C 
BRANCH   2   3
ATOM      3  C   UNL     1      -7.558  -7.518   4.563  1.00  0.00     0.053 C 
BRANCH   3   4
ATOM      4  C   UNL     1      -8.929  -6.916   4.585  1.00  0.00     0.041 C 
ATOM      5  O   UNL     1      -9.522  -6.648   3.507  1.00  0.00    -0.550 OA
ATOM      6  O   UNL     1      -9.567  -6.684   5.798  1.00  0.00    -0.550 OA
ENDBRANCH   3   4
ENDBRANCH   2   3
ENDBRANCH   1   2
BRANCH   1   7
ATOM      7  C   UNL     1      -5.084  -7.144   3.171  1.00  0.00     0.000 C 
BRANCH   7   8
ATOM      8  C   UNL     1      -4.036  -8.189   3.585  1.00  0.00     0.004 C 
BRANCH   8   9
ATOM      9  C   UNL     1      -2.661  -7.537   3.783  1.00  0.00     0.027 C 
BRANCH   9  10
ATOM     10  C   UNL     1      -1.618  -8.193   2.921  1.00  0.00    -0.035 C 
ATOM     11  C   UNL     1      -1.934  -8.805   1.776  1.00  0.00     0.004 C 
ENDBRANCH   9  10
ENDBRANCH   8   9
ENDBRANCH   7   8
ENDBRANCH   1   7
TORSDOF 7
ENDMDL
MODEL 8
REMARK VINA RESULT:    -3.244     19.422     20.011
REMARK INTER + INTRA:          -4.912
REMARK INTER:                  -4.737
REMARK INTRA:                  -0.175
REMARK UNBOUND:                -0.341
REMARK SMILES C=CCCCCCCC(=O)[O-]
REMARK SMILES IDX 6 1 7 2 8 3 9 4 10 5 11 6 5 7 4 8 3 9 2 10 1 11
REMARK H PARENT
REMARK Flexibility Score: inf
ROOT
ATOM      1  C   UNL     1       9.244   5.491  -2.740  1.00  0.00     0.000 C 
ENDROOT
BRANCH   1   2
ATOM      2  C   UNL     1      10.034   5.837  -1.466  1.00  0.00     0.006 C 
BRANCH   2   3
ATOM      3  C   UNL     1       9.676   4.915  -0.295  1.00  0.00     0.053 C 
BRANCH   3   4
ATOM      4  C   UNL     1       8.904   5.639   0.765  1.00  0.00     0.041 C 
ATOM      5  O   UNL     1       8.882   6.898   0.786  1.00  0.00    -0.550 OA
ATOM      6  O   UNL     1       8.179   4.922   1.709  1.00  0.00    -0.550 OA
ENDBRANCH   3   4
ENDBRANCH   2   3
ENDBRANCH   1   2
BRANCH   1   7
ATOM      7  C   UNL     1      10.017   5.825  -4.025  1.00  0.00     0.000 C 
BRANCH   7   8
ATOM      8  C   UNL     1       9.432   7.036  -4.769  1.00  0.00     0.004 C 
BRANCH   8   9
ATOM      9  C   UNL     1       8.451   6.587  -5.859  1.00  0.00     0.027 C 
BRANCH   9  10
ATOM     10  C   UNL     1       8.951   6.957  -7.229  1.00  0.00    -0.035 C 
ATOM     11  C   UNL     1       8.243   6.692  -8.332  1.00  0.00     0.004 C 
ENDBRANCH   9  10
ENDBRANCH   8   9
ENDBRANCH   7   8
ENDBRANCH   1   7
TORSDOF 7
ENDMDL
MODEL 9
REMARK VINA RESULT:    -3.219      3.645      5.863
REMARK INTER + INTRA:          -4.876
REMARK INTER:                  -4.448
REMARK INTRA:                  -0.428
REMARK UNBOUND:                -0.341
REMARK SMILES C=CCCCCCCC(=O)[O-]
REMARK SMILES IDX 6 1 7 2 8 3 9 4 10 5 11 6 5 7 4 8 3 9 2 10 1 11
REMARK H PARENT
REMARK Flexibility Score: inf
ROOT
ATOM      1  C   UNL     1      -2.638  -7.377   3.725  1.00  0.00     0.000 C 
ENDROOT
BRANCH   1   2
ATOM      2  C   UNL     1      -3.984  -8.023   3.353  1.00  0.00     0.006 C 
BRANCH   2   3
ATOM      3  C   UNL     1      -5.117  -6.992   3.272  1.00  0.00     0.053 C 
BRANCH   3   4
ATOM      4  C   UNL     1      -6.374  -7.498   3.911  1.00  0.00     0.041 C 
ATOM      5  O   UNL     1      -7.462  -7.473   3.278  1.00  0.00    -0.550 OA
ATOM      6  O   UNL     1      -6.335  -8.030   5.194  1.00  0.00    -0.550 OA
ENDBRANCH   3   4
ENDBRANCH   2   3
ENDBRANCH   1   2
BRANCH   1   7
ATOM      7  C   UNL     1      -1.891  -8.156   4.819  1.00  0.00     0.000 C 
BRANCH   7   8
ATOM      8  C   UNL     1      -2.841  -8.900   5.768  1.00  0.00     0.004 C 
BRANCH   8   9
ATOM      9  C   UNL     1      -2.441  -8.674   7.232  1.00  0.00     0.027 C 
BRANCH   9  10
ATOM     10  C   UNL     1      -1.034  -8.154   7.338  1.00  0.00    -0.035 C 
ATOM     11  C   UNL     1      -0.715  -7.148   8.161  1.00  0.00     0.004 C 
ENDBRANCH   9  10
ENDBRANCH   8   9
ENDBRANCH   7   8
ENDBRANCH   1   7
TORSDOF 7
ENDMDL
