MODEL 1
REMARK VINA RESULT:    -3.760      0.000      0.000
REMARK INTER + INTRA:          -4.069
REMARK INTER:                  -3.979
REMARK INTRA:                  -0.090
REMARK UNBOUND:                -0.090
REMARK SMILES C=C(C)[C@H]1CC=C(C)C(=O)C1
REMARK SMILES IDX 8 1 7 2 6 3 5 4 4 5 11 6 9 7 10 8 2 9 1 10 3 11
REMARK H PARENT
REMARK Flexibility Score: inf
ROOT
ATOM      1  C   UNL     1      28.606  37.761  19.701  1.00  0.00     0.048 C 
ATOM      2  C   UNL     1      28.202  39.192  19.932  1.00  0.00    -0.012 C 
ATOM      3  C   UNL     1      29.121  40.169  19.848  1.00  0.00    -0.019 C 
ATOM      4  C   UNL     1      28.775  41.614  20.088  1.00  0.00     0.036 C 
ATOM      5  C   UNL     1      27.335  41.921  19.636  1.00  0.00     0.025 C 
ATOM      6  C   UNL     1      26.344  40.962  20.323  1.00  0.00     0.089 C 
ATOM      7  C   UNL     1      26.771  39.534  20.129  1.00  0.00     0.158 C 
ATOM      8  O   UNL     1      25.901  38.621  20.172  1.00  0.00    -0.295 OA
ENDROOT
BRANCH   5   9
ATOM      9  C   UNL     1      26.967  43.379  19.883  1.00  0.00    -0.077 C 
ATOM     10  C   UNL     1      26.380  44.123  18.930  1.00  0.00     0.008 C 
ATOM     11  C   UNL     1      27.261  44.017  21.217  1.00  0.00     0.039 C 
ENDBRANCH   5   9
TORSDOF 1
ENDMDL
MODEL 2
REMARK VINA RESULT:    -3.570     13.669     16.107
REMARK INTER + INTRA:          -3.869
REMARK INTER:                  -3.774
REMARK INTRA:                  -0.095
REMARK UNBOUND:                -0.090
REMARK SMILES C=C(C)[C@H]1CC=C(C)C(=O)C1
REMARK SMILES IDX 8 1 7 2 6 3 5 4 4 5 11 6 9 7 10 8 2 9 1 10 3 11
REMARK H PARENT
REMARK Flexibility Score: inf
ROOT
ATOM      1  C   UNL     1      27.038  24.272  29.797  1.00  0.00     0.048 C 
ATOM      2  C   UNL     1      27.377  25.570  29.115  1.00  0.00    -0.012 C 
ATOM      3  C   UNL     1      28.662  25.895  28.895  1.00  0.00    -0.019 C 
ATOM      4  C   UNL     1      29.057  27.189  28.234  1.00  0.00     0.036 C 
ATOM      5  C   UNL     1      28.002  27.628  27.201  1.00  0.00     0.025 C 
ATOM      6  C   UNL     1      26.612  27.710  27.859  1.00  0.00     0.089 C 
ATOM      7  C   UNL     1      26.291  26.428  28.578  1.00  0.00     0.158 C 
ATOM      8  O   UNL     1      25.084  26.107  28.751  1.00  0.00    -0.295 OA
ENDROOT
BRANCH   5   9
ATOM      9  C   UNL     1      28.384  28.942  26.531  1.00  0.00    -0.077 C 
ATOM     10  C   UNL     1      29.125  29.863  27.170  1.00  0.00     0.008 C 
ATOM     11  C   UNL     1      27.931  29.231  25.122  1.00  0.00     0.039 C 
ENDBRANCH   5   9
TORSDOF 1
ENDMDL
MODEL 3
REMARK VINA RESULT:    -3.487      2.090      4.309
REMARK INTER + INTRA:          -3.781
REMARK INTER:                  -3.687
REMARK INTRA:                  -0.094
REMARK UNBOUND:                -0.090
REMARK SMILES C=C(C)[C@H]1CC=C(C)C(=O)C1
REMARK SMILES IDX 8 1 7 2 6 3 5 4 4 5 11 6 9 7 10 8 2 9 1 10 3 11
REMARK H PARENT
REMARK Flexibility Score: inf
ROOT
ATOM      1  C   UNL     1      27.607  44.125  22.804  1.00  0.00     0.048 C 
ATOM      2  C   UNL     1      27.500  42.936  21.889  1.00  0.00    -0.012 C 
ATOM      3  C   UNL     1      27.066  43.099  20.627  1.00  0.00    -0.019 C 
ATOM      4  C   UNL     1      26.922  41.942  19.676  1.00  0.00     0.036 C 
ATOM      5  C   UNL     1      27.986  40.862  19.952  1.00  0.00     0.025 C 
ATOM      6  C   UNL     1      27.926  40.417  21.425  1.00  0.00     0.089 C 
ATOM      7  C   UNL     1      27.989  41.609  22.340  1.00  0.00     0.158 C 
ATOM      8  O   UNL     1      28.431  41.461  23.512  1.00  0.00    -0.295 OA
ENDROOT
BRANCH   5   9
ATOM      9  C   UNL     1      27.846  39.679  19.001  1.00  0.00    -0.077 C 
ATOM     10  C   UNL     1      26.640  39.190  18.667  1.00  0.00     0.008 C 
ATOM     11  C   UNL     1      29.075  39.032  18.415  1.00  0.00     0.039 C 
ENDBRANCH   5   9
TORSDOF 1
ENDMDL
MODEL 4
REMARK VINA RESULT:    -3.432      2.228      4.449
REMARK INTER + INTRA:          -3.723
REMARK INTER:                  -3.633
REMARK INTRA:                  -0.089
REMARK UNBOUND:                -0.090
REMARK SMILES C=C(C)[C@H]1CC=C(C)C(=O)C1
REMARK SMILES IDX 8 1 7 2 6 3 5 4 4 5 11 6 9 7 10 8 2 9 1 10 3 11
REMARK H PARENT
REMARK Flexibility Score: inf
ROOT
ATOM      1  C   UNL     1      27.349  44.124  22.763  1.00  0.00     0.048 C 
ATOM      2  C   UNL     1      27.350  42.906  21.879  1.00  0.00    -0.012 C 
ATOM      3  C   UNL     1      27.691  41.710  22.388  1.00  0.00    -0.019 C 
ATOM      4  C   UNL     1      27.726  40.464  21.545  1.00  0.00     0.036 C 
ATOM      5  C   UNL     1      26.652  40.512  20.440  1.00  0.00     0.025 C 
ATOM      6  C   UNL     1      26.811  41.791  19.597  1.00  0.00     0.089 C 
ATOM      7  C   UNL     1      26.854  43.006  20.483  1.00  0.00     0.158 C 
ATOM      8  O   UNL     1      26.499  44.121  20.015  1.00  0.00    -0.295 OA
ENDROOT
BRANCH   5   9
ATOM      9  C   UNL     1      26.683  39.260  19.572  1.00  0.00    -0.077 C 
ATOM     10  C   UNL     1      26.000  38.155  19.915  1.00  0.00     0.008 C 
ATOM     11  C   UNL     1      27.490  39.243  18.299  1.00  0.00     0.039 C 
ENDBRANCH   5   9
TORSDOF 1
ENDMDL
MODEL 5
REMARK VINA RESULT:    -3.325      1.596      2.394
REMARK INTER + INTRA:          -3.610
REMARK INTER:                  -3.516
REMARK INTRA:                  -0.093
REMARK UNBOUND:                -0.090
REMARK SMILES C=C(C)[C@H]1CC=C(C)C(=O)C1
REMARK SMILES IDX 8 1 7 2 6 3 5 4 4 5 11 6 9 7 10 8 2 9 1 10 3 11
REMARK H PARENT
REMARK Flexibility Score: inf
ROOT
ATOM      1  C   UNL     1      25.751  38.126  20.126  1.00  0.00     0.048 C 
ATOM      2  C   UNL     1      26.460  39.449  20.223  1.00  0.00    -0.012 C 
ATOM      3  C   UNL     1      25.783  40.545  20.606  1.00  0.00    -0.019 C 
ATOM      4  C   UNL     1      26.440  41.896  20.703  1.00  0.00     0.036 C 
ATOM      5  C   UNL     1      27.919  41.765  21.116  1.00  0.00     0.025 C 
ATOM      6  C   UNL     1      28.662  40.823  20.150  1.00  0.00     0.089 C 
ATOM      7  C   UNL     1      27.929  39.517  20.018  1.00  0.00     0.158 C 
ATOM      8  O   UNL     1      28.573  38.482  19.694  1.00  0.00    -0.295 OA
ENDROOT
BRANCH   5   9
ATOM      9  C   UNL     1      28.599  43.126  21.208  1.00  0.00    -0.077 C 
ATOM     10  C   UNL     1      28.746  43.909  20.126  1.00  0.00     0.008 C 
ATOM     11  C   UNL     1      29.124  43.619  22.532  1.00  0.00     0.039 C 
ENDBRANCH   5   9
TORSDOF 1
ENDMDL
MODEL 6
REMARK VINA RESULT:    -3.254     13.287     15.819
REMARK INTER + INTRA:          -3.534
REMARK INTER:                  -3.445
REMARK INTRA:                  -0.090
REMARK UNBOUND:                -0.090
REMARK SMILES C=C(C)[C@H]1CC=C(C)C(=O)C1
REMARK SMILES IDX 8 1 7 2 6 3 5 4 4 5 11 6 9 7 10 8 2 9 1 10 3 11
REMARK H PARENT
REMARK Flexibility Score: inf
ROOT
ATOM      1  C   UNL     1      25.935  24.021  28.104  1.00  0.00     0.048 C 
ATOM      2  C   UNL     1      26.393  25.350  27.569  1.00  0.00    -0.012 C 
ATOM      3  C   UNL     1      26.243  26.459  28.314  1.00  0.00    -0.019 C 
ATOM      4  C   UNL     1      26.667  27.816  27.821  1.00  0.00     0.036 C 
ATOM      5  C   UNL     1      27.899  27.712  26.902  1.00  0.00     0.025 C 
ATOM      6  C   UNL     1      27.622  26.732  25.747  1.00  0.00     0.089 C 
ATOM      7  C   UNL     1      27.122  25.417  26.278  1.00  0.00     0.158 C 
ATOM      8  O   UNL     1      27.297  24.372  25.594  1.00  0.00    -0.295 OA
ENDROOT
BRANCH   5   9
ATOM      9  C   UNL     1      28.334  29.079  26.387  1.00  0.00    -0.077 C 
ATOM     10  C   UNL     1      29.074  29.908  27.142  1.00  0.00     0.008 C 
ATOM     11  C   UNL     1      27.934  29.527  25.004  1.00  0.00     0.039 C 
ENDBRANCH   5   9
TORSDOF 1
ENDMDL
MODEL 7
REMARK VINA RESULT:    -3.192     15.489     16.706
REMARK INTER + INTRA:          -3.469
REMARK INTER:                  -3.372
REMARK INTRA:                  -0.097
REMARK UNBOUND:                -0.090
REMARK SMILES C=C(C)[C@H]1CC=C(C)C(=O)C1
REMARK SMILES IDX 8 1 7 2 6 3 5 4 4 5 11 6 9 7 10 8 2 9 1 10 3 11
REMARK H PARENT
REMARK Flexibility Score: inf
ROOT
ATOM      1  C   UNL     1      25.691  28.741  29.855  1.00  0.00     0.048 C 
ATOM      2  C   UNL     1      26.305  27.755  28.898  1.00  0.00    -0.012 C 
ATOM      3  C   UNL     1      25.636  26.636  28.570  1.00  0.00    -0.019 C 
ATOM      4  C   UNL     1      26.211  25.609  27.632  1.00  0.00     0.036 C 
ATOM      5  C   UNL     1      27.102  26.271  26.564  1.00  0.00     0.025 C 
ATOM      6  C   UNL     1      28.195  27.124  27.234  1.00  0.00     0.089 C 
ATOM      7  C   UNL     1      27.586  28.080  28.223  1.00  0.00     0.158 C 
ATOM      8  O   UNL     1      28.197  29.147  28.502  1.00  0.00    -0.295 OA
ENDROOT
BRANCH   5   9
ATOM      9  C   UNL     1      27.699  25.240  25.613  1.00  0.00    -0.077 C 
ATOM     10  C   UNL     1      29.028  25.119  25.458  1.00  0.00     0.008 C 
ATOM     11  C   UNL     1      26.795  24.331  24.820  1.00  0.00     0.039 C 
ENDBRANCH   5   9
TORSDOF 1
ENDMDL
MODEL 8
REMARK VINA RESULT:    -3.165     13.594     16.471
REMARK INTER + INTRA:          -3.439
REMARK INTER:                  -3.346
REMARK INTRA:                  -0.093
REMARK UNBOUND:                -0.090
REMARK SMILES C=C(C)[C@H]1CC=C(C)C(=O)C1
REMARK SMILES IDX 8 1 7 2 6 3 5 4 4 5 11 6 9 7 10 8 2 9 1 10 3 11
REMARK H PARENT
REMARK Flexibility Score: inf
ROOT
ATOM      1  C   UNL     1      28.279  29.251  24.987  1.00  0.00     0.048 C 
ATOM      2  C   UNL     1      28.031  28.323  26.144  1.00  0.00    -0.012 C 
ATOM      3  C   UNL     1      27.634  27.059  25.916  1.00  0.00    -0.019 C 
ATOM      4  C   UNL     1      27.354  26.095  27.037  1.00  0.00     0.036 C 
ATOM      5  C   UNL     1      28.271  26.369  28.245  1.00  0.00     0.025 C 
ATOM      6  C   UNL     1      28.140  27.837  28.692  1.00  0.00     0.089 C 
ATOM      7  C   UNL     1      28.345  28.765  27.526  1.00  0.00     0.158 C 
ATOM      8  O   UNL     1      28.752  29.939  27.740  1.00  0.00    -0.295 OA
ENDROOT
BRANCH   5   9
ATOM      9  C   UNL     1      27.992  25.406  29.393  1.00  0.00    -0.077 C 
ATOM     10  C   UNL     1      26.753  25.251  29.890  1.00  0.00     0.008 C 
ATOM     11  C   UNL     1      29.117  24.602  29.994  1.00  0.00     0.039 C 
ENDBRANCH   5   9
TORSDOF 1
ENDMDL
MODEL 9
REMARK VINA RESULT:    -2.396     12.484     15.302
REMARK INTER + INTRA:          -2.626
REMARK INTER:                  -2.536
REMARK INTRA:                  -0.090
REMARK UNBOUND:                -0.090
REMARK SMILES C=C(C)[C@H]1CC=C(C)C(=O)C1
REMARK SMILES IDX 8 1 7 2 6 3 5 4 4 5 11 6 9 7 10 8 2 9 1 10 3 11
REMARK H PARENT
REMARK Flexibility Score: inf
ROOT
ATOM      1  C   UNL     1      29.121  31.111  25.767  1.00  0.00     0.048 C 
ATOM      2  C   UNL     1      28.748  29.821  26.444  1.00  0.00    -0.012 C 
ATOM      3  C   UNL     1      29.125  29.599  27.716  1.00  0.00    -0.019 C 
ATOM      4  C   UNL     1      28.795  28.319  28.435  1.00  0.00     0.036 C 
ATOM      5  C   UNL     1      27.445  27.748  27.960  1.00  0.00     0.025 C 
ATOM      6  C   UNL     1      27.448  27.574  26.429  1.00  0.00     0.089 C 
ATOM      7  C   UNL     1      27.862  28.851  25.753  1.00  0.00     0.158 C 
ATOM      8  O   UNL     1      27.477  29.074  24.573  1.00  0.00    -0.295 OA
ENDROOT
BRANCH   5   9
ATOM      9  C   UNL     1      27.102  26.446  28.673  1.00  0.00    -0.077 C 
ATOM     10  C   UNL     1      25.880  26.231  29.188  1.00  0.00     0.008 C 
ATOM     11  C   UNL     1      28.144  25.365  28.813  1.00  0.00     0.039 C 
ENDBRANCH   5   9
TORSDOF 1
ENDMDL
