MODEL 1
REMARK VINA RESULT:    -2.247      0.000      0.000
REMARK INTER + INTRA:          -5.092
REMARK INTER:                  -3.101
REMARK INTRA:                  -1.991
REMARK UNBOUND:                -1.991
REMARK SMILES C=C(CC[C@@H](C(=O)[O-])[C@H]1CC[C@@]2(C)C3=C(CC[C@]12C)[C@@]1(C)CC[C@@H](O)C(C)(C)[C@H]1CC3)C(C)C
REMARK SMILES IDX 4 1 5 2 6 3 7 4 8 5 9 6 10 7 18 8 11 9 12 10 17 11 19 12
REMARK SMILES IDX 13 13 14 14 16 15 15 16 31 17 20 18 30 19 29 20 22 21 21 22
REMARK SMILES IDX 26 23 23 24 24 25 27 26 28 27 25 28 3 30 2 31 1 32 32 33
REMARK SMILES IDX 33 34 34 35
REMARK H PARENT 25 29
REMARK Flexibility Score: inf
ROOT
ATOM      1  C   UNL     1      31.368  57.035  11.863  1.00  0.00     0.014 C 
ENDROOT
BRANCH   1   2
ATOM      2  C   UNL     1      30.491  58.244  12.276  1.00  0.00     0.039 C 
BRANCH   2   3
ATOM      3  C   UNL     1      30.473  58.362  13.778  1.00  0.00     0.045 C 
ATOM      4  O   UNL     1      29.381  58.488  14.392  1.00  0.00    -0.550 OA
ATOM      5  O   UNL     1      31.662  58.310  14.499  1.00  0.00    -0.550 OA
ENDBRANCH   2   3
BRANCH   2   6
ATOM      6  C   UNL     1      31.009  59.567  11.625  1.00  0.00     0.004 C 
ATOM      7  C   UNL     1      31.627  59.342  10.218  1.00  0.00     0.006 C 
ATOM      8  C   UNL     1      29.970  60.702  11.375  1.00  0.00    -0.020 C 
ATOM      9  C   UNL     1      31.269  60.567   9.356  1.00  0.00     0.012 C 
ATOM     10  C   UNL     1      30.715  61.604  10.346  1.00  0.00    -0.006 C 
ATOM     11  C   UNL     1      29.606  61.574  12.592  1.00  0.00     0.012 C 
ATOM     12  C   UNL     1      28.646  60.089  10.794  1.00  0.00     0.012 C 
ATOM     13  C   UNL     1      31.930  62.405  10.916  1.00  0.00     0.017 C 
ATOM     14  C   UNL     1      29.745  62.643   9.810  1.00  0.00    -0.064 C 
ATOM     15  C   UNL     1      28.867  62.880  12.177  1.00  0.00     0.032 C 
ATOM     16  C   UNL     1      28.920  63.293  10.688  1.00  0.00    -0.064 C 
ATOM     17  C   UNL     1      29.796  63.064   8.361  1.00  0.00     0.032 C 
ATOM     18  C   UNL     1      27.954  64.376  10.155  1.00  0.00    -0.008 C 
ATOM     19  C   UNL     1      29.810  64.582   8.264  1.00  0.00     0.009 C 
ATOM     20  C   UNL     1      28.657  65.289   9.051  1.00  0.00     0.007 C 
ATOM     21  C   UNL     1      27.373  65.249  11.321  1.00  0.00     0.014 C 
ATOM     22  C   UNL     1      26.743  63.622   9.529  1.00  0.00     0.016 C 
ATOM     23  C   UNL     1      29.084  66.725   9.563  1.00  0.00    -0.006 C 
ATOM     24  C   UNL     1      26.771  66.560  10.829  1.00  0.00     0.033 C 
ATOM     25  C   UNL     1      27.823  67.470  10.153  1.00  0.00     0.120 C 
ATOM     26  C   UNL     1      30.259  66.640  10.591  1.00  0.00     0.014 C 
ATOM     27  C   UNL     1      29.591  67.581   8.370  1.00  0.00     0.014 C 
BRANCH  25  28
ATOM     28  O   UNL     1      28.184  68.543  10.991  1.00  0.00    -0.393 OA
ATOM     29  H   UNL     1      27.551  69.289  10.825  1.00  0.00     0.210 HD
ENDBRANCH  25  28
ENDBRANCH   2   6
ENDBRANCH   1   2
BRANCH   1  30
ATOM     30  C   UNL     1      30.579  55.885  11.207  1.00  0.00     0.031 C 
BRANCH  30  31
ATOM     31  C   UNL     1      30.436  56.043   9.705  1.00  0.00    -0.075 C 
ATOM     32  C   UNL     1      31.515  55.875   8.922  1.00  0.00     0.008 C 
BRANCH  31  33
ATOM     33  C   UNL     1      29.056  56.274   9.097  1.00  0.00     0.008 C 
ATOM     34  C   UNL     1      29.066  57.494   8.168  1.00  0.00     0.012 C 
ATOM     35  C   UNL     1      27.966  56.415  10.167  1.00  0.00     0.012 C 
ENDBRANCH  31  33
ENDBRANCH  30  31
ENDBRANCH   1  30
TORSDOF 7
ENDMDL
MODEL 2
REMARK VINA RESULT:    -2.223      3.493      4.868
REMARK INTER + INTRA:          -5.060
REMARK INTER:                  -3.044
REMARK INTRA:                  -2.015
REMARK UNBOUND:                -1.991
REMARK SMILES C=C(CC[C@@H](C(=O)[O-])[C@H]1CC[C@@]2(C)C3=C(CC[C@]12C)[C@@]1(C)CC[C@@H](O)C(C)(C)[C@H]1CC3)C(C)C
REMARK SMILES IDX 4 1 5 2 6 3 7 4 8 5 9 6 10 7 18 8 11 9 12 10 17 11 19 12
REMARK SMILES IDX 13 13 14 14 16 15 15 16 31 17 20 18 30 19 29 20 22 21 21 22
REMARK SMILES IDX 26 23 23 24 24 25 27 26 28 27 25 28 3 30 2 31 1 32 32 33
REMARK SMILES IDX 33 34 34 35
REMARK H PARENT 25 29
REMARK Flexibility Score: inf
ROOT
ATOM      1  C   UNL     1      31.554  56.797  13.161  1.00  0.00     0.014 C 
ENDROOT
BRANCH   1   2
ATOM      2  C   UNL     1      30.499  57.009  14.276  1.00  0.00     0.039 C 
BRANCH   2   3
ATOM      3  C   UNL     1      30.920  56.261  15.514  1.00  0.00     0.045 C 
ATOM      4  O   UNL     1      32.125  55.930  15.676  1.00  0.00    -0.550 OA
ATOM      5  O   UNL     1      29.986  55.948  16.496  1.00  0.00    -0.550 OA
ENDBRANCH   2   3
BRANCH   2   6
ATOM      6  C   UNL     1      30.304  58.528  14.588  1.00  0.00     0.004 C 
ATOM      7  C   UNL     1      31.224  59.440  13.733  1.00  0.00     0.006 C 
ATOM      8  C   UNL     1      28.888  59.136  14.353  1.00  0.00    -0.020 C 
ATOM      9  C   UNL     1      30.431  60.720  13.407  1.00  0.00     0.012 C 
ATOM     10  C   UNL     1      29.192  60.663  14.315  1.00  0.00    -0.006 C 
ATOM     11  C   UNL     1      27.846  58.888  15.460  1.00  0.00     0.012 C 
ATOM     12  C   UNL     1      28.302  58.603  12.996  1.00  0.00     0.012 C 
ATOM     13  C   UNL     1      29.587  61.300  15.687  1.00  0.00     0.017 C 
ATOM     14  C   UNL     1      27.947  61.402  13.857  1.00  0.00    -0.064 C 
ATOM     15  C   UNL     1      26.607  59.821  15.318  1.00  0.00     0.032 C 
ATOM     16  C   UNL     1      26.735  61.046  14.383  1.00  0.00    -0.064 C 
ATOM     17  C   UNL     1      28.058  62.608  12.954  1.00  0.00     0.032 C 
ATOM     18  C   UNL     1      25.466  61.815  13.947  1.00  0.00    -0.008 C 
ATOM     19  C   UNL     1      27.233  63.754  13.518  1.00  0.00     0.009 C 
ATOM     20  C   UNL     1      25.746  63.382  13.837  1.00  0.00     0.007 C 
ATOM     21  C   UNL     1      24.261  61.524  14.907  1.00  0.00     0.014 C 
ATOM     22  C   UNL     1      25.061  61.248  12.554  1.00  0.00     0.016 C 
ATOM     23  C   UNL     1      25.167  64.238  15.036  1.00  0.00    -0.006 C 
ATOM     24  C   UNL     1      23.146  62.556  14.778  1.00  0.00     0.033 C 
ATOM     25  C   UNL     1      23.614  63.978  15.166  1.00  0.00     0.120 C 
ATOM     26  C   UNL     1      25.932  63.948  16.368  1.00  0.00     0.014 C 
ATOM     27  C   UNL     1      25.342  65.752  14.737  1.00  0.00     0.014 C 
BRANCH  25  28
ATOM     28  O   UNL     1      23.118  64.352  16.430  1.00  0.00    -0.393 OA
ATOM     29  H   UNL     1      23.291  63.605  17.060  1.00  0.00     0.210 HD
ENDBRANCH  25  28
ENDBRANCH   2   6
ENDBRANCH   1   2
BRANCH   1  30
ATOM     30  C   UNL     1      31.082  55.875  12.020  1.00  0.00     0.031 C 
BRANCH  30  31
ATOM     31  C   UNL     1      30.586  56.637  10.805  1.00  0.00    -0.075 C 
ATOM     32  C   UNL     1      29.397  56.314  10.268  1.00  0.00     0.008 C 
BRANCH  31  33
ATOM     33  C   UNL     1      31.383  57.829  10.283  1.00  0.00     0.008 C 
ATOM     34  C   UNL     1      30.479  59.054  10.104  1.00  0.00     0.012 C 
ATOM     35  C   UNL     1      32.125  57.505   8.980  1.00  0.00     0.012 C 
ENDBRANCH  31  33
ENDBRANCH  30  31
ENDBRANCH   1  30
TORSDOF 7
ENDMDL
MODEL 3
REMARK VINA RESULT:    -2.148      3.005      4.232
REMARK INTER + INTRA:          -4.955
REMARK INTER:                  -3.105
REMARK INTRA:                  -1.850
REMARK UNBOUND:                -1.991
REMARK SMILES C=C(CC[C@@H](C(=O)[O-])[C@H]1CC[C@@]2(C)C3=C(CC[C@]12C)[C@@]1(C)CC[C@@H](O)C(C)(C)[C@H]1CC3)C(C)C
REMARK SMILES IDX 4 1 5 2 6 3 7 4 8 5 9 6 10 7 18 8 11 9 12 10 17 11 19 12
REMARK SMILES IDX 13 13 14 14 16 15 15 16 31 17 20 18 30 19 29 20 22 21 21 22
REMARK SMILES IDX 26 23 23 24 24 25 27 26 28 27 25 28 3 30 2 31 1 32 32 33
REMARK SMILES IDX 33 34 34 35
REMARK H PARENT 25 29
REMARK Flexibility Score: inf
ROOT
ATOM      1  C   UNL     1      31.361  56.809  12.202  1.00  0.00     0.014 C 
ENDROOT
BRANCH   1   2
ATOM      2  C   UNL     1      30.206  57.011  13.217  1.00  0.00     0.039 C 
BRANCH   2   3
ATOM      3  C   UNL     1      30.504  56.238  14.476  1.00  0.00     0.045 C 
ATOM      4  O   UNL     1      31.691  55.932  14.767  1.00  0.00    -0.550 OA
ATOM      5  O   UNL     1      29.473  55.875  15.335  1.00  0.00    -0.550 OA
ENDBRANCH   2   3
BRANCH   2   6
ATOM      6  C   UNL     1      29.992  58.525  13.536  1.00  0.00     0.004 C 
ATOM      7  C   UNL     1      30.980  59.446  12.770  1.00  0.00     0.006 C 
ATOM      8  C   UNL     1      28.602  59.143  13.199  1.00  0.00    -0.020 C 
ATOM      9  C   UNL     1      30.219  60.735  12.403  1.00  0.00     0.012 C 
ATOM     10  C   UNL     1      28.913  60.670  13.209  1.00  0.00    -0.006 C 
ATOM     11  C   UNL     1      27.474  58.883  14.216  1.00  0.00     0.012 C 
ATOM     12  C   UNL     1      28.123  58.634  11.792  1.00  0.00     0.012 C 
ATOM     13  C   UNL     1      29.200  61.284  14.618  1.00  0.00     0.017 C 
ATOM     14  C   UNL     1      27.710  61.421  12.665  1.00  0.00    -0.064 C 
ATOM     15  C   UNL     1      26.254  59.824  13.991  1.00  0.00     0.032 C 
ATOM     16  C   UNL     1      26.459  61.063  13.088  1.00  0.00    -0.064 C 
ATOM     17  C   UNL     1      27.897  62.640  11.792  1.00  0.00     0.032 C 
ATOM     18  C   UNL     1      25.232  61.844  12.565  1.00  0.00    -0.008 C 
ATOM     19  C   UNL     1      27.034  63.781  12.307  1.00  0.00     0.009 C 
ATOM     20  C   UNL     1      25.525  63.412  12.501  1.00  0.00     0.007 C 
ATOM     21  C   UNL     1      23.953  61.545  13.422  1.00  0.00     0.014 C 
ATOM     22  C   UNL     1      24.936  61.300  11.136  1.00  0.00     0.016 C 
ATOM     23  C   UNL     1      24.855  64.252  13.664  1.00  0.00    -0.006 C 
ATOM     24  C   UNL     1      22.855  62.583  13.221  1.00  0.00     0.033 C 
ATOM     25  C   UNL     1      23.296  63.997  13.667  1.00  0.00     0.120 C 
ATOM     26  C   UNL     1      25.512  63.938  15.047  1.00  0.00     0.014 C 
ATOM     27  C   UNL     1      25.059  65.769  13.403  1.00  0.00     0.014 C 
BRANCH  25  28
ATOM     28  O   UNL     1      22.703  64.354  14.893  1.00  0.00    -0.393 OA
ATOM     29  H   UNL     1      22.759  65.341  14.985  1.00  0.00     0.210 HD
ENDBRANCH  25  28
ENDBRANCH   2   6
ENDBRANCH   1   2
BRANCH   1  30
ATOM     30  C   UNL     1      30.983  55.936  10.990  1.00  0.00     0.031 C 
BRANCH  30  31
ATOM     31  C   UNL     1      31.254  56.615   9.660  1.00  0.00    -0.075 C 
ATOM     32  C   UNL     1      31.707  55.881   8.630  1.00  0.00     0.008 C 
BRANCH  31  33
ATOM     33  C   UNL     1      30.900  58.087   9.477  1.00  0.00     0.008 C 
ATOM     34  C   UNL     1      29.795  58.258   8.428  1.00  0.00     0.012 C 
ATOM     35  C   UNL     1      32.125  58.939   9.120  1.00  0.00     0.012 C 
ENDBRANCH  31  33
ENDBRANCH  30  31
ENDBRANCH   1  30
TORSDOF 7
ENDMDL
MODEL 4
REMARK VINA RESULT:    -2.141      3.697      8.480
REMARK INTER + INTRA:          -4.946
REMARK INTER:                  -3.306
REMARK INTRA:                  -1.639
REMARK UNBOUND:                -1.991
REMARK SMILES C=C(CC[C@@H](C(=O)[O-])[C@H]1CC[C@@]2(C)C3=C(CC[C@]12C)[C@@]1(C)CC[C@@H](O)C(C)(C)[C@H]1CC3)C(C)C
REMARK SMILES IDX 4 1 5 2 6 3 7 4 8 5 9 6 10 7 18 8 11 9 12 10 17 11 19 12
REMARK SMILES IDX 13 13 14 14 16 15 15 16 31 17 20 18 30 19 29 20 22 21 21 22
REMARK SMILES IDX 26 23 23 24 24 25 27 26 28 27 25 28 3 30 2 31 1 32 32 33
REMARK SMILES IDX 33 34 34 35
REMARK H PARENT 25 29
REMARK Flexibility Score: inf
ROOT
ATOM      1  C   UNL     1      31.207  58.209   9.767  1.00  0.00     0.014 C 
ENDROOT
BRANCH   1   2
ATOM      2  C   UNL     1      29.973  58.415  10.681  1.00  0.00     0.039 C 
BRANCH   2   3
ATOM      3  C   UNL     1      28.716  58.138   9.897  1.00  0.00     0.045 C 
ATOM      4  O   UNL     1      28.411  56.956   9.585  1.00  0.00    -0.550 OA
ATOM      5  O   UNL     1      27.874  59.182   9.531  1.00  0.00    -0.550 OA
ENDBRANCH   2   3
BRANCH   2   6
ATOM      6  C   UNL     1      30.047  57.500  11.946  1.00  0.00     0.004 C 
ATOM      7  C   UNL     1      31.331  56.627  11.981  1.00  0.00     0.006 C 
ATOM      8  C   UNL     1      30.058  58.198  13.340  1.00  0.00    -0.020 C 
ATOM      9  C   UNL     1      31.772  56.515  13.453  1.00  0.00     0.012 C 
ATOM     10  C   UNL     1      30.591  57.065  14.267  1.00  0.00    -0.006 C 
ATOM     11  C   UNL     1      28.691  58.653  13.886  1.00  0.00     0.012 C 
ATOM     12  C   UNL     1      31.014  59.445  13.300  1.00  0.00     0.012 C 
ATOM     13  C   UNL     1      29.599  55.881  14.512  1.00  0.00     0.017 C 
ATOM     14  C   UNL     1      30.888  57.648  15.637  1.00  0.00    -0.064 C 
ATOM     15  C   UNL     1      28.751  58.993  15.405  1.00  0.00     0.032 C 
ATOM     16  C   UNL     1      29.984  58.507  16.201  1.00  0.00    -0.064 C 
ATOM     17  C   UNL     1      32.083  57.173  16.430  1.00  0.00     0.032 C 
ATOM     18  C   UNL     1      30.264  59.080  17.610  1.00  0.00    -0.008 C 
ATOM     19  C   UNL     1      31.657  56.829  17.849  1.00  0.00     0.009 C 
ATOM     20  C   UNL     1      30.868  57.966  18.580  1.00  0.00     0.007 C 
ATOM     21  C   UNL     1      28.978  59.730  18.230  1.00  0.00     0.014 C 
ATOM     22  C   UNL     1      31.291  60.236  17.423  1.00  0.00     0.016 C 
ATOM     23  C   UNL     1      29.840  57.388  19.637  1.00  0.00    -0.006 C 
ATOM     24  C   UNL     1      29.086  59.919  19.739  1.00  0.00     0.033 C 
ATOM     25  C   UNL     1      29.239  58.575  20.489  1.00  0.00     0.120 C 
ATOM     26  C   UNL     1      28.730  56.532  18.945  1.00  0.00     0.014 C 
ATOM     27  C   UNL     1      30.577  56.452  20.632  1.00  0.00     0.014 C 
BRANCH  25  28
ATOM     28  O   UNL     1      28.042  58.211  21.134  1.00  0.00    -0.393 OA
ATOM     29  H   UNL     1      27.655  57.437  20.649  1.00  0.00     0.210 HD
ENDBRANCH  25  28
ENDBRANCH   2   6
ENDBRANCH   1   2
BRANCH   1  30
ATOM     30  C   UNL     1      32.125  59.444   9.668  1.00  0.00     0.031 C 
BRANCH  30  31
ATOM     31  C   UNL     1      31.361  60.736   9.444  1.00  0.00    -0.075 C 
ATOM     32  C   UNL     1      30.740  60.934   8.269  1.00  0.00     0.008 C 
BRANCH  31  33
ATOM     33  C   UNL     1      31.213  61.735  10.587  1.00  0.00     0.008 C 
ATOM     34  C   UNL     1      29.751  62.165  10.750  1.00  0.00     0.012 C 
ATOM     35  C   UNL     1      32.124  62.957  10.412  1.00  0.00     0.012 C 
ENDBRANCH  31  33
ENDBRANCH  30  31
ENDBRANCH   1  30
TORSDOF 7
ENDMDL
MODEL 5
REMARK VINA RESULT:    -2.097      4.027      8.768
REMARK INTER + INTRA:          -4.885
REMARK INTER:                  -3.192
REMARK INTRA:                  -1.693
REMARK UNBOUND:                -1.991
REMARK SMILES C=C(CC[C@@H](C(=O)[O-])[C@H]1CC[C@@]2(C)C3=C(CC[C@]12C)[C@@]1(C)CC[C@@H](O)C(C)(C)[C@H]1CC3)C(C)C
REMARK SMILES IDX 4 1 5 2 6 3 7 4 8 5 9 6 10 7 18 8 11 9 12 10 17 11 19 12
REMARK SMILES IDX 13 13 14 14 16 15 15 16 31 17 20 18 30 19 29 20 22 21 21 22
REMARK SMILES IDX 26 23 23 24 24 25 27 26 28 27 25 28 3 30 2 31 1 32 32 33
REMARK SMILES IDX 33 34 34 35
REMARK H PARENT 25 29
REMARK Flexibility Score: inf
ROOT
ATOM      1  C   UNL     1      30.681  59.493  10.454  1.00  0.00     0.014 C 
ENDROOT
BRANCH   1   2
ATOM      2  C   UNL     1      30.900  60.208  11.812  1.00  0.00     0.039 C 
BRANCH   2   3
ATOM      3  C   UNL     1      30.874  61.700  11.603  1.00  0.00     0.045 C 
ATOM      4  O   UNL     1      29.777  62.320  11.586  1.00  0.00    -0.550 OA
ATOM      5  O   UNL     1      32.062  62.407  11.447  1.00  0.00    -0.550 OA
ENDBRANCH   2   3
BRANCH   2   6
ATOM      6  C   UNL     1      29.821  59.778  12.857  1.00  0.00     0.004 C 
ATOM      7  C   UNL     1      28.792  58.770  12.279  1.00  0.00     0.006 C 
ATOM      8  C   UNL     1      30.317  59.069  14.154  1.00  0.00    -0.020 C 
ATOM      9  C   UNL     1      28.425  57.786  13.406  1.00  0.00     0.012 C 
ATOM     10  C   UNL     1      29.009  58.409  14.684  1.00  0.00    -0.006 C 
ATOM     11  C   UNL     1      30.869  59.984  15.264  1.00  0.00     0.012 C 
ATOM     12  C   UNL     1      31.422  58.014  13.790  1.00  0.00     0.012 C 
ATOM     13  C   UNL     1      27.943  59.400  15.252  1.00  0.00     0.017 C 
ATOM     14  C   UNL     1      29.359  57.473  15.828  1.00  0.00    -0.064 C 
ATOM     15  C   UNL     1      30.989  59.243  16.628  1.00  0.00     0.032 C 
ATOM     16  C   UNL     1      30.245  57.897  16.782  1.00  0.00    -0.064 C 
ATOM     17  C   UNL     1      28.630  56.161  15.997  1.00  0.00     0.032 C 
ATOM     18  C   UNL     1      30.581  56.963  17.968  1.00  0.00    -0.008 C 
ATOM     19  C   UNL     1      28.155  56.015  17.434  1.00  0.00     0.009 C 
ATOM     20  C   UNL     1      29.277  56.217  18.508  1.00  0.00     0.007 C 
ATOM     21  C   UNL     1      31.302  57.741  19.123  1.00  0.00     0.014 C 
ATOM     22  C   UNL     1      31.608  55.921  17.436  1.00  0.00     0.016 C 
ATOM     23  C   UNL     1      28.701  56.800  19.863  1.00  0.00    -0.006 C 
ATOM     24  C   UNL     1      31.271  56.988  20.448  1.00  0.00     0.033 C 
ATOM     25  C   UNL     1      29.830  56.776  20.967  1.00  0.00     0.120 C 
ATOM     26  C   UNL     1      28.097  58.227  19.660  1.00  0.00     0.014 C 
ATOM     27  C   UNL     1      27.550  55.894  20.379  1.00  0.00     0.014 C 
BRANCH  25  28
ATOM     28  O   UNL     1      29.541  57.642  22.039  1.00  0.00    -0.393 OA
ATOM     29  H   UNL     1      29.308  57.087  22.828  1.00  0.00     0.210 HD
ENDBRANCH  25  28
ENDBRANCH   2   6
ENDBRANCH   1   2
BRANCH   1  30
ATOM     30  C   UNL     1      31.747  58.428  10.129  1.00  0.00     0.031 C 
BRANCH  30  31
ATOM     31  C   UNL     1      31.245  57.354   9.183  1.00  0.00    -0.075 C 
ATOM     32  C   UNL     1      31.545  57.439   7.875  1.00  0.00     0.008 C 
BRANCH  31  33
ATOM     33  C   UNL     1      30.512  56.138   9.740  1.00  0.00     0.008 C 
ATOM     34  C   UNL     1      28.997  56.281   9.554  1.00  0.00     0.012 C 
ATOM     35  C   UNL     1      30.857  55.875  11.211  1.00  0.00     0.012 C 
ENDBRANCH  31  33
ENDBRANCH  30  31
ENDBRANCH   1  30
TORSDOF 7
ENDMDL
MODEL 6
REMARK VINA RESULT:    -2.093      3.681      7.956
REMARK INTER + INTRA:          -4.879
REMARK INTER:                  -3.023
REMARK INTRA:                  -1.856
REMARK UNBOUND:                -1.991
REMARK SMILES C=C(CC[C@@H](C(=O)[O-])[C@H]1CC[C@@]2(C)C3=C(CC[C@]12C)[C@@]1(C)CC[C@@H](O)C(C)(C)[C@H]1CC3)C(C)C
REMARK SMILES IDX 4 1 5 2 6 3 7 4 8 5 9 6 10 7 18 8 11 9 12 10 17 11 19 12
REMARK SMILES IDX 13 13 14 14 16 15 15 16 31 17 20 18 30 19 29 20 22 21 21 22
REMARK SMILES IDX 26 23 23 24 24 25 27 26 28 27 25 28 3 30 2 31 1 32 32 33
REMARK SMILES IDX 33 34 34 35
REMARK H PARENT 25 29
REMARK Flexibility Score: inf
ROOT
ATOM      1  C   UNL     1      31.078  60.185   9.777  1.00  0.00     0.014 C 
ENDROOT
BRANCH   1   2
ATOM      2  C   UNL     1      31.360  60.842  11.152  1.00  0.00     0.039 C 
BRANCH   2   3
ATOM      3  C   UNL     1      31.715  62.293  10.951  1.00  0.00     0.045 C 
ATOM      4  O   UNL     1      31.864  63.053  11.944  1.00  0.00    -0.550 OA
ATOM      5  O   UNL     1      31.900  62.798   9.668  1.00  0.00    -0.550 OA
ENDBRANCH   2   3
BRANCH   2   6
ATOM      6  C   UNL     1      30.132  60.701  12.108  1.00  0.00     0.004 C 
ATOM      7  C   UNL     1      28.913  60.026  11.424  1.00  0.00     0.006 C 
ATOM      8  C   UNL     1      30.321  59.856  13.404  1.00  0.00    -0.020 C 
ATOM      9  C   UNL     1      28.213  59.155  12.485  1.00  0.00     0.012 C 
ATOM     10  C   UNL     1      28.849  59.567  13.822  1.00  0.00    -0.006 C 
ATOM     11  C   UNL     1      31.018  60.562  14.584  1.00  0.00     0.012 C 
ATOM     12  C   UNL     1      31.123  58.547  13.070  1.00  0.00     0.012 C 
ATOM     13  C   UNL     1      28.053  60.800  14.360  1.00  0.00     0.017 C 
ATOM     14  C   UNL     1      28.848  58.547  14.947  1.00  0.00    -0.064 C 
ATOM     15  C   UNL     1      30.834  59.787  15.921  1.00  0.00     0.032 C 
ATOM     16  C   UNL     1      29.743  58.692  15.972  1.00  0.00    -0.064 C 
ATOM     17  C   UNL     1      27.780  57.481  15.016  1.00  0.00     0.032 C 
ATOM     18  C   UNL     1      29.727  57.677  17.139  1.00  0.00    -0.008 C 
ATOM     19  C   UNL     1      27.181  57.440  16.413  1.00  0.00     0.009 C 
ATOM     20  C   UNL     1      28.234  57.305  17.563  1.00  0.00     0.007 C 
ATOM     21  C   UNL     1      30.546  58.203  18.368  1.00  0.00     0.014 C 
ATOM     22  C   UNL     1      30.468  56.406  16.632  1.00  0.00     0.016 C 
ATOM     23  C   UNL     1      27.740  57.993  18.901  1.00  0.00    -0.006 C 
ATOM     24  C   UNL     1      30.216  57.459  19.657  1.00  0.00     0.033 C 
ATOM     25  C   UNL     1      28.737  57.638  20.074  1.00  0.00     0.120 C 
ATOM     26  C   UNL     1      27.563  59.535  18.718  1.00  0.00     0.014 C 
ATOM     27  C   UNL     1      26.353  57.425  19.306  1.00  0.00     0.014 C 
BRANCH  25  28
ATOM     28  O   UNL     1      28.617  58.527  21.159  1.00  0.00    -0.393 OA
ATOM     29  H   UNL     1      29.115  58.143  21.927  1.00  0.00     0.210 HD
ENDBRANCH  25  28
ENDBRANCH   2   6
ENDBRANCH   1   2
BRANCH   1  30
ATOM     30  C   UNL     1      32.124  59.132   9.361  1.00  0.00     0.031 C 
BRANCH  30  31
ATOM     31  C   UNL     1      31.507  57.798   8.984  1.00  0.00    -0.075 C 
ATOM     32  C   UNL     1      32.015  57.111   7.946  1.00  0.00     0.008 C 
BRANCH  31  33
ATOM     33  C   UNL     1      30.403  57.203   9.851  1.00  0.00     0.008 C 
ATOM     34  C   UNL     1      30.852  55.876  10.474  1.00  0.00     0.012 C 
ATOM     35  C   UNL     1      29.090  57.024   9.078  1.00  0.00     0.012 C 
ENDBRANCH  31  33
ENDBRANCH  30  31
ENDBRANCH   1  30
TORSDOF 7
ENDMDL
MODEL 7
REMARK VINA RESULT:    -1.975      2.028      2.736
REMARK INTER + INTRA:          -4.717
REMARK INTER:                  -2.727
REMARK INTRA:                  -1.990
REMARK UNBOUND:                -1.991
REMARK SMILES C=C(CC[C@@H](C(=O)[O-])[C@H]1CC[C@@]2(C)C3=C(CC[C@]12C)[C@@]1(C)CC[C@@H](O)C(C)(C)[C@H]1CC3)C(C)C
REMARK SMILES IDX 4 1 5 2 6 3 7 4 8 5 9 6 10 7 18 8 11 9 12 10 17 11 19 12
REMARK SMILES IDX 13 13 14 14 16 15 15 16 31 17 20 18 30 19 29 20 22 21 21 22
REMARK SMILES IDX 26 23 23 24 24 25 27 26 28 27 25 28 3 30 2 31 1 32 32 33
REMARK SMILES IDX 33 34 34 35
REMARK H PARENT 25 29
REMARK Flexibility Score: inf
ROOT
ATOM      1  C   UNL     1      30.947  56.767  12.551  1.00  0.00     0.014 C 
ENDROOT
BRANCH   1   2
ATOM      2  C   UNL     1      29.537  57.338  12.847  1.00  0.00     0.039 C 
BRANCH   2   3
ATOM      3  C   UNL     1      28.912  56.567  13.981  1.00  0.00     0.045 C 
ATOM      4  O   UNL     1      27.763  56.066  13.850  1.00  0.00    -0.550 OA
ATOM      5  O   UNL     1      29.607  56.385  15.172  1.00  0.00    -0.550 OA
ENDBRANCH   2   3
BRANCH   2   6
ATOM      6  C   UNL     1      29.604  58.862  13.186  1.00  0.00     0.004 C 
ATOM      7  C   UNL     1      31.000  59.479  12.903  1.00  0.00     0.006 C 
ATOM      8  C   UNL     1      28.636  59.813  12.419  1.00  0.00    -0.020 C 
ATOM      9  C   UNL     1      30.774  60.914  12.388  1.00  0.00     0.012 C 
ATOM     10  C   UNL     1      29.291  61.206  12.661  1.00  0.00    -0.006 C 
ATOM     11  C   UNL     1      27.186  59.875  12.937  1.00  0.00     0.012 C 
ATOM     12  C   UNL     1      28.600  59.419  10.899  1.00  0.00     0.012 C 
ATOM     13  C   UNL     1      29.181  61.751  14.122  1.00  0.00     0.017 C 
ATOM     14  C   UNL     1      28.601  62.234  11.780  1.00  0.00    -0.064 C 
ATOM     15  C   UNL     1      26.410  61.096  12.362  1.00  0.00     0.032 C 
ATOM     16  C   UNL     1      27.235  62.221  11.694  1.00  0.00    -0.064 C 
ATOM     17  C   UNL     1      29.393  63.345  11.133  1.00  0.00     0.032 C 
ATOM     18  C   UNL     1      26.523  63.284  10.826  1.00  0.00    -0.008 C 
ATOM     19  C   UNL     1      28.713  64.681  11.389  1.00  0.00     0.009 C 
ATOM     20  C   UNL     1      27.198  64.720  10.997  1.00  0.00     0.007 C 
ATOM     21  C   UNL     1      24.987  63.344  11.139  1.00  0.00     0.014 C 
ATOM     22  C   UNL     1      26.649  62.809   9.349  1.00  0.00     0.016 C 
ATOM     23  C   UNL     1      26.378  65.728  11.902  1.00  0.00    -0.006 C 
ATOM     24  C   UNL     1      24.335  64.628  10.637  1.00  0.00     0.033 C 
ATOM     25  C   UNL     1      24.918  65.887  11.322  1.00  0.00     0.120 C 
ATOM     26  C   UNL     1      26.378  65.281  13.399  1.00  0.00     0.014 C 
ATOM     27  C   UNL     1      27.034  67.134  11.852  1.00  0.00     0.014 C 
BRANCH  25  28
ATOM     28  O   UNL     1      24.023  66.409  12.275  1.00  0.00    -0.393 OA
ATOM     29  H   UNL     1      23.219  65.827  12.293  1.00  0.00     0.210 HD
ENDBRANCH  25  28
ENDBRANCH   2   6
ENDBRANCH   1   2
BRANCH   1  30
ATOM     30  C   UNL     1      31.011  55.878  11.293  1.00  0.00     0.031 C 
BRANCH  30  31
ATOM     31  C   UNL     1      30.869  56.663  10.003  1.00  0.00    -0.075 C 
ATOM     32  C   UNL     1      31.739  57.653   9.738  1.00  0.00     0.008 C 
BRANCH  31  33
ATOM     33  C   UNL     1      29.820  56.247   8.976  1.00  0.00     0.008 C 
ATOM     34  C   UNL     1      29.623  57.342   7.921  1.00  0.00     0.012 C 
ATOM     35  C   UNL     1      28.483  55.875   9.630  1.00  0.00     0.012 C 
ENDBRANCH  31  33
ENDBRANCH  30  31
ENDBRANCH   1  30
TORSDOF 7
ENDMDL
MODEL 8
REMARK VINA RESULT:    -1.944      4.319      6.644
REMARK INTER + INTRA:          -4.674
REMARK INTER:                  -2.828
REMARK INTRA:                  -1.845
REMARK UNBOUND:                -1.991
REMARK SMILES C=C(CC[C@@H](C(=O)[O-])[C@H]1CC[C@@]2(C)C3=C(CC[C@]12C)[C@@]1(C)CC[C@@H](O)C(C)(C)[C@H]1CC3)C(C)C
REMARK SMILES IDX 4 1 5 2 6 3 7 4 8 5 9 6 10 7 18 8 11 9 12 10 17 11 19 12
REMARK SMILES IDX 13 13 14 14 16 15 15 16 31 17 20 18 30 19 29 20 22 21 21 22
REMARK SMILES IDX 26 23 23 24 24 25 27 26 28 27 25 28 3 30 2 31 1 32 32 33
REMARK SMILES IDX 33 34 34 35
REMARK H PARENT 25 29
REMARK Flexibility Score: inf
ROOT
ATOM      1  C   UNL     1      30.697  58.884  10.167  1.00  0.00     0.014 C 
ENDROOT
BRANCH   1   2
ATOM      2  C   UNL     1      31.238  60.125  10.922  1.00  0.00     0.039 C 
BRANCH   2   3
ATOM      3  C   UNL     1      31.729  61.143   9.924  1.00  0.00     0.045 C 
ATOM      4  O   UNL     1      31.872  62.347  10.265  1.00  0.00    -0.550 OA
ATOM      5  O   UNL     1      32.047  60.756   8.627  1.00  0.00    -0.550 OA
ENDBRANCH   2   3
BRANCH   2   6
ATOM      6  C   UNL     1      30.145  60.745  11.850  1.00  0.00     0.004 C 
ATOM      7  C   UNL     1      28.860  59.876  11.928  1.00  0.00     0.006 C 
ATOM      8  C   UNL     1      30.512  60.964  13.349  1.00  0.00    -0.020 C 
ATOM      9  C   UNL     1      28.316  59.984  13.365  1.00  0.00     0.012 C 
ATOM     10  C   UNL     1      29.110  61.133  14.006  1.00  0.00    -0.006 C 
ATOM     11  C   UNL     1      31.341  62.223  13.671  1.00  0.00     0.012 C 
ATOM     12  C   UNL     1      31.287  59.710  13.893  1.00  0.00     0.012 C 
ATOM     13  C   UNL     1      28.368  62.465  13.663  1.00  0.00     0.017 C 
ATOM     14  C   UNL     1      29.270  61.123  15.516  1.00  0.00    -0.064 C 
ATOM     15  C   UNL     1      31.342  62.548  15.194  1.00  0.00     0.032 C 
ATOM     16  C   UNL     1      30.286  61.848  16.079  1.00  0.00    -0.064 C 
ATOM     17  C   UNL     1      28.238  60.453  16.393  1.00  0.00     0.032 C 
ATOM     18  C   UNL     1      30.435  61.869  17.618  1.00  0.00    -0.008 C 
ATOM     19  C   UNL     1      27.822  61.394  17.513  1.00  0.00     0.009 C 
ATOM     20  C   UNL     1      29.016  61.982  18.338  1.00  0.00     0.007 C 
ATOM     21  C   UNL     1      31.396  63.019  18.084  1.00  0.00     0.014 C 
ATOM     22  C   UNL     1      31.129  60.533  18.016  1.00  0.00     0.016 C 
ATOM     23  C   UNL     1      28.684  63.419  18.915  1.00  0.00    -0.006 C 
ATOM     24  C   UNL     1      31.245  63.345  19.565  1.00  0.00     0.033 C 
ATOM     25  C   UNL     1      29.828  63.862  19.910  1.00  0.00     0.120 C 
ATOM     26  C   UNL     1      28.458  64.457  17.769  1.00  0.00     0.014 C 
ATOM     27  C   UNL     1      27.370  63.366  19.740  1.00  0.00     0.014 C 
BRANCH  25  28
ATOM     28  O   UNL     1      29.832  65.254  20.127  1.00  0.00    -0.393 OA
ATOM     29  H   UNL     1      30.645  65.629  19.699  1.00  0.00     0.210 HD
ENDBRANCH  25  28
ENDBRANCH   2   6
ENDBRANCH   1   2
BRANCH   1  30
ATOM     30  C   UNL     1      31.374  57.561  10.574  1.00  0.00     0.031 C 
BRANCH  30  31
ATOM     31  C   UNL     1      30.382  56.461  10.904  1.00  0.00    -0.075 C 
ATOM     32  C   UNL     1      29.620  55.949   9.922  1.00  0.00     0.008 C 
BRANCH  31  33
ATOM     33  C   UNL     1      30.344  55.875  12.311  1.00  0.00     0.008 C 
ATOM     34  C   UNL     1      29.053  56.274  13.035  1.00  0.00     0.012 C 
ATOM     35  C   UNL     1      31.575  56.269  13.138  1.00  0.00     0.012 C 
ENDBRANCH  31  33
ENDBRANCH  30  31
ENDBRANCH   1  30
TORSDOF 7
ENDMDL
MODEL 9
REMARK VINA RESULT:    -1.795      4.041      8.340
REMARK INTER + INTRA:          -4.468
REMARK INTER:                  -3.025
REMARK INTRA:                  -1.443
REMARK UNBOUND:                -1.991
REMARK SMILES C=C(CC[C@@H](C(=O)[O-])[C@H]1CC[C@@]2(C)C3=C(CC[C@]12C)[C@@]1(C)CC[C@@H](O)C(C)(C)[C@H]1CC3)C(C)C
REMARK SMILES IDX 4 1 5 2 6 3 7 4 8 5 9 6 10 7 18 8 11 9 12 10 17 11 19 12
REMARK SMILES IDX 13 13 14 14 16 15 15 16 31 17 20 18 30 19 29 20 22 21 21 22
REMARK SMILES IDX 26 23 23 24 24 25 27 26 28 27 25 28 3 30 2 31 1 32 32 33
REMARK SMILES IDX 33 34 34 35
REMARK H PARENT 25 29
REMARK Flexibility Score: inf
ROOT
ATOM      1  C   UNL     1      31.304  58.766  10.035  1.00  0.00     0.014 C 
ENDROOT
BRANCH   1   2
ATOM      2  C   UNL     1      30.597  59.401  11.260  1.00  0.00     0.039 C 
BRANCH   2   3
ATOM      3  C   UNL     1      29.348  60.112  10.805  1.00  0.00     0.045 C 
ATOM      4  O   UNL     1      28.217  59.592  10.997  1.00  0.00    -0.550 OA
ATOM      5  O   UNL     1      29.435  61.356  10.189  1.00  0.00    -0.550 OA
ENDBRANCH   2   3
BRANCH   2   6
ATOM      6  C   UNL     1      30.258  58.323  12.338  1.00  0.00     0.004 C 
ATOM      7  C   UNL     1      31.251  57.130  12.329  1.00  0.00     0.006 C 
ATOM      8  C   UNL     1      30.261  58.772  13.831  1.00  0.00    -0.020 C 
ATOM      9  C   UNL     1      31.443  56.678  13.789  1.00  0.00     0.012 C 
ATOM     10  C   UNL     1      30.347  57.409  14.581  1.00  0.00    -0.006 C 
ATOM     11  C   UNL     1      28.999  59.505  14.327  1.00  0.00     0.012 C 
ATOM     12  C   UNL     1      31.505  59.691  14.105  1.00  0.00     0.012 C 
ATOM     13  C   UNL     1      29.057  56.528  14.516  1.00  0.00     0.017 C 
ATOM     14  C   UNL     1      30.598  57.673  16.055  1.00  0.00    -0.064 C 
ATOM     15  C   UNL     1      28.939  59.582  15.881  1.00  0.00     0.032 C 
ATOM     16  C   UNL     1      29.882  58.656  16.683  1.00  0.00    -0.064 C 
ATOM     17  C   UNL     1      31.507  56.768  16.852  1.00  0.00     0.032 C 
ATOM     18  C   UNL     1      30.108  58.908  18.191  1.00  0.00    -0.008 C 
ATOM     19  C   UNL     1      30.817  56.347  18.141  1.00  0.00     0.009 C 
ATOM     20  C   UNL     1      30.262  57.537  18.993  1.00  0.00     0.007 C 
ATOM     21  C   UNL     1      28.965  59.792  18.802  1.00  0.00     0.014 C 
ATOM     22  C   UNL     1      31.416  59.744  18.311  1.00  0.00     0.016 C 
ATOM     23  C   UNL     1      28.985  57.119  19.831  1.00  0.00    -0.006 C 
ATOM     24  C   UNL     1      28.912  59.715  20.323  1.00  0.00     0.033 C 
ATOM     25  C   UNL     1      28.605  58.285  20.827  1.00  0.00     0.120 C 
ATOM     26  C   UNL     1      27.794  56.723  18.898  1.00  0.00     0.014 C 
ATOM     27  C   UNL     1      29.308  55.875  20.701  1.00  0.00     0.014 C 
BRANCH  25  28
ATOM     28  O   UNL     1      27.278  58.179  21.286  1.00  0.00    -0.393 OA
ATOM     29  H   UNL     1      26.741  57.744  20.573  1.00  0.00     0.210 HD
ENDBRANCH  25  28
ENDBRANCH   2   6
ENDBRANCH   1   2
BRANCH   1  30
ATOM     30  C   UNL     1      30.336  58.217   8.970  1.00  0.00     0.031 C 
BRANCH  30  31
ATOM     31  C   UNL     1      30.337  56.702   8.889  1.00  0.00    -0.075 C 
ATOM     32  C   UNL     1      31.510  56.048   8.858  1.00  0.00     0.008 C 
BRANCH  31  33
ATOM     33  C   UNL     1      29.017  55.940   8.960  1.00  0.00     0.008 C 
ATOM     34  C   UNL     1      28.048  56.425   7.875  1.00  0.00     0.012 C 
ATOM     35  C   UNL     1      28.369  56.028  10.347  1.00  0.00     0.012 C 
ENDBRANCH  31  33
ENDBRANCH  30  31
ENDBRANCH   1  30
TORSDOF 7
ENDMDL
