MODEL 1
REMARK VINA RESULT:    -4.265      0.000      0.000
REMARK INTER + INTRA:          -5.954
REMARK INTER:                  -5.512
REMARK INTRA:                  -0.442
REMARK UNBOUND:                -0.442
REMARK SMILES CCO[C@H]1O[C@@H](CO)[C@H](O)[C@@H](O)[C@@H]1O
REMARK SMILES IDX 4 1 13 2 11 3 9 4 6 5 5 6 3 7 2 8 1 9 14 10 12 12 7 14 8 15
REMARK SMILES IDX 10 17
REMARK H PARENT 14 11 12 13 8 16 10 18
REMARK Flexibility Score: inf
ROOT
ATOM      1  C   UNL     1      34.514 138.990 -32.138  1.00  0.00     0.281 C 
ATOM      2  C   UNL     1      34.551 140.537 -32.265  1.00  0.00     0.202 C 
ATOM      3  C   UNL     1      33.887 141.227 -31.044  1.00  0.00     0.179 C 
ATOM      4  C   UNL     1      32.726 140.385 -30.471  1.00  0.00     0.177 C 
ATOM      5  C   UNL     1      33.149 138.897 -30.244  1.00  0.00     0.178 C 
ATOM      6  O   UNL     1      34.431 138.597 -30.775  1.00  0.00    -0.341 OA
ENDROOT
BRANCH   1   7
ATOM      7  O   UNL     1      35.634 138.408 -32.793  1.00  0.00    -0.350 OA
BRANCH   7   8
ATOM      8  C   UNL     1      35.295 137.231 -33.504  1.00  0.00     0.160 C 
ATOM      9  C   UNL     1      34.498 137.609 -34.743  1.00  0.00     0.035 C 
ENDBRANCH   7   8
ENDBRANCH   1   7
BRANCH   2  10
ATOM     10  O   UNL     1      33.963 140.954 -33.473  1.00  0.00    -0.385 OA
ATOM     11  H   UNL     1      33.055 140.558 -33.526  1.00  0.00     0.211 HD
ENDBRANCH   2  10
BRANCH   3  12
ATOM     12  O   UNL     1      34.843 141.423 -30.032  1.00  0.00    -0.387 OA
ATOM     13  H   UNL     1      34.567 142.231 -29.525  1.00  0.00     0.211 HD
ENDBRANCH   3  12
BRANCH   5  14
ATOM     14  C   UNL     1      33.141 138.528 -28.751  1.00  0.00     0.191 C 
BRANCH  14  15
ATOM     15  O   UNL     1      33.585 139.601 -27.963  1.00  0.00    -0.394 OA
ATOM     16  H   UNL     1      34.037 139.208 -27.172  1.00  0.00     0.210 HD
ENDBRANCH  14  15
ENDBRANCH   5  14
BRANCH   4  17
ATOM     17  O   UNL     1      31.627 140.422 -31.346  1.00  0.00    -0.387 OA
ATOM     18  H   UNL     1      30.836 140.106 -30.835  1.00  0.00     0.211 HD
ENDBRANCH   4  17
TORSDOF 7
ENDMDL
MODEL 2
REMARK VINA RESULT:    -4.150      1.572      3.541
REMARK INTER + INTRA:          -5.806
REMARK INTER:                  -5.608
REMARK INTRA:                  -0.197
REMARK UNBOUND:                -0.442
REMARK SMILES CCO[C@H]1O[C@@H](CO)[C@H](O)[C@@H](O)[C@@H]1O
REMARK SMILES IDX 4 1 13 2 11 3 9 4 6 5 5 6 3 7 2 8 1 9 14 10 12 12 7 14 8 15
REMARK SMILES IDX 10 17
REMARK H PARENT 14 11 12 13 8 16 10 18
REMARK Flexibility Score: inf
ROOT
ATOM      1  C   UNL     1      33.316 138.155 -30.477  1.00  0.00     0.281 C 
ATOM      2  C   UNL     1      31.944 138.595 -29.898  1.00  0.00     0.202 C 
ATOM      3  C   UNL     1      31.686 140.108 -30.123  1.00  0.00     0.179 C 
ATOM      4  C   UNL     1      32.998 140.924 -30.087  1.00  0.00     0.177 C 
ATOM      5  C   UNL     1      34.096 140.294 -31.005  1.00  0.00     0.178 C 
ATOM      6  O   UNL     1      33.724 139.026 -31.524  1.00  0.00    -0.341 OA
ENDROOT
BRANCH   1   7
ATOM      7  O   UNL     1      33.267 136.799 -30.902  1.00  0.00    -0.350 OA
BRANCH   7   8
ATOM      8  C   UNL     1      34.056 136.562 -32.054  1.00  0.00     0.160 C 
ATOM      9  C   UNL     1      33.717 135.192 -32.617  1.00  0.00     0.035 C 
ENDBRANCH   7   8
ENDBRANCH   1   7
BRANCH   2  10
ATOM     10  O   UNL     1      31.844 138.254 -28.537  1.00  0.00    -0.385 OA
ATOM     11  H   UNL     1      32.760 138.103 -28.189  1.00  0.00     0.211 HD
ENDBRANCH   2  10
BRANCH   3  12
ATOM     12  O   UNL     1      31.069 140.305 -31.371  1.00  0.00    -0.387 OA
ATOM     13  H   UNL     1      30.197 140.745 -31.197  1.00  0.00     0.211 HD
ENDBRANCH   3  12
BRANCH   5  14
ATOM     14  C   UNL     1      34.449 141.218 -32.182  1.00  0.00     0.191 C 
BRANCH  14  15
ATOM     15  O   UNL     1      34.079 140.641 -33.406  1.00  0.00    -0.394 OA
ATOM     16  H   UNL     1      34.129 139.657 -33.287  1.00  0.00     0.210 HD
ENDBRANCH  14  15
ENDBRANCH   5  14
BRANCH   4  17
ATOM     17  O   UNL     1      33.485 140.996 -28.771  1.00  0.00    -0.387 OA
ATOM     18  H   UNL     1      32.995 141.732 -28.318  1.00  0.00     0.211 HD
ENDBRANCH   4  17
TORSDOF 7
ENDMDL
MODEL 3
REMARK VINA RESULT:    -3.993      2.158      4.478
REMARK INTER + INTRA:          -5.602
REMARK INTER:                  -5.383
REMARK INTRA:                  -0.219
REMARK UNBOUND:                -0.442
REMARK SMILES CCO[C@H]1O[C@@H](CO)[C@H](O)[C@@H](O)[C@@H]1O
REMARK SMILES IDX 4 1 13 2 11 3 9 4 6 5 5 6 3 7 2 8 1 9 14 10 12 12 7 14 8 15
REMARK SMILES IDX 10 17
REMARK H PARENT 14 11 12 13 8 16 10 18
REMARK Flexibility Score: inf
ROOT
ATOM      1  C   UNL     1      32.005 140.623 -29.166  1.00  0.00     0.281 C 
ATOM      2  C   UNL     1      31.937 139.716 -30.424  1.00  0.00     0.202 C 
ATOM      3  C   UNL     1      33.350 139.428 -30.998  1.00  0.00     0.179 C 
ATOM      4  C   UNL     1      34.311 140.617 -30.778  1.00  0.00     0.177 C 
ATOM      5  C   UNL     1      34.285 141.115 -29.296  1.00  0.00     0.178 C 
ATOM      6  O   UNL     1      33.266 140.501 -28.522  1.00  0.00    -0.341 OA
ENDROOT
BRANCH   1   7
ATOM      7  O   UNL     1      30.927 140.333 -28.284  1.00  0.00    -0.350 OA
BRANCH   7   8
ATOM      8  C   UNL     1      30.703 138.943 -28.140  1.00  0.00     0.160 C 
ATOM      9  C   UNL     1      29.209 138.689 -28.015  1.00  0.00     0.035 C 
ENDBRANCH   7   8
ENDBRANCH   1   7
BRANCH   2  10
ATOM     10  O   UNL     1      31.092 140.276 -31.399  1.00  0.00    -0.385 OA
ATOM     11  H   UNL     1      30.183 140.352 -31.011  1.00  0.00     0.211 HD
ENDBRANCH   2  10
BRANCH   3  12
ATOM     12  O   UNL     1      33.893 138.291 -30.375  1.00  0.00    -0.387 OA
ATOM     13  H   UNL     1      34.876 138.328 -30.509  1.00  0.00     0.211 HD
ENDBRANCH   3  12
BRANCH   5  14
ATOM     14  C   UNL     1      35.635 140.884 -28.598  1.00  0.00     0.191 C 
BRANCH  14  15
ATOM     15  O   UNL     1      36.127 142.074 -28.041  1.00  0.00    -0.394 OA
ATOM     16  H   UNL     1      35.812 142.103 -27.100  1.00  0.00     0.210 HD
ENDBRANCH  14  15
ENDBRANCH   5  14
BRANCH   4  17
ATOM     17  O   UNL     1      33.962 141.682 -31.627  1.00  0.00    -0.387 OA
ATOM     18  H   UNL     1      32.986 141.834 -31.518  1.00  0.00     0.211 HD
ENDBRANCH   4  17
TORSDOF 7
ENDMDL
MODEL 4
REMARK VINA RESULT:    -3.988      2.164      3.981
REMARK INTER + INTRA:          -5.596
REMARK INTER:                  -5.154
REMARK INTRA:                  -0.442
REMARK UNBOUND:                -0.442
REMARK SMILES CCO[C@H]1O[C@@H](CO)[C@H](O)[C@@H](O)[C@@H]1O
REMARK SMILES IDX 4 1 13 2 11 3 9 4 6 5 5 6 3 7 2 8 1 9 14 10 12 12 7 14 8 15
REMARK SMILES IDX 10 17
REMARK H PARENT 14 11 12 13 8 16 10 18
REMARK Flexibility Score: inf
ROOT
ATOM      1  C   UNL     1      34.882 140.476 -29.562  1.00  0.00     0.281 C 
ATOM      2  C   UNL     1      33.971 141.369 -30.447  1.00  0.00     0.202 C 
ATOM      3  C   UNL     1      32.638 140.657 -30.797  1.00  0.00     0.179 C 
ATOM      4  C   UNL     1      32.821 139.129 -30.925  1.00  0.00     0.177 C 
ATOM      5  C   UNL     1      33.589 138.534 -29.700  1.00  0.00     0.178 C 
ATOM      6  O   UNL     1      34.108 139.531 -28.834  1.00  0.00    -0.341 OA
ENDROOT
BRANCH   1   7
ATOM      7  O   UNL     1      35.688 141.276 -28.708  1.00  0.00    -0.350 OA
BRANCH   7   8
ATOM      8  C   UNL     1      34.953 141.829 -27.630  1.00  0.00     0.160 C 
ATOM      9  C   UNL     1      35.787 142.911 -26.962  1.00  0.00     0.035 C 
ENDBRANCH   7   8
ENDBRANCH   1   7
BRANCH   2  10
ATOM     10  O   UNL     1      34.652 141.783 -31.606  1.00  0.00    -0.385 OA
ATOM     11  H   UNL     1      34.408 142.727 -31.786  1.00  0.00     0.211 HD
ENDBRANCH   2  10
BRANCH   3  12
ATOM     12  O   UNL     1      31.685 140.914 -29.796  1.00  0.00    -0.387 OA
ATOM     13  H   UNL     1      30.797 140.676 -30.172  1.00  0.00     0.211 HD
ENDBRANCH   3  12
BRANCH   5  14
ATOM     14  C   UNL     1      32.697 137.590 -28.877  1.00  0.00     0.191 C 
BRANCH  14  15
ATOM     15  O   UNL     1      31.611 138.280 -28.318  1.00  0.00    -0.394 OA
ATOM     16  H   UNL     1      31.689 138.188 -27.333  1.00  0.00     0.210 HD
ENDBRANCH  14  15
ENDBRANCH   5  14
BRANCH   4  17
ATOM     17  O   UNL     1      33.527 138.825 -32.102  1.00  0.00    -0.387 OA
ATOM     18  H   UNL     1      32.853 138.607 -32.799  1.00  0.00     0.211 HD
ENDBRANCH   4  17
TORSDOF 7
ENDMDL
MODEL 5
REMARK VINA RESULT:    -3.981      1.815      2.275
REMARK INTER + INTRA:          -5.587
REMARK INTER:                  -5.117
REMARK INTRA:                  -0.470
REMARK UNBOUND:                -0.442
REMARK SMILES CCO[C@H]1O[C@@H](CO)[C@H](O)[C@@H](O)[C@@H]1O
REMARK SMILES IDX 4 1 13 2 11 3 9 4 6 5 5 6 3 7 2 8 1 9 14 10 12 12 7 14 8 15
REMARK SMILES IDX 10 17
REMARK H PARENT 14 11 12 13 8 16 10 18
REMARK Flexibility Score: inf
ROOT
ATOM      1  C   UNL     1      34.697 138.382 -30.788  1.00  0.00     0.281 C 
ATOM      2  C   UNL     1      34.684 139.156 -32.134  1.00  0.00     0.202 C 
ATOM      3  C   UNL     1      34.240 140.631 -31.941  1.00  0.00     0.179 C 
ATOM      4  C   UNL     1      33.217 140.776 -30.793  1.00  0.00     0.177 C 
ATOM      5  C   UNL     1      33.700 140.053 -29.493  1.00  0.00     0.178 C 
ATOM      6  O   UNL     1      34.869 139.273 -29.694  1.00  0.00    -0.341 OA
ENDROOT
BRANCH   1   7
ATOM      7  O   UNL     1      35.689 137.365 -30.807  1.00  0.00    -0.350 OA
BRANCH   7   8
ATOM      8  C   UNL     1      35.258 136.174 -30.173  1.00  0.00     0.160 C 
ATOM      9  C   UNL     1      33.800 135.922 -30.524  1.00  0.00     0.035 C 
ENDBRANCH   7   8
ENDBRANCH   1   7
BRANCH   2  10
ATOM     10  O   UNL     1      33.879 138.498 -33.081  1.00  0.00    -0.385 OA
ATOM     11  H   UNL     1      34.048 138.910 -33.967  1.00  0.00     0.211 HD
ENDBRANCH   2  10
BRANCH   3  12
ATOM     12  O   UNL     1      35.359 141.429 -31.649  1.00  0.00    -0.387 OA
ATOM     13  H   UNL     1      35.103 142.026 -30.898  1.00  0.00     0.211 HD
ENDBRANCH   3  12
BRANCH   5  14
ATOM     14  C   UNL     1      33.969 141.052 -28.357  1.00  0.00     0.191 C 
BRANCH  14  15
ATOM     15  O   UNL     1      35.131 141.799 -28.604  1.00  0.00    -0.394 OA
ATOM     16  H   UNL     1      35.675 141.276 -29.249  1.00  0.00     0.210 HD
ENDBRANCH  14  15
ENDBRANCH   5  14
BRANCH   4  17
ATOM     17  O   UNL     1      31.977 140.241 -31.183  1.00  0.00    -0.387 OA
ATOM     18  H   UNL     1      31.398 141.006 -31.443  1.00  0.00     0.211 HD
ENDBRANCH   4  17
TORSDOF 7
ENDMDL
MODEL 6
REMARK VINA RESULT:    -3.928     11.821     13.615
REMARK INTER + INTRA:          -5.518
REMARK INTER:                  -5.380
REMARK INTRA:                  -0.138
REMARK UNBOUND:                -0.442
REMARK SMILES CCO[C@H]1O[C@@H](CO)[C@H](O)[C@@H](O)[C@@H]1O
REMARK SMILES IDX 4 1 13 2 11 3 9 4 6 5 5 6 3 7 2 8 1 9 14 10 12 12 7 14 8 15
REMARK SMILES IDX 10 17
REMARK H PARENT 14 11 12 13 8 16 10 18
REMARK Flexibility Score: inf
ROOT
ATOM      1  C   UNL     1      34.319 140.390 -43.741  1.00  0.00     0.281 C 
ATOM      2  C   UNL     1      35.771 140.088 -43.283  1.00  0.00     0.202 C 
ATOM      3  C   UNL     1      36.803 140.971 -44.033  1.00  0.00     0.179 C 
ATOM      4  C   UNL     1      36.346 141.286 -45.475  1.00  0.00     0.177 C 
ATOM      5  C   UNL     1      34.873 141.810 -45.513  1.00  0.00     0.178 C 
ATOM      6  O   UNL     1      34.217 141.711 -44.258  1.00  0.00    -0.341 OA
ENDROOT
BRANCH   1   7
ATOM      7  O   UNL     1      33.402 140.163 -42.679  1.00  0.00    -0.350 OA
BRANCH   7   8
ATOM      8  C   UNL     1      32.060 140.089 -43.126  1.00  0.00     0.160 C 
ATOM      9  C   UNL     1      31.549 138.670 -42.938  1.00  0.00     0.035 C 
ENDBRANCH   7   8
ENDBRANCH   1   7
BRANCH   2  10
ATOM     10  O   UNL     1      36.065 138.720 -43.427  1.00  0.00    -0.385 OA
ATOM     11  H   UNL     1      35.264 138.270 -43.798  1.00  0.00     0.211 HD
ENDBRANCH   2  10
BRANCH   3  12
ATOM     12  O   UNL     1      36.983 142.182 -43.343  1.00  0.00    -0.387 OA
ATOM     13  H   UNL     1      37.851 142.560 -43.641  1.00  0.00     0.211 HD
ENDBRANCH   3  12
BRANCH   5  14
ATOM     14  C   UNL     1      34.804 143.271 -45.985  1.00  0.00     0.191 C 
BRANCH  14  15
ATOM     15  O   UNL     1      33.590 143.867 -45.611  1.00  0.00    -0.394 OA
ATOM     16  H   UNL     1      33.082 144.032 -46.447  1.00  0.00     0.210 HD
ENDBRANCH  14  15
ENDBRANCH   5  14
BRANCH   4  17
ATOM     17  O   UNL     1      36.446 140.135 -46.275  1.00  0.00    -0.387 OA
ATOM     18  H   UNL     1      37.118 140.328 -46.981  1.00  0.00     0.211 HD
ENDBRANCH   4  17
TORSDOF 7
ENDMDL
MODEL 7
REMARK VINA RESULT:    -3.916      2.017      4.672
REMARK INTER + INTRA:          -5.503
REMARK INTER:                  -5.101
REMARK INTRA:                  -0.402
REMARK UNBOUND:                -0.442
REMARK SMILES CCO[C@H]1O[C@@H](CO)[C@H](O)[C@@H](O)[C@@H]1O
REMARK SMILES IDX 4 1 13 2 11 3 9 4 6 5 5 6 3 7 2 8 1 9 14 10 12 12 7 14 8 15
REMARK SMILES IDX 10 17
REMARK H PARENT 14 11 12 13 8 16 10 18
REMARK Flexibility Score: inf
ROOT
ATOM      1  C   UNL     1      34.117 141.285 -29.050  1.00  0.00     0.281 C 
ATOM      2  C   UNL     1      33.457 139.938 -28.654  1.00  0.00     0.202 C 
ATOM      3  C   UNL     1      33.123 139.075 -29.900  1.00  0.00     0.179 C 
ATOM      4  C   UNL     1      32.757 139.950 -31.120  1.00  0.00     0.177 C 
ATOM      5  C   UNL     1      33.810 141.081 -31.357  1.00  0.00     0.178 C 
ATOM      6  O   UNL     1      34.764 141.179 -30.311  1.00  0.00    -0.341 OA
ENDROOT
BRANCH   1   7
ATOM      7  O   UNL     1      35.007 141.724 -28.031  1.00  0.00    -0.350 OA
BRANCH   7   8
ATOM      8  C   UNL     1      36.181 140.935 -27.959  1.00  0.00     0.160 C 
ATOM      9  C   UNL     1      37.291 141.750 -27.317  1.00  0.00     0.035 C 
ENDBRANCH   7   8
ENDBRANCH   1   7
BRANCH   2  10
ATOM     10  O   UNL     1      32.316 140.154 -27.860  1.00  0.00    -0.385 OA
ATOM     11  H   UNL     1      31.665 139.432 -28.054  1.00  0.00     0.211 HD
ENDBRANCH   2  10
BRANCH   3  12
ATOM     12  O   UNL     1      34.231 138.278 -30.236  1.00  0.00    -0.387 OA
ATOM     13  H   UNL     1      34.661 138.696 -31.026  1.00  0.00     0.211 HD
ENDBRANCH   3  12
BRANCH   5  14
ATOM     14  C   UNL     1      34.559 140.887 -32.685  1.00  0.00     0.191 C 
BRANCH  14  15
ATOM     15  O   UNL     1      34.419 139.573 -33.157  1.00  0.00    -0.394 OA
ATOM     16  H   UNL     1      33.583 139.213 -32.761  1.00  0.00     0.210 HD
ENDBRANCH  14  15
ENDBRANCH   5  14
BRANCH   4  17
ATOM     17  O   UNL     1      31.491 140.531 -30.933  1.00  0.00    -0.387 OA
ATOM     18  H   UNL     1      31.516 141.012 -30.064  1.00  0.00     0.211 HD
ENDBRANCH   4  17
TORSDOF 7
ENDMDL
MODEL 8
REMARK VINA RESULT:    -3.832     11.947     13.273
REMARK INTER + INTRA:          -5.394
REMARK INTER:                  -4.999
REMARK INTRA:                  -0.395
REMARK UNBOUND:                -0.442
REMARK SMILES CCO[C@H]1O[C@@H](CO)[C@H](O)[C@@H](O)[C@@H]1O
REMARK SMILES IDX 4 1 13 2 11 3 9 4 6 5 5 6 3 7 2 8 1 9 14 10 12 12 7 14 8 15
REMARK SMILES IDX 10 17
REMARK H PARENT 14 11 12 13 8 16 10 18
REMARK Flexibility Score: inf
ROOT
ATOM      1  C   UNL     1      33.995 140.958 -43.784  1.00  0.00     0.281 C 
ATOM      2  C   UNL     1      34.392 141.602 -45.139  1.00  0.00     0.202 C 
ATOM      3  C   UNL     1      35.870 141.301 -45.505  1.00  0.00     0.179 C 
ATOM      4  C   UNL     1      36.760 141.194 -44.248  1.00  0.00     0.177 C 
ATOM      5  C   UNL     1      36.135 140.243 -43.175  1.00  0.00     0.178 C 
ATOM      6  O   UNL     1      34.816 139.832 -43.501  1.00  0.00    -0.341 OA
ENDROOT
BRANCH   1   7
ATOM      7  O   UNL     1      32.613 140.624 -43.776  1.00  0.00    -0.350 OA
BRANCH   7   8
ATOM      8  C   UNL     1      32.235 139.908 -42.614  1.00  0.00     0.160 C 
ATOM      9  C   UNL     1      31.517 138.633 -43.025  1.00  0.00     0.035 C 
ENDBRANCH   7   8
ENDBRANCH   1   7
BRANCH   2  10
ATOM     10  O   UNL     1      34.138 142.986 -45.128  1.00  0.00    -0.385 OA
ATOM     11  H   UNL     1      35.008 143.459 -45.174  1.00  0.00     0.211 HD
ENDBRANCH   2  10
BRANCH   3  12
ATOM     12  O   UNL     1      35.946 140.090 -46.214  1.00  0.00    -0.387 OA
ATOM     13  H   UNL     1      36.225 140.313 -47.141  1.00  0.00     0.211 HD
ENDBRANCH   3  12
BRANCH   5  14
ATOM     14  C   UNL     1      36.998 138.989 -42.959  1.00  0.00     0.191 C 
BRANCH  14  15
ATOM     15  O   UNL     1      37.484 138.494 -44.178  1.00  0.00    -0.394 OA
ATOM     16  H   UNL     1      37.879 139.265 -44.664  1.00  0.00     0.210 HD
ENDBRANCH  14  15
ENDBRANCH   5  14
BRANCH   4  17
ATOM     17  O   UNL     1      36.949 142.467 -43.681  1.00  0.00    -0.387 OA
ATOM     18  H   UNL     1      37.802 142.824 -44.042  1.00  0.00     0.211 HD
ENDBRANCH   4  17
TORSDOF 7
ENDMDL
MODEL 9
REMARK VINA RESULT:    -3.819      1.915      4.698
REMARK INTER + INTRA:          -5.377
REMARK INTER:                  -4.938
REMARK INTRA:                  -0.439
REMARK UNBOUND:                -0.442
REMARK SMILES CCO[C@H]1O[C@@H](CO)[C@H](O)[C@@H](O)[C@@H]1O
REMARK SMILES IDX 4 1 13 2 11 3 9 4 6 5 5 6 3 7 2 8 1 9 14 10 12 12 7 14 8 15
REMARK SMILES IDX 10 17
REMARK H PARENT 14 11 12 13 8 16 10 18
REMARK Flexibility Score: inf
ROOT
ATOM      1  C   UNL     1      32.457 139.881 -29.675  1.00  0.00     0.281 C 
ATOM      2  C   UNL     1      33.515 140.950 -29.289  1.00  0.00     0.202 C 
ATOM      3  C   UNL     1      34.816 140.794 -30.121  1.00  0.00     0.179 C 
ATOM      4  C   UNL     1      35.096 139.317 -30.474  1.00  0.00     0.177 C 
ATOM      5  C   UNL     1      33.834 138.618 -31.078  1.00  0.00     0.178 C 
ATOM      6  O   UNL     1      32.666 139.421 -31.004  1.00  0.00    -0.341 OA
ENDROOT
BRANCH   1   7
ATOM      7  O   UNL     1      31.143 140.389 -29.489  1.00  0.00    -0.350 OA
BRANCH   7   8
ATOM      8  C   UNL     1      30.449 139.729 -28.445  1.00  0.00     0.160 C 
ATOM      9  C   UNL     1      29.979 140.758 -27.430  1.00  0.00     0.035 C 
ENDBRANCH   7   8
ENDBRANCH   1   7
BRANCH   2  10
ATOM     10  O   UNL     1      33.781 140.913 -27.909  1.00  0.00    -0.385 OA
ATOM     11  H   UNL     1      34.686 140.530 -27.780  1.00  0.00     0.211 HD
ENDBRANCH   2  10
BRANCH   3  12
ATOM     12  O   UNL     1      34.708 141.529 -31.314  1.00  0.00    -0.387 OA
ATOM     13  H   UNL     1      35.134 142.411 -31.152  1.00  0.00     0.211 HD
ENDBRANCH   3  12
BRANCH   5  14
ATOM     14  C   UNL     1      34.058 138.216 -32.545  1.00  0.00     0.191 C 
BRANCH  14  15
ATOM     15  O   UNL     1      34.416 139.327 -33.325  1.00  0.00    -0.394 OA
ATOM     16  H   UNL     1      33.637 139.533 -33.905  1.00  0.00     0.210 HD
ENDBRANCH  14  15
ENDBRANCH   5  14
BRANCH   4  17
ATOM     17  O   UNL     1      35.505 138.616 -29.327  1.00  0.00    -0.387 OA
ATOM     18  H   UNL     1      34.685 138.386 -28.817  1.00  0.00     0.211 HD
ENDBRANCH   4  17
TORSDOF 7
ENDMDL
