MODEL 1
REMARK VINA RESULT:    -2.923      0.000      0.000
REMARK INTER + INTRA:          -5.033
REMARK INTER:                  -3.948
REMARK INTRA:                  -1.084
REMARK UNBOUND:                -1.084
REMARK SMILES O=c1c(-c2ccc(O)cc2)coc2c([C@@H]3O[C@@H](CO)[C@@H](O)[C@H](O)[C@H]3O)c(O)ccc12
REMARK SMILES IDX 3 1 11 2 12 3 13 4 30 5 2 6 1 7 29 8 28 9 26 10 14 11 4 12
REMARK SMILES IDX 5 13 6 14 7 15 10 16 9 17 8 18 15 20 24 21 16 22 22 23 17 24
REMARK SMILES IDX 20 25 25 26 23 28 18 30 19 31 21 33 27 35
REMARK H PARENT 8 19 25 27 23 29 19 32 21 34 27 36
REMARK Flexibility Score: inf
ROOT
ATOM      1  C   UNL     1     175.439 175.859 191.074  1.00  0.00     0.065 A 
ATOM      2  C   UNL     1     176.405 175.594 192.053  1.00  0.00     0.208 A 
ATOM      3  O   UNL     1     177.696 175.779 191.805  1.00  0.00    -0.463 OA
ATOM      4  C   UNL     1     178.158 176.221 190.639  1.00  0.00     0.147 A 
ATOM      5  C   UNL     1     177.251 176.515 189.593  1.00  0.00     0.066 A 
ATOM      6  C   UNL     1     175.875 176.337 189.824  1.00  0.00     0.200 A 
ATOM      7  O   UNL     1     175.036 176.622 188.925  1.00  0.00    -0.288 OA
ATOM      8  C   UNL     1     177.740 176.974 188.360  1.00  0.00     0.020 A 
ATOM      9  C   UNL     1     179.110 177.125 188.161  1.00  0.00     0.047 A 
ATOM     10  C   UNL     1     180.017 176.832 189.186  1.00  0.00     0.125 A 
ATOM     11  C   UNL     1     179.550 176.393 190.446  1.00  0.00     0.069 A 
ENDROOT
BRANCH   1  12
ATOM     12  C   UNL     1     174.001 175.638 191.372  1.00  0.00    -0.011 A 
ATOM     13  C   UNL     1     173.183 176.716 191.756  1.00  0.00     0.013 A 
ATOM     14  C   UNL     1     171.831 176.509 192.047  1.00  0.00     0.047 A 
ATOM     15  C   UNL     1     171.281 175.227 191.964  1.00  0.00     0.115 A 
ATOM     16  C   UNL     1     173.443 174.349 191.297  1.00  0.00     0.013 A 
ATOM     17  C   UNL     1     172.091 174.146 191.589  1.00  0.00     0.047 A 
BRANCH  15  18
ATOM     18  O   UNL     1     169.933 175.036 192.256  1.00  0.00    -0.508 OA
ATOM     19  H   UNL     1     169.560 174.115 192.458  1.00  0.00     0.293 HD
ENDBRANCH  15  18
ENDBRANCH   1  12
BRANCH  11  20
ATOM     20  C   UNL     1     180.531 176.052 191.559  1.00  0.00     0.188 C 
ATOM     21  C   UNL     1     181.111 174.634 191.338  1.00  0.00     0.179 C 
ATOM     22  O   UNL     1     181.556 177.036 191.590  1.00  0.00    -0.362 OA
ATOM     23  C   UNL     1     182.146 174.303 192.427  1.00  0.00     0.177 C 
ATOM     24  C   UNL     1     182.498 176.820 192.634  1.00  0.00     0.176 C 
ATOM     25  C   UNL     1     183.183 175.435 192.506  1.00  0.00     0.177 C 
BRANCH  21  26
ATOM     26  O   UNL     1     180.089 173.668 191.315  1.00  0.00    -0.387 OA
ATOM     27  H   UNL     1     179.798 173.559 190.371  1.00  0.00     0.211 HD
ENDBRANCH  21  26
BRANCH  23  28
ATOM     28  O   UNL     1     182.799 173.100 192.115  1.00  0.00    -0.387 OA
ATOM     29  H   UNL     1     182.328 172.711 191.332  1.00  0.00     0.211 HD
ENDBRANCH  23  28
BRANCH  24  30
ATOM     30  C   UNL     1     181.898 177.124 194.027  1.00  0.00     0.191 C 
BRANCH  30  31
ATOM     31  O   UNL     1     182.905 177.125 195.007  1.00  0.00    -0.394 OA
ATOM     32  H   UNL     1     182.601 176.530 195.741  1.00  0.00     0.210 HD
ENDBRANCH  30  31
ENDBRANCH  24  30
BRANCH  25  33
ATOM     33  O   UNL     1     184.058 175.223 193.585  1.00  0.00    -0.388 OA
ATOM     34  H   UNL     1     184.493 174.343 193.438  1.00  0.00     0.211 HD
ENDBRANCH  25  33
ENDBRANCH  11  20
BRANCH  10  35
ATOM     35  O   UNL     1     181.386 176.975 188.950  1.00  0.00    -0.507 OA
ATOM     36  H   UNL     1     182.049 177.079 189.709  1.00  0.00     0.293 HD
ENDBRANCH  10  35
TORSDOF 9
ENDMDL
MODEL 2
REMARK VINA RESULT:    -2.733      2.145      4.115
REMARK INTER + INTRA:          -4.776
REMARK INTER:                  -3.753
REMARK INTRA:                  -1.023
REMARK UNBOUND:                -1.084
REMARK SMILES O=c1c(-c2ccc(O)cc2)coc2c([C@@H]3O[C@@H](CO)[C@@H](O)[C@H](O)[C@H]3O)c(O)ccc12
REMARK SMILES IDX 3 1 11 2 12 3 13 4 30 5 2 6 1 7 29 8 28 9 26 10 14 11 4 12
REMARK SMILES IDX 5 13 6 14 7 15 10 16 9 17 8 18 15 20 24 21 16 22 22 23 17 24
REMARK SMILES IDX 20 25 25 26 23 28 18 30 19 31 21 33 27 35
REMARK H PARENT 8 19 25 27 23 29 19 32 21 34 27 36
REMARK Flexibility Score: inf
ROOT
ATOM      1  C   UNL     1     175.551 175.367 192.422  1.00  0.00     0.065 A 
ATOM      2  C   UNL     1     176.374 175.196 191.301  1.00  0.00     0.208 A 
ATOM      3  O   UNL     1     177.668 174.934 191.439  1.00  0.00    -0.463 OA
ATOM      4  C   UNL     1     178.266 174.816 192.621  1.00  0.00     0.147 A 
ATOM      5  C   UNL     1     177.510 174.973 193.806  1.00  0.00     0.066 A 
ATOM      6  C   UNL     1     176.134 175.243 193.697  1.00  0.00     0.200 A 
ATOM      7  O   UNL     1     175.422 175.355 194.734  1.00  0.00    -0.288 OA
ATOM      8  C   UNL     1     178.143 174.855 195.053  1.00  0.00     0.020 A 
ATOM      9  C   UNL     1     179.511 174.601 195.125  1.00  0.00     0.047 A 
ATOM     10  C   UNL     1     180.270 174.449 193.960  1.00  0.00     0.125 A 
ATOM     11  C   UNL     1     179.652 174.537 192.691  1.00  0.00     0.069 A 
ENDROOT
BRANCH   1  12
ATOM     12  C   UNL     1     174.107 175.665 192.243  1.00  0.00    -0.011 A 
ATOM     13  C   UNL     1     173.135 174.748 192.680  1.00  0.00     0.013 A 
ATOM     14  C   UNL     1     171.775 175.022 192.505  1.00  0.00     0.047 A 
ATOM     15  C   UNL     1     171.370 176.209 191.887  1.00  0.00     0.115 A 
ATOM     16  C   UNL     1     173.693 176.854 191.617  1.00  0.00     0.013 A 
ATOM     17  C   UNL     1     172.333 177.125 191.442  1.00  0.00     0.047 A 
BRANCH  15  18
ATOM     18  O   UNL     1     170.012 176.468 191.719  1.00  0.00    -0.508 OA
ATOM     19  H   UNL     1     169.388 175.780 191.314  1.00  0.00     0.293 HD
ENDBRANCH  15  18
ENDBRANCH   1  12
BRANCH  11  20
ATOM     20  C   UNL     1     180.475 174.394 191.418  1.00  0.00     0.188 C 
ATOM     21  C   UNL     1     181.253 175.703 191.141  1.00  0.00     0.179 C 
ATOM     22  O   UNL     1     181.353 173.285 191.556  1.00  0.00    -0.362 OA
ATOM     23  C   UNL     1     182.133 175.549 189.887  1.00  0.00     0.177 C 
ATOM     24  C   UNL     1     182.134 173.050 190.390  1.00  0.00     0.176 C 
ATOM     25  C   UNL     1     182.996 174.285 190.022  1.00  0.00     0.177 C 
BRANCH  21  26
ATOM     26  O   UNL     1     180.375 176.794 191.000  1.00  0.00    -0.387 OA
ATOM     27  H   UNL     1     180.456 177.127 190.068  1.00  0.00     0.211 HD
ENDBRANCH  21  26
BRANCH  23  28
ATOM     28  O   UNL     1     182.970 176.668 189.751  1.00  0.00    -0.387 OA
ATOM     29  H   UNL     1     182.720 177.113 188.900  1.00  0.00     0.211 HD
ENDBRANCH  23  28
BRANCH  24  30
ATOM     30  C   UNL     1     181.284 172.479 189.230  1.00  0.00     0.191 C 
BRANCH  30  31
ATOM     31  O   UNL     1     182.087 171.730 188.354  1.00  0.00    -0.394 OA
ATOM     32  H   UNL     1     182.473 172.364 187.694  1.00  0.00     0.210 HD
ENDBRANCH  30  31
ENDBRANCH  24  30
BRANCH  25  33
ATOM     33  O   UNL     1     183.704 174.046 188.832  1.00  0.00    -0.388 OA
ATOM     34  H   UNL     1     183.679 174.889 188.306  1.00  0.00     0.211 HD
ENDBRANCH  25  33
ENDBRANCH  11  20
BRANCH  10  35
ATOM     35  O   UNL     1     181.642 174.215 194.062  1.00  0.00    -0.507 OA
ATOM     36  H   UNL     1     182.321 174.953 193.922  1.00  0.00     0.293 HD
ENDBRANCH  10  35
TORSDOF 9
ENDMDL
MODEL 3
REMARK VINA RESULT:    -2.678      3.453      8.007
REMARK INTER + INTRA:          -4.702
REMARK INTER:                  -3.490
REMARK INTRA:                  -1.211
REMARK UNBOUND:                -1.084
REMARK SMILES O=c1c(-c2ccc(O)cc2)coc2c([C@@H]3O[C@@H](CO)[C@@H](O)[C@H](O)[C@H]3O)c(O)ccc12
REMARK SMILES IDX 3 1 11 2 12 3 13 4 30 5 2 6 1 7 29 8 28 9 26 10 14 11 4 12
REMARK SMILES IDX 5 13 6 14 7 15 10 16 9 17 8 18 15 20 24 21 16 22 22 23 17 24
REMARK SMILES IDX 20 25 25 26 23 28 18 30 19 31 21 33 27 35
REMARK H PARENT 8 19 25 27 23 29 19 32 21 34 27 36
REMARK Flexibility Score: inf
ROOT
ATOM      1  C   UNL     1     182.239 175.614 187.862  1.00  0.00     0.065 A 
ATOM      2  C   UNL     1     181.144 174.839 188.265  1.00  0.00     0.208 A 
ATOM      3  O   UNL     1     180.750 174.824 189.532  1.00  0.00    -0.463 OA
ATOM      4  C   UNL     1     181.347 175.527 190.491  1.00  0.00     0.147 A 
ATOM      5  C   UNL     1     182.460 176.339 190.171  1.00  0.00     0.066 A 
ATOM      6  C   UNL     1     182.901 176.385 188.836  1.00  0.00     0.200 A 
ATOM      7  O   UNL     1     183.870 177.125 188.510  1.00  0.00    -0.288 OA
ATOM      8  C   UNL     1     183.095 177.075 191.184  1.00  0.00     0.020 A 
ATOM      9  C   UNL     1     182.641 176.995 192.498  1.00  0.00     0.047 A 
ATOM     10  C   UNL     1     181.544 176.192 192.827  1.00  0.00     0.125 A 
ATOM     11  C   UNL     1     180.871 175.460 191.822  1.00  0.00     0.069 A 
ENDROOT
BRANCH   1  12
ATOM     12  C   UNL     1     182.666 175.610 186.439  1.00  0.00    -0.011 A 
ATOM     13  C   UNL     1     183.643 174.701 185.996  1.00  0.00     0.013 A 
ATOM     14  C   UNL     1     184.054 174.701 184.659  1.00  0.00     0.047 A 
ATOM     15  C   UNL     1     183.501 175.610 183.752  1.00  0.00     0.115 A 
ATOM     16  C   UNL     1     182.118 176.526 185.524  1.00  0.00     0.013 A 
ATOM     17  C   UNL     1     182.532 176.524 184.188  1.00  0.00     0.047 A 
BRANCH  15  18
ATOM     18  O   UNL     1     183.920 175.598 182.424  1.00  0.00    -0.508 OA
ATOM     19  H   UNL     1     183.542 174.937 181.755  1.00  0.00     0.293 HD
ENDBRANCH  15  18
ENDBRANCH   1  12
BRANCH  11  20
ATOM     20  C   UNL     1     179.689 174.567 192.175  1.00  0.00     0.188 C 
ATOM     21  C   UNL     1     180.196 173.222 192.750  1.00  0.00     0.179 C 
ATOM     22  O   UNL     1     178.853 175.249 193.100  1.00  0.00    -0.362 OA
ATOM     23  C   UNL     1     179.008 172.335 193.163  1.00  0.00     0.177 C 
ATOM     24  C   UNL     1     177.696 174.501 193.454  1.00  0.00     0.176 C 
ATOM     25  C   UNL     1     178.069 173.133 194.081  1.00  0.00     0.177 C 
BRANCH  21  26
ATOM     26  O   UNL     1     181.017 172.553 191.824  1.00  0.00    -0.387 OA
ATOM     27  H   UNL     1     181.942 172.555 192.186  1.00  0.00     0.211 HD
ENDBRANCH  21  26
BRANCH  23  28
ATOM     28  O   UNL     1     179.475 171.203 193.850  1.00  0.00    -0.387 OA
ATOM     29  H   UNL     1     178.676 170.725 194.194  1.00  0.00     0.211 HD
ENDBRANCH  23  28
BRANCH  24  30
ATOM     30  C   UNL     1     176.677 174.429 192.293  1.00  0.00     0.191 C 
BRANCH  30  31
ATOM     31  O   UNL     1     175.365 174.375 192.792  1.00  0.00    -0.394 OA
ATOM     32  H   UNL     1     175.006 173.474 192.578  1.00  0.00     0.210 HD
ENDBRANCH  30  31
ENDBRANCH  24  30
BRANCH  25  33
ATOM     33  O   UNL     1     176.909 172.392 194.359  1.00  0.00    -0.388 OA
ATOM     34  H   UNL     1     177.147 171.732 195.062  1.00  0.00     0.211 HD
ENDBRANCH  25  33
ENDBRANCH  11  20
BRANCH  10  35
ATOM     35  O   UNL     1     181.124 176.117 194.156  1.00  0.00    -0.507 OA
ATOM     36  H   UNL     1     181.572 175.500 194.823  1.00  0.00     0.293 HD
ENDBRANCH  10  35
TORSDOF 9
ENDMDL
MODEL 4
REMARK VINA RESULT:    -2.625      2.305      9.489
REMARK INTER + INTRA:          -4.631
REMARK INTER:                  -3.487
REMARK INTRA:                  -1.144
REMARK UNBOUND:                -1.084
REMARK SMILES O=c1c(-c2ccc(O)cc2)coc2c([C@@H]3O[C@@H](CO)[C@@H](O)[C@H](O)[C@H]3O)c(O)ccc12
REMARK SMILES IDX 3 1 11 2 12 3 13 4 30 5 2 6 1 7 29 8 28 9 26 10 14 11 4 12
REMARK SMILES IDX 5 13 6 14 7 15 10 16 9 17 8 18 15 20 24 21 16 22 22 23 17 24
REMARK SMILES IDX 20 25 25 26 23 28 18 30 19 31 21 33 27 35
REMARK H PARENT 8 19 25 27 23 29 19 32 21 34 27 36
REMARK Flexibility Score: inf
ROOT
ATOM      1  C   UNL     1     176.863 175.460 191.788  1.00  0.00     0.065 A 
ATOM      2  C   UNL     1     175.852 175.436 190.819  1.00  0.00     0.208 A 
ATOM      3  O   UNL     1     174.582 175.259 191.163  1.00  0.00    -0.463 OA
ATOM      4  C   UNL     1     174.183 175.096 192.422  1.00  0.00     0.147 A 
ATOM      5  C   UNL     1     175.139 175.107 193.465  1.00  0.00     0.066 A 
ATOM      6  C   UNL     1     176.493 175.300 193.137  1.00  0.00     0.200 A 
ATOM      7  O   UNL     1     177.368 175.350 194.046  1.00  0.00    -0.288 OA
ATOM      8  C   UNL     1     174.719 174.928 194.792  1.00  0.00     0.020 A 
ATOM      9  C   UNL     1     173.372 174.725 195.080  1.00  0.00     0.047 A 
ATOM     10  C   UNL     1     172.418 174.706 194.057  1.00  0.00     0.125 A 
ATOM     11  C   UNL     1     172.811 174.911 192.714  1.00  0.00     0.069 A 
ENDROOT
BRANCH   1  12
ATOM     12  C   UNL     1     178.278 175.653 191.379  1.00  0.00    -0.011 A 
ATOM     13  C   UNL     1     178.725 176.916 190.952  1.00  0.00     0.013 A 
ATOM     14  C   UNL     1     180.054 177.099 190.557  1.00  0.00     0.047 A 
ATOM     15  C   UNL     1     180.949 176.025 190.578  1.00  0.00     0.115 A 
ATOM     16  C   UNL     1     179.181 174.575 191.391  1.00  0.00     0.013 A 
ATOM     17  C   UNL     1     180.509 174.761 190.995  1.00  0.00     0.047 A 
BRANCH  15  18
ATOM     18  O   UNL     1     182.270 176.222 190.181  1.00  0.00    -0.508 OA
ATOM     19  H   UNL     1     182.517 176.343 189.206  1.00  0.00     0.293 HD
ENDBRANCH  15  18
ENDBRANCH   1  12
BRANCH  11  20
ATOM     20  C   UNL     1     171.782 174.871 191.592  1.00  0.00     0.188 C 
ATOM     21  C   UNL     1     171.406 173.404 191.271  1.00  0.00     0.179 C 
ATOM     22  O   UNL     1     170.645 175.629 191.980  1.00  0.00    -0.362 OA
ATOM     23  C   UNL     1     170.324 173.356 190.178  1.00  0.00     0.177 C 
ATOM     24  C   UNL     1     169.645 175.682 190.969  1.00  0.00     0.176 C 
ATOM     25  C   UNL     1     169.152 174.265 190.578  1.00  0.00     0.177 C 
BRANCH  21  26
ATOM     26  O   UNL     1     172.537 172.664 190.883  1.00  0.00    -0.387 OA
ATOM     27  H   UNL     1     172.580 171.855 191.458  1.00  0.00     0.211 HD
ENDBRANCH  21  26
BRANCH  23  28
ATOM     28  O   UNL     1     169.858 172.040 190.026  1.00  0.00    -0.387 OA
ATOM     29  H   UNL     1     170.628 171.495 189.718  1.00  0.00     0.211 HD
ENDBRANCH  23  28
BRANCH  24  30
ATOM     30  C   UNL     1     170.073 176.574 189.779  1.00  0.00     0.191 C 
BRANCH  30  31
ATOM     31  O   UNL     1     168.946 177.125 189.147  1.00  0.00    -0.394 OA
ATOM     32  H   UNL     1     168.755 176.567 188.348  1.00  0.00     0.210 HD
ENDBRANCH  30  31
ENDBRANCH  24  30
BRANCH  25  33
ATOM     33  O   UNL     1     168.216 174.346 189.534  1.00  0.00    -0.388 OA
ATOM     34  H   UNL     1     168.630 174.893 188.815  1.00  0.00     0.211 HD
ENDBRANCH  25  33
ENDBRANCH  11  20
BRANCH  10  35
ATOM     35  O   UNL     1     171.077 174.481 194.374  1.00  0.00    -0.507 OA
ATOM     36  H   UNL     1     170.330 174.734 193.739  1.00  0.00     0.293 HD
ENDBRANCH  10  35
TORSDOF 9
ENDMDL
MODEL 5
REMARK VINA RESULT:    -2.608      2.474      8.944
REMARK INTER + INTRA:          -4.607
REMARK INTER:                  -3.428
REMARK INTRA:                  -1.179
REMARK UNBOUND:                -1.084
REMARK SMILES O=c1c(-c2ccc(O)cc2)coc2c([C@@H]3O[C@@H](CO)[C@@H](O)[C@H](O)[C@H]3O)c(O)ccc12
REMARK SMILES IDX 3 1 11 2 12 3 13 4 30 5 2 6 1 7 29 8 28 9 26 10 14 11 4 12
REMARK SMILES IDX 5 13 6 14 7 15 10 16 9 17 8 18 15 20 24 21 16 22 22 23 17 24
REMARK SMILES IDX 20 25 25 26 23 28 18 30 19 31 21 33 27 35
REMARK H PARENT 8 19 25 27 23 29 19 32 21 34 27 36
REMARK Flexibility Score: inf
ROOT
ATOM      1  C   UNL     1     178.447 175.162 191.161  1.00  0.00     0.065 A 
ATOM      2  C   UNL     1     177.316 175.154 190.334  1.00  0.00     0.208 A 
ATOM      3  O   UNL     1     176.094 175.141 190.851  1.00  0.00    -0.463 OA
ATOM      4  C   UNL     1     175.855 175.136 192.160  1.00  0.00     0.147 A 
ATOM      5  C   UNL     1     176.940 175.144 193.068  1.00  0.00     0.066 A 
ATOM      6  C   UNL     1     178.250 175.166 192.554  1.00  0.00     0.200 A 
ATOM      7  O   UNL     1     179.240 175.208 193.336  1.00  0.00    -0.288 OA
ATOM      8  C   UNL     1     176.689 175.131 194.449  1.00  0.00     0.020 A 
ATOM      9  C   UNL     1     175.380 175.094 194.923  1.00  0.00     0.047 A 
ATOM     10  C   UNL     1     174.299 175.081 194.035  1.00  0.00     0.125 A 
ATOM     11  C   UNL     1     174.524 175.120 192.639  1.00  0.00     0.069 A 
ENDROOT
BRANCH   1  12
ATOM     12  C   UNL     1     179.805 175.171 190.559  1.00  0.00    -0.011 A 
ATOM     13  C   UNL     1     180.437 176.389 190.255  1.00  0.00     0.013 A 
ATOM     14  C   UNL     1     181.712 176.400 189.680  1.00  0.00     0.047 A 
ATOM     15  C   UNL     1     182.367 175.198 189.397  1.00  0.00     0.115 A 
ATOM     16  C   UNL     1     180.467 173.965 190.267  1.00  0.00     0.013 A 
ATOM     17  C   UNL     1     181.740 173.979 189.691  1.00  0.00     0.047 A 
BRANCH  15  18
ATOM     18  O   UNL     1     183.636 175.225 188.824  1.00  0.00    -0.508 OA
ATOM     19  H   UNL     1     184.407 174.701 189.221  1.00  0.00     0.293 HD
ENDBRANCH  15  18
ENDBRANCH   1  12
BRANCH  11  20
ATOM     20  C   UNL     1     173.354 175.084 191.666  1.00  0.00     0.188 C 
ATOM     21  C   UNL     1     172.804 173.641 191.553  1.00  0.00     0.179 C 
ATOM     22  O   UNL     1     172.353 175.990 192.110  1.00  0.00    -0.362 OA
ATOM     23  C   UNL     1     171.585 173.605 190.614  1.00  0.00     0.177 C 
ATOM     24  C   UNL     1     171.236 176.054 191.232  1.00  0.00     0.176 C 
ATOM     25  C   UNL     1     170.566 174.666 191.059  1.00  0.00     0.177 C 
BRANCH  21  26
ATOM     26  O   UNL     1     173.800 172.753 191.107  1.00  0.00    -0.387 OA
ATOM     27  H   UNL     1     174.320 172.461 191.901  1.00  0.00     0.211 HD
ENDBRANCH  21  26
BRANCH  23  28
ATOM     28  O   UNL     1     170.983 172.337 190.663  1.00  0.00    -0.387 OA
ATOM     29  H   UNL     1     170.516 172.273 191.536  1.00  0.00     0.211 HD
ENDBRANCH  23  28
BRANCH  24  30
ATOM     30  C   UNL     1     171.580 176.780 189.910  1.00  0.00     0.191 C 
BRANCH  30  31
ATOM     31  O   UNL     1     170.407 177.125 189.219  1.00  0.00    -0.394 OA
ATOM     32  H   UNL     1     170.505 176.793 188.288  1.00  0.00     0.210 HD
ENDBRANCH  30  31
ENDBRANCH  24  30
BRANCH  25  33
ATOM     33  O   UNL     1     169.509 174.748 190.138  1.00  0.00    -0.388 OA
ATOM     34  H   UNL     1     169.740 175.467 189.493  1.00  0.00     0.211 HD
ENDBRANCH  25  33
ENDBRANCH  11  20
BRANCH  10  35
ATOM     35  O   UNL     1     172.999 175.025 194.539  1.00  0.00    -0.507 OA
ATOM     36  H   UNL     1     172.641 175.731 195.171  1.00  0.00     0.293 HD
ENDBRANCH  10  35
TORSDOF 9
ENDMDL
MODEL 6
REMARK VINA RESULT:    -2.552      2.421      4.628
REMARK INTER + INTRA:          -4.531
REMARK INTER:                  -3.350
REMARK INTRA:                  -1.182
REMARK UNBOUND:                -1.084
REMARK SMILES O=c1c(-c2ccc(O)cc2)coc2c([C@@H]3O[C@@H](CO)[C@@H](O)[C@H](O)[C@H]3O)c(O)ccc12
REMARK SMILES IDX 3 1 11 2 12 3 13 4 30 5 2 6 1 7 29 8 28 9 26 10 14 11 4 12
REMARK SMILES IDX 5 13 6 14 7 15 10 16 9 17 8 18 15 20 24 21 16 22 22 23 17 24
REMARK SMILES IDX 20 25 25 26 23 28 18 30 19 31 21 33 27 35
REMARK H PARENT 8 19 25 27 23 29 19 32 21 34 27 36
REMARK Flexibility Score: inf
ROOT
ATOM      1  C   UNL     1     172.957 175.022 191.937  1.00  0.00     0.065 A 
ATOM      2  C   UNL     1     173.926 174.868 190.938  1.00  0.00     0.208 A 
ATOM      3  O   UNL     1     175.216 174.803 191.244  1.00  0.00    -0.463 OA
ATOM      4  C   UNL     1     175.675 174.875 192.491  1.00  0.00     0.147 A 
ATOM      5  C   UNL     1     174.764 175.030 193.562  1.00  0.00     0.066 A 
ATOM      6  C   UNL     1     173.389 175.095 193.275  1.00  0.00     0.200 A 
ATOM      7  O   UNL     1     172.546 175.199 194.209  1.00  0.00    -0.288 OA
ATOM      8  C   UNL     1     175.248 175.114 194.877  1.00  0.00     0.020 A 
ATOM      9  C   UNL     1     176.618 175.060 195.125  1.00  0.00     0.047 A 
ATOM     10  C   UNL     1     177.528 174.913 194.073  1.00  0.00     0.125 A 
ATOM     11  C   UNL     1     177.065 174.800 192.742  1.00  0.00     0.069 A 
ENDROOT
BRANCH   1  12
ATOM     12  C   UNL     1     171.520 175.099 191.570  1.00  0.00    -0.011 A 
ATOM     13  C   UNL     1     170.704 173.956 191.655  1.00  0.00     0.013 A 
ATOM     14  C   UNL     1     169.353 174.024 191.301  1.00  0.00     0.047 A 
ATOM     15  C   UNL     1     168.801 175.228 190.853  1.00  0.00     0.115 A 
ATOM     16  C   UNL     1     170.960 176.306 191.113  1.00  0.00     0.013 A 
ATOM     17  C   UNL     1     169.610 176.369 190.758  1.00  0.00     0.047 A 
BRANCH  15  18
ATOM     18  O   UNL     1     167.454 175.280 190.504  1.00  0.00    -0.508 OA
ATOM     19  H   UNL     1     167.137 175.802 189.696  1.00  0.00     0.293 HD
ENDBRANCH  15  18
ENDBRANCH   1  12
BRANCH  11  20
ATOM     20  C   UNL     1     178.051 174.660 191.589  1.00  0.00     0.188 C 
ATOM     21  C   UNL     1     178.648 176.043 191.234  1.00  0.00     0.179 C 
ATOM     22  O   UNL     1     179.063 173.733 191.955  1.00  0.00    -0.362 OA
ATOM     23  C   UNL     1     179.688 175.904 190.108  1.00  0.00     0.177 C 
ATOM     24  C   UNL     1     180.008 173.507 190.916  1.00  0.00     0.176 C 
ATOM     25  C   UNL     1     180.711 174.821 190.488  1.00  0.00     0.177 C 
BRANCH  21  26
ATOM     26  O   UNL     1     177.639 176.952 190.867  1.00  0.00    -0.387 OA
ATOM     27  H   UNL     1     177.953 177.863 191.106  1.00  0.00     0.211 HD
ENDBRANCH  21  26
BRANCH  23  28
ATOM     28  O   UNL     1     180.355 177.125 189.921  1.00  0.00    -0.387 OA
ATOM     29  H   UNL     1     181.155 176.934 189.364  1.00  0.00     0.211 HD
ENDBRANCH  23  28
BRANCH  24  30
ATOM     30  C   UNL     1     179.404 172.683 189.754  1.00  0.00     0.191 C 
BRANCH  30  31
ATOM     31  O   UNL     1     180.416 172.008 189.051  1.00  0.00    -0.394 OA
ATOM     32  H   UNL     1     181.103 171.735 189.714  1.00  0.00     0.210 HD
ENDBRANCH  30  31
ENDBRANCH  24  30
BRANCH  25  33
ATOM     33  O   UNL     1     181.587 174.578 189.418  1.00  0.00    -0.388 OA
ATOM     34  H   UNL     1     182.418 174.192 189.804  1.00  0.00     0.211 HD
ENDBRANCH  25  33
ENDBRANCH  11  20
BRANCH  10  35
ATOM     35  O   UNL     1     178.896 174.881 194.350  1.00  0.00    -0.507 OA
ATOM     36  H   UNL     1     179.587 175.117 193.649  1.00  0.00     0.293 HD
ENDBRANCH  10  35
TORSDOF 9
ENDMDL
MODEL 7
REMARK VINA RESULT:    -2.431      3.101      6.451
REMARK INTER + INTRA:          -4.368
REMARK INTER:                  -3.155
REMARK INTRA:                  -1.212
REMARK UNBOUND:                -1.084
REMARK SMILES O=c1c(-c2ccc(O)cc2)coc2c([C@@H]3O[C@@H](CO)[C@@H](O)[C@H](O)[C@H]3O)c(O)ccc12
REMARK SMILES IDX 3 1 11 2 12 3 13 4 30 5 2 6 1 7 29 8 28 9 26 10 14 11 4 12
REMARK SMILES IDX 5 13 6 14 7 15 10 16 9 17 8 18 15 20 24 21 16 22 22 23 17 24
REMARK SMILES IDX 20 25 25 26 23 28 18 30 19 31 21 33 27 35
REMARK H PARENT 8 19 25 27 23 29 19 32 21 34 27 36
REMARK Flexibility Score: inf
ROOT
ATOM      1  C   UNL     1     170.333 175.284 190.731  1.00  0.00     0.065 A 
ATOM      2  C   UNL     1     171.531 175.170 190.014  1.00  0.00     0.208 A 
ATOM      3  O   UNL     1     172.688 175.004 190.641  1.00  0.00    -0.463 OA
ATOM      4  C   UNL     1     172.797 174.932 191.965  1.00  0.00     0.147 A 
ATOM      5  C   UNL     1     171.636 175.037 192.768  1.00  0.00     0.066 A 
ATOM      6  C   UNL     1     170.392 175.206 192.136  1.00  0.00     0.200 A 
ATOM      7  O   UNL     1     169.333 175.269 192.820  1.00  0.00    -0.288 OA
ATOM      8  C   UNL     1     171.752 174.969 194.165  1.00  0.00     0.020 A 
ATOM      9  C   UNL     1     173.002 174.814 194.759  1.00  0.00     0.047 A 
ATOM     10  C   UNL     1     174.157 174.715 193.976  1.00  0.00     0.125 A 
ATOM     11  C   UNL     1     174.066 174.754 192.565  1.00  0.00     0.069 A 
ENDROOT
BRANCH   1  12
ATOM     12  C   UNL     1     169.051 175.477 190.008  1.00  0.00    -0.011 A 
ATOM     13  C   UNL     1     168.328 174.366 189.538  1.00  0.00     0.013 A 
ATOM     14  C   UNL     1     167.125 174.544 188.849  1.00  0.00     0.047 A 
ATOM     15  C   UNL     1     166.632 175.832 188.614  1.00  0.00     0.115 A 
ATOM     16  C   UNL     1     168.553 176.769 189.763  1.00  0.00     0.013 A 
ATOM     17  C   UNL     1     167.350 176.945 189.072  1.00  0.00     0.047 A 
BRANCH  15  18
ATOM     18  O   UNL     1     165.432 175.994 187.926  1.00  0.00    -0.508 OA
ATOM     19  H   UNL     1     165.027 175.240 187.382  1.00  0.00     0.293 HD
ENDBRANCH  15  18
ENDBRANCH   1  12
BRANCH  11  20
ATOM     20  C   UNL     1     175.320 174.668 191.706  1.00  0.00     0.188 C 
ATOM     21  C   UNL     1     176.047 176.034 191.692  1.00  0.00     0.179 C 
ATOM     22  O   UNL     1     176.158 173.637 192.211  1.00  0.00    -0.362 OA
ATOM     23  C   UNL     1     177.346 175.942 190.872  1.00  0.00     0.177 C 
ATOM     24  C   UNL     1     177.339 173.456 191.439  1.00  0.00     0.176 C 
ATOM     25  C   UNL     1     178.183 174.755 191.375  1.00  0.00     0.177 C 
BRANCH  21  26
ATOM     26  O   UNL     1     175.212 177.047 191.185  1.00  0.00    -0.387 OA
ATOM     27  H   UNL     1     174.731 177.454 191.953  1.00  0.00     0.211 HD
ENDBRANCH  21  26
BRANCH  23  28
ATOM     28  O   UNL     1     178.088 177.125 191.018  1.00  0.00    -0.387 OA
ATOM     29  H   UNL     1     177.793 177.740 190.297  1.00  0.00     0.211 HD
ENDBRANCH  23  28
BRANCH  24  30
ATOM     30  C   UNL     1     177.039 172.805 190.068  1.00  0.00     0.191 C 
BRANCH  30  31
ATOM     31  O   UNL     1     178.183 172.159 189.570  1.00  0.00    -0.394 OA
ATOM     32  H   UNL     1     178.899 172.842 189.497  1.00  0.00     0.210 HD
ENDBRANCH  30  31
ENDBRANCH  24  30
BRANCH  25  33
ATOM     33  O   UNL     1     179.306 174.565 190.554  1.00  0.00    -0.388 OA
ATOM     34  H   UNL     1     179.345 173.596 190.333  1.00  0.00     0.211 HD
ENDBRANCH  25  33
ENDBRANCH  11  20
BRANCH  10  35
ATOM     35  O   UNL     1     175.398 174.580 194.600  1.00  0.00    -0.507 OA
ATOM     36  H   UNL     1     175.941 175.386 194.887  1.00  0.00     0.293 HD
ENDBRANCH  10  35
TORSDOF 9
ENDMDL
MODEL 8
REMARK VINA RESULT:    -2.387      2.322      8.644
REMARK INTER + INTRA:          -4.309
REMARK INTER:                  -3.106
REMARK INTRA:                  -1.203
REMARK UNBOUND:                -1.084
REMARK SMILES O=c1c(-c2ccc(O)cc2)coc2c([C@@H]3O[C@@H](CO)[C@@H](O)[C@H](O)[C@H]3O)c(O)ccc12
REMARK SMILES IDX 3 1 11 2 12 3 13 4 30 5 2 6 1 7 29 8 28 9 26 10 14 11 4 12
REMARK SMILES IDX 5 13 6 14 7 15 10 16 9 17 8 18 15 20 24 21 16 22 22 23 17 24
REMARK SMILES IDX 20 25 25 26 23 28 18 30 19 31 21 33 27 35
REMARK H PARENT 8 19 25 27 23 29 19 32 21 34 27 36
REMARK Flexibility Score: inf
ROOT
ATOM      1  C   UNL     1     179.080 175.218 191.466  1.00  0.00     0.065 A 
ATOM      2  C   UNL     1     177.966 176.067 191.456  1.00  0.00     0.208 A 
ATOM      3  O   UNL     1     176.787 175.639 191.022  1.00  0.00    -0.463 OA
ATOM      4  C   UNL     1     176.578 174.402 190.577  1.00  0.00     0.147 A 
ATOM      5  C   UNL     1     177.649 173.478 190.553  1.00  0.00     0.066 A 
ATOM      6  C   UNL     1     178.911 173.896 191.013  1.00  0.00     0.200 A 
ATOM      7  O   UNL     1     179.880 173.087 191.037  1.00  0.00    -0.288 OA
ATOM      8  C   UNL     1     177.430 172.176 190.076  1.00  0.00     0.020 A 
ATOM      9  C   UNL     1     176.171 171.800 189.615  1.00  0.00     0.047 A 
ATOM     10  C   UNL     1     175.106 172.707 189.629  1.00  0.00     0.125 A 
ATOM     11  C   UNL     1     175.292 174.017 190.129  1.00  0.00     0.069 A 
ENDROOT
BRANCH   1  12
ATOM     12  C   UNL     1     180.391 175.721 191.950  1.00  0.00    -0.011 A 
ATOM     13  C   UNL     1     181.292 176.326 191.055  1.00  0.00     0.013 A 
ATOM     14  C   UNL     1     182.531 176.792 191.505  1.00  0.00     0.047 A 
ATOM     15  C   UNL     1     182.888 176.656 192.850  1.00  0.00     0.115 A 
ATOM     16  C   UNL     1     180.759 175.581 193.300  1.00  0.00     0.013 A 
ATOM     17  C   UNL     1     181.998 176.047 193.747  1.00  0.00     0.047 A 
BRANCH  15  18
ATOM     18  O   UNL     1     184.125 177.125 193.285  1.00  0.00    -0.508 OA
ATOM     19  H   UNL     1     184.718 177.687 192.685  1.00  0.00     0.293 HD
ENDBRANCH  15  18
ENDBRANCH   1  12
BRANCH  11  20
ATOM     20  C   UNL     1     174.144 175.017 190.128  1.00  0.00     0.188 C 
ATOM     21  C   UNL     1     174.008 175.665 188.728  1.00  0.00     0.179 C 
ATOM     22  O   UNL     1     172.949 174.350 190.512  1.00  0.00    -0.362 OA
ATOM     23  C   UNL     1     172.813 176.635 188.702  1.00  0.00     0.177 C 
ATOM     24  C   UNL     1     171.827 175.222 190.580  1.00  0.00     0.176 C 
ATOM     25  C   UNL     1     171.559 175.914 189.219  1.00  0.00     0.177 C 
BRANCH  21  26
ATOM     26  O   UNL     1     175.193 176.327 188.360  1.00  0.00    -0.387 OA
ATOM     27  H   UNL     1     175.952 175.715 188.551  1.00  0.00     0.211 HD
ENDBRANCH  21  26
BRANCH  23  28
ATOM     28  O   UNL     1     172.585 177.074 187.388  1.00  0.00    -0.387 OA
ATOM     29  H   UNL     1     172.951 176.377 186.783  1.00  0.00     0.211 HD
ENDBRANCH  23  28
BRANCH  24  30
ATOM     30  C   UNL     1     171.911 176.178 191.793  1.00  0.00     0.191 C 
BRANCH  30  31
ATOM     31  O   UNL     1     170.625 176.485 192.268  1.00  0.00    -0.394 OA
ATOM     32  H   UNL     1     170.361 177.352 191.863  1.00  0.00     0.210 HD
ENDBRANCH  30  31
ENDBRANCH  24  30
BRANCH  25  33
ATOM     33  O   UNL     1     170.488 176.816 189.335  1.00  0.00    -0.388 OA
ATOM     34  H   UNL     1     170.244 176.856 190.298  1.00  0.00     0.211 HD
ENDBRANCH  25  33
ENDBRANCH  11  20
BRANCH  10  35
ATOM     35  O   UNL     1     173.860 172.308 189.143  1.00  0.00    -0.507 OA
ATOM     36  H   UNL     1     173.772 171.711 188.330  1.00  0.00     0.293 HD
ENDBRANCH  10  35
TORSDOF 9
ENDMDL
MODEL 9
REMARK VINA RESULT:    -2.355      1.623      2.101
REMARK INTER + INTRA:          -4.265
REMARK INTER:                  -3.125
REMARK INTRA:                  -1.140
REMARK UNBOUND:                -1.084
REMARK SMILES O=c1c(-c2ccc(O)cc2)coc2c([C@@H]3O[C@@H](CO)[C@@H](O)[C@H](O)[C@H]3O)c(O)ccc12
REMARK SMILES IDX 3 1 11 2 12 3 13 4 30 5 2 6 1 7 29 8 28 9 26 10 14 11 4 12
REMARK SMILES IDX 5 13 6 14 7 15 10 16 9 17 8 18 15 20 24 21 16 22 22 23 17 24
REMARK SMILES IDX 20 25 25 26 23 28 18 30 19 31 21 33 27 35
REMARK H PARENT 8 19 25 27 23 29 19 32 21 34 27 36
REMARK Flexibility Score: inf
ROOT
ATOM      1  C   UNL     1     174.552 174.708 192.560  1.00  0.00     0.065 A 
ATOM      2  C   UNL     1     175.729 174.273 193.182  1.00  0.00     0.208 A 
ATOM      3  O   UNL     1     176.918 174.652 192.731  1.00  0.00    -0.463 OA
ATOM      4  C   UNL     1     177.079 175.455 191.683  1.00  0.00     0.147 A 
ATOM      5  C   UNL     1     175.943 175.943 190.995  1.00  0.00     0.066 A 
ATOM      6  C   UNL     1     174.666 175.567 191.450  1.00  0.00     0.200 A 
ATOM      7  O   UNL     1     173.630 176.011 190.881  1.00  0.00    -0.288 OA
ATOM      8  C   UNL     1     176.112 176.784 189.885  1.00  0.00     0.020 A 
ATOM      9  C   UNL     1     177.392 177.125 189.452  1.00  0.00     0.047 A 
ATOM     10  C   UNL     1     178.523 176.645 190.121  1.00  0.00     0.125 A 
ATOM     11  C   UNL     1     178.380 175.817 191.258  1.00  0.00     0.069 A 
ENDROOT
BRANCH   1  12
ATOM     12  C   UNL     1     173.232 174.265 193.078  1.00  0.00    -0.011 A 
ATOM     13  C   UNL     1     172.473 173.319 192.366  1.00  0.00     0.013 A 
ATOM     14  C   UNL     1     171.226 172.906 192.846  1.00  0.00     0.047 A 
ATOM     15  C   UNL     1     170.720 173.436 194.038  1.00  0.00     0.115 A 
ATOM     16  C   UNL     1     172.715 174.798 194.272  1.00  0.00     0.013 A 
ATOM     17  C   UNL     1     171.468 174.384 194.749  1.00  0.00     0.047 A 
BRANCH  15  18
ATOM     18  O   UNL     1     169.477 173.016 194.504  1.00  0.00    -0.508 OA
ATOM     19  H   UNL     1     169.286 172.039 194.695  1.00  0.00     0.293 HD
ENDBRANCH  15  18
ENDBRANCH   1  12
BRANCH  11  20
ATOM     20  C   UNL     1     179.606 175.273 191.979  1.00  0.00     0.188 C 
ATOM     21  C   UNL     1     180.178 174.059 191.207  1.00  0.00     0.179 C 
ATOM     22  O   UNL     1     180.568 176.311 192.104  1.00  0.00    -0.362 OA
ATOM     23  C   UNL     1     181.451 173.537 191.897  1.00  0.00     0.177 C 
ATOM     24  C   UNL     1     181.735 175.902 192.808  1.00  0.00     0.176 C 
ATOM     25  C   UNL     1     182.429 174.703 192.112  1.00  0.00     0.177 C 
BRANCH  21  26
ATOM     26  O   UNL     1     179.220 173.035 191.094  1.00  0.00    -0.387 OA
ATOM     27  H   UNL     1     179.292 172.464 191.904  1.00  0.00     0.211 HD
ENDBRANCH  21  26
BRANCH  23  28
ATOM     28  O   UNL     1     182.063 172.561 191.095  1.00  0.00    -0.387 OA
ATOM     29  H   UNL     1     182.416 171.865 191.707  1.00  0.00     0.211 HD
ENDBRANCH  23  28
BRANCH  24  30
ATOM     30  C   UNL     1     181.461 175.710 194.318  1.00  0.00     0.191 C 
BRANCH  30  31
ATOM     31  O   UNL     1     182.605 176.027 195.069  1.00  0.00    -0.394 OA
ATOM     32  H   UNL     1     183.247 176.471 194.455  1.00  0.00     0.210 HD
ENDBRANCH  30  31
ENDBRANCH  24  30
BRANCH  25  33
ATOM     33  O   UNL     1     183.538 174.280 192.863  1.00  0.00    -0.388 OA
ATOM     34  H   UNL     1     183.562 173.288 192.812  1.00  0.00     0.211 HD
ENDBRANCH  25  33
ENDBRANCH  11  20
BRANCH  10  35
ATOM     35  O   UNL     1     179.792 176.988 189.653  1.00  0.00    -0.507 OA
ATOM     36  H   UNL     1     180.499 176.287 189.467  1.00  0.00     0.293 HD
ENDBRANCH  10  35
TORSDOF 9
ENDMDL
