MODEL 1
REMARK VINA RESULT:    -3.191      0.000      0.000
REMARK INTER + INTRA:          -3.944
REMARK INTER:                  -4.684
REMARK INTRA:                   0.739
REMARK UNBOUND:                 0.739
REMARK SMILES Cc1cc2c(C(C)C)c(O)c(O)c(C=O)c2c(O)c1-c1c(C)cc2c(C(C)C)c(O)c(O)c(C=O)c2c1O
REMARK SMILES IDX 1 1 2 2 3 3 4 4 16 5 13 6 11 7 9 8 5 9 17 10 19 11 20 12
REMARK SMILES IDX 37 13 21 14 36 15 23 16 22 17 24 18 33 19 25 20 31 21 29 22
REMARK SMILES IDX 38 23 34 25 35 26 26 27 27 28 28 29 32 30 30 32 18 34 6 36
REMARK SMILES IDX 7 37 8 38 14 39 15 40 10 41 12 43
REMARK H PARENT 38 24 32 31 30 33 18 35 10 42 12 44
REMARK Flexibility Score: inf
ROOT
ATOM      1  C   UNL     1      49.091  22.393  52.205  1.00  0.00     0.045 C 
ATOM      2  C   UNL     1      50.330  22.546  53.052  1.00  0.00    -0.039 A 
ATOM      3  C   UNL     1      51.581  22.583  52.434  1.00  0.00     0.013 A 
ATOM      4  C   UNL     1      52.778  22.699  53.176  1.00  0.00    -0.006 A 
ATOM      5  C   UNL     1      52.695  22.850  54.594  1.00  0.00     0.039 A 
ATOM      6  C   UNL     1      53.901  22.996  55.342  1.00  0.00     0.072 A 
ATOM      7  C   UNL     1      55.125  23.172  54.672  1.00  0.00     0.169 A 
ATOM      8  C   UNL     1      55.182  23.113  53.269  1.00  0.00     0.162 A 
ATOM      9  C   UNL     1      54.051  22.711  52.526  1.00  0.00     0.008 A 
ATOM     10  C   UNL     1      51.409  22.896  55.211  1.00  0.00     0.132 A 
ATOM     11  C   UNL     1      50.239  22.713  54.442  1.00  0.00     0.031 A 
ENDROOT
BRANCH  11  12
ATOM     12  C   UNL     1      48.903  22.737  55.095  1.00  0.00     0.031 A 
ATOM     13  C   UNL     1      48.093  21.581  55.096  1.00  0.00     0.132 A 
ATOM     14  C   UNL     1      48.465  23.904  55.742  1.00  0.00    -0.039 A 
ATOM     15  C   UNL     1      46.800  21.601  55.705  1.00  0.00     0.039 A 
ATOM     16  C   UNL     1      47.219  23.917  56.368  1.00  0.00     0.013 A 
ATOM     17  C   UNL     1      49.349  25.125  55.832  1.00  0.00     0.045 C 
ATOM     18  C   UNL     1      46.344  22.809  56.317  1.00  0.00    -0.006 A 
ATOM     19  C   UNL     1      45.966  20.443  55.760  1.00  0.00     0.072 A 
ATOM     20  C   UNL     1      45.043  22.872  56.904  1.00  0.00     0.008 A 
ATOM     21  C   UNL     1      44.752  20.485  56.477  1.00  0.00     0.169 A 
ATOM     22  C   UNL     1      44.320  21.672  57.075  1.00  0.00     0.162 A 
BRANCH  13  23
ATOM     23  O   UNL     1      48.584  20.409  54.507  1.00  0.00    -0.507 OA
ATOM     24  H   UNL     1      49.298  19.824  54.921  1.00  0.00     0.293 HD
ENDBRANCH  13  23
BRANCH  19  25
ATOM     25  C   UNL     1      46.334  19.180  55.088  1.00  0.00     0.264 C 
ATOM     26  O   UNL     1      46.115  19.022  53.857  1.00  0.00    -0.298 OA
ENDBRANCH  19  25
BRANCH  20  27
ATOM     27  C   UNL     1      44.426  24.205  57.368  1.00  0.00     0.017 C 
ATOM     28  C   UNL     1      43.764  24.937  56.196  1.00  0.00     0.012 C 
ATOM     29  C   UNL     1      45.412  25.123  58.115  1.00  0.00     0.012 C 
ENDBRANCH  20  27
BRANCH  21  30
ATOM     30  O   UNL     1      43.925  19.360  56.587  1.00  0.00    -0.504 OA
ATOM     31  H   UNL     1      43.915  18.737  57.383  1.00  0.00     0.293 HD
ENDBRANCH  21  30
BRANCH  22  32
ATOM     32  O   UNL     1      43.156  21.664  57.847  1.00  0.00    -0.504 OA
ATOM     33  H   UNL     1      42.319  22.170  57.590  1.00  0.00     0.293 HD
ENDBRANCH  22  32
ENDBRANCH  11  12
BRANCH  10  34
ATOM     34  O   UNL     1      51.291  23.166  56.579  1.00  0.00    -0.507 OA
ATOM     35  H   UNL     1      51.999  23.640  57.127  1.00  0.00     0.293 HD
ENDBRANCH  10  34
BRANCH   9  36
ATOM     36  C   UNL     1      54.206  22.350  51.038  1.00  0.00     0.017 C 
ATOM     37  C   UNL     1      54.192  23.609  50.164  1.00  0.00     0.012 C 
ATOM     38  C   UNL     1      55.436  21.472  50.734  1.00  0.00     0.012 C 
ENDBRANCH   9  36
BRANCH   6  39
ATOM     39  C   UNL     1      53.931  22.890  56.820  1.00  0.00     0.264 C 
ATOM     40  O   UNL     1      54.124  23.905  57.542  1.00  0.00    -0.298 OA
ENDBRANCH   6  39
BRANCH   8  41
ATOM     41  O   UNL     1      56.354  23.461  52.591  1.00  0.00    -0.504 OA
ATOM     42  H   UNL     1      57.040  24.115  52.942  1.00  0.00     0.293 HD
ENDBRANCH   8  41
BRANCH   7  43
ATOM     43  O   UNL     1      56.287  23.353  55.431  1.00  0.00    -0.504 OA
ATOM     44  H   UNL     1      56.339  23.210  56.431  1.00  0.00     0.293 HD
ENDBRANCH   7  43
TORSDOF 11
ENDMDL
MODEL 2
REMARK VINA RESULT:    -2.190      3.327     10.200
REMARK INTER + INTRA:          -2.474
REMARK INTER:                  -3.127
REMARK INTRA:                   0.653
REMARK UNBOUND:                 0.739
REMARK SMILES Cc1cc2c(C(C)C)c(O)c(O)c(C=O)c2c(O)c1-c1c(C)cc2c(C(C)C)c(O)c(O)c(C=O)c2c1O
REMARK SMILES IDX 1 1 2 2 3 3 4 4 16 5 13 6 11 7 9 8 5 9 17 10 19 11 20 12
REMARK SMILES IDX 37 13 21 14 36 15 23 16 22 17 24 18 33 19 25 20 31 21 29 22
REMARK SMILES IDX 38 23 34 25 35 26 26 27 27 28 28 29 32 30 30 32 18 34 6 36
REMARK SMILES IDX 7 37 8 38 14 39 15 40 10 41 12 43
REMARK H PARENT 38 24 32 31 30 33 18 35 10 42 12 44
REMARK Flexibility Score: inf
ROOT
ATOM      1  C   UNL     1      55.230  24.250  53.749  1.00  0.00     0.045 C 
ATOM      2  C   UNL     1      53.779  23.835  53.705  1.00  0.00    -0.039 A 
ATOM      3  C   UNL     1      52.913  24.270  54.709  1.00  0.00     0.013 A 
ATOM      4  C   UNL     1      51.551  23.893  54.737  1.00  0.00    -0.006 A 
ATOM      5  C   UNL     1      51.037  23.098  53.666  1.00  0.00     0.039 A 
ATOM      6  C   UNL     1      49.656  22.741  53.677  1.00  0.00     0.072 A 
ATOM      7  C   UNL     1      48.790  23.316  54.624  1.00  0.00     0.169 A 
ATOM      8  C   UNL     1      49.292  24.172  55.619  1.00  0.00     0.162 A 
ATOM      9  C   UNL     1      50.685  24.330  55.785  1.00  0.00     0.008 A 
ATOM     10  C   UNL     1      51.909  22.727  52.600  1.00  0.00     0.132 A 
ATOM     11  C   UNL     1      53.278  23.070  52.642  1.00  0.00     0.031 A 
ENDROOT
BRANCH  11  12
ATOM     12  C   UNL     1      54.187  22.658  51.539  1.00  0.00     0.031 A 
ATOM     13  C   UNL     1      54.321  23.469  50.391  1.00  0.00     0.132 A 
ATOM     14  C   UNL     1      54.940  21.479  51.659  1.00  0.00    -0.039 A 
ATOM     15  C   UNL     1      55.179  23.072  49.318  1.00  0.00     0.039 A 
ATOM     16  C   UNL     1      55.804  21.106  50.631  1.00  0.00     0.013 A 
ATOM     17  C   UNL     1      54.882  20.641  52.915  1.00  0.00     0.045 C 
ATOM     18  C   UNL     1      55.902  21.844  49.431  1.00  0.00    -0.006 A 
ATOM     19  C   UNL     1      55.371  23.881  48.157  1.00  0.00     0.072 A 
ATOM     20  C   UNL     1      56.741  21.403  48.362  1.00  0.00     0.008 A 
ATOM     21  C   UNL     1      56.319  23.501  47.185  1.00  0.00     0.169 A 
ATOM     22  C   UNL     1      57.023  22.299  47.310  1.00  0.00     0.162 A 
BRANCH  13  23
ATOM     23  O   UNL     1      53.615  24.676  50.328  1.00  0.00    -0.507 OA
ATOM     24  H   UNL     1      54.012  25.548  50.002  1.00  0.00     0.293 HD
ENDBRANCH  13  23
BRANCH  19  25
ATOM     25  C   UNL     1      54.606  25.124  47.934  1.00  0.00     0.264 C 
ATOM     26  O   UNL     1      53.439  25.082  47.461  1.00  0.00    -0.298 OA
ENDBRANCH  19  25
BRANCH  20  27
ATOM     27  C   UNL     1      57.355  19.990  48.343  1.00  0.00     0.017 C 
ATOM     28  C   UNL     1      56.369  18.974  47.758  1.00  0.00     0.012 C 
ATOM     29  C   UNL     1      57.892  19.524  49.710  1.00  0.00     0.012 C 
ENDBRANCH  20  27
BRANCH  21  30
ATOM     30  O   UNL     1      56.565  24.286  46.052  1.00  0.00    -0.504 OA
ATOM     31  H   UNL     1      56.410  25.284  46.007  1.00  0.00     0.293 HD
ENDBRANCH  21  30
BRANCH  22  32
ATOM     32  O   UNL     1      58.014  21.989  46.376  1.00  0.00    -0.504 OA
ATOM     33  H   UNL     1      58.749  22.633  46.115  1.00  0.00     0.293 HD
ENDBRANCH  22  32
ENDBRANCH  11  12
BRANCH  10  34
ATOM     34  O   UNL     1      51.408  22.054  51.479  1.00  0.00    -0.507 OA
ATOM     35  H   UNL     1      51.032  22.518  50.661  1.00  0.00     0.293 HD
ENDBRANCH  10  34
BRANCH   9  36
ATOM     36  C   UNL     1      51.227  25.010  57.056  1.00  0.00     0.017 C 
ATOM     37  C   UNL     1      50.135  25.125  58.125  1.00  0.00     0.012 C 
ATOM     38  C   UNL     1      52.498  24.348  57.623  1.00  0.00     0.012 C 
ENDBRANCH   9  36
BRANCH   6  39
ATOM     39  C   UNL     1      49.101  21.710  52.767  1.00  0.00     0.264 C 
ATOM     40  O   UNL     1      48.847  21.976  51.561  1.00  0.00    -0.298 OA
ENDBRANCH   6  39
BRANCH   8  41
ATOM     41  O   UNL     1      48.421  24.884  56.448  1.00  0.00    -0.504 OA
ATOM     42  H   UNL     1      47.450  24.643  56.592  1.00  0.00     0.293 HD
ENDBRANCH   8  41
BRANCH   7  43
ATOM     43  O   UNL     1      47.432  22.977  54.585  1.00  0.00    -0.504 OA
ATOM     44  H   UNL     1      46.858  22.842  55.406  1.00  0.00     0.293 HD
ENDBRANCH   7  43
TORSDOF 11
ENDMDL
MODEL 3
REMARK VINA RESULT:    -2.105      1.426      1.976
REMARK INTER + INTRA:          -2.351
REMARK INTER:                  -5.071
REMARK INTRA:                   2.720
REMARK UNBOUND:                 0.739
REMARK SMILES Cc1cc2c(C(C)C)c(O)c(O)c(C=O)c2c(O)c1-c1c(C)cc2c(C(C)C)c(O)c(O)c(C=O)c2c1O
REMARK SMILES IDX 1 1 2 2 3 3 4 4 16 5 13 6 11 7 9 8 5 9 17 10 19 11 20 12
REMARK SMILES IDX 37 13 21 14 36 15 23 16 22 17 24 18 33 19 25 20 31 21 29 22
REMARK SMILES IDX 38 23 34 25 35 26 26 27 27 28 28 29 32 30 30 32 18 34 6 36
REMARK SMILES IDX 7 37 8 38 14 39 15 40 10 41 12 43
REMARK H PARENT 38 24 32 31 30 33 18 35 10 42 12 44
REMARK Flexibility Score: inf
ROOT
ATOM      1  C   UNL     1      50.904  23.305  52.018  1.00  0.00     0.045 C 
ATOM      2  C   UNL     1      52.131  23.265  52.897  1.00  0.00    -0.039 A 
ATOM      3  C   UNL     1      53.394  23.372  52.313  1.00  0.00     0.013 A 
ATOM      4  C   UNL     1      54.579  23.315  53.080  1.00  0.00    -0.006 A 
ATOM      5  C   UNL     1      54.473  23.213  54.501  1.00  0.00     0.039 A 
ATOM      6  C   UNL     1      55.668  23.186  55.280  1.00  0.00     0.072 A 
ATOM      7  C   UNL     1      56.909  23.439  54.669  1.00  0.00     0.169 A 
ATOM      8  C   UNL     1      56.992  23.630  53.280  1.00  0.00     0.162 A 
ATOM      9  C   UNL     1      55.864  23.403  52.461  1.00  0.00     0.008 A 
ATOM     10  C   UNL     1      53.177  23.190  55.098  1.00  0.00     0.132 A 
ATOM     11  C   UNL     1      52.018  23.184  54.293  1.00  0.00     0.031 A 
ENDROOT
BRANCH  11  12
ATOM     12  C   UNL     1      50.670  23.134  54.920  1.00  0.00     0.031 A 
ATOM     13  C   UNL     1      49.756  22.121  54.557  1.00  0.00     0.132 A 
ATOM     14  C   UNL     1      50.323  24.077  55.901  1.00  0.00    -0.039 A 
ATOM     15  C   UNL     1      48.453  22.076  55.141  1.00  0.00     0.039 A 
ATOM     16  C   UNL     1      49.065  24.015  56.500  1.00  0.00     0.013 A 
ATOM     17  C   UNL     1      51.314  25.115  56.371  1.00  0.00     0.045 C 
ATOM     18  C   UNL     1      48.093  23.071  56.103  1.00  0.00    -0.006 A 
ATOM     19  C   UNL     1      47.512  21.047  54.830  1.00  0.00     0.072 A 
ATOM     20  C   UNL     1      46.786  23.074  56.680  1.00  0.00     0.008 A 
ATOM     21  C   UNL     1      46.287  20.981  55.524  1.00  0.00     0.169 A 
ATOM     22  C   UNL     1      45.949  21.958  56.465  1.00  0.00     0.162 A 
BRANCH  13  23
ATOM     23  O   UNL     1      50.154  21.150  53.630  1.00  0.00    -0.507 OA
ATOM     24  H   UNL     1      51.059  20.698  53.635  1.00  0.00     0.293 HD
ENDBRANCH  13  23
BRANCH  19  25
ATOM     25  C   UNL     1      47.782  20.029  53.795  1.00  0.00     0.264 C 
ATOM     26  O   UNL     1      47.642  20.304  52.573  1.00  0.00    -0.298 OA
ENDBRANCH  19  25
BRANCH  20  27
ATOM     27  C   UNL     1      46.282  24.248  57.540  1.00  0.00     0.017 C 
ATOM     28  C   UNL     1      45.263  25.093  56.768  1.00  0.00     0.012 C 
ATOM     29  C   UNL     1      47.407  25.124  58.122  1.00  0.00     0.012 C 
ENDBRANCH  20  27
BRANCH  21  30
ATOM     30  O   UNL     1      45.355  19.966  55.275  1.00  0.00    -0.504 OA
ATOM     31  H   UNL     1      44.359  20.117  55.187  1.00  0.00     0.293 HD
ENDBRANCH  21  30
BRANCH  22  32
ATOM     32  O   UNL     1      44.767  21.822  57.196  1.00  0.00    -0.504 OA
ATOM     33  H   UNL     1      44.177  21.001  57.145  1.00  0.00     0.293 HD
ENDBRANCH  22  32
ENDBRANCH  11  12
BRANCH  10  34
ATOM     34  O   UNL     1      53.040  23.214  56.491  1.00  0.00    -0.507 OA
ATOM     35  H   UNL     1      52.580  22.489  57.028  1.00  0.00     0.293 HD
ENDBRANCH  10  34
BRANCH   9  36
ATOM     36  C   UNL     1      56.038  23.309  50.935  1.00  0.00     0.017 C 
ATOM     37  C   UNL     1      55.416  22.018  50.390  1.00  0.00     0.012 C 
ATOM     38  C   UNL     1      55.523  24.544  50.171  1.00  0.00     0.012 C 
ENDBRANCH   9  36
BRANCH   6  39
ATOM     39  C   UNL     1      55.665  22.816  56.716  1.00  0.00     0.264 C 
ATOM     40  O   UNL     1      56.356  21.851  57.140  1.00  0.00    -0.298 OA
ENDBRANCH   6  39
BRANCH   8  41
ATOM     41  O   UNL     1      58.186  24.056  52.691  1.00  0.00    -0.504 OA
ATOM     42  H   UNL     1      58.239  24.727  51.938  1.00  0.00     0.293 HD
ENDBRANCH   8  41
BRANCH   7  43
ATOM     43  O   UNL     1      58.061  23.444  55.466  1.00  0.00    -0.504 OA
ATOM     44  H   UNL     1      58.994  23.605  55.111  1.00  0.00     0.293 HD
ENDBRANCH   7  43
TORSDOF 11
ENDMDL
MODEL 4
REMARK VINA RESULT:    -2.046      1.449      9.191
REMARK INTER + INTRA:          -2.264
REMARK INTER:                  -2.235
REMARK INTRA:                  -0.029
REMARK UNBOUND:                 0.739
REMARK SMILES Cc1cc2c(C(C)C)c(O)c(O)c(C=O)c2c(O)c1-c1c(C)cc2c(C(C)C)c(O)c(O)c(C=O)c2c1O
REMARK SMILES IDX 1 1 2 2 3 3 4 4 16 5 13 6 11 7 9 8 5 9 17 10 19 11 20 12
REMARK SMILES IDX 37 13 21 14 36 15 23 16 22 17 24 18 33 19 25 20 31 21 29 22
REMARK SMILES IDX 38 23 34 25 35 26 26 27 27 28 28 29 32 30 30 32 18 34 6 36
REMARK SMILES IDX 7 37 8 38 14 39 15 40 10 41 12 43
REMARK H PARENT 38 24 32 31 30 33 18 35 10 42 12 44
REMARK Flexibility Score: inf
ROOT
ATOM      1  C   UNL     1      47.902  25.125  54.108  1.00  0.00     0.045 C 
ATOM      2  C   UNL     1      47.280  23.978  54.868  1.00  0.00    -0.039 A 
ATOM      3  C   UNL     1      45.923  24.029  55.193  1.00  0.00     0.013 A 
ATOM      4  C   UNL     1      45.291  22.999  55.925  1.00  0.00    -0.006 A 
ATOM      5  C   UNL     1      46.052  21.843  56.281  1.00  0.00     0.039 A 
ATOM      6  C   UNL     1      45.408  20.789  56.994  1.00  0.00     0.072 A 
ATOM      7  C   UNL     1      44.014  20.814  57.176  1.00  0.00     0.169 A 
ATOM      8  C   UNL     1      43.259  21.916  56.739  1.00  0.00     0.162 A 
ATOM      9  C   UNL     1      43.906  23.080  56.268  1.00  0.00     0.008 A 
ATOM     10  C   UNL     1      47.417  21.760  55.872  1.00  0.00     0.132 A 
ATOM     11  C   UNL     1      48.029  22.839  55.198  1.00  0.00     0.031 A 
ENDROOT
BRANCH  11  12
ATOM     12  C   UNL     1      49.459  22.756  54.796  1.00  0.00     0.031 A 
ATOM     13  C   UNL     1      50.473  23.117  55.709  1.00  0.00     0.132 A 
ATOM     14  C   UNL     1      49.797  22.285  53.517  1.00  0.00    -0.039 A 
ATOM     15  C   UNL     1      51.849  23.058  55.326  1.00  0.00     0.039 A 
ATOM     16  C   UNL     1      51.139  22.192  53.151  1.00  0.00     0.013 A 
ATOM     17  C   UNL     1      48.735  21.809  52.555  1.00  0.00     0.045 C 
ATOM     18  C   UNL     1      52.179  22.623  54.004  1.00  0.00    -0.006 A 
ATOM     19  C   UNL     1      52.907  23.378  56.230  1.00  0.00     0.072 A 
ATOM     20  C   UNL     1      53.542  22.586  53.579  1.00  0.00     0.008 A 
ATOM     21  C   UNL     1      54.248  23.187  55.838  1.00  0.00     0.169 A 
ATOM     22  C   UNL     1      54.557  22.757  54.545  1.00  0.00     0.162 A 
BRANCH  13  23
ATOM     23  O   UNL     1      50.112  23.514  57.002  1.00  0.00    -0.507 OA
ATOM     24  H   UNL     1      49.219  23.927  57.239  1.00  0.00     0.293 HD
ENDBRANCH  13  23
BRANCH  19  25
ATOM     25  C   UNL     1      52.645  23.903  57.585  1.00  0.00     0.264 C 
ATOM     26  O   UNL     1      53.081  25.034  57.929  1.00  0.00    -0.298 OA
ENDBRANCH  19  25
BRANCH  20  27
ATOM     27  C   UNL     1      53.927  22.345  52.107  1.00  0.00     0.017 C 
ATOM     28  C   UNL     1      54.456  20.921  51.906  1.00  0.00     0.012 C 
ATOM     29  C   UNL     1      54.905  23.390  51.538  1.00  0.00     0.012 C 
ENDBRANCH  20  27
BRANCH  21  30
ATOM     30  O   UNL     1      55.312  23.452  56.709  1.00  0.00    -0.504 OA
ATOM     31  H   UNL     1      55.368  23.113  57.660  1.00  0.00     0.293 HD
ENDBRANCH  21  30
BRANCH  22  32
ATOM     32  O   UNL     1      55.888  22.499  54.211  1.00  0.00    -0.504 OA
ATOM     33  H   UNL     1      56.536  23.221  53.922  1.00  0.00     0.293 HD
ENDBRANCH  22  32
ENDBRANCH  11  12
BRANCH  10  34
ATOM     34  O   UNL     1      48.152  20.591  56.098  1.00  0.00    -0.507 OA
ATOM     35  H   UNL     1      48.996  20.552  56.657  1.00  0.00     0.293 HD
ENDBRANCH  10  34
BRANCH   9  36
ATOM     36  C   UNL     1      43.101  24.379  56.089  1.00  0.00     0.017 C 
ATOM     37  C   UNL     1      41.930  24.170  55.123  1.00  0.00     0.012 C 
ATOM     38  C   UNL     1      42.626  25.006  57.415  1.00  0.00     0.012 C 
ENDBRANCH   9  36
BRANCH   6  39
ATOM     39  C   UNL     1      46.169  19.689  57.633  1.00  0.00     0.264 C 
ATOM     40  O   UNL     1      47.312  19.889  58.125  1.00  0.00    -0.298 OA
ENDBRANCH   6  39
BRANCH   8  41
ATOM     41  O   UNL     1      41.863  21.872  56.754  1.00  0.00    -0.504 OA
ATOM     42  H   UNL     1      41.272  22.415  56.140  1.00  0.00     0.293 HD
ENDBRANCH   8  41
BRANCH   7  43
ATOM     43  O   UNL     1      43.404  19.746  57.845  1.00  0.00    -0.504 OA
ATOM     44  H   UNL     1      43.093  18.897  57.393  1.00  0.00     0.293 HD
ENDBRANCH   7  43
TORSDOF 11
ENDMDL
MODEL 5
REMARK VINA RESULT:    -2.012      3.153      5.806
REMARK INTER + INTRA:          -2.214
REMARK INTER:                  -2.369
REMARK INTRA:                   0.155
REMARK UNBOUND:                 0.739
REMARK SMILES Cc1cc2c(C(C)C)c(O)c(O)c(C=O)c2c(O)c1-c1c(C)cc2c(C(C)C)c(O)c(O)c(C=O)c2c1O
REMARK SMILES IDX 1 1 2 2 3 3 4 4 16 5 13 6 11 7 9 8 5 9 17 10 19 11 20 12
REMARK SMILES IDX 37 13 21 14 36 15 23 16 22 17 24 18 33 19 25 20 31 21 29 22
REMARK SMILES IDX 38 23 34 25 35 26 26 27 27 28 28 29 32 30 30 32 18 34 6 36
REMARK SMILES IDX 7 37 8 38 14 39 15 40 10 41 12 43
REMARK H PARENT 38 24 32 31 30 33 18 35 10 42 12 44
REMARK Flexibility Score: inf
ROOT
ATOM      1  C   UNL     1      53.244  19.712  51.915  1.00  0.00     0.045 C 
ATOM      2  C   UNL     1      54.094  20.808  51.320  1.00  0.00    -0.039 A 
ATOM      3  C   UNL     1      54.812  20.556  50.150  1.00  0.00     0.013 A 
ATOM      4  C   UNL     1      55.646  21.533  49.560  1.00  0.00    -0.006 A 
ATOM      5  C   UNL     1      55.697  22.836  50.146  1.00  0.00     0.039 A 
ATOM      6  C   UNL     1      56.515  23.832  49.535  1.00  0.00     0.072 A 
ATOM      7  C   UNL     1      57.107  23.584  48.284  1.00  0.00     0.169 A 
ATOM      8  C   UNL     1      56.973  22.327  47.671  1.00  0.00     0.162 A 
ATOM      9  C   UNL     1      56.391  21.250  48.375  1.00  0.00     0.008 A 
ATOM     10  C   UNL     1      54.895  23.111  51.294  1.00  0.00     0.132 A 
ATOM     11  C   UNL     1      54.125  22.089  51.890  1.00  0.00     0.031 A 
ENDROOT
BRANCH  11  12
ATOM     12  C   UNL     1      53.310  22.375  53.101  1.00  0.00     0.031 A 
ATOM     13  C   UNL     1      51.916  22.565  52.989  1.00  0.00     0.132 A 
ATOM     14  C   UNL     1      53.927  22.421  54.362  1.00  0.00    -0.039 A 
ATOM     15  C   UNL     1      51.127  22.858  54.144  1.00  0.00     0.039 A 
ATOM     16  C   UNL     1      53.157  22.671  55.496  1.00  0.00     0.013 A 
ATOM     17  C   UNL     1      55.401  22.133  54.519  1.00  0.00     0.045 C 
ATOM     18  C   UNL     1      51.775  22.951  55.416  1.00  0.00    -0.006 A 
ATOM     19  C   UNL     1      49.710  23.020  54.079  1.00  0.00     0.072 A 
ATOM     20  C   UNL     1      51.021  23.277  56.585  1.00  0.00     0.008 A 
ATOM     21  C   UNL     1      48.967  23.188  55.266  1.00  0.00     0.169 A 
ATOM     22  C   UNL     1      49.612  23.273  56.503  1.00  0.00     0.162 A 
BRANCH  13  23
ATOM     23  O   UNL     1      51.315  22.442  51.730  1.00  0.00    -0.507 OA
ATOM     24  H   UNL     1      51.598  22.967  50.913  1.00  0.00     0.293 HD
ENDBRANCH  13  23
BRANCH  19  25
ATOM     25  C   UNL     1      48.980  23.011  52.796  1.00  0.00     0.264 C 
ATOM     26  O   UNL     1      48.612  21.923  52.276  1.00  0.00    -0.298 OA
ENDBRANCH  19  25
BRANCH  20  27
ATOM     27  C   UNL     1      51.704  23.609  57.925  1.00  0.00     0.017 C 
ATOM     28  C   UNL     1      51.815  25.125  58.120  1.00  0.00     0.012 C 
ATOM     29  C   UNL     1      53.069  22.920  58.117  1.00  0.00     0.012 C 
ENDBRANCH  20  27
BRANCH  21  30
ATOM     30  O   UNL     1      47.572  23.312  55.248  1.00  0.00    -0.504 OA
ATOM     31  H   UNL     1      46.935  22.627  55.632  1.00  0.00     0.293 HD
ENDBRANCH  21  30
BRANCH  22  32
ATOM     32  O   UNL     1      48.846  23.357  57.668  1.00  0.00    -0.504 OA
ATOM     33  H   UNL     1      48.314  22.580  58.037  1.00  0.00     0.293 HD
ENDBRANCH  22  32
ENDBRANCH  11  12
BRANCH  10  34
ATOM     34  O   UNL     1      54.830  24.408  51.816  1.00  0.00    -0.507 OA
ATOM     35  H   UNL     1      53.988  24.825  52.193  1.00  0.00     0.293 HD
ENDBRANCH  10  34
BRANCH   9  36
ATOM     36  C   UNL     1      56.530  19.819  47.826  1.00  0.00     0.017 C 
ATOM     37  C   UNL     1      57.759  19.121  48.418  1.00  0.00     0.012 C 
ATOM     38  C   UNL     1      55.262  18.960  47.998  1.00  0.00     0.012 C 
ENDBRANCH   9  36
BRANCH   6  39
ATOM     39  C   UNL     1      56.839  25.111  50.213  1.00  0.00     0.264 C 
ATOM     40  O   UNL     1      57.393  25.125  51.345  1.00  0.00    -0.298 OA
ENDBRANCH   6  39
BRANCH   8  41
ATOM     41  O   UNL     1      57.403  22.128  46.356  1.00  0.00    -0.504 OA
ATOM     42  H   UNL     1      56.892  22.434  45.540  1.00  0.00     0.293 HD
ENDBRANCH   8  41
BRANCH   7  43
ATOM     43  O   UNL     1      57.872  24.596  47.690  1.00  0.00    -0.504 OA
ATOM     44  H   UNL     1      58.808  24.842  47.980  1.00  0.00     0.293 HD
ENDBRANCH   7  43
TORSDOF 11
ENDMDL
MODEL 6
REMARK VINA RESULT:    -1.647      3.236      9.934
REMARK INTER + INTRA:          -1.678
REMARK INTER:                  -1.534
REMARK INTRA:                  -0.144
REMARK UNBOUND:                 0.739
REMARK SMILES Cc1cc2c(C(C)C)c(O)c(O)c(C=O)c2c(O)c1-c1c(C)cc2c(C(C)C)c(O)c(O)c(C=O)c2c1O
REMARK SMILES IDX 1 1 2 2 3 3 4 4 16 5 13 6 11 7 9 8 5 9 17 10 19 11 20 12
REMARK SMILES IDX 37 13 21 14 36 15 23 16 22 17 24 18 33 19 25 20 31 21 29 22
REMARK SMILES IDX 38 23 34 25 35 26 26 27 27 28 28 29 32 30 30 32 18 34 6 36
REMARK SMILES IDX 7 37 8 38 14 39 15 40 10 41 12 43
REMARK H PARENT 38 24 32 31 30 33 18 35 10 42 12 44
REMARK Flexibility Score: inf
ROOT
ATOM      1  C   UNL     1      55.706  23.946  53.867  1.00  0.00     0.045 C 
ATOM      2  C   UNL     1      54.259  23.529  53.968  1.00  0.00    -0.039 A 
ATOM      3  C   UNL     1      53.601  23.637  55.194  1.00  0.00     0.013 A 
ATOM      4  C   UNL     1      52.255  23.239  55.358  1.00  0.00    -0.006 A 
ATOM      5  C   UNL     1      51.532  22.776  54.215  1.00  0.00     0.039 A 
ATOM      6  C   UNL     1      50.165  22.402  54.372  1.00  0.00     0.072 A 
ATOM      7  C   UNL     1      49.501  22.659  55.584  1.00  0.00     0.169 A 
ATOM      8  C   UNL     1      50.200  23.202  56.676  1.00  0.00     0.162 A 
ATOM      9  C   UNL     1      51.605  23.336  56.626  1.00  0.00     0.008 A 
ATOM     10  C   UNL     1      52.187  22.748  52.947  1.00  0.00     0.132 A 
ATOM     11  C   UNL     1      53.551  23.094  52.838  1.00  0.00     0.031 A 
ENDROOT
BRANCH  11  12
ATOM     12  C   UNL     1      54.234  23.039  51.518  1.00  0.00     0.031 A 
ATOM     13  C   UNL     1      55.114  21.976  51.219  1.00  0.00     0.132 A 
ATOM     14  C   UNL     1      53.974  24.028  50.557  1.00  0.00    -0.039 A 
ATOM     15  C   UNL     1      55.789  21.924  49.960  1.00  0.00     0.039 A 
ATOM     16  C   UNL     1      54.602  23.962  49.314  1.00  0.00     0.013 A 
ATOM     17  C   UNL     1      52.970  25.125  50.818  1.00  0.00     0.045 C 
ATOM     18  C   UNL     1      55.553  22.964  49.008  1.00  0.00    -0.006 A 
ATOM     19  C   UNL     1      56.658  20.847  49.604  1.00  0.00     0.072 A 
ATOM     20  C   UNL     1      56.239  22.960  47.754  1.00  0.00     0.008 A 
ATOM     21  C   UNL     1      57.202  20.785  48.306  1.00  0.00     0.169 A 
ATOM     22  C   UNL     1      56.961  21.806  47.382  1.00  0.00     0.162 A 
BRANCH  13  23
ATOM     23  O   UNL     1      55.301  20.963  52.168  1.00  0.00    -0.507 OA
ATOM     24  H   UNL     1      56.010  20.986  52.889  1.00  0.00     0.293 HD
ENDBRANCH  13  23
BRANCH  19  25
ATOM     25  C   UNL     1      57.007  19.776  50.559  1.00  0.00     0.264 C 
ATOM     26  O   UNL     1      58.128  19.203  50.496  1.00  0.00    -0.298 OA
ENDBRANCH  19  25
BRANCH  20  27
ATOM     27  C   UNL     1      56.191  24.168  46.800  1.00  0.00     0.017 C 
ATOM     28  C   UNL     1      57.400  25.083  47.016  1.00  0.00     0.012 C 
ATOM     29  C   UNL     1      54.871  24.961  46.862  1.00  0.00     0.012 C 
ENDBRANCH  20  27
BRANCH  21  30
ATOM     30  O   UNL     1      58.027  19.726  47.906  1.00  0.00    -0.504 OA
ATOM     31  H   UNL     1      57.980  18.791  48.289  1.00  0.00     0.293 HD
ENDBRANCH  21  30
BRANCH  22  32
ATOM     32  O   UNL     1      57.445  21.677  46.079  1.00  0.00    -0.504 OA
ATOM     33  H   UNL     1      58.280  22.145  45.751  1.00  0.00     0.293 HD
ENDBRANCH  22  32
ENDBRANCH  11  12
BRANCH  10  34
ATOM     34  O   UNL     1      51.472  22.417  51.790  1.00  0.00    -0.507 OA
ATOM     35  H   UNL     1      51.900  22.086  50.935  1.00  0.00     0.293 HD
ENDBRANCH  10  34
BRANCH   9  36
ATOM     36  C   UNL     1      52.387  23.631  57.919  1.00  0.00     0.017 C 
ATOM     37  C   UNL     1      53.652  22.770  58.002  1.00  0.00     0.012 C 
ATOM     38  C   UNL     1      52.712  25.123  58.124  1.00  0.00     0.012 C 
ENDBRANCH   9  36
BRANCH   6  39
ATOM     39  C   UNL     1      49.423  21.666  53.319  1.00  0.00     0.264 C 
ATOM     40  O   UNL     1      48.568  22.248  52.599  1.00  0.00    -0.298 OA
ENDBRANCH   6  39
BRANCH   8  41
ATOM     41  O   UNL     1      49.515  23.625  57.818  1.00  0.00    -0.504 OA
ATOM     42  H   UNL     1      49.196  24.571  57.970  1.00  0.00     0.293 HD
ENDBRANCH   8  41
BRANCH   7  43
ATOM     43  O   UNL     1      48.148  22.317  55.696  1.00  0.00    -0.504 OA
ATOM     44  H   UNL     1      47.682  22.128  56.573  1.00  0.00     0.293 HD
ENDBRANCH   7  43
TORSDOF 11
ENDMDL
MODEL 7
REMARK VINA RESULT:    -1.627      2.010      3.827
REMARK INTER + INTRA:          -1.648
REMARK INTER:                  -2.765
REMARK INTRA:                   1.117
REMARK UNBOUND:                 0.739
REMARK SMILES Cc1cc2c(C(C)C)c(O)c(O)c(C=O)c2c(O)c1-c1c(C)cc2c(C(C)C)c(O)c(O)c(C=O)c2c1O
REMARK SMILES IDX 1 1 2 2 3 3 4 4 16 5 13 6 11 7 9 8 5 9 17 10 19 11 20 12
REMARK SMILES IDX 37 13 21 14 36 15 23 16 22 17 24 18 33 19 25 20 31 21 29 22
REMARK SMILES IDX 38 23 34 25 35 26 26 27 27 28 28 29 32 30 30 32 18 34 6 36
REMARK SMILES IDX 7 37 8 38 14 39 15 40 10 41 12 43
REMARK H PARENT 38 24 32 31 30 33 18 35 10 42 12 44
REMARK Flexibility Score: inf
ROOT
ATOM      1  C   UNL     1      53.187  22.995  57.539  1.00  0.00     0.045 C 
ATOM      2  C   UNL     1      53.603  23.408  56.148  1.00  0.00    -0.039 A 
ATOM      3  C   UNL     1      54.961  23.535  55.851  1.00  0.00     0.013 A 
ATOM      4  C   UNL     1      55.411  23.944  54.575  1.00  0.00    -0.006 A 
ATOM      5  C   UNL     1      54.446  24.167  53.545  1.00  0.00     0.039 A 
ATOM      6  C   UNL     1      54.901  24.552  52.249  1.00  0.00     0.072 A 
ATOM      7  C   UNL     1      56.275  24.529  51.952  1.00  0.00     0.169 A 
ATOM      8  C   UNL     1      57.214  24.217  52.951  1.00  0.00     0.162 A 
ATOM      9  C   UNL     1      56.805  24.090  54.296  1.00  0.00     0.008 A 
ATOM     10  C   UNL     1      53.065  23.954  53.833  1.00  0.00     0.132 A 
ATOM     11  C   UNL     1      52.651  23.608  55.137  1.00  0.00     0.031 A 
ENDROOT
BRANCH  11  12
ATOM     12  C   UNL     1      51.207  23.411  55.437  1.00  0.00     0.031 A 
ATOM     13  C   UNL     1      50.459  22.452  54.722  1.00  0.00     0.132 A 
ATOM     14  C   UNL     1      50.600  24.158  56.460  1.00  0.00    -0.039 A 
ATOM     15  C   UNL     1      49.067  22.269  54.991  1.00  0.00     0.039 A 
ATOM     16  C   UNL     1      49.251  23.957  56.750  1.00  0.00     0.013 A 
ATOM     17  C   UNL     1      51.400  25.125  57.300  1.00  0.00     0.045 C 
ATOM     18  C   UNL     1      48.448  23.070  56.000  1.00  0.00    -0.006 A 
ATOM     19  C   UNL     1      48.283  21.284  54.315  1.00  0.00     0.072 A 
ATOM     20  C   UNL     1      47.052  22.936  56.269  1.00  0.00     0.008 A 
ATOM     21  C   UNL     1      46.946  21.064  54.704  1.00  0.00     0.169 A 
ATOM     22  C   UNL     1      46.354  21.852  55.696  1.00  0.00     0.162 A 
BRANCH  13  23
ATOM     23  O   UNL     1      51.105  21.670  53.757  1.00  0.00    -0.507 OA
ATOM     24  H   UNL     1      52.101  21.490  53.748  1.00  0.00     0.293 HD
ENDBRANCH  13  23
BRANCH  19  25
ATOM     25  C   UNL     1      48.831  20.470  53.212  1.00  0.00     0.264 C 
ATOM     26  O   UNL     1      48.619  20.793  52.012  1.00  0.00    -0.298 OA
ENDBRANCH  19  25
BRANCH  20  27
ATOM     27  C   UNL     1      46.302  23.927  57.179  1.00  0.00     0.017 C 
ATOM     28  C   UNL     1      45.337  23.189  58.113  1.00  0.00     0.012 C 
ATOM     29  C   UNL     1      45.585  25.057  56.415  1.00  0.00     0.012 C 
ENDBRANCH  20  27
BRANCH  21  30
ATOM     30  O   UNL     1      46.156  20.082  54.093  1.00  0.00    -0.504 OA
ATOM     31  H   UNL     1      46.194  19.851  53.109  1.00  0.00     0.293 HD
ENDBRANCH  21  30
BRANCH  22  32
ATOM     32  O   UNL     1      45.055  21.557  56.117  1.00  0.00    -0.504 OA
ATOM     33  H   UNL     1      44.231  21.966  55.695  1.00  0.00     0.293 HD
ENDBRANCH  22  32
ENDBRANCH  11  12
BRANCH  10  34
ATOM     34  O   UNL     1      52.109  24.045  52.815  1.00  0.00    -0.507 OA
ATOM     35  H   UNL     1      51.262  23.491  52.781  1.00  0.00     0.293 HD
ENDBRANCH  10  34
BRANCH   9  36
ATOM     36  C   UNL     1      57.864  24.061  55.413  1.00  0.00     0.017 C 
ATOM     37  C   UNL     1      57.568  25.124  56.477  1.00  0.00     0.012 C 
ATOM     38  C   UNL     1      58.060  22.672  56.051  1.00  0.00     0.012 C 
ENDBRANCH   9  36
BRANCH   6  39
ATOM     39  C   UNL     1      53.976  25.060  51.207  1.00  0.00     0.264 C 
ATOM     40  O   UNL     1      53.704  24.372  50.187  1.00  0.00    -0.298 OA
ENDBRANCH   6  39
BRANCH   8  41
ATOM     41  O   UNL     1      58.558  24.019  52.625  1.00  0.00    -0.504 OA
ATOM     42  H   UNL     1      59.081  23.187  52.860  1.00  0.00     0.293 HD
ENDBRANCH   8  41
BRANCH   7  43
ATOM     43  O   UNL     1      56.690  24.873  50.659  1.00  0.00    -0.504 OA
ATOM     44  H   UNL     1      57.298  24.302  50.089  1.00  0.00     0.293 HD
ENDBRANCH   7  43
TORSDOF 11
ENDMDL
MODEL 8
REMARK VINA RESULT:    -0.375      0.767      9.234
REMARK INTER + INTRA:           0.190
REMARK INTER:                  -2.900
REMARK INTRA:                   3.090
REMARK UNBOUND:                 0.739
REMARK SMILES Cc1cc2c(C(C)C)c(O)c(O)c(C=O)c2c(O)c1-c1c(C)cc2c(C(C)C)c(O)c(O)c(C=O)c2c1O
REMARK SMILES IDX 1 1 2 2 3 3 4 4 16 5 13 6 11 7 9 8 5 9 17 10 19 11 20 12
REMARK SMILES IDX 37 13 21 14 36 15 23 16 22 17 24 18 33 19 25 20 31 21 29 22
REMARK SMILES IDX 38 23 34 25 35 26 26 27 27 28 28 29 32 30 30 32 18 34 6 36
REMARK SMILES IDX 7 37 8 38 14 39 15 40 10 41 12 43
REMARK H PARENT 38 24 32 31 30 33 18 35 10 42 12 44
REMARK Flexibility Score: inf
ROOT
ATOM      1  C   UNL     1      49.991  25.125  55.934  1.00  0.00     0.045 C 
ATOM      2  C   UNL     1      49.065  23.937  55.833  1.00  0.00    -0.039 A 
ATOM      3  C   UNL     1      47.809  23.996  56.438  1.00  0.00     0.013 A 
ATOM      4  C   UNL     1      46.909  22.907  56.399  1.00  0.00    -0.006 A 
ATOM      5  C   UNL     1      47.275  21.740  55.661  1.00  0.00     0.039 A 
ATOM      6  C   UNL     1      46.356  20.651  55.597  1.00  0.00     0.072 A 
ATOM      7  C   UNL     1      45.051  20.804  56.096  1.00  0.00     0.169 A 
ATOM      8  C   UNL     1      44.671  21.994  56.740  1.00  0.00     0.162 A 
ATOM      9  C   UNL     1      45.636  22.978  57.045  1.00  0.00     0.008 A 
ATOM     10  C   UNL     1      48.526  21.719  54.975  1.00  0.00     0.132 A 
ATOM     11  C   UNL     1      49.424  22.802  55.091  1.00  0.00     0.031 A 
ENDROOT
BRANCH  11  12
ATOM     12  C   UNL     1      50.737  22.764  54.393  1.00  0.00     0.031 A 
ATOM     13  C   UNL     1      51.936  22.776  55.138  1.00  0.00     0.132 A 
ATOM     14  C   UNL     1      50.780  22.679  52.992  1.00  0.00    -0.039 A 
ATOM     15  C   UNL     1      53.203  22.757  54.476  1.00  0.00     0.039 A 
ATOM     16  C   UNL     1      52.013  22.625  52.343  1.00  0.00     0.013 A 
ATOM     17  C   UNL     1      49.512  22.574  52.178  1.00  0.00     0.045 C 
ATOM     18  C   UNL     1      53.234  22.721  53.047  1.00  0.00    -0.006 A 
ATOM     19  C   UNL     1      54.438  22.732  55.192  1.00  0.00     0.072 A 
ATOM     20  C   UNL     1      54.483  22.737  52.354  1.00  0.00     0.008 A 
ATOM     21  C   UNL     1      55.654  22.592  54.492  1.00  0.00     0.169 A 
ATOM     22  C   UNL     1      55.669  22.554  53.095  1.00  0.00     0.162 A 
BRANCH  13  23
ATOM     23  O   UNL     1      51.866  22.787  56.536  1.00  0.00    -0.507 OA
ATOM     24  H   UNL     1      51.259  23.398  57.068  1.00  0.00     0.293 HD
ENDBRANCH  13  23
BRANCH  19  25
ATOM     25  C   UNL     1      54.491  22.840  56.664  1.00  0.00     0.264 C 
ATOM     26  O   UNL     1      55.584  22.710  57.278  1.00  0.00    -0.298 OA
ENDBRANCH  19  25
BRANCH  20  27
ATOM     27  C   UNL     1      54.561  22.928  50.827  1.00  0.00     0.017 C 
ATOM     28  C   UNL     1      53.323  23.664  50.304  1.00  0.00     0.012 C 
ATOM     29  C   UNL     1      54.806  21.622  50.046  1.00  0.00     0.012 C 
ENDBRANCH  20  27
BRANCH  21  30
ATOM     30  O   UNL     1      56.883  22.524  55.160  1.00  0.00    -0.504 OA
ATOM     31  H   UNL     1      57.618  23.212  55.071  1.00  0.00     0.293 HD
ENDBRANCH  21  30
BRANCH  22  32
ATOM     32  O   UNL     1      56.879  22.333  52.431  1.00  0.00    -0.504 OA
ATOM     33  H   UNL     1      57.666  22.966  52.493  1.00  0.00     0.293 HD
ENDBRANCH  22  32
ENDBRANCH  11  12
BRANCH  10  34
ATOM     34  O   UNL     1      48.859  20.642  54.145  1.00  0.00    -0.507 OA
ATOM     35  H   UNL     1      48.213  20.202  53.501  1.00  0.00     0.293 HD
ENDBRANCH  10  34
BRANCH   9  36
ATOM     36  C   UNL     1      45.280  24.120  58.014  1.00  0.00     0.017 C 
ATOM     37  C   UNL     1      46.432  25.124  58.125  1.00  0.00     0.012 C 
ATOM     38  C   UNL     1      43.951  24.827  57.683  1.00  0.00     0.012 C 
ENDBRANCH   9  36
BRANCH   6  39
ATOM     39  C   UNL     1      46.751  19.314  55.090  1.00  0.00     0.264 C 
ATOM     40  O   UNL     1      46.180  18.804  54.089  1.00  0.00    -0.298 OA
ENDBRANCH   6  39
BRANCH   8  41
ATOM     41  O   UNL     1      43.334  22.223  57.078  1.00  0.00    -0.504 OA
ATOM     42  H   UNL     1      42.937  22.026  57.986  1.00  0.00     0.293 HD
ENDBRANCH   8  41
BRANCH   7  43
ATOM     43  O   UNL     1      44.157  19.731  55.983  1.00  0.00    -0.504 OA
ATOM     44  H   UNL     1      43.377  19.576  56.607  1.00  0.00     0.293 HD
ENDBRANCH   7  43
TORSDOF 11
ENDMDL
