MODEL 1
REMARK VINA RESULT:    -5.186      0.000      0.000
REMARK INTER + INTRA:          -5.186
REMARK INTER:                  -5.186
REMARK INTRA:                   0.000
REMARK UNBOUND:                 0.000
REMARK SMILES O=c1ccc2ccccc2o1
REMARK SMILES IDX 7 1 8 2 9 3 10 4 5 5 6 6 4 7 3 8 2 9 1 10 11 11
REMARK H PARENT
REMARK Flexibility Score: inf
ROOT
ATOM      1  C   UNL     1      29.893  -5.428  30.434  1.00  0.00     0.001 A 
ATOM      2  C   UNL     1      28.622  -5.863  30.825  1.00  0.00     0.004 A 
ATOM      3  C   UNL     1      27.545  -4.971  30.836  1.00  0.00     0.048 A 
ATOM      4  C   UNL     1      27.734  -3.639  30.455  1.00  0.00     0.138 A 
ATOM      5  C   UNL     1      29.017  -3.198  30.060  1.00  0.00     0.018 A 
ATOM      6  C   UNL     1      30.094  -4.097  30.051  1.00  0.00     0.012 A 
ATOM      7  C   UNL     1      29.177  -1.861  29.685  1.00  0.00     0.019 A 
ATOM      8  C   UNL     1      28.074  -1.007  29.711  1.00  0.00     0.094 A 
ATOM      9  C   UNL     1      26.834  -1.513  30.112  1.00  0.00     0.336 A 
ATOM     10  O   UNL     1      25.826  -0.758  30.142  1.00  0.00    -0.246 OA
ATOM     11  O   UNL     1      26.709  -2.790  30.465  1.00  0.00    -0.423 OA
ENDROOT
TORSDOF 0
ENDMDL
MODEL 2
REMARK VINA RESULT:    -5.052      1.558      2.302
REMARK INTER + INTRA:          -5.052
REMARK INTER:                  -5.052
REMARK INTRA:                   0.000
REMARK UNBOUND:                 0.000
REMARK SMILES O=c1ccc2ccccc2o1
REMARK SMILES IDX 7 1 8 2 9 3 10 4 5 5 6 6 4 7 3 8 2 9 1 10 11 11
REMARK H PARENT
REMARK Flexibility Score: inf
ROOT
ATOM      1  C   UNL     1      28.253  -5.568  30.759  1.00  0.00     0.001 A 
ATOM      2  C   UNL     1      29.589  -5.371  30.393  1.00  0.00     0.004 A 
ATOM      3  C   UNL     1      30.038  -4.099  30.021  1.00  0.00     0.048 A 
ATOM      4  C   UNL     1      29.151  -3.018  30.013  1.00  0.00     0.138 A 
ATOM      5  C   UNL     1      27.801  -3.215  30.383  1.00  0.00     0.018 A 
ATOM      6  C   UNL     1      27.357  -4.493  30.755  1.00  0.00     0.012 A 
ATOM      7  C   UNL     1      26.938  -2.116  30.366  1.00  0.00     0.019 A 
ATOM      8  C   UNL     1      27.429  -0.866  29.989  1.00  0.00     0.094 A 
ATOM      9  C   UNL     1      28.777  -0.746  29.636  1.00  0.00     0.336 A 
ATOM     10  O   UNL     1      29.239   0.375  29.292  1.00  0.00    -0.246 OA
ATOM     11  O   UNL     1      29.578  -1.808  29.660  1.00  0.00    -0.423 OA
ENDROOT
TORSDOF 0
ENDMDL
MODEL 3
REMARK VINA RESULT:    -5.014      1.563      3.847
REMARK INTER + INTRA:          -5.014
REMARK INTER:                  -5.014
REMARK INTRA:                   0.000
REMARK UNBOUND:                 0.000
REMARK SMILES O=c1ccc2ccccc2o1
REMARK SMILES IDX 7 1 8 2 9 3 10 4 5 5 6 6 4 7 3 8 2 9 1 10 11 11
REMARK H PARENT
REMARK Flexibility Score: inf
ROOT
ATOM      1  C   UNL     1      29.494   0.785  30.875  1.00  0.00     0.001 A 
ATOM      2  C   UNL     1      28.141   0.843  31.223  1.00  0.00     0.004 A 
ATOM      3  C   UNL     1      27.356  -0.314  31.195  1.00  0.00     0.048 A 
ATOM      4  C   UNL     1      27.923  -1.536  30.819  1.00  0.00     0.138 A 
ATOM      5  C   UNL     1      29.290  -1.596  30.466  1.00  0.00     0.018 A 
ATOM      6  C   UNL     1      30.072  -0.432  30.496  1.00  0.00     0.012 A 
ATOM      7  C   UNL     1      29.829  -2.831  30.094  1.00  0.00     0.019 A 
ATOM      8  C   UNL     1      29.009  -3.959  30.081  1.00  0.00     0.094 A 
ATOM      9  C   UNL     1      27.665  -3.824  30.442  1.00  0.00     0.336 A 
ATOM     10  O   UNL     1      26.908  -4.832  30.436  1.00  0.00    -0.246 OA
ATOM     11  O   UNL     1      27.176  -2.638  30.792  1.00  0.00    -0.423 OA
ENDROOT
TORSDOF 0
ENDMDL
MODEL 4
REMARK VINA RESULT:    -5.000      1.641      3.846
REMARK INTER + INTRA:          -5.000
REMARK INTER:                  -5.000
REMARK INTRA:                   0.000
REMARK UNBOUND:                 0.000
REMARK SMILES O=c1ccc2ccccc2o1
REMARK SMILES IDX 7 1 8 2 9 3 10 4 5 5 6 6 4 7 3 8 2 9 1 10 11 11
REMARK H PARENT
REMARK Flexibility Score: inf
ROOT
ATOM      1  C   UNL     1      28.198  -1.040  29.554  1.00  0.00     0.001 A 
ATOM      2  C   UNL     1      26.951  -1.490  30.002  1.00  0.00     0.004 A 
ATOM      3  C   UNL     1      26.799  -2.803  30.460  1.00  0.00     0.048 A 
ATOM      4  C   UNL     1      27.895  -3.672  30.472  1.00  0.00     0.138 A 
ATOM      5  C   UNL     1      29.154  -3.219  30.020  1.00  0.00     0.018 A 
ATOM      6  C   UNL     1      29.301  -1.901  29.561  1.00  0.00     0.012 A 
ATOM      7  C   UNL     1      30.232  -4.110  30.043  1.00  0.00     0.019 A 
ATOM      8  C   UNL     1      30.034  -5.410  30.509  1.00  0.00     0.094 A 
ATOM      9  C   UNL     1      28.759  -5.788  30.941  1.00  0.00     0.336 A 
ATOM     10  O   UNL     1      28.561  -6.958  31.365  1.00  0.00    -0.246 OA
ATOM     11  O   UNL     1      27.750  -4.921  30.908  1.00  0.00    -0.423 OA
ENDROOT
TORSDOF 0
ENDMDL
MODEL 5
REMARK VINA RESULT:    -4.973      2.063      4.451
REMARK INTER + INTRA:          -4.973
REMARK INTER:                  -4.973
REMARK INTRA:                   0.000
REMARK UNBOUND:                 0.000
REMARK SMILES O=c1ccc2ccccc2o1
REMARK SMILES IDX 7 1 8 2 9 3 10 4 5 5 6 6 4 7 3 8 2 9 1 10 11 11
REMARK H PARENT
REMARK Flexibility Score: inf
ROOT
ATOM      1  C   UNL     1      28.081   0.798  31.143  1.00  0.00     0.001 A 
ATOM      2  C   UNL     1      29.454   0.749  30.882  1.00  0.00     0.004 A 
ATOM      3  C   UNL     1      30.067  -0.465  30.555  1.00  0.00     0.048 A 
ATOM      4  C   UNL     1      29.307  -1.637  30.488  1.00  0.00     0.138 A 
ATOM      5  C   UNL     1      27.920  -1.589  30.751  1.00  0.00     0.018 A 
ATOM      6  C   UNL     1      27.311  -0.369  31.078  1.00  0.00     0.012 A 
ATOM      7  C   UNL     1      27.186  -2.777  30.676  1.00  0.00     0.019 A 
ATOM      8  C   UNL     1      27.838  -3.965  30.347  1.00  0.00     0.094 A 
ATOM      9  C   UNL     1      29.214  -3.936  30.099  1.00  0.00     0.336 A 
ATOM     10  O   UNL     1      29.821  -4.999  29.800  1.00  0.00    -0.246 OA
ATOM     11  O   UNL     1      29.890  -2.793  30.177  1.00  0.00    -0.423 OA
ENDROOT
TORSDOF 0
ENDMDL
MODEL 6
REMARK VINA RESULT:    -4.964      1.121      1.222
REMARK INTER + INTRA:          -4.964
REMARK INTER:                  -4.964
REMARK INTRA:                   0.000
REMARK UNBOUND:                 0.000
REMARK SMILES O=c1ccc2ccccc2o1
REMARK SMILES IDX 7 1 8 2 9 3 10 4 5 5 6 6 4 7 3 8 2 9 1 10 11 11
REMARK H PARENT
REMARK Flexibility Score: inf
ROOT
ATOM      1  C   UNL     1      29.145  -5.142  29.983  1.00  0.00     0.001 A 
ATOM      2  C   UNL     1      27.796  -5.166  30.355  1.00  0.00     0.004 A 
ATOM      3  C   UNL     1      27.129  -3.976  30.664  1.00  0.00     0.048 A 
ATOM      4  C   UNL     1      27.808  -2.755  30.601  1.00  0.00     0.138 A 
ATOM      5  C   UNL     1      29.170  -2.729  30.226  1.00  0.00     0.018 A 
ATOM      6  C   UNL     1      29.834  -3.926  29.918  1.00  0.00     0.012 A 
ATOM      7  C   UNL     1      29.823  -1.494  30.172  1.00  0.00     0.019 A 
ATOM      8  C   UNL     1      29.118  -0.333  30.488  1.00  0.00     0.094 A 
ATOM      9  C   UNL     1      27.771  -0.436  30.851  1.00  0.00     0.336 A 
ATOM     10  O   UNL     1      27.118   0.602  31.140  1.00  0.00    -0.246 OA
ATOM     11  O   UNL     1      27.173  -1.623  30.895  1.00  0.00    -0.423 OA
ENDROOT
TORSDOF 0
ENDMDL
MODEL 7
REMARK VINA RESULT:    -4.961      2.282      4.244
REMARK INTER + INTRA:          -4.961
REMARK INTER:                  -4.961
REMARK INTRA:                   0.000
REMARK UNBOUND:                 0.000
REMARK SMILES O=c1ccc2ccccc2o1
REMARK SMILES IDX 7 1 8 2 9 3 10 4 5 5 6 6 4 7 3 8 2 9 1 10 11 11
REMARK H PARENT
REMARK Flexibility Score: inf
ROOT
ATOM      1  C   UNL     1      28.291  -1.354  30.847  1.00  0.00     0.001 A 
ATOM      2  C   UNL     1      29.624  -1.580  30.487  1.00  0.00     0.004 A 
ATOM      3  C   UNL     1      30.039  -2.854  30.085  1.00  0.00     0.048 A 
ATOM      4  C   UNL     1      29.122  -3.909  30.041  1.00  0.00     0.138 A 
ATOM      5  C   UNL     1      27.775  -3.682  30.404  1.00  0.00     0.018 A 
ATOM      6  C   UNL     1      27.364  -2.403  30.807  1.00  0.00     0.012 A 
ATOM      7  C   UNL     1      26.880  -4.755  30.350  1.00  0.00     0.019 A 
ATOM      8  C   UNL     1      27.339  -6.008  29.943  1.00  0.00     0.094 A 
ATOM      9  C   UNL     1      28.686  -6.158  29.598  1.00  0.00     0.336 A 
ATOM     10  O   UNL     1      29.118  -7.281  29.228  1.00  0.00    -0.246 OA
ATOM     11  O   UNL     1      29.517  -5.121  29.659  1.00  0.00    -0.423 OA
ENDROOT
TORSDOF 0
ENDMDL
MODEL 8
REMARK VINA RESULT:    -4.881      3.609      6.280
REMARK INTER + INTRA:          -4.881
REMARK INTER:                  -4.881
REMARK INTRA:                   0.000
REMARK UNBOUND:                 0.000
REMARK SMILES O=c1ccc2ccccc2o1
REMARK SMILES IDX 7 1 8 2 9 3 10 4 5 5 6 6 4 7 3 8 2 9 1 10 11 11
REMARK H PARENT
REMARK Flexibility Score: inf
ROOT
ATOM      1  C   UNL     1      28.020   4.364  30.997  1.00  0.00     0.001 A 
ATOM      2  C   UNL     1      27.546   4.293  29.683  1.00  0.00     0.004 A 
ATOM      3  C   UNL     1      27.539   3.072  29.001  1.00  0.00     0.048 A 
ATOM      4  C   UNL     1      28.007   1.915  29.631  1.00  0.00     0.138 A 
ATOM      5  C   UNL     1      28.487   1.985  30.958  1.00  0.00     0.018 A 
ATOM      6  C   UNL     1      28.492   3.212  31.637  1.00  0.00     0.012 A 
ATOM      7  C   UNL     1      28.949   0.812  31.563  1.00  0.00     0.019 A 
ATOM      8  C   UNL     1      28.923  -0.384  30.845  1.00  0.00     0.094 A 
ATOM      9  C   UNL     1      28.434  -0.377  29.535  1.00  0.00     0.336 A 
ATOM     10  O   UNL     1      28.403  -1.447  28.871  1.00  0.00    -0.246 OA
ATOM     11  O   UNL     1      28.001   0.753  28.982  1.00  0.00    -0.423 OA
ENDROOT
TORSDOF 0
ENDMDL
MODEL 9
REMARK VINA RESULT:    -4.835      3.784      6.460
REMARK INTER + INTRA:          -4.835
REMARK INTER:                  -4.835
REMARK INTRA:                   0.000
REMARK UNBOUND:                 0.000
REMARK SMILES O=c1ccc2ccccc2o1
REMARK SMILES IDX 7 1 8 2 9 3 10 4 5 5 6 6 4 7 3 8 2 9 1 10 11 11
REMARK H PARENT
REMARK Flexibility Score: inf
ROOT
ATOM      1  C   UNL     1      27.451   4.388  29.590  1.00  0.00     0.001 A 
ATOM      2  C   UNL     1      27.951   4.544  30.887  1.00  0.00     0.004 A 
ATOM      3  C   UNL     1      28.410   3.433  31.603  1.00  0.00     0.048 A 
ATOM      4  C   UNL     1      28.372   2.161  31.024  1.00  0.00     0.138 A 
ATOM      5  C   UNL     1      27.867   2.002  29.713  1.00  0.00     0.018 A 
ATOM      6  C   UNL     1      27.407   3.119  29.000  1.00  0.00     0.012 A 
ATOM      7  C   UNL     1      27.841   0.718  29.160  1.00  0.00     0.019 A 
ATOM      8  C   UNL     1      28.309  -0.359  29.911  1.00  0.00     0.094 A 
ATOM      9  C   UNL     1      28.795  -0.127  31.201  1.00  0.00     0.336 A 
ATOM     10  O   UNL     1      29.223  -1.088  31.895  1.00  0.00    -0.246 OA
ATOM     11  O   UNL     1      28.809   1.104  31.705  1.00  0.00    -0.423 OA
ENDROOT
TORSDOF 0
ENDMDL
