MODEL 1
REMARK VINA RESULT:    -6.648      0.000      0.000
REMARK INTER + INTRA:          -9.058
REMARK INTER:                  -8.397
REMARK INTRA:                  -0.660
REMARK UNBOUND:                -0.660
REMARK SMILES O=C(C=Cc1ccc(O)cc1)c1ccc(O)cc1O
REMARK SMILES IDX 4 1 3 2 5 3 6 4 7 5 8 6 11 7 10 8 9 9 2 11 1 12 12 13 18 14
REMARK SMILES IDX 13 15 17 16 14 17 15 18 19 19 16 21
REMARK H PARENT 9 10 19 20 16 22
REMARK Flexibility Score: inf
ROOT
ATOM      1  C   UNL     1     -13.387 -41.622 -15.193  1.00  0.00     0.012 C 
ATOM      2  C   UNL     1     -13.897 -40.383 -15.148  1.00  0.00     0.053 C 
ENDROOT
BRANCH   1   3
ATOM      3  C   UNL     1     -11.955 -41.931 -14.958  1.00  0.00    -0.025 A 
ATOM      4  C   UNL     1     -11.614 -43.195 -14.446  1.00  0.00     0.012 A 
ATOM      5  C   UNL     1     -10.279 -43.526 -14.199  1.00  0.00     0.047 A 
ATOM      6  C   UNL     1      -9.265 -42.597 -14.448  1.00  0.00     0.115 A 
ATOM      7  C   UNL     1     -10.929 -40.993 -15.191  1.00  0.00     0.012 A 
ATOM      8  C   UNL     1      -9.594 -41.329 -14.942  1.00  0.00     0.047 A 
BRANCH   6   9
ATOM      9  O   UNL     1      -7.939 -42.942 -14.197  1.00  0.00    -0.508 OA
ATOM     10  H   UNL     1      -7.700 -43.745 -13.626  1.00  0.00     0.293 HD
ENDBRANCH   6   9
ENDBRANCH   1   3
BRANCH   2  11
ATOM     11  C   UNL     1     -15.329 -40.111 -15.407  1.00  0.00     0.189 C 
ATOM     12  O   UNL     1     -16.185 -40.360 -14.513  1.00  0.00    -0.289 OA
BRANCH  11  13
ATOM     13  C   UNL     1     -15.778 -39.558 -16.710  1.00  0.00     0.064 A 
ATOM     14  C   UNL     1     -16.651 -40.287 -17.546  1.00  0.00     0.130 A 
ATOM     15  C   UNL     1     -15.352 -38.280 -17.121  1.00  0.00     0.020 A 
ATOM     16  C   UNL     1     -17.078 -39.739 -18.765  1.00  0.00     0.093 A 
ATOM     17  C   UNL     1     -15.779 -37.744 -18.338  1.00  0.00     0.047 A 
ATOM     18  C   UNL     1     -16.643 -38.473 -19.163  1.00  0.00     0.119 A 
BRANCH  14  19
ATOM     19  O   UNL     1     -17.086 -41.560 -17.174  1.00  0.00    -0.507 OA
ATOM     20  H   UNL     1     -17.997 -41.911 -17.445  1.00  0.00     0.293 HD
ENDBRANCH  14  19
BRANCH  18  21
ATOM     21  O   UNL     1     -17.076 -37.948 -20.379  1.00  0.00    -0.508 OA
ATOM     22  H   UNL     1     -18.062 -37.826 -20.581  1.00  0.00     0.293 HD
ENDBRANCH  18  21
ENDBRANCH  11  13
ENDBRANCH   2  11
TORSDOF 6
ENDMDL
MODEL 2
REMARK VINA RESULT:    -6.629      1.706      2.049
REMARK INTER + INTRA:          -9.033
REMARK INTER:                  -8.283
REMARK INTRA:                  -0.750
REMARK UNBOUND:                -0.660
REMARK SMILES O=C(C=Cc1ccc(O)cc1)c1ccc(O)cc1O
REMARK SMILES IDX 4 1 3 2 5 3 6 4 7 5 8 6 11 7 10 8 9 9 2 11 1 12 12 13 18 14
REMARK SMILES IDX 13 15 17 16 14 17 15 18 19 19 16 21
REMARK H PARENT 9 10 19 20 16 22
REMARK Flexibility Score: inf
ROOT
ATOM      1  C   UNL     1     -13.755 -42.396 -15.899  1.00  0.00     0.012 C 
ATOM      2  C   UNL     1     -14.850 -42.053 -15.205  1.00  0.00     0.053 C 
ENDROOT
BRANCH   1   3
ATOM      3  C   UNL     1     -12.371 -42.111 -15.449  1.00  0.00    -0.025 A 
ATOM      4  C   UNL     1     -11.832 -42.877 -14.401  1.00  0.00     0.012 A 
ATOM      5  C   UNL     1     -10.536 -42.636 -13.936  1.00  0.00     0.047 A 
ATOM      6  C   UNL     1      -9.763 -41.619 -14.504  1.00  0.00     0.115 A 
ATOM      7  C   UNL     1     -11.591 -41.076 -16.005  1.00  0.00     0.012 A 
ATOM      8  C   UNL     1     -10.295 -40.839 -15.537  1.00  0.00     0.047 A 
BRANCH   6   9
ATOM      9  O   UNL     1      -8.472 -41.391 -14.031  1.00  0.00    -0.508 OA
ATOM     10  H   UNL     1      -8.246 -40.564 -13.491  1.00  0.00     0.293 HD
ENDBRANCH   6   9
ENDBRANCH   1   3
BRANCH   2  11
ATOM     11  C   UNL     1     -16.217 -42.338 -15.696  1.00  0.00     0.189 C 
ATOM     12  O   UNL     1     -17.009 -43.015 -14.984  1.00  0.00    -0.289 OA
BRANCH  11  13
ATOM     13  C   UNL     1     -16.669 -41.847 -17.023  1.00  0.00     0.064 A 
ATOM     14  C   UNL     1     -17.182 -42.739 -17.990  1.00  0.00     0.130 A 
ATOM     15  C   UNL     1     -16.612 -40.473 -17.327  1.00  0.00     0.020 A 
ATOM     16  C   UNL     1     -17.621 -42.253 -19.231  1.00  0.00     0.093 A 
ATOM     17  C   UNL     1     -17.049 -39.999 -18.566  1.00  0.00     0.047 A 
ATOM     18  C   UNL     1     -17.553 -40.888 -19.521  1.00  0.00     0.119 A 
BRANCH  14  19
ATOM     19  O   UNL     1     -17.245 -44.108 -17.726  1.00  0.00    -0.507 OA
ATOM     20  H   UNL     1     -16.901 -44.794 -18.389  1.00  0.00     0.293 HD
ENDBRANCH  14  19
BRANCH  18  21
ATOM     21  O   UNL     1     -17.992 -40.426 -20.760  1.00  0.00    -0.508 OA
ATOM     22  H   UNL     1     -17.664 -40.840 -21.626  1.00  0.00     0.293 HD
ENDBRANCH  18  21
ENDBRANCH  11  13
ENDBRANCH   2  11
TORSDOF 6
ENDMDL
MODEL 3
REMARK VINA RESULT:    -6.562      1.252      1.842
REMARK INTER + INTRA:          -8.948
REMARK INTER:                  -8.304
REMARK INTRA:                  -0.644
REMARK UNBOUND:                -0.660
REMARK SMILES O=C(C=Cc1ccc(O)cc1)c1ccc(O)cc1O
REMARK SMILES IDX 4 1 3 2 5 3 6 4 7 5 8 6 11 7 10 8 9 9 2 11 1 12 12 13 18 14
REMARK SMILES IDX 13 15 17 16 14 17 15 18 19 19 16 21
REMARK H PARENT 9 10 19 20 16 22
REMARK Flexibility Score: inf
ROOT
ATOM      1  C   UNL     1     -13.578 -41.645 -15.686  1.00  0.00     0.012 C 
ATOM      2  C   UNL     1     -13.934 -41.594 -16.978  1.00  0.00     0.053 C 
ENDROOT
BRANCH   1   3
ATOM      3  C   UNL     1     -12.184 -41.853 -15.224  1.00  0.00    -0.025 A 
ATOM      4  C   UNL     1     -11.218 -40.884 -15.540  1.00  0.00     0.012 A 
ATOM      5  C   UNL     1      -9.890 -41.043 -15.135  1.00  0.00     0.047 A 
ATOM      6  C   UNL     1      -9.504 -42.179 -14.417  1.00  0.00     0.115 A 
ATOM      7  C   UNL     1     -11.785 -43.004 -14.513  1.00  0.00     0.012 A 
ATOM      8  C   UNL     1     -10.455 -43.160 -14.110  1.00  0.00     0.047 A 
BRANCH   6   9
ATOM      9  O   UNL     1      -8.177 -42.324 -14.019  1.00  0.00    -0.508 OA
ATOM     10  H   UNL     1      -7.886 -43.088 -13.420  1.00  0.00     0.293 HD
ENDBRANCH   6   9
ENDBRANCH   1   3
BRANCH   2  11
ATOM     11  C   UNL     1     -15.340 -41.404 -17.401  1.00  0.00     0.189 C 
ATOM     12  O   UNL     1     -16.142 -42.377 -17.362  1.00  0.00    -0.289 OA
BRANCH  11  13
ATOM     13  C   UNL     1     -15.821 -40.084 -17.882  1.00  0.00     0.064 A 
ATOM     14  C   UNL     1     -16.760 -39.992 -18.933  1.00  0.00     0.130 A 
ATOM     15  C   UNL     1     -15.359 -38.899 -17.277  1.00  0.00     0.020 A 
ATOM     16  C   UNL     1     -17.215 -38.736 -19.360  1.00  0.00     0.093 A 
ATOM     17  C   UNL     1     -15.816 -37.652 -17.713  1.00  0.00     0.047 A 
ATOM     18  C   UNL     1     -16.744 -37.569 -18.755  1.00  0.00     0.119 A 
BRANCH  14  19
ATOM     19  O   UNL     1     -17.232 -41.146 -19.561  1.00  0.00    -0.507 OA
ATOM     20  H   UNL     1     -16.626 -41.936 -19.748  1.00  0.00     0.293 HD
ENDBRANCH  14  19
BRANCH  18  21
ATOM     21  O   UNL     1     -17.207 -36.331 -19.197  1.00  0.00    -0.508 OA
ATOM     22  H   UNL     1     -16.611 -35.510 -19.191  1.00  0.00     0.293 HD
ENDBRANCH  18  21
ENDBRANCH  11  13
ENDBRANCH   2  11
TORSDOF 6
ENDMDL
MODEL 4
REMARK VINA RESULT:    -6.236      4.269      5.716
REMARK INTER + INTRA:          -8.537
REMARK INTER:                  -7.860
REMARK INTRA:                  -0.677
REMARK UNBOUND:                -0.660
REMARK SMILES O=C(C=Cc1ccc(O)cc1)c1ccc(O)cc1O
REMARK SMILES IDX 4 1 3 2 5 3 6 4 7 5 8 6 11 7 10 8 9 9 2 11 1 12 12 13 18 14
REMARK SMILES IDX 13 15 17 16 14 17 15 18 19 19 16 21
REMARK H PARENT 9 10 19 20 16 22
REMARK Flexibility Score: inf
ROOT
ATOM      1  C   UNL     1     -11.967 -39.625 -18.826  1.00  0.00     0.012 C 
ATOM      2  C   UNL     1     -11.531 -40.780 -18.300  1.00  0.00     0.053 C 
ENDROOT
BRANCH   1   3
ATOM      3  C   UNL     1     -11.077 -38.623 -19.462  1.00  0.00    -0.025 A 
ATOM      4  C   UNL     1      -9.752 -38.988 -19.755  1.00  0.00     0.012 A 
ATOM      5  C   UNL     1      -8.876 -38.073 -20.345  1.00  0.00     0.047 A 
ATOM      6  C   UNL     1      -9.306 -36.776 -20.640  1.00  0.00     0.115 A 
ATOM      7  C   UNL     1     -11.500 -37.309 -19.748  1.00  0.00     0.012 A 
ATOM      8  C   UNL     1     -10.619 -36.396 -20.338  1.00  0.00     0.047 A 
BRANCH   6   9
ATOM      9  O   UNL     1      -8.421 -35.876 -21.229  1.00  0.00    -0.508 OA
ATOM     10  H   UNL     1      -7.430 -36.075 -21.296  1.00  0.00     0.293 HD
ENDBRANCH   6   9
ENDBRANCH   1   3
BRANCH   2  11
ATOM     11  C   UNL     1     -12.447 -41.747 -17.655  1.00  0.00     0.189 C 
ATOM     12  O   UNL     1     -12.304 -42.983 -17.869  1.00  0.00    -0.289 OA
BRANCH  11  13
ATOM     13  C   UNL     1     -13.543 -41.285 -16.765  1.00  0.00     0.064 A 
ATOM     14  C   UNL     1     -14.869 -41.734 -16.954  1.00  0.00     0.130 A 
ATOM     15  C   UNL     1     -13.267 -40.405 -15.701  1.00  0.00     0.020 A 
ATOM     16  C   UNL     1     -15.886 -41.300 -16.090  1.00  0.00     0.093 A 
ATOM     17  C   UNL     1     -14.288 -39.975 -14.849  1.00  0.00     0.047 A 
ATOM     18  C   UNL     1     -15.600 -40.421 -15.043  1.00  0.00     0.119 A 
BRANCH  14  19
ATOM     19  O   UNL     1     -15.180 -42.599 -18.003  1.00  0.00    -0.507 OA
ATOM     20  H   UNL     1     -15.067 -43.603 -17.916  1.00  0.00     0.293 HD
ENDBRANCH  14  19
BRANCH  18  21
ATOM     21  O   UNL     1     -16.625 -40.000 -14.199  1.00  0.00    -0.508 OA
ATOM     22  H   UNL     1     -16.623 -40.225 -13.210  1.00  0.00     0.293 HD
ENDBRANCH  18  21
ENDBRANCH  11  13
ENDBRANCH   2  11
TORSDOF 6
ENDMDL
MODEL 5
REMARK VINA RESULT:    -6.217      5.294      7.131
REMARK INTER + INTRA:          -8.513
REMARK INTER:                  -7.897
REMARK INTRA:                  -0.616
REMARK UNBOUND:                -0.660
REMARK SMILES O=C(C=Cc1ccc(O)cc1)c1ccc(O)cc1O
REMARK SMILES IDX 4 1 3 2 5 3 6 4 7 5 8 6 11 7 10 8 9 9 2 11 1 12 12 13 18 14
REMARK SMILES IDX 13 15 17 16 14 17 15 18 19 19 16 21
REMARK H PARENT 9 10 19 20 16 22
REMARK Flexibility Score: inf
ROOT
ATOM      1  C   UNL     1     -10.411 -38.561 -19.626  1.00  0.00     0.012 C 
ATOM      2  C   UNL     1     -10.462 -39.725 -18.961  1.00  0.00     0.053 C 
ENDROOT
BRANCH   1   3
ATOM      3  C   UNL     1      -9.176 -38.020 -20.244  1.00  0.00    -0.025 A 
ATOM      4  C   UNL     1      -8.002 -38.791 -20.192  1.00  0.00     0.012 A 
ATOM      5  C   UNL     1      -6.813 -38.316 -20.752  1.00  0.00     0.047 A 
ATOM      6  C   UNL     1      -6.774 -37.058 -21.361  1.00  0.00     0.115 A 
ATOM      7  C   UNL     1      -9.126 -36.746 -20.846  1.00  0.00     0.012 A 
ATOM      8  C   UNL     1      -7.933 -36.274 -21.404  1.00  0.00     0.047 A 
BRANCH   6   9
ATOM      9  O   UNL     1      -5.582 -36.599 -21.915  1.00  0.00    -0.508 OA
ATOM     10  H   UNL     1      -5.367 -36.736 -22.896  1.00  0.00     0.293 HD
ENDBRANCH   6   9
ENDBRANCH   1   3
BRANCH   2  11
ATOM     11  C   UNL     1     -11.709 -40.224 -18.341  1.00  0.00     0.189 C 
ATOM     12  O   UNL     1     -12.816 -40.024 -18.913  1.00  0.00    -0.289 OA
BRANCH  11  13
ATOM     13  C   UNL     1     -11.681 -40.951 -17.046  1.00  0.00     0.064 A 
ATOM     14  C   UNL     1     -12.598 -41.991 -16.777  1.00  0.00     0.130 A 
ATOM     15  C   UNL     1     -10.719 -40.623 -16.071  1.00  0.00     0.020 A 
ATOM     16  C   UNL     1     -12.543 -42.677 -15.555  1.00  0.00     0.093 A 
ATOM     17  C   UNL     1     -10.675 -41.310 -14.856  1.00  0.00     0.047 A 
ATOM     18  C   UNL     1     -11.587 -42.338 -14.595  1.00  0.00     0.119 A 
BRANCH  14  19
ATOM     19  O   UNL     1     -13.571 -42.335 -17.717  1.00  0.00    -0.507 OA
ATOM     20  H   UNL     1     -13.866 -41.689 -18.439  1.00  0.00     0.293 HD
ENDBRANCH  14  19
BRANCH  18  21
ATOM     21  O   UNL     1     -11.552 -43.029 -13.385  1.00  0.00    -0.508 OA
ATOM     22  H   UNL     1     -11.358 -44.025 -13.350  1.00  0.00     0.293 HD
ENDBRANCH  18  21
ENDBRANCH  11  13
ENDBRANCH   2  11
TORSDOF 6
ENDMDL
MODEL 6
REMARK VINA RESULT:    -6.192      3.404      4.560
REMARK INTER + INTRA:          -8.481
REMARK INTER:                  -7.781
REMARK INTRA:                  -0.699
REMARK UNBOUND:                -0.660
REMARK SMILES O=C(C=Cc1ccc(O)cc1)c1ccc(O)cc1O
REMARK SMILES IDX 4 1 3 2 5 3 6 4 7 5 8 6 11 7 10 8 9 9 2 11 1 12 12 13 18 14
REMARK SMILES IDX 13 15 17 16 14 17 15 18 19 19 16 21
REMARK H PARENT 9 10 19 20 16 22
REMARK Flexibility Score: inf
ROOT
ATOM      1  C   UNL     1     -12.640 -40.188 -17.464  1.00  0.00     0.012 C 
ATOM      2  C   UNL     1     -13.652 -39.338 -17.691  1.00  0.00     0.053 C 
ENDROOT
BRANCH   1   3
ATOM      3  C   UNL     1     -11.473 -40.339 -18.367  1.00  0.00    -0.025 A 
ATOM      4  C   UNL     1     -11.142 -41.623 -18.831  1.00  0.00     0.012 A 
ATOM      5  C   UNL     1     -10.044 -41.813 -19.675  1.00  0.00     0.047 A 
ATOM      6  C   UNL     1      -9.253 -40.726 -20.058  1.00  0.00     0.115 A 
ATOM      7  C   UNL     1     -10.661 -39.249 -18.743  1.00  0.00     0.012 A 
ATOM      8  C   UNL     1      -9.563 -39.444 -19.587  1.00  0.00     0.047 A 
BRANCH   6   9
ATOM      9  O   UNL     1      -8.162 -40.931 -20.900  1.00  0.00    -0.508 OA
ATOM     10  H   UNL     1      -7.231 -41.083 -20.531  1.00  0.00     0.293 HD
ENDBRANCH   6   9
ENDBRANCH   1   3
BRANCH   2  11
ATOM     11  C   UNL     1     -14.811 -39.230 -16.776  1.00  0.00     0.189 C 
ATOM     12  O   UNL     1     -15.153 -38.099 -16.331  1.00  0.00    -0.289 OA
BRANCH  11  13
ATOM     13  C   UNL     1     -15.574 -40.435 -16.364  1.00  0.00     0.064 A 
ATOM     14  C   UNL     1     -15.894 -40.662 -15.007  1.00  0.00     0.130 A 
ATOM     15  C   UNL     1     -16.008 -41.363 -17.330  1.00  0.00     0.020 A 
ATOM     16  C   UNL     1     -16.632 -41.798 -14.641  1.00  0.00     0.093 A 
ATOM     17  C   UNL     1     -16.739 -42.492 -16.954  1.00  0.00     0.047 A 
ATOM     18  C   UNL     1     -17.052 -42.713 -15.609  1.00  0.00     0.119 A 
BRANCH  14  19
ATOM     19  O   UNL     1     -15.471 -39.769 -14.022  1.00  0.00    -0.507 OA
ATOM     20  H   UNL     1     -14.621 -39.923 -13.493  1.00  0.00     0.293 HD
ENDBRANCH  14  19
BRANCH  18  21
ATOM     21  O   UNL     1     -17.780 -43.836 -15.223  1.00  0.00    -0.508 OA
ATOM     22  H   UNL     1     -17.398 -44.771 -15.311  1.00  0.00     0.293 HD
ENDBRANCH  18  21
ENDBRANCH  11  13
ENDBRANCH   2  11
TORSDOF 6
ENDMDL
MODEL 7
REMARK VINA RESULT:    -6.190      5.324      6.666
REMARK INTER + INTRA:          -8.479
REMARK INTER:                  -7.813
REMARK INTRA:                  -0.666
REMARK UNBOUND:                -0.660
REMARK SMILES O=C(C=Cc1ccc(O)cc1)c1ccc(O)cc1O
REMARK SMILES IDX 4 1 3 2 5 3 6 4 7 5 8 6 11 7 10 8 9 9 2 11 1 12 12 13 18 14
REMARK SMILES IDX 13 15 17 16 14 17 15 18 19 19 16 21
REMARK H PARENT 9 10 19 20 16 22
REMARK Flexibility Score: inf
ROOT
ATOM      1  C   UNL     1     -11.438 -40.344 -18.397  1.00  0.00     0.012 C 
ATOM      2  C   UNL     1     -11.245 -39.022 -18.515  1.00  0.00     0.053 C 
ENDROOT
BRANCH   1   3
ATOM      3  C   UNL     1     -11.532 -41.049 -17.095  1.00  0.00    -0.025 A 
ATOM      4  C   UNL     1     -10.577 -40.765 -16.104  1.00  0.00     0.012 A 
ATOM      5  C   UNL     1     -10.620 -41.413 -14.867  1.00  0.00     0.047 A 
ATOM      6  C   UNL     1     -11.610 -42.364 -14.604  1.00  0.00     0.115 A 
ATOM      7  C   UNL     1     -12.518 -42.022 -16.829  1.00  0.00     0.012 A 
ATOM      8  C   UNL     1     -12.557 -42.668 -15.590  1.00  0.00     0.047 A 
BRANCH   6   9
ATOM      9  O   UNL     1     -11.641 -43.002 -13.366  1.00  0.00    -0.508 OA
ATOM     10  H   UNL     1     -12.517 -43.227 -12.909  1.00  0.00     0.293 HD
ENDBRANCH   6   9
ENDBRANCH   1   3
BRANCH   2  11
ATOM     11  C   UNL     1     -11.138 -38.356 -19.832  1.00  0.00     0.189 C 
ATOM     12  O   UNL     1     -12.171 -38.201 -20.541  1.00  0.00    -0.289 OA
BRANCH  11  13
ATOM     13  C   UNL     1      -9.828 -37.875 -20.340  1.00  0.00     0.064 A 
ATOM     14  C   UNL     1      -9.725 -36.647 -21.031  1.00  0.00     0.130 A 
ATOM     15  C   UNL     1      -8.662 -38.632 -20.120  1.00  0.00     0.020 A 
ATOM     16  C   UNL     1      -8.475 -36.202 -21.487  1.00  0.00     0.093 A 
ATOM     17  C   UNL     1      -7.422 -38.181 -20.581  1.00  0.00     0.047 A 
ATOM     18  C   UNL     1      -7.327 -36.966 -21.266  1.00  0.00     0.119 A 
BRANCH  14  19
ATOM     19  O   UNL     1     -10.862 -35.876 -21.276  1.00  0.00    -0.507 OA
ATOM     20  H   UNL     1     -11.168 -35.159 -20.628  1.00  0.00     0.293 HD
ENDBRANCH  14  19
BRANCH  18  21
ATOM     21  O   UNL     1      -6.095 -36.506 -21.730  1.00  0.00    -0.508 OA
ATOM     22  H   UNL     1      -5.821 -36.614 -22.701  1.00  0.00     0.293 HD
ENDBRANCH  18  21
ENDBRANCH  11  13
ENDBRANCH   2  11
TORSDOF 6
ENDMDL
MODEL 8
REMARK VINA RESULT:    -6.141      4.073      6.165
REMARK INTER + INTRA:          -8.417
REMARK INTER:                  -7.689
REMARK INTRA:                  -0.728
REMARK UNBOUND:                -0.660
REMARK SMILES O=C(C=Cc1ccc(O)cc1)c1ccc(O)cc1O
REMARK SMILES IDX 4 1 3 2 5 3 6 4 7 5 8 6 11 7 10 8 9 9 2 11 1 12 12 13 18 14
REMARK SMILES IDX 13 15 17 16 14 17 15 18 19 19 16 21
REMARK H PARENT 9 10 19 20 16 22
REMARK Flexibility Score: inf
ROOT
ATOM      1  C   UNL     1     -11.641 -39.204 -18.253  1.00  0.00     0.012 C 
ATOM      2  C   UNL     1     -10.879 -40.121 -17.638  1.00  0.00     0.053 C 
ENDROOT
BRANCH   1   3
ATOM      3  C   UNL     1     -11.151 -38.319 -19.337  1.00  0.00    -0.025 A 
ATOM      4  C   UNL     1      -9.914 -38.611 -19.938  1.00  0.00     0.012 A 
ATOM      5  C   UNL     1      -9.408 -37.799 -20.956  1.00  0.00     0.047 A 
ATOM      6  C   UNL     1     -10.122 -36.675 -21.382  1.00  0.00     0.115 A 
ATOM      7  C   UNL     1     -11.858 -37.175 -19.760  1.00  0.00     0.012 A 
ATOM      8  C   UNL     1     -11.347 -36.364 -20.779  1.00  0.00     0.047 A 
BRANCH   6   9
ATOM      9  O   UNL     1      -9.605 -35.875 -22.398  1.00  0.00    -0.508 OA
ATOM     10  H   UNL     1     -10.033 -35.845 -23.316  1.00  0.00     0.293 HD
ENDBRANCH   6   9
ENDBRANCH   1   3
BRANCH   2  11
ATOM     11  C   UNL     1     -11.400 -40.973 -16.546  1.00  0.00     0.189 C 
ATOM     12  O   UNL     1     -10.614 -41.393 -15.652  1.00  0.00    -0.289 OA
BRANCH  11  13
ATOM     13  C   UNL     1     -12.835 -41.352 -16.490  1.00  0.00     0.064 A 
ATOM     14  C   UNL     1     -13.683 -40.835 -15.486  1.00  0.00     0.130 A 
ATOM     15  C   UNL     1     -13.376 -42.221 -17.457  1.00  0.00     0.020 A 
ATOM     16  C   UNL     1     -15.040 -41.191 -15.462  1.00  0.00     0.093 A 
ATOM     17  C   UNL     1     -14.727 -42.573 -17.422  1.00  0.00     0.047 A 
ATOM     18  C   UNL     1     -15.562 -42.059 -16.424  1.00  0.00     0.119 A 
BRANCH  14  19
ATOM     19  O   UNL     1     -13.179 -39.978 -14.507  1.00  0.00    -0.507 OA
ATOM     20  H   UNL     1     -12.184 -39.890 -14.338  1.00  0.00     0.293 HD
ENDBRANCH  14  19
BRANCH  18  21
ATOM     21  O   UNL     1     -16.912 -42.403 -16.380  1.00  0.00    -0.508 OA
ATOM     22  H   UNL     1     -17.506 -42.116 -15.609  1.00  0.00     0.293 HD
ENDBRANCH  18  21
ENDBRANCH  11  13
ENDBRANCH   2  11
TORSDOF 6
ENDMDL
MODEL 9
REMARK VINA RESULT:    -6.088      3.473      4.691
REMARK INTER + INTRA:          -8.350
REMARK INTER:                  -7.664
REMARK INTRA:                  -0.686
REMARK UNBOUND:                -0.660
REMARK SMILES O=C(C=Cc1ccc(O)cc1)c1ccc(O)cc1O
REMARK SMILES IDX 4 1 3 2 5 3 6 4 7 5 8 6 11 7 10 8 9 9 2 11 1 12 12 13 18 14
REMARK SMILES IDX 13 15 17 16 14 17 15 18 19 19 16 21
REMARK H PARENT 9 10 19 20 16 22
REMARK Flexibility Score: inf
ROOT
ATOM      1  C   UNL     1     -12.782 -39.630 -18.565  1.00  0.00     0.012 C 
ATOM      2  C   UNL     1     -13.495 -38.509 -18.747  1.00  0.00     0.053 C 
ENDROOT
BRANCH   1   3
ATOM      3  C   UNL     1     -11.454 -39.870 -19.181  1.00  0.00    -0.025 A 
ATOM      4  C   UNL     1     -11.070 -41.192 -19.461  1.00  0.00     0.012 A 
ATOM      5  C   UNL     1      -9.824 -41.466 -20.030  1.00  0.00     0.047 A 
ATOM      6  C   UNL     1      -8.937 -40.425 -20.318  1.00  0.00     0.115 A 
ATOM      7  C   UNL     1     -10.548 -38.826 -19.458  1.00  0.00     0.012 A 
ATOM      8  C   UNL     1      -9.301 -39.105 -20.028  1.00  0.00     0.047 A 
BRANCH   6   9
ATOM      9  O   UNL     1      -7.698 -40.714 -20.886  1.00  0.00    -0.508 OA
ATOM     10  H   UNL     1      -7.527 -40.581 -21.877  1.00  0.00     0.293 HD
ENDBRANCH   6   9
ENDBRANCH   1   3
BRANCH   2  11
ATOM     11  C   UNL     1     -14.827 -38.313 -18.132  1.00  0.00     0.189 C 
ATOM     12  O   UNL     1     -15.604 -37.429 -18.587  1.00  0.00    -0.289 OA
BRANCH  11  13
ATOM     13  C   UNL     1     -15.262 -39.137 -16.975  1.00  0.00     0.064 A 
ATOM     14  C   UNL     1     -16.183 -40.195 -17.144  1.00  0.00     0.130 A 
ATOM     15  C   UNL     1     -14.743 -38.886 -15.691  1.00  0.00     0.020 A 
ATOM     16  C   UNL     1     -16.567 -40.974 -16.042  1.00  0.00     0.093 A 
ATOM     17  C   UNL     1     -15.135 -39.665 -14.599  1.00  0.00     0.047 A 
ATOM     18  C   UNL     1     -16.048 -40.710 -14.773  1.00  0.00     0.119 A 
BRANCH  14  19
ATOM     19  O   UNL     1     -16.725 -40.467 -18.401  1.00  0.00    -0.507 OA
ATOM     20  H   UNL     1     -17.400 -41.209 -18.540  1.00  0.00     0.293 HD
ENDBRANCH  14  19
BRANCH  18  21
ATOM     21  O   UNL     1     -16.446 -41.493 -13.691  1.00  0.00    -0.508 OA
ATOM     22  H   UNL     1     -17.276 -41.271 -13.153  1.00  0.00     0.293 HD
ENDBRANCH  18  21
ENDBRANCH  11  13
ENDBRANCH   2  11
TORSDOF 6
ENDMDL
