MODEL 1
REMARK VINA RESULT:    -6.583      0.000      0.000
REMARK INTER + INTRA:          -7.849
REMARK INTER:                  -7.545
REMARK INTRA:                  -0.303
REMARK UNBOUND:                -0.303
REMARK SMILES O=C1C[C@@H](c2ccc(O)cc2)Oc2cc(O)cc(O)c21
REMARK SMILES IDX 3 1 4 2 12 3 13 4 14 5 15 6 17 7 18 8 20 9 2 10 1 11 5 12
REMARK SMILES IDX 6 13 11 14 7 15 10 16 8 17 9 18 19 20 16 22
REMARK H PARENT 9 19 19 21 16 23
REMARK Flexibility Score: inf
ROOT
ATOM      1  C   UNL     1      19.584  -0.424 -17.771  1.00  0.00     0.131 C 
ATOM      2  C   UNL     1      19.324  -1.108 -19.121  1.00  0.00     0.211 C 
ATOM      3  O   UNL     1      19.419  -2.529 -18.990  1.00  0.00    -0.484 OA
ATOM      4  C   UNL     1      18.928  -3.221 -17.875  1.00  0.00     0.138 A 
ATOM      5  C   UNL     1      18.804  -4.611 -17.940  1.00  0.00     0.093 A 
ATOM      6  C   UNL     1      18.305  -5.326 -16.852  1.00  0.00     0.123 A 
ATOM      7  C   UNL     1      17.955  -4.650 -15.678  1.00  0.00     0.093 A 
ATOM      8  C   UNL     1      18.109  -3.262 -15.576  1.00  0.00     0.133 A 
ATOM      9  C   UNL     1      18.571  -2.526 -16.698  1.00  0.00     0.102 A 
ATOM     10  C   UNL     1      18.706  -1.048 -16.727  1.00  0.00     0.174 C 
ATOM     11  O   UNL     1      18.063  -0.308 -15.937  1.00  0.00    -0.294 OA
ENDROOT
BRANCH   2  12
ATOM     12  C   UNL     1      20.299  -0.617 -20.163  1.00  0.00    -0.007 A 
ATOM     13  C   UNL     1      20.408  -1.279 -21.397  1.00  0.00     0.011 A 
ATOM     14  C   UNL     1      21.068   0.538 -19.935  1.00  0.00     0.011 A 
ATOM     15  C   UNL     1      21.288  -0.809 -22.377  1.00  0.00     0.046 A 
ATOM     16  C   UNL     1      21.948   1.006 -20.917  1.00  0.00     0.046 A 
ATOM     17  C   UNL     1      22.061   0.333 -22.140  1.00  0.00     0.115 A 
BRANCH  17  18
ATOM     18  O   UNL     1      22.934   0.789 -23.125  1.00  0.00    -0.508 OA
ATOM     19  H   UNL     1      23.399   1.686 -23.045  1.00  0.00     0.293 HD
ENDBRANCH  17  18
ENDBRANCH   2  12
BRANCH   8  20
ATOM     20  O   UNL     1      17.826  -2.674 -14.341  1.00  0.00    -0.507 OA
ATOM     21  H   UNL     1      18.466  -2.073 -13.842  1.00  0.00     0.293 HD
ENDBRANCH   8  20
BRANCH   6  22
ATOM     22  O   UNL     1      18.167  -6.709 -16.943  1.00  0.00    -0.508 OA
ATOM     23  H   UNL     1      17.256  -7.146 -17.027  1.00  0.00     0.293 HD
ENDBRANCH   6  22
TORSDOF 4
ENDMDL
MODEL 2
REMARK VINA RESULT:    -6.583      0.088      1.087
REMARK INTER + INTRA:          -7.848
REMARK INTER:                  -7.539
REMARK INTRA:                  -0.309
REMARK UNBOUND:                -0.303
REMARK SMILES O=C1C[C@@H](c2ccc(O)cc2)Oc2cc(O)cc(O)c21
REMARK SMILES IDX 3 1 4 2 12 3 13 4 14 5 15 6 17 7 18 8 20 9 2 10 1 11 5 12
REMARK SMILES IDX 6 13 11 14 7 15 10 16 8 17 9 18 19 20 16 22
REMARK H PARENT 9 19 19 21 16 23
REMARK Flexibility Score: inf
ROOT
ATOM      1  C   UNL     1      19.561  -0.342 -17.807  1.00  0.00     0.131 C 
ATOM      2  C   UNL     1      19.275  -1.038 -19.145  1.00  0.00     0.211 C 
ATOM      3  O   UNL     1      19.372  -2.458 -19.004  1.00  0.00    -0.484 OA
ATOM      4  C   UNL     1      18.903  -3.139 -17.873  1.00  0.00     0.138 A 
ATOM      5  C   UNL     1      18.777  -4.530 -17.924  1.00  0.00     0.093 A 
ATOM      6  C   UNL     1      18.300  -5.235 -16.819  1.00  0.00     0.123 A 
ATOM      7  C   UNL     1      17.974  -4.549 -15.645  1.00  0.00     0.093 A 
ATOM      8  C   UNL     1      18.130  -3.160 -15.558  1.00  0.00     0.133 A 
ATOM      9  C   UNL     1      18.570  -2.434 -16.696  1.00  0.00     0.102 A 
ATOM     10  C   UNL     1      18.704  -0.957 -16.741  1.00  0.00     0.174 C 
ATOM     11  O   UNL     1      18.077  -0.210 -15.945  1.00  0.00    -0.294 OA
ENDROOT
BRANCH   2  12
ATOM     12  C   UNL     1      20.228  -0.557 -20.211  1.00  0.00    -0.007 A 
ATOM     13  C   UNL     1      21.013   0.588 -19.995  1.00  0.00     0.011 A 
ATOM     14  C   UNL     1      20.384  -1.278 -21.409  1.00  0.00     0.011 A 
ATOM     15  C   UNL     1      21.920   1.018 -20.968  1.00  0.00     0.046 A 
ATOM     16  C   UNL     1      21.291  -0.844 -22.381  1.00  0.00     0.046 A 
ATOM     17  C   UNL     1      22.061   0.306 -22.164  1.00  0.00     0.115 A 
BRANCH  17  18
ATOM     18  O   UNL     1      22.968   0.747 -23.125  1.00  0.00    -0.508 OA
ATOM     19  H   UNL     1      23.834   0.252 -23.302  1.00  0.00     0.293 HD
ENDBRANCH  17  18
ENDBRANCH   2  12
BRANCH   8  20
ATOM     20  O   UNL     1      17.871  -2.561 -14.324  1.00  0.00    -0.507 OA
ATOM     21  H   UNL     1      16.951  -2.290 -14.010  1.00  0.00     0.293 HD
ENDBRANCH   8  20
BRANCH   6  22
ATOM     22  O   UNL     1      18.161  -6.619 -16.896  1.00  0.00    -0.508 OA
ATOM     23  H   UNL     1      17.341  -7.090 -16.531  1.00  0.00     0.293 HD
ENDBRANCH   6  22
TORSDOF 4
ENDMDL
MODEL 3
REMARK VINA RESULT:    -6.250     13.584     15.940
REMARK INTER + INTRA:          -7.467
REMARK INTER:                  -7.146
REMARK INTRA:                  -0.320
REMARK UNBOUND:                -0.303
REMARK SMILES O=C1C[C@@H](c2ccc(O)cc2)Oc2cc(O)cc(O)c21
REMARK SMILES IDX 3 1 4 2 12 3 13 4 14 5 15 6 17 7 18 8 20 9 2 10 1 11 5 12
REMARK SMILES IDX 6 13 11 14 7 15 10 16 8 17 9 18 19 20 16 22
REMARK H PARENT 9 19 19 21 16 23
REMARK Flexibility Score: inf
ROOT
ATOM      1  C   UNL     1       7.982  -7.430  -9.508  1.00  0.00     0.131 C 
ATOM      2  C   UNL     1       8.688  -6.077  -9.679  1.00  0.00     0.211 C 
ATOM      3  O   UNL     1       8.315  -5.179  -8.630  1.00  0.00    -0.484 OA
ATOM      4  C   UNL     1       8.151  -5.594  -7.302  1.00  0.00     0.138 A 
ATOM      5  C   UNL     1       8.063  -4.628  -6.296  1.00  0.00     0.093 A 
ATOM      6  C   UNL     1       7.914  -5.011  -4.963  1.00  0.00     0.123 A 
ATOM      7  C   UNL     1       7.823  -6.367  -4.635  1.00  0.00     0.093 A 
ATOM      8  C   UNL     1       7.869  -7.351  -5.631  1.00  0.00     0.133 A 
ATOM      9  C   UNL     1       8.068  -6.968  -6.983  1.00  0.00     0.102 A 
ATOM     10  C   UNL     1       8.204  -7.925  -8.109  1.00  0.00     0.174 C 
ATOM     11  O   UNL     1       8.550  -9.121  -7.925  1.00  0.00    -0.294 OA
ENDROOT
BRANCH   2  12
ATOM     12  C   UNL     1       8.359  -5.471 -11.022  1.00  0.00    -0.007 A 
ATOM     13  C   UNL     1       8.246  -6.287 -12.159  1.00  0.00     0.011 A 
ATOM     14  C   UNL     1       8.107  -4.092 -11.140  1.00  0.00     0.011 A 
ATOM     15  C   UNL     1       7.912  -5.732 -13.398  1.00  0.00     0.046 A 
ATOM     16  C   UNL     1       7.773  -3.539 -12.381  1.00  0.00     0.046 A 
ATOM     17  C   UNL     1       7.675  -4.358 -13.513  1.00  0.00     0.115 A 
BRANCH  17  18
ATOM     18  O   UNL     1       7.343  -3.819 -14.754  1.00  0.00    -0.508 OA
ATOM     19  H   UNL     1       6.379  -3.729 -15.051  1.00  0.00     0.293 HD
ENDBRANCH  17  18
ENDBRANCH   2  12
BRANCH   8  20
ATOM     20  O   UNL     1       7.678  -8.676  -5.234  1.00  0.00    -0.507 OA
ATOM     21  H   UNL     1       7.298  -8.948  -4.339  1.00  0.00     0.293 HD
ENDBRANCH   8  20
BRANCH   6  22
ATOM     22  O   UNL     1       7.849  -4.034  -3.972  1.00  0.00    -0.508 OA
ATOM     23  H   UNL     1       7.053  -3.412  -3.893  1.00  0.00     0.293 HD
ENDBRANCH   6  22
TORSDOF 4
ENDMDL
MODEL 4
REMARK VINA RESULT:    -6.234      1.672      3.499
REMARK INTER + INTRA:          -7.448
REMARK INTER:                  -7.141
REMARK INTRA:                  -0.308
REMARK UNBOUND:                -0.303
REMARK SMILES O=C1C[C@@H](c2ccc(O)cc2)Oc2cc(O)cc(O)c21
REMARK SMILES IDX 3 1 4 2 12 3 13 4 14 5 15 6 17 7 18 8 20 9 2 10 1 11 5 12
REMARK SMILES IDX 6 13 11 14 7 15 10 16 8 17 9 18 19 20 16 22
REMARK H PARENT 9 19 19 21 16 23
REMARK Flexibility Score: inf
ROOT
ATOM      1  C   UNL     1      19.268  -2.278 -18.431  1.00  0.00     0.131 C 
ATOM      2  C   UNL     1      20.323  -1.193 -18.175  1.00  0.00     0.211 C 
ATOM      3  O   UNL     1      19.779  -0.142 -17.371  1.00  0.00    -0.484 OA
ATOM      4  C   UNL     1      18.909  -0.383 -16.299  1.00  0.00     0.138 A 
ATOM      5  C   UNL     1      18.644   0.650 -15.397  1.00  0.00     0.093 A 
ATOM      6  C   UNL     1      17.793   0.437 -14.312  1.00  0.00     0.123 A 
ATOM      7  C   UNL     1      17.180  -0.809 -14.144  1.00  0.00     0.093 A 
ATOM      8  C   UNL     1      17.400  -1.846 -15.058  1.00  0.00     0.133 A 
ATOM      9  C   UNL     1      18.302  -1.648 -16.136  1.00  0.00     0.102 A 
ATOM     10  C   UNL     1      18.666  -2.696 -17.122  1.00  0.00     0.174 C 
ATOM     11  O   UNL     1      18.532  -3.922 -16.867  1.00  0.00    -0.294 OA
ENDROOT
BRANCH   2  12
ATOM     12  C   UNL     1      20.840  -0.634 -19.478  1.00  0.00    -0.007 A 
ATOM     13  C   UNL     1      21.485   0.614 -19.506  1.00  0.00     0.011 A 
ATOM     14  C   UNL     1      20.734  -1.377 -20.667  1.00  0.00     0.011 A 
ATOM     15  C   UNL     1      21.991   1.121 -20.706  1.00  0.00     0.046 A 
ATOM     16  C   UNL     1      21.241  -0.867 -21.866  1.00  0.00     0.046 A 
ATOM     17  C   UNL     1      21.871   0.384 -21.889  1.00  0.00     0.115 A 
BRANCH  17  18
ATOM     18  O   UNL     1      22.380   0.902 -23.078  1.00  0.00    -0.508 OA
ATOM     19  H   UNL     1      23.099   0.417 -23.601  1.00  0.00     0.293 HD
ENDBRANCH  17  18
ENDBRANCH   2  12
BRANCH   8  20
ATOM     20  O   UNL     1      16.681  -3.029 -14.873  1.00  0.00    -0.507 OA
ATOM     21  H   UNL     1      16.009  -3.171 -14.133  1.00  0.00     0.293 HD
ENDBRANCH   8  20
BRANCH   6  22
ATOM     22  O   UNL     1      17.558   1.473 -13.411  1.00  0.00    -0.508 OA
ATOM     23  H   UNL     1      16.707   1.512 -12.861  1.00  0.00     0.293 HD
ENDBRANCH   6  22
TORSDOF 4
ENDMDL
MODEL 5
REMARK VINA RESULT:    -6.037     10.806     14.230
REMARK INTER + INTRA:          -7.222
REMARK INTER:                  -6.936
REMARK INTRA:                  -0.286
REMARK UNBOUND:                -0.303
REMARK SMILES O=C1C[C@@H](c2ccc(O)cc2)Oc2cc(O)cc(O)c21
REMARK SMILES IDX 3 1 4 2 12 3 13 4 14 5 15 6 17 7 18 8 20 9 2 10 1 11 5 12
REMARK SMILES IDX 6 13 11 14 7 15 10 16 8 17 9 18 19 20 16 22
REMARK H PARENT 9 19 19 21 16 23
REMARK Flexibility Score: inf
ROOT
ATOM      1  C   UNL     1       9.532  -5.205 -11.183  1.00  0.00     0.131 C 
ATOM      2  C   UNL     1       9.796  -6.689 -10.893  1.00  0.00     0.211 C 
ATOM      3  O   UNL     1       9.770  -6.937  -9.484  1.00  0.00    -0.484 OA
ATOM      4  C   UNL     1       8.849  -6.324  -8.625  1.00  0.00     0.138 A 
ATOM      5  C   UNL     1       8.700  -6.818  -7.327  1.00  0.00     0.093 A 
ATOM      6  C   UNL     1       7.781  -6.237  -6.453  1.00  0.00     0.123 A 
ATOM      7  C   UNL     1       7.026  -5.135  -6.869  1.00  0.00     0.093 A 
ATOM      8  C   UNL     1       7.188  -4.598  -8.152  1.00  0.00     0.133 A 
ATOM      9  C   UNL     1       8.087  -5.216  -9.060  1.00  0.00     0.102 A 
ATOM     10  C   UNL     1       8.287  -4.778 -10.464  1.00  0.00     0.174 C 
ATOM     11  O   UNL     1       7.418  -4.106 -11.078  1.00  0.00    -0.294 OA
ENDROOT
BRANCH   2  12
ATOM     12  C   UNL     1      11.124  -7.117 -11.469  1.00  0.00    -0.007 A 
ATOM     13  C   UNL     1      12.289  -6.389 -11.179  1.00  0.00     0.011 A 
ATOM     14  C   UNL     1      11.220  -8.279 -12.255  1.00  0.00     0.011 A 
ATOM     15  C   UNL     1      13.525  -6.800 -11.687  1.00  0.00     0.046 A 
ATOM     16  C   UNL     1      12.458  -8.688 -12.762  1.00  0.00     0.046 A 
ATOM     17  C   UNL     1      13.614  -7.949 -12.480  1.00  0.00     0.115 A 
BRANCH  17  18
ATOM     18  O   UNL     1      14.852  -8.347 -12.980  1.00  0.00    -0.508 OA
ATOM     19  H   UNL     1      15.406  -9.056 -12.515  1.00  0.00     0.293 HD
ENDBRANCH  17  18
ENDBRANCH   2  12
BRANCH   8  20
ATOM     20  O   UNL     1       6.467  -3.443  -8.460  1.00  0.00    -0.507 OA
ATOM     21  H   UNL     1       6.826  -2.688  -9.027  1.00  0.00     0.293 HD
ENDBRANCH   8  20
BRANCH   6  22
ATOM     22  O   UNL     1       7.630  -6.757  -5.169  1.00  0.00    -0.508 OA
ATOM     23  H   UNL     1       8.268  -7.455  -4.803  1.00  0.00     0.293 HD
ENDBRANCH   6  22
TORSDOF 4
ENDMDL
MODEL 6
REMARK VINA RESULT:    -6.036      0.979      1.093
REMARK INTER + INTRA:          -7.222
REMARK INTER:                  -6.930
REMARK INTRA:                  -0.292
REMARK UNBOUND:                -0.303
REMARK SMILES O=C1C[C@@H](c2ccc(O)cc2)Oc2cc(O)cc(O)c21
REMARK SMILES IDX 3 1 4 2 12 3 13 4 14 5 15 6 17 7 18 8 20 9 2 10 1 11 5 12
REMARK SMILES IDX 6 13 11 14 7 15 10 16 8 17 9 18 19 20 16 22
REMARK H PARENT 9 19 19 21 16 23
REMARK Flexibility Score: inf
ROOT
ATOM      1  C   UNL     1      19.242  -0.194 -16.961  1.00  0.00     0.131 C 
ATOM      2  C   UNL     1      18.973  -0.998 -18.241  1.00  0.00     0.211 C 
ATOM      3  O   UNL     1      19.046  -2.402 -17.976  1.00  0.00    -0.484 OA
ATOM      4  C   UNL     1      18.544  -2.978 -16.802  1.00  0.00     0.138 A 
ATOM      5  C   UNL     1      18.399  -4.365 -16.735  1.00  0.00     0.093 A 
ATOM      6  C   UNL     1      17.889  -4.966 -15.585  1.00  0.00     0.123 A 
ATOM      7  C   UNL     1      17.549  -4.178 -14.481  1.00  0.00     0.093 A 
ATOM      8  C   UNL     1      17.724  -2.789 -14.510  1.00  0.00     0.133 A 
ATOM      9  C   UNL     1      18.198  -2.169 -15.696  1.00  0.00     0.102 A 
ATOM     10  C   UNL     1      18.355  -0.703 -15.865  1.00  0.00     0.174 C 
ATOM     11  O   UNL     1      17.723   0.118 -15.149  1.00  0.00    -0.294 OA
ENDROOT
BRANCH   2  12
ATOM     12  C   UNL     1      19.955  -0.623 -19.323  1.00  0.00    -0.007 A 
ATOM     13  C   UNL     1      19.827  -1.163 -20.613  1.00  0.00     0.011 A 
ATOM     14  C   UNL     1      20.975   0.313 -19.071  1.00  0.00     0.011 A 
ATOM     15  C   UNL     1      20.717  -0.795 -21.626  1.00  0.00     0.046 A 
ATOM     16  C   UNL     1      21.864   0.679 -20.086  1.00  0.00     0.046 A 
ATOM     17  C   UNL     1      21.738   0.126 -21.367  1.00  0.00     0.115 A 
BRANCH  17  18
ATOM     18  O   UNL     1      22.618   0.484 -22.385  1.00  0.00    -0.508 OA
ATOM     19  H   UNL     1      23.587   0.706 -22.193  1.00  0.00     0.293 HD
ENDBRANCH  17  18
ENDBRANCH   2  12
BRANCH   8  20
ATOM     20  O   UNL     1      17.450  -2.082 -13.337  1.00  0.00    -0.507 OA
ATOM     21  H   UNL     1      16.548  -1.687 -13.115  1.00  0.00     0.293 HD
ENDBRANCH   8  20
BRANCH   6  22
ATOM     22  O   UNL     1      17.730  -6.350 -15.546  1.00  0.00    -0.508 OA
ATOM     23  H   UNL     1      16.970  -6.782 -15.032  1.00  0.00     0.293 HD
ENDBRANCH   6  22
TORSDOF 4
ENDMDL
MODEL 7
REMARK VINA RESULT:    -5.919      1.429      2.181
REMARK INTER + INTRA:          -7.088
REMARK INTER:                  -6.801
REMARK INTRA:                  -0.287
REMARK UNBOUND:                -0.303
REMARK SMILES O=C1C[C@@H](c2ccc(O)cc2)Oc2cc(O)cc(O)c21
REMARK SMILES IDX 3 1 4 2 12 3 13 4 14 5 15 6 17 7 18 8 20 9 2 10 1 11 5 12
REMARK SMILES IDX 6 13 11 14 7 15 10 16 8 17 9 18 19 20 16 22
REMARK H PARENT 9 19 19 21 16 23
REMARK Flexibility Score: inf
ROOT
ATOM      1  C   UNL     1      18.498  -1.159 -16.125  1.00  0.00     0.131 C 
ATOM      2  C   UNL     1      18.523  -1.736 -17.547  1.00  0.00     0.211 C 
ATOM      3  O   UNL     1      18.873  -3.123 -17.520  1.00  0.00    -0.484 OA
ATOM      4  C   UNL     1      18.404  -4.002 -16.535  1.00  0.00     0.138 A 
ATOM      5  C   UNL     1      18.555  -5.378 -16.727  1.00  0.00     0.093 A 
ATOM      6  C   UNL     1      18.086  -6.278 -15.771  1.00  0.00     0.123 A 
ATOM      7  C   UNL     1      17.488  -5.801 -14.600  1.00  0.00     0.093 A 
ATOM      8  C   UNL     1      17.363  -4.426 -14.368  1.00  0.00     0.133 A 
ATOM      9  C   UNL     1      17.795  -3.507 -15.360  1.00  0.00     0.102 A 
ATOM     10  C   UNL     1      17.647  -2.034 -15.254  1.00  0.00     0.174 C 
ATOM     11  O   UNL     1      16.793  -1.507 -14.494  1.00  0.00    -0.294 OA
ENDROOT
BRANCH   2  12
ATOM     12  C   UNL     1      19.493  -0.974 -18.416  1.00  0.00    -0.007 A 
ATOM     13  C   UNL     1      20.661  -0.426 -17.860  1.00  0.00     0.011 A 
ATOM     14  C   UNL     1      19.270  -0.852 -19.799  1.00  0.00     0.011 A 
ATOM     15  C   UNL     1      21.577   0.254 -18.668  1.00  0.00     0.046 A 
ATOM     16  C   UNL     1      20.188  -0.170 -20.605  1.00  0.00     0.046 A 
ATOM     17  C   UNL     1      21.344   0.385 -20.041  1.00  0.00     0.115 A 
BRANCH  17  18
ATOM     18  O   UNL     1      22.265   1.066 -20.834  1.00  0.00    -0.508 OA
ATOM     19  H   UNL     1      22.605   1.986 -20.579  1.00  0.00     0.293 HD
ENDBRANCH  17  18
ENDBRANCH   2  12
BRANCH   8  20
ATOM     20  O   UNL     1      16.840  -4.027 -13.136  1.00  0.00    -0.507 OA
ATOM     21  H   UNL     1      17.161  -3.221 -12.621  1.00  0.00     0.293 HD
ENDBRANCH   8  20
BRANCH   6  22
ATOM     22  O   UNL     1      18.226  -7.647 -15.990  1.00  0.00    -0.508 OA
ATOM     23  H   UNL     1      18.935  -8.190 -15.511  1.00  0.00     0.293 HD
ENDBRANCH   6  22
TORSDOF 4
ENDMDL
MODEL 8
REMARK VINA RESULT:    -5.782      2.079      3.876
REMARK INTER + INTRA:          -6.930
REMARK INTER:                  -6.643
REMARK INTRA:                  -0.287
REMARK UNBOUND:                -0.303
REMARK SMILES O=C1C[C@@H](c2ccc(O)cc2)Oc2cc(O)cc(O)c21
REMARK SMILES IDX 3 1 4 2 12 3 13 4 14 5 15 6 17 7 18 8 20 9 2 10 1 11 5 12
REMARK SMILES IDX 6 13 11 14 7 15 10 16 8 17 9 18 19 20 16 22
REMARK H PARENT 9 19 19 21 16 23
REMARK Flexibility Score: inf
ROOT
ATOM      1  C   UNL     1      18.868  -2.355 -17.314  1.00  0.00     0.131 C 
ATOM      2  C   UNL     1      19.594  -1.021 -17.087  1.00  0.00     0.211 C 
ATOM      3  O   UNL     1      18.711  -0.064 -16.493  1.00  0.00    -0.484 OA
ATOM      4  C   UNL     1      17.781  -0.405 -15.503  1.00  0.00     0.138 A 
ATOM      5  C   UNL     1      17.157   0.614 -14.779  1.00  0.00     0.093 A 
ATOM      6  C   UNL     1      16.237   0.305 -13.778  1.00  0.00     0.123 A 
ATOM      7  C   UNL     1      15.915  -1.031 -13.517  1.00  0.00     0.093 A 
ATOM      8  C   UNL     1      16.497  -2.067 -14.257  1.00  0.00     0.133 A 
ATOM      9  C   UNL     1      17.470  -1.759 -15.244  1.00  0.00     0.102 A 
ATOM     10  C   UNL     1      18.203  -2.777 -16.038  1.00  0.00     0.174 C 
ATOM     11  O   UNL     1      18.325  -3.965 -15.641  1.00  0.00    -0.294 OA
ENDROOT
BRANCH   2  12
ATOM     12  C   UNL     1      20.142  -0.484 -18.386  1.00  0.00    -0.007 A 
ATOM     13  C   UNL     1      21.394   0.153 -18.416  1.00  0.00     0.011 A 
ATOM     14  C   UNL     1      19.436  -0.663 -19.589  1.00  0.00     0.011 A 
ATOM     15  C   UNL     1      21.919   0.625 -19.623  1.00  0.00     0.046 A 
ATOM     16  C   UNL     1      19.963  -0.190 -20.794  1.00  0.00     0.046 A 
ATOM     17  C   UNL     1      21.206   0.456 -20.815  1.00  0.00     0.115 A 
BRANCH  17  18
ATOM     18  O   UNL     1      21.740   0.932 -22.010  1.00  0.00    -0.508 OA
ATOM     19  H   UNL     1      21.190   1.493 -22.649  1.00  0.00     0.293 HD
ENDBRANCH  17  18
ENDBRANCH   2  12
BRANCH   8  20
ATOM     20  O   UNL     1      16.056  -3.367 -14.000  1.00  0.00    -0.507 OA
ATOM     21  H   UNL     1      16.448  -3.965 -13.288  1.00  0.00     0.293 HD
ENDBRANCH   8  20
BRANCH   6  22
ATOM     22  O   UNL     1      15.641   1.334 -13.052  1.00  0.00    -0.508 OA
ATOM     23  H   UNL     1      15.555   2.270 -13.433  1.00  0.00     0.293 HD
ENDBRANCH   6  22
TORSDOF 4
ENDMDL
MODEL 9
REMARK VINA RESULT:    -5.606      2.662      6.884
REMARK INTER + INTRA:          -6.729
REMARK INTER:                  -6.439
REMARK INTRA:                  -0.290
REMARK UNBOUND:                -0.303
REMARK SMILES O=C1C[C@@H](c2ccc(O)cc2)Oc2cc(O)cc(O)c21
REMARK SMILES IDX 3 1 4 2 12 3 13 4 14 5 15 6 17 7 18 8 20 9 2 10 1 11 5 12
REMARK SMILES IDX 6 13 11 14 7 15 10 16 8 17 9 18 19 20 16 22
REMARK H PARENT 9 19 19 21 16 23
REMARK Flexibility Score: inf
ROOT
ATOM      1  C   UNL     1      19.604   0.259 -15.724  1.00  0.00     0.131 C 
ATOM      2  C   UNL     1      18.768  -0.983 -16.064  1.00  0.00     0.211 C 
ATOM      3  O   UNL     1      18.540  -1.065 -17.474  1.00  0.00    -0.484 OA
ATOM      4  C   UNL     1      19.521  -0.738 -18.419  1.00  0.00     0.138 A 
ATOM      5  C   UNL     1      19.325  -1.103 -19.753  1.00  0.00     0.093 A 
ATOM      6  C   UNL     1      20.290  -0.805 -20.715  1.00  0.00     0.123 A 
ATOM      7  C   UNL     1      21.446  -0.109 -20.346  1.00  0.00     0.093 A 
ATOM      8  C   UNL     1      21.645   0.302 -19.023  1.00  0.00     0.133 A 
ATOM      9  C   UNL     1      20.688  -0.042 -18.033  1.00  0.00     0.102 A 
ATOM     10  C   UNL     1      20.828   0.279 -16.590  1.00  0.00     0.174 C 
ATOM     11  O   UNL     1      21.950   0.512 -16.070  1.00  0.00    -0.294 OA
ENDROOT
BRANCH   2  12
ATOM     12  C   UNL     1      17.452  -0.958 -15.326  1.00  0.00    -0.007 A 
ATOM     13  C   UNL     1      17.137  -1.970 -14.405  1.00  0.00     0.011 A 
ATOM     14  C   UNL     1      16.550   0.106 -15.510  1.00  0.00     0.011 A 
ATOM     15  C   UNL     1      15.932  -1.934 -13.698  1.00  0.00     0.046 A 
ATOM     16  C   UNL     1      15.344   0.139 -14.802  1.00  0.00     0.046 A 
ATOM     17  C   UNL     1      15.032  -0.881 -13.894  1.00  0.00     0.115 A 
BRANCH  17  18
ATOM     18  O   UNL     1      13.834  -0.857 -13.183  1.00  0.00    -0.508 OA
ATOM     19  H   UNL     1      13.819  -0.895 -12.171  1.00  0.00     0.293 HD
ENDBRANCH  17  18
ENDBRANCH   2  12
BRANCH   8  20
ATOM     20  O   UNL     1      22.779   1.072 -18.753  1.00  0.00    -0.507 OA
ATOM     21  H   UNL     1      22.979   1.956 -19.197  1.00  0.00     0.293 HD
ENDBRANCH   8  20
BRANCH   6  22
ATOM     22  O   UNL     1      20.087  -1.197 -22.036  1.00  0.00    -0.508 OA
ATOM     23  H   UNL     1      20.697  -1.867 -22.489  1.00  0.00     0.293 HD
ENDBRANCH   6  22
TORSDOF 4
ENDMDL
