MODEL 1
REMARK VINA RESULT:    -3.582      0.000      0.000
REMARK INTER + INTRA:          -5.048
REMARK INTER:                  -4.839
REMARK INTRA:                  -0.209
REMARK UNBOUND:                -0.209
REMARK SMILES CCCCCCCC(=O)[O-]
REMARK SMILES IDX 5 1 6 2 7 3 8 4 9 5 10 6 4 7 3 8 2 9 1 10
REMARK H PARENT
REMARK Flexibility Score: inf
ROOT
ATOM      1  C   UNL     1      56.874  27.991  50.384  1.00  0.00     0.000 C 
ENDROOT
BRANCH   1   2
ATOM      2  C   UNL     1      58.066  28.955  50.500  1.00  0.00     0.006 C 
BRANCH   2   3
ATOM      3  C   UNL     1      58.951  28.952  49.246  1.00  0.00     0.053 C 
BRANCH   3   4
ATOM      4  C   UNL     1      60.054  27.951  49.390  1.00  0.00     0.041 C 
ATOM      5  O   UNL     1      61.223  28.331  49.665  1.00  0.00    -0.550 OA
ATOM      6  O   UNL     1      59.782  26.594  49.268  1.00  0.00    -0.550 OA
ENDBRANCH   3   4
ENDBRANCH   2   3
ENDBRANCH   1   2
BRANCH   1   7
ATOM      7  C   UNL     1      55.521  28.716  50.420  1.00  0.00     0.000 C 
BRANCH   7   8
ATOM      8  C   UNL     1      54.374  27.753  50.082  1.00  0.00    -0.000 C 
BRANCH   8   9
ATOM      9  C   UNL     1      54.870  26.340  49.738  1.00  0.00    -0.003 C 
ATOM     10  C   UNL     1      53.790  25.476  49.088  1.00  0.00     0.004 C 
ENDBRANCH   8   9
ENDBRANCH   7   8
ENDBRANCH   1   7
TORSDOF 6
ENDMDL
MODEL 2
REMARK VINA RESULT:    -3.558     12.515     14.285
REMARK INTER + INTRA:          -5.015
REMARK INTER:                  -4.805
REMARK INTRA:                  -0.210
REMARK UNBOUND:                -0.209
REMARK SMILES CCCCCCCC(=O)[O-]
REMARK SMILES IDX 5 1 6 2 7 3 8 4 9 5 10 6 4 7 3 8 2 9 1 10
REMARK H PARENT
REMARK Flexibility Score: inf
ROOT
ATOM      1  C   UNL     1      62.296  33.177  60.606  1.00  0.00     0.000 C 
ENDROOT
BRANCH   1   2
ATOM      2  C   UNL     1      61.244  32.072  60.421  1.00  0.00     0.006 C 
BRANCH   2   3
ATOM      3  C   UNL     1      61.086  31.193  61.669  1.00  0.00     0.053 C 
BRANCH   3   4
ATOM      4  C   UNL     1      61.972  29.990  61.575  1.00  0.00     0.041 C 
ATOM      5  O   UNL     1      61.483  28.865  61.293  1.00  0.00    -0.550 OA
ATOM      6  O   UNL     1      63.343  30.121  61.749  1.00  0.00    -0.550 OA
ENDBRANCH   3   4
ENDBRANCH   2   3
ENDBRANCH   1   2
BRANCH   1   7
ATOM      7  C   UNL     1      61.685  34.586  60.586  1.00  0.00     0.000 C 
BRANCH   7   8
ATOM      8  C   UNL     1      62.712  35.634  61.042  1.00  0.00    -0.000 C 
BRANCH   8   9
ATOM      9  C   UNL     1      64.106  35.034  61.278  1.00  0.00    -0.003 C 
ATOM     10  C   UNL     1      65.074  36.024  61.924  1.00  0.00     0.004 C 
ENDBRANCH   8   9
ENDBRANCH   7   8
ENDBRANCH   1   7
TORSDOF 6
ENDMDL
MODEL 3
REMARK VINA RESULT:    -3.374      1.041      1.737
REMARK INTER + INTRA:          -4.766
REMARK INTER:                  -4.550
REMARK INTRA:                  -0.216
REMARK UNBOUND:                -0.209
REMARK SMILES CCCCCCCC(=O)[O-]
REMARK SMILES IDX 5 1 6 2 7 3 8 4 9 5 10 6 4 7 3 8 2 9 1 10
REMARK H PARENT
REMARK Flexibility Score: inf
ROOT
ATOM      1  C   UNL     1      57.996  28.999  50.427  1.00  0.00     0.000 C 
ENDROOT
BRANCH   1   2
ATOM      2  C   UNL     1      59.049  29.028  49.307  1.00  0.00     0.006 C 
BRANCH   2   3
ATOM      3  C   UNL     1      59.896  27.749  49.260  1.00  0.00     0.053 C 
BRANCH   3   4
ATOM      4  C   UNL     1      61.296  28.036  49.704  1.00  0.00     0.041 C 
ATOM      5  O   UNL     1      62.255  27.359  49.250  1.00  0.00    -0.550 OA
ATOM      6  O   UNL     1      61.547  29.083  50.581  1.00  0.00    -0.550 OA
ENDBRANCH   3   4
ENDBRANCH   2   3
ENDBRANCH   1   2
BRANCH   1   7
ATOM      7  C   UNL     1      56.980  27.860  50.255  1.00  0.00     0.000 C 
BRANCH   7   8
ATOM      8  C   UNL     1      55.553  28.352  50.541  1.00  0.00    -0.000 C 
BRANCH   8   9
ATOM      9  C   UNL     1      54.479  27.444  49.923  1.00  0.00    -0.003 C 
ATOM     10  C   UNL     1      55.010  26.055  49.572  1.00  0.00     0.004 C 
ENDBRANCH   8   9
ENDBRANCH   7   8
ENDBRANCH   1   7
TORSDOF 6
ENDMDL
MODEL 4
REMARK VINA RESULT:    -3.366      1.087      1.582
REMARK INTER + INTRA:          -4.755
REMARK INTER:                  -4.463
REMARK INTRA:                  -0.292
REMARK UNBOUND:                -0.209
REMARK SMILES CCCCCCCC(=O)[O-]
REMARK SMILES IDX 5 1 6 2 7 3 8 4 9 5 10 6 4 7 3 8 2 9 1 10
REMARK H PARENT
REMARK Flexibility Score: inf
ROOT
ATOM      1  C   UNL     1      57.193  28.829  50.419  1.00  0.00     0.000 C 
ENDROOT
BRANCH   1   2
ATOM      2  C   UNL     1      58.724  28.909  50.535  1.00  0.00     0.006 C 
BRANCH   2   3
ATOM      3  C   UNL     1      59.430  28.672  49.193  1.00  0.00     0.053 C 
BRANCH   3   4
ATOM      4  C   UNL     1      60.400  27.538  49.309  1.00  0.00     0.041 C 
ATOM      5  O   UNL     1      61.638  27.765  49.348  1.00  0.00    -0.550 OA
ATOM      6  O   UNL     1      59.935  26.234  49.423  1.00  0.00    -0.550 OA
ENDBRANCH   3   4
ENDBRANCH   2   3
ENDBRANCH   1   2
BRANCH   1   7
ATOM      7  C   UNL     1      56.682  27.384  50.315  1.00  0.00     0.000 C 
BRANCH   7   8
ATOM      8  C   UNL     1      55.156  27.354  50.142  1.00  0.00    -0.000 C 
BRANCH   8   9
ATOM      9  C   UNL     1      54.499  28.709  50.445  1.00  0.00    -0.003 C 
ATOM     10  C   UNL     1      53.011  28.736  50.099  1.00  0.00     0.004 C 
ENDBRANCH   8   9
ENDBRANCH   7   8
ENDBRANCH   1   7
TORSDOF 6
ENDMDL
MODEL 5
REMARK VINA RESULT:    -3.361     12.407     13.687
REMARK INTER + INTRA:          -4.749
REMARK INTER:                  -4.531
REMARK INTRA:                  -0.218
REMARK UNBOUND:                -0.209
REMARK SMILES CCCCCCCC(=O)[O-]
REMARK SMILES IDX 5 1 6 2 7 3 8 4 9 5 10 6 4 7 3 8 2 9 1 10
REMARK H PARENT
REMARK Flexibility Score: inf
ROOT
ATOM      1  C   UNL     1      61.090  32.067  60.592  1.00  0.00     0.000 C 
ENDROOT
BRANCH   1   2
ATOM      2  C   UNL     1      61.082  31.064  61.757  1.00  0.00     0.006 C 
BRANCH   2   3
ATOM      3  C   UNL     1      62.326  30.167  61.772  1.00  0.00     0.053 C 
BRANCH   3   4
ATOM      4  C   UNL     1      61.972  28.779  61.337  1.00  0.00     0.041 C 
ATOM      5  O   UNL     1      62.738  27.817  61.606  1.00  0.00    -0.550 OA
ATOM      6  O   UNL     1      60.773  28.541  60.678  1.00  0.00    -0.550 OA
ENDBRANCH   3   4
ENDBRANCH   2   3
ENDBRANCH   1   2
BRANCH   1   7
ATOM      7  C   UNL     1      62.252  33.067  60.679  1.00  0.00     0.000 C 
BRANCH   7   8
ATOM      8  C   UNL     1      61.756  34.503  60.453  1.00  0.00    -0.000 C 
BRANCH   8   9
ATOM      9  C   UNL     1      62.710  35.557  61.035  1.00  0.00    -0.003 C 
ATOM     10  C   UNL     1      64.112  35.007  61.296  1.00  0.00     0.004 C 
ENDBRANCH   8   9
ENDBRANCH   7   8
ENDBRANCH   1   7
TORSDOF 6
ENDMDL
MODEL 6
REMARK VINA RESULT:    -3.260      3.037      4.928
REMARK INTER + INTRA:          -4.613
REMARK INTER:                  -4.223
REMARK INTRA:                  -0.389
REMARK UNBOUND:                -0.209
REMARK SMILES CCCCCCCC(=O)[O-]
REMARK SMILES IDX 5 1 6 2 7 3 8 4 9 5 10 6 4 7 3 8 2 9 1 10
REMARK H PARENT
REMARK Flexibility Score: inf
ROOT
ATOM      1  C   UNL     1      57.790  28.546  50.827  1.00  0.00     0.000 C 
ENDROOT
BRANCH   1   2
ATOM      2  C   UNL     1      56.306  28.339  50.481  1.00  0.00     0.006 C 
BRANCH   2   3
ATOM      3  C   UNL     1      55.908  26.857  50.454  1.00  0.00     0.053 C 
BRANCH   3   4
ATOM      4  C   UNL     1      54.625  26.676  49.706  1.00  0.00     0.041 C 
ATOM      5  O   UNL     1      53.792  27.619  49.640  1.00  0.00    -0.550 OA
ATOM      6  O   UNL     1      54.371  25.485  49.039  1.00  0.00    -0.550 OA
ENDBRANCH   3   4
ENDBRANCH   2   3
ENDBRANCH   1   2
BRANCH   1   7
ATOM      7  C   UNL     1      58.597  29.120  49.654  1.00  0.00     0.000 C 
BRANCH   7   8
ATOM      8  C   UNL     1      59.627  28.099  49.147  1.00  0.00    -0.000 C 
BRANCH   8   9
ATOM      9  C   UNL     1      60.073  27.115  50.239  1.00  0.00    -0.003 C 
ATOM     10  C   UNL     1      59.966  25.656  49.799  1.00  0.00     0.004 C 
ENDBRANCH   8   9
ENDBRANCH   7   8
ENDBRANCH   1   7
TORSDOF 6
ENDMDL
MODEL 7
REMARK VINA RESULT:    -3.254     13.298     14.102
REMARK INTER + INTRA:          -4.604
REMARK INTER:                  -4.276
REMARK INTRA:                  -0.328
REMARK UNBOUND:                -0.209
REMARK SMILES CCCCCCCC(=O)[O-]
REMARK SMILES IDX 5 1 6 2 7 3 8 4 9 5 10 6 4 7 3 8 2 9 1 10
REMARK H PARENT
REMARK Flexibility Score: inf
ROOT
ATOM      1  C   UNL     1      62.187  32.474  60.141  1.00  0.00     0.000 C 
ENDROOT
BRANCH   1   2
ATOM      2  C   UNL     1      62.553  33.873  60.663  1.00  0.00     0.006 C 
BRANCH   2   3
ATOM      3  C   UNL     1      64.046  34.008  60.992  1.00  0.00     0.053 C 
BRANCH   3   4
ATOM      4  C   UNL     1      64.362  35.409  61.411  1.00  0.00     0.041 C 
ATOM      5  O   UNL     1      65.553  35.746  61.644  1.00  0.00    -0.550 OA
ATOM      6  O   UNL     1      63.350  36.355  61.497  1.00  0.00    -0.550 OA
ENDBRANCH   3   4
ENDBRANCH   2   3
ENDBRANCH   1   2
BRANCH   1   7
ATOM      7  C   UNL     1      61.025  31.838  60.918  1.00  0.00     0.000 C 
BRANCH   7   8
ATOM      8  C   UNL     1      61.539  30.769  61.894  1.00  0.00    -0.000 C 
BRANCH   8   9
ATOM      9  C   UNL     1      62.957  30.289  61.552  1.00  0.00    -0.003 C 
ATOM     10  C   UNL     1      63.017  28.795  61.237  1.00  0.00     0.004 C 
ENDBRANCH   8   9
ENDBRANCH   7   8
ENDBRANCH   1   7
TORSDOF 6
ENDMDL
MODEL 8
REMARK VINA RESULT:    -3.247      1.602      2.478
REMARK INTER + INTRA:          -4.595
REMARK INTER:                  -4.297
REMARK INTRA:                  -0.298
REMARK UNBOUND:                -0.209
REMARK SMILES CCCCCCCC(=O)[O-]
REMARK SMILES IDX 5 1 6 2 7 3 8 4 9 5 10 6 4 7 3 8 2 9 1 10
REMARK H PARENT
REMARK Flexibility Score: inf
ROOT
ATOM      1  C   UNL     1      56.279  26.178  50.588  1.00  0.00     0.000 C 
ENDROOT
BRANCH   1   2
ATOM      2  C   UNL     1      57.607  26.031  49.829  1.00  0.00     0.006 C 
BRANCH   2   3
ATOM      3  C   UNL     1      58.769  26.746  50.530  1.00  0.00     0.053 C 
BRANCH   3   4
ATOM      4  C   UNL     1      59.332  27.816  49.647  1.00  0.00     0.041 C 
ATOM      5  O   UNL     1      60.441  27.646  49.076  1.00  0.00    -0.550 OA
ATOM      6  O   UNL     1      58.609  28.978  49.416  1.00  0.00    -0.550 OA
ENDBRANCH   3   4
ENDBRANCH   2   3
ENDBRANCH   1   2
BRANCH   1   7
ATOM      7  C   UNL     1      55.054  25.992  49.680  1.00  0.00     0.000 C 
BRANCH   7   8
ATOM      8  C   UNL     1      54.143  27.228  49.729  1.00  0.00    -0.000 C 
BRANCH   8   9
ATOM      9  C   UNL     1      54.827  28.442  50.378  1.00  0.00    -0.003 C 
ATOM     10  C   UNL     1      53.875  29.621  50.575  1.00  0.00     0.004 C 
ENDBRANCH   8   9
ENDBRANCH   7   8
ENDBRANCH   1   7
TORSDOF 6
ENDMDL
MODEL 9
REMARK VINA RESULT:    -3.177     12.660     14.045
REMARK INTER + INTRA:          -4.500
REMARK INTER:                  -4.069
REMARK INTRA:                  -0.431
REMARK UNBOUND:                -0.209
REMARK SMILES CCCCCCCC(=O)[O-]
REMARK SMILES IDX 5 1 6 2 7 3 8 4 9 5 10 6 4 7 3 8 2 9 1 10
REMARK H PARENT
REMARK Flexibility Score: inf
ROOT
ATOM      1  C   UNL     1      61.714  32.328  60.869  1.00  0.00     0.000 C 
ENDROOT
BRANCH   1   2
ATOM      2  C   UNL     1      62.426  31.015  60.505  1.00  0.00     0.006 C 
BRANCH   2   3
ATOM      3  C   UNL     1      63.612  30.711  61.430  1.00  0.00     0.053 C 
BRANCH   3   4
ATOM      4  C   UNL     1      64.864  30.532  60.630  1.00  0.00     0.041 C 
ATOM      5  O   UNL     1      65.151  31.346  59.714  1.00  0.00    -0.550 OA
ATOM      6  O   UNL     1      65.738  29.495  60.930  1.00  0.00    -0.550 OA
ENDBRANCH   3   4
ENDBRANCH   2   3
ENDBRANCH   1   2
BRANCH   1   7
ATOM      7  C   UNL     1      62.149  33.504  59.983  1.00  0.00     0.000 C 
BRANCH   7   8
ATOM      8  C   UNL     1      62.755  34.633  60.830  1.00  0.00    -0.000 C 
BRANCH   8   9
ATOM      9  C   UNL     1      64.238  34.400  61.154  1.00  0.00    -0.003 C 
ATOM     10  C   UNL     1      64.900  35.613  61.806  1.00  0.00     0.004 C 
ENDBRANCH   8   9
ENDBRANCH   7   8
ENDBRANCH   1   7
TORSDOF 6
ENDMDL
