MODEL 1
REMARK VINA RESULT:    11.309      0.000      0.000
REMARK INTER + INTRA:          11.811
REMARK INTER:                  11.971
REMARK INTRA:                  -0.160
REMARK UNBOUND:                -0.160
REMARK SMILES CC(C)[C@@H]1CC[C@H](C)CC1=O
REMARK SMILES IDX 8 1 7 2 6 3 5 4 4 5 10 6 11 7 9 8 2 9 1 10 3 11
REMARK H PARENT
REMARK Flexibility Score: inf
ROOT
ATOM      1  C   UNL     1      10.846  10.573  31.993  1.00  0.00     0.008 C 
ATOM      2  C   UNL     1      10.350  10.974  30.595  1.00  0.00    -0.007 C 
ATOM      3  C   UNL     1      10.041  12.486  30.506  1.00  0.00     0.004 C 
ATOM      4  C   UNL     1      11.308  13.365  30.507  1.00  0.00     0.012 C 
ATOM      5  C   UNL     1      12.295  12.960  29.385  1.00  0.00     0.058 C 
ATOM      6  C   UNL     1      12.538  11.465  29.510  1.00  0.00     0.136 C 
ATOM      7  O   UNL     1      13.654  11.006  29.705  1.00  0.00    -0.299 OA
ATOM      8  C   UNL     1      11.348  10.551  29.500  1.00  0.00     0.079 C 
ENDROOT
BRANCH   5   9
ATOM      9  C   UNL     1      13.617  13.795  29.394  1.00  0.00    -0.007 C 
ATOM     10  C   UNL     1      13.991  14.247  27.970  1.00  0.00     0.008 C 
ATOM     11  C   UNL     1      13.528  15.041  30.293  1.00  0.00     0.008 C 
ENDBRANCH   5   9
TORSDOF 1
ENDMDL
MODEL 2
REMARK VINA RESULT:    11.768      1.530      2.171
REMARK INTER + INTRA:          12.296
REMARK INTER:                  12.443
REMARK INTRA:                  -0.147
REMARK UNBOUND:                -0.160
REMARK SMILES CC(C)[C@@H]1CC[C@H](C)CC1=O
REMARK SMILES IDX 8 1 7 2 6 3 5 4 4 5 10 6 11 7 9 8 2 9 1 10 3 11
REMARK H PARENT
REMARK Flexibility Score: inf
ROOT
ATOM      1  C   UNL     1      10.174  10.063  30.140  1.00  0.00     0.008 C 
ATOM      2  C   UNL     1      10.414  11.294  31.028  1.00  0.00    -0.007 C 
ATOM      3  C   UNL     1      11.850  11.320  31.599  1.00  0.00     0.004 C 
ATOM      4  C   UNL     1      12.920  11.651  30.538  1.00  0.00     0.012 C 
ATOM      5  C   UNL     1      12.617  12.982  29.807  1.00  0.00     0.058 C 
ATOM      6  C   UNL     1      11.189  12.906  29.293  1.00  0.00     0.136 C 
ATOM      7  O   UNL     1      10.925  12.995  28.102  1.00  0.00    -0.299 OA
ATOM      8  C   UNL     1      10.098  12.602  30.277  1.00  0.00     0.079 C 
ENDROOT
BRANCH   5   9
ATOM      9  C   UNL     1      13.652  13.320  28.684  1.00  0.00    -0.007 C 
ATOM     10  C   UNL     1      13.891  14.839  28.596  1.00  0.00     0.008 C 
ATOM     11  C   UNL     1      15.008  12.624  28.897  1.00  0.00     0.008 C 
ENDBRANCH   5   9
TORSDOF 1
ENDMDL
MODEL 3
REMARK VINA RESULT:    11.898      1.509      2.157
REMARK INTER + INTRA:          12.434
REMARK INTER:                  12.595
REMARK INTRA:                  -0.161
REMARK UNBOUND:                -0.160
REMARK SMILES CC(C)[C@@H]1CC[C@H](C)CC1=O
REMARK SMILES IDX 8 1 7 2 6 3 5 4 4 5 10 6 11 7 9 8 2 9 1 10 3 11
REMARK H PARENT
REMARK Flexibility Score: inf
ROOT
ATOM      1  C   UNL     1       9.349  11.455  31.052  1.00  0.00     0.008 C 
ATOM      2  C   UNL     1      10.708  10.749  30.929  1.00  0.00    -0.007 C 
ATOM      3  C   UNL     1      11.113  10.531  29.453  1.00  0.00     0.004 C 
ATOM      4  C   UNL     1      11.522  11.835  28.738  1.00  0.00     0.012 C 
ATOM      5  C   UNL     1      12.651  12.579  29.493  1.00  0.00     0.058 C 
ATOM      6  C   UNL     1      12.207  12.739  30.937  1.00  0.00     0.136 C 
ATOM      7  O   UNL     1      12.082  13.838  31.457  1.00  0.00    -0.299 OA
ATOM      8  C   UNL     1      11.809  11.507  31.695  1.00  0.00     0.079 C 
ENDROOT
BRANCH   5   9
ATOM      9  C   UNL     1      13.051  13.936  28.825  1.00  0.00    -0.007 C 
ATOM     10  C   UNL     1      14.581  14.052  28.690  1.00  0.00     0.008 C 
ATOM     11  C   UNL     1      12.423  14.120  27.432  1.00  0.00     0.008 C 
ENDBRANCH   5   9
TORSDOF 1
ENDMDL
MODEL 4
REMARK VINA RESULT:    14.068      1.073      3.927
REMARK INTER + INTRA:          14.730
REMARK INTER:                  14.141
REMARK INTRA:                   0.589
REMARK UNBOUND:                -0.160
REMARK SMILES CC(C)[C@@H]1CC[C@H](C)CC1=O
REMARK SMILES IDX 8 1 7 2 6 3 5 4 4 5 10 6 11 7 9 8 2 9 1 10 3 11
REMARK H PARENT
REMARK Flexibility Score: inf
ROOT
ATOM      1  C   UNL     1      13.237  14.147  27.695  1.00  0.00     0.008 C 
ATOM      2  C   UNL     1      14.005  13.679  28.941  1.00  0.00    -0.007 C 
ATOM      3  C   UNL     1      13.524  14.403  30.219  1.00  0.00     0.004 C 
ATOM      4  C   UNL     1      12.127  13.944  30.686  1.00  0.00     0.012 C 
ATOM      5  C   UNL     1      12.058  12.411  30.888  1.00  0.00     0.058 C 
ATOM      6  C   UNL     1      12.566  11.759  29.612  1.00  0.00     0.136 C 
ATOM      7  O   UNL     1      11.868  11.006  28.949  1.00  0.00    -0.299 OA
ATOM      8  C   UNL     1      13.926  12.150  29.111  1.00  0.00     0.079 C 
ENDROOT
BRANCH   5   9
ATOM      9  C   UNL     1      10.639  11.905  31.306  1.00  0.00    -0.007 C 
ATOM     10  C   UNL     1       9.567  12.394  30.314  1.00  0.00     0.008 C 
ATOM     11  C   UNL     1      10.556  10.371  31.397  1.00  0.00     0.008 C 
ENDBRANCH   5   9
TORSDOF 1
ENDMDL
MODEL 5
REMARK VINA RESULT:    14.281      1.537      4.247
REMARK INTER + INTRA:          14.956
REMARK INTER:                  14.349
REMARK INTRA:                   0.607
REMARK UNBOUND:                -0.160
REMARK SMILES CC(C)[C@@H]1CC[C@H](C)CC1=O
REMARK SMILES IDX 8 1 7 2 6 3 5 4 4 5 10 6 11 7 9 8 2 9 1 10 3 11
REMARK H PARENT
REMARK Flexibility Score: inf
ROOT
ATOM      1  C   UNL     1      13.775  14.951  29.607  1.00  0.00     0.008 C 
ATOM      2  C   UNL     1      13.563  13.940  28.469  1.00  0.00    -0.007 C 
ATOM      3  C   UNL     1      14.296  12.606  28.738  1.00  0.00     0.004 C 
ATOM      4  C   UNL     1      13.637  11.766  29.851  1.00  0.00     0.012 C 
ATOM      5  C   UNL     1      12.139  11.498  29.564  1.00  0.00     0.058 C 
ATOM      6  C   UNL     1      11.482  12.838  29.282  1.00  0.00     0.136 C 
ATOM      7  O   UNL     1      10.561  13.262  29.965  1.00  0.00    -0.299 OA
ATOM      8  C   UNL     1      12.065  13.699  28.201  1.00  0.00     0.079 C 
ENDROOT
BRANCH   5   9
ATOM      9  C   UNL     1      11.426  10.696  30.701  1.00  0.00    -0.007 C 
ATOM     10  C   UNL     1      11.707  11.326  32.078  1.00  0.00     0.008 C 
ATOM     11  C   UNL     1       9.901  10.614  30.504  1.00  0.00     0.008 C 
ENDBRANCH   5   9
TORSDOF 1
ENDMDL
