MODEL 1
REMARK VINA RESULT:    -5.518      0.000      0.000
REMARK INTER + INTRA:          -6.815
REMARK INTER:                  -6.647
REMARK INTRA:                  -0.168
REMARK UNBOUND:                -0.168
REMARK SMILES O=c1c(O)c(-c2ccc(O)c(O)c2)oc2cc(O)cc(O)c12
REMARK SMILES IDX 5 1 3 2 2 3 1 4 22 5 20 6 19 7 17 8 16 9 15 10 14 11 6 12
REMARK SMILES IDX 7 13 8 14 9 15 13 16 11 17 10 18 12 20 4 22 21 24 18 26
REMARK H PARENT 10 19 12 21 4 23 21 25 18 27
REMARK Flexibility Score: inf
ROOT
ATOM      1  C   UNL     1      24.831  -3.964 -18.257  1.00  0.00     0.180 A 
ATOM      2  C   UNL     1      23.534  -4.286 -18.701  1.00  0.00     0.208 A 
ATOM      3  C   UNL     1      23.145  -5.634 -18.738  1.00  0.00     0.238 A 
ATOM      4  O   UNL     1      21.983  -5.934 -19.124  1.00  0.00    -0.285 OA
ATOM      5  C   UNL     1      24.061  -6.635 -18.352  1.00  0.00     0.111 A 
ATOM      6  C   UNL     1      23.750  -8.015 -18.364  1.00  0.00     0.134 A 
ATOM      7  C   UNL     1      24.720  -8.950 -17.974  1.00  0.00     0.093 A 
ATOM      8  C   UNL     1      25.993  -8.531 -17.574  1.00  0.00     0.123 A 
ATOM      9  C   UNL     1      26.304  -7.171 -17.559  1.00  0.00     0.094 A 
ATOM     10  C   UNL     1      25.351  -6.223 -17.943  1.00  0.00     0.146 A 
ATOM     11  O   UNL     1      25.672  -4.935 -17.915  1.00  0.00    -0.452 OA
ENDROOT
BRANCH   1  12
ATOM     12  C   UNL     1      25.308  -2.565 -18.171  1.00  0.00     0.025 A 
ATOM     13  C   UNL     1      26.329  -2.085 -19.010  1.00  0.00     0.016 A 
ATOM     14  C   UNL     1      26.745  -0.754 -18.926  1.00  0.00     0.051 A 
ATOM     15  C   UNL     1      26.140   0.121 -18.015  1.00  0.00     0.157 A 
ATOM     16  C   UNL     1      24.689  -1.678 -17.274  1.00  0.00     0.062 A 
ATOM     17  C   UNL     1      25.104  -0.344 -17.187  1.00  0.00     0.158 A 
BRANCH  15  18
ATOM     18  O   UNL     1      26.558   1.448 -17.933  1.00  0.00    -0.504 OA
ATOM     19  H   UNL     1      26.447   1.988 -17.083  1.00  0.00     0.293 HD
ENDBRANCH  15  18
BRANCH  17  20
ATOM     20  O   UNL     1      24.476   0.502 -16.275  1.00  0.00    -0.504 OA
ATOM     21  H   UNL     1      24.491   0.325 -15.277  1.00  0.00     0.293 HD
ENDBRANCH  17  20
ENDBRANCH   1  12
BRANCH   2  22
ATOM     22  O   UNL     1      22.662  -3.280 -19.125  1.00  0.00    -0.502 OA
ATOM     23  H   UNL     1      22.858  -2.695 -19.929  1.00  0.00     0.293 HD
ENDBRANCH   2  22
BRANCH   6  24
ATOM     24  O   UNL     1      22.489  -8.464 -18.761  1.00  0.00    -0.507 OA
ATOM     25  H   UNL     1      21.638  -8.052 -18.396  1.00  0.00     0.293 HD
ENDBRANCH   6  24
BRANCH   8  26
ATOM     26  O   UNL     1      26.957  -9.460 -17.187  1.00  0.00    -0.508 OA
ATOM     27  H   UNL     1      27.946  -9.291 -17.335  1.00  0.00     0.293 HD
ENDBRANCH   8  26
TORSDOF 6
ENDMDL
MODEL 2
REMARK VINA RESULT:    -3.616      1.610      3.235
REMARK INTER + INTRA:          -4.524
REMARK INTER:                  -4.355
REMARK INTRA:                  -0.169
REMARK UNBOUND:                -0.168
REMARK SMILES O=c1c(O)c(-c2ccc(O)c(O)c2)oc2cc(O)cc(O)c12
REMARK SMILES IDX 5 1 3 2 2 3 1 4 22 5 20 6 19 7 17 8 16 9 15 10 14 11 6 12
REMARK SMILES IDX 7 13 8 14 9 15 13 16 11 17 10 18 12 20 4 22 21 24 18 26
REMARK H PARENT 10 19 12 21 4 23 21 25 18 27
REMARK Flexibility Score: inf
ROOT
ATOM      1  C   UNL     1      24.958  -3.263 -18.184  1.00  0.00     0.180 A 
ATOM      2  C   UNL     1      25.746  -4.427 -18.259  1.00  0.00     0.208 A 
ATOM      3  C   UNL     1      25.119  -5.654 -18.527  1.00  0.00     0.238 A 
ATOM      4  O   UNL     1      25.815  -6.703 -18.607  1.00  0.00    -0.285 OA
ATOM      5  C   UNL     1      23.719  -5.700 -18.692  1.00  0.00     0.111 A 
ATOM      6  C   UNL     1      23.010  -6.896 -18.959  1.00  0.00     0.134 A 
ATOM      7  C   UNL     1      21.615  -6.860 -19.102  1.00  0.00     0.093 A 
ATOM      8  C   UNL     1      20.917  -5.653 -18.982  1.00  0.00     0.123 A 
ATOM      9  C   UNL     1      21.613  -4.472 -18.720  1.00  0.00     0.094 A 
ATOM     10  C   UNL     1      23.003  -4.486 -18.575  1.00  0.00     0.146 A 
ATOM     11  O   UNL     1      23.640  -3.347 -18.331  1.00  0.00    -0.452 OA
ENDROOT
BRANCH   1  12
ATOM     12  C   UNL     1      25.548  -1.930 -17.926  1.00  0.00     0.025 A 
ATOM     13  C   UNL     1      26.470  -1.351 -18.816  1.00  0.00     0.016 A 
ATOM     14  C   UNL     1      26.996  -0.082 -18.562  1.00  0.00     0.051 A 
ATOM     15  C   UNL     1      26.598   0.635 -17.426  1.00  0.00     0.157 A 
ATOM     16  C   UNL     1      25.137  -1.199 -16.798  1.00  0.00     0.062 A 
ATOM     17  C   UNL     1      25.661   0.074 -16.542  1.00  0.00     0.158 A 
BRANCH  15  18
ATOM     18  O   UNL     1      27.125   1.901 -17.175  1.00  0.00    -0.504 OA
ATOM     19  H   UNL     1      26.572   2.740 -17.304  1.00  0.00     0.293 HD
ENDBRANCH  15  18
BRANCH  17  20
ATOM     20  O   UNL     1      25.240   0.763 -15.406  1.00  0.00    -0.504 OA
ATOM     21  H   UNL     1      24.873   1.706 -15.453  1.00  0.00     0.293 HD
ENDBRANCH  17  20
ENDBRANCH   1  12
BRANCH   2  22
ATOM     22  O   UNL     1      27.125  -4.363 -18.042  1.00  0.00    -0.502 OA
ATOM     23  H   UNL     1      27.657  -5.150 -17.692  1.00  0.00     0.293 HD
ENDBRANCH   2  22
BRANCH   6  24
ATOM     24  O   UNL     1      23.678  -8.115 -19.083  1.00  0.00    -0.507 OA
ATOM     25  H   UNL     1      24.677  -8.161 -19.245  1.00  0.00     0.293 HD
ENDBRANCH   6  24
BRANCH   8  26
ATOM     26  O   UNL     1      19.532  -5.617 -19.123  1.00  0.00    -0.508 OA
ATOM     27  H   UNL     1      18.956  -5.004 -18.557  1.00  0.00     0.293 HD
ENDBRANCH   8  26
TORSDOF 6
ENDMDL
