MODEL 1
REMARK VINA RESULT:    -3.683      0.000      0.000
REMARK INTER + INTRA:          -4.751
REMARK INTER:                  -4.544
REMARK INTRA:                  -0.207
REMARK UNBOUND:                -0.207
REMARK SMILES CCCCCC(=O)[O-]
REMARK SMILES IDX 4 1 5 2 6 3 7 4 8 5 3 6 2 7 1 8
REMARK H PARENT
REMARK Flexibility Score: inf
ROOT
ATOM      1  C   UNL     1      14.176 -30.098  22.902  1.00  0.00     0.006 C 
ENDROOT
BRANCH   1   2
ATOM      2  C   UNL     1      14.220 -30.343  21.391  1.00  0.00     0.053 C 
BRANCH   2   3
ATOM      3  C   UNL     1      13.122 -31.272  20.978  1.00  0.00     0.041 C 
ATOM      4  O   UNL     1      11.925 -31.003  21.262  1.00  0.00    -0.550 OA
ATOM      5  O   UNL     1      13.425 -32.460  20.325  1.00  0.00    -0.550 OA
ENDBRANCH   2   3
ENDBRANCH   1   2
BRANCH   1   6
ATOM      6  C   UNL     1      13.705 -28.674  23.215  1.00  0.00     0.000 C 
BRANCH   6   7
ATOM      7  C   UNL     1      12.418 -28.691  24.047  1.00  0.00    -0.003 C 
ATOM      8  C   UNL     1      11.256 -28.072  23.275  1.00  0.00     0.004 C 
ENDBRANCH   6   7
ENDBRANCH   1   6
TORSDOF 4
ENDMDL
MODEL 2
REMARK VINA RESULT:    -3.553      1.536      1.956
REMARK INTER + INTRA:          -4.590
REMARK INTER:                  -4.493
REMARK INTRA:                  -0.097
REMARK UNBOUND:                -0.207
REMARK SMILES CCCCCC(=O)[O-]
REMARK SMILES IDX 4 1 5 2 6 3 7 4 8 5 3 6 2 7 1 8
REMARK H PARENT
REMARK Flexibility Score: inf
ROOT
ATOM      1  C   UNL     1      12.698 -31.083  22.491  1.00  0.00     0.006 C 
ENDROOT
BRANCH   1   2
ATOM      2  C   UNL     1      13.640 -31.252  21.296  1.00  0.00     0.053 C 
BRANCH   2   3
ATOM      3  C   UNL     1      14.074 -32.678  21.167  1.00  0.00     0.041 C 
ATOM      4  O   UNL     1      13.921 -33.291  20.077  1.00  0.00    -0.550 OA
ATOM      5  O   UNL     1      14.602 -33.346  22.264  1.00  0.00    -0.550 OA
ENDBRANCH   2   3
ENDBRANCH   1   2
BRANCH   1   6
ATOM      6  C   UNL     1      13.314 -30.163  23.551  1.00  0.00     0.000 C 
BRANCH   6   7
ATOM      7  C   UNL     1      12.362 -29.015  23.903  1.00  0.00    -0.003 C 
ATOM      8  C   UNL     1      13.104 -27.683  23.964  1.00  0.00     0.004 C 
ENDBRANCH   6   7
ENDBRANCH   1   6
TORSDOF 4
ENDMDL
MODEL 3
REMARK VINA RESULT:    -3.552      1.973      2.752
REMARK INTER + INTRA:          -4.590
REMARK INTER:                  -4.463
REMARK INTRA:                  -0.127
REMARK UNBOUND:                -0.207
REMARK SMILES CCCCCC(=O)[O-]
REMARK SMILES IDX 4 1 5 2 6 3 7 4 8 5 3 6 2 7 1 8
REMARK H PARENT
REMARK Flexibility Score: inf
ROOT
ATOM      1  C   UNL     1      13.147 -31.533  20.870  1.00  0.00     0.006 C 
ENDROOT
BRANCH   1   2
ATOM      2  C   UNL     1      14.450 -32.107  21.434  1.00  0.00     0.053 C 
BRANCH   2   3
ATOM      3  C   UNL     1      14.620 -33.533  21.012  1.00  0.00     0.041 C 
ATOM      4  O   UNL     1      15.068 -34.385  21.825  1.00  0.00    -0.550 OA
ATOM      5  O   UNL     1      14.333 -33.911  19.707  1.00  0.00    -0.550 OA
ENDBRANCH   2   3
ENDBRANCH   1   2
BRANCH   1   6
ATOM      6  C   UNL     1      12.301 -30.897  21.979  1.00  0.00     0.000 C 
BRANCH   6   7
ATOM      7  C   UNL     1      13.134 -30.674  23.246  1.00  0.00    -0.003 C 
ATOM      8  C   UNL     1      12.780 -29.346  23.910  1.00  0.00     0.004 C 
ENDBRANCH   6   7
ENDBRANCH   1   6
TORSDOF 4
ENDMDL
MODEL 4
REMARK VINA RESULT:    -3.480      1.896      3.606
REMARK INTER + INTRA:          -4.501
REMARK INTER:                  -4.275
REMARK INTRA:                  -0.226
REMARK UNBOUND:                -0.207
REMARK SMILES CCCCCC(=O)[O-]
REMARK SMILES IDX 4 1 5 2 6 3 7 4 8 5 3 6 2 7 1 8
REMARK H PARENT
REMARK Flexibility Score: inf
ROOT
ATOM      1  C   UNL     1      13.398 -30.260  23.473  1.00  0.00     0.006 C 
ENDROOT
BRANCH   1   2
ATOM      2  C   UNL     1      12.628 -29.122  24.150  1.00  0.00     0.053 C 
BRANCH   2   3
ATOM      3  C   UNL     1      11.624 -28.536  23.209  1.00  0.00     0.041 C 
ATOM      4  O   UNL     1      11.420 -27.293  23.194  1.00  0.00    -0.550 OA
ATOM      5  O   UNL     1      10.877 -29.366  22.382  1.00  0.00    -0.550 OA
ENDBRANCH   2   3
ENDBRANCH   1   2
BRANCH   1   6
ATOM      6  C   UNL     1      14.479 -29.711  22.535  1.00  0.00     0.000 C 
BRANCH   6   7
ATOM      7  C   UNL     1      14.617 -30.586  21.284  1.00  0.00    -0.003 C 
ATOM      8  C   UNL     1      13.352 -31.405  21.043  1.00  0.00     0.004 C 
ENDBRANCH   6   7
ENDBRANCH   1   6
TORSDOF 4
ENDMDL
MODEL 5
REMARK VINA RESULT:    -3.400      2.335      2.700
REMARK INTER + INTRA:          -4.403
REMARK INTER:                  -4.338
REMARK INTRA:                  -0.065
REMARK UNBOUND:                -0.207
REMARK SMILES CCCCCC(=O)[O-]
REMARK SMILES IDX 4 1 5 2 6 3 7 4 8 5 3 6 2 7 1 8
REMARK H PARENT
REMARK Flexibility Score: inf
ROOT
ATOM      1  C   UNL     1      13.984 -30.792  23.323  1.00  0.00     0.006 C 
ENDROOT
BRANCH   1   2
ATOM      2  C   UNL     1      13.662 -32.178  23.889  1.00  0.00     0.053 C 
BRANCH   2   3
ATOM      3  C   UNL     1      14.604 -33.202  23.336  1.00  0.00     0.041 C 
ATOM      4  O   UNL     1      15.413 -33.795  24.097  1.00  0.00    -0.550 OA
ATOM      5  O   UNL     1      14.622 -33.465  21.972  1.00  0.00    -0.550 OA
ENDBRANCH   2   3
ENDBRANCH   1   2
BRANCH   1   6
ATOM      6  C   UNL     1      12.704 -30.054  22.914  1.00  0.00     0.000 C 
BRANCH   6   7
ATOM      7  C   UNL     1      12.408 -28.895  23.872  1.00  0.00    -0.003 C 
ATOM      8  C   UNL     1      11.271 -28.023  23.345  1.00  0.00     0.004 C 
ENDBRANCH   6   7
ENDBRANCH   1   6
TORSDOF 4
ENDMDL
MODEL 6
REMARK VINA RESULT:    -3.372      9.715     10.533
REMARK INTER + INTRA:          -4.368
REMARK INTER:                  -4.237
REMARK INTRA:                  -0.131
REMARK UNBOUND:                -0.207
REMARK SMILES CCCCCC(=O)[O-]
REMARK SMILES IDX 4 1 5 2 6 3 7 4 8 5 3 6 2 7 1 8
REMARK H PARENT
REMARK Flexibility Score: inf
ROOT
ATOM      1  C   UNL     1      20.967 -25.764  20.135  1.00  0.00     0.006 C 
ENDROOT
BRANCH   1   2
ATOM      2  C   UNL     1      22.473 -25.891  19.888  1.00  0.00     0.053 C 
BRANCH   2   3
ATOM      3  C   UNL     1      23.174 -24.620  20.254  1.00  0.00     0.041 C 
ATOM      4  O   UNL     1      23.905 -24.034  19.412  1.00  0.00    -0.550 OA
ATOM      5  O   UNL     1      23.060 -24.109  21.540  1.00  0.00    -0.550 OA
ENDBRANCH   2   3
ENDBRANCH   1   2
BRANCH   1   6
ATOM      6  C   UNL     1      20.525 -26.655  21.302  1.00  0.00     0.000 C 
BRANCH   6   7
ATOM      7  C   UNL     1      19.883 -27.950  20.791  1.00  0.00    -0.003 C 
ATOM      8  C   UNL     1      20.831 -29.135  20.952  1.00  0.00     0.004 C 
ENDBRANCH   6   7
ENDBRANCH   1   6
TORSDOF 4
ENDMDL
MODEL 7
REMARK VINA RESULT:    -3.274      3.828      5.127
REMARK INTER + INTRA:          -4.246
REMARK INTER:                  -4.106
REMARK INTRA:                  -0.141
REMARK UNBOUND:                -0.207
REMARK SMILES CCCCCC(=O)[O-]
REMARK SMILES IDX 4 1 5 2 6 3 7 4 8 5 3 6 2 7 1 8
REMARK H PARENT
REMARK Flexibility Score: inf
ROOT
ATOM      1  C   UNL     1      15.286 -34.375  21.544  1.00  0.00     0.006 C 
ENDROOT
BRANCH   1   2
ATOM      2  C   UNL     1      15.042 -34.789  20.089  1.00  0.00     0.053 C 
BRANCH   2   3
ATOM      3  C   UNL     1      16.332 -35.160  19.427  1.00  0.00     0.041 C 
ATOM      4  O   UNL     1      17.000 -34.289  18.810  1.00  0.00    -0.550 OA
ATOM      5  O   UNL     1      16.771 -36.477  19.448  1.00  0.00    -0.550 OA
ENDBRANCH   2   3
ENDBRANCH   1   2
BRANCH   1   6
ATOM      6  C   UNL     1      14.624 -33.026  21.850  1.00  0.00     0.000 C 
BRANCH   6   7
ATOM      7  C   UNL     1      13.786 -32.544  20.661  1.00  0.00    -0.003 C 
ATOM      8  C   UNL     1      12.951 -31.322  21.037  1.00  0.00     0.004 C 
ENDBRANCH   6   7
ENDBRANCH   1   6
TORSDOF 4
ENDMDL
MODEL 8
REMARK VINA RESULT:    -3.269     10.098     10.757
REMARK INTER + INTRA:          -4.241
REMARK INTER:                  -4.008
REMARK INTRA:                  -0.233
REMARK UNBOUND:                -0.207
REMARK SMILES CCCCCC(=O)[O-]
REMARK SMILES IDX 4 1 5 2 6 3 7 4 8 5 3 6 2 7 1 8
REMARK H PARENT
REMARK Flexibility Score: inf
ROOT
ATOM      1  C   UNL     1      22.753 -26.885  21.116  1.00  0.00     0.006 C 
ENDROOT
BRANCH   1   2
ATOM      2  C   UNL     1      23.187 -26.129  19.857  1.00  0.00     0.053 C 
BRANCH   2   3
ATOM      3  C   UNL     1      23.458 -24.692  20.176  1.00  0.00     0.041 C 
ATOM      4  O   UNL     1      23.104 -24.212  21.285  1.00  0.00    -0.550 OA
ATOM      5  O   UNL     1      24.057 -23.871  19.230  1.00  0.00    -0.550 OA
ENDBRANCH   2   3
ENDBRANCH   1   2
BRANCH   1   6
ATOM      6  C   UNL     1      21.422 -27.612  20.890  1.00  0.00     0.000 C 
BRANCH   6   7
ATOM      7  C   UNL     1      20.302 -26.617  20.567  1.00  0.00    -0.003 C 
ATOM      8  C   UNL     1      19.970 -25.749  21.777  1.00  0.00     0.004 C 
ENDBRANCH   6   7
ENDBRANCH   1   6
TORSDOF 4
ENDMDL
MODEL 9
REMARK VINA RESULT:    -3.164      2.504      3.973
REMARK INTER + INTRA:          -4.110
REMARK INTER:                  -3.868
REMARK INTRA:                  -0.242
REMARK UNBOUND:                -0.207
REMARK SMILES CCCCCC(=O)[O-]
REMARK SMILES IDX 4 1 5 2 6 3 7 4 8 5 3 6 2 7 1 8
REMARK H PARENT
REMARK Flexibility Score: inf
ROOT
ATOM      1  C   UNL     1      13.786 -32.146  23.808  1.00  0.00     0.006 C 
ENDROOT
BRANCH   1   2
ATOM      2  C   UNL     1      13.443 -30.729  23.339  1.00  0.00     0.053 C 
BRANCH   2   3
ATOM      3  C   UNL     1      13.445 -30.658  21.844  1.00  0.00     0.041 C 
ATOM      4  O   UNL     1      12.550 -31.245  21.180  1.00  0.00    -0.550 OA
ATOM      5  O   UNL     1      14.463 -29.984  21.182  1.00  0.00    -0.550 OA
ENDBRANCH   2   3
ENDBRANCH   1   2
BRANCH   1   6
ATOM      6  C   UNL     1      15.262 -32.469  23.547  1.00  0.00     0.000 C 
BRANCH   6   7
ATOM      7  C   UNL     1      15.429 -33.913  23.059  1.00  0.00    -0.003 C 
ATOM      8  C   UNL     1      15.007 -34.053  21.599  1.00  0.00     0.004 C 
ENDBRANCH   6   7
ENDBRANCH   1   6
TORSDOF 4
ENDMDL
