MODEL 1
REMARK VINA RESULT:    -4.268      0.000      0.000
REMARK INTER + INTRA:          -7.493
REMARK INTER:                  -6.140
REMARK INTRA:                  -1.353
REMARK UNBOUND:                -1.353
REMARK SMILES O=C(CO)[C@@H](O)[C@H](O)[C@@H](O)CO
REMARK SMILES IDX 7 1 9 2 11 3 12 4 10 6 5 8 2 9 1 10 3 11 4 12 6 14 8 16
REMARK H PARENT 12 5 10 7 4 13 6 15 8 17
REMARK Flexibility Score: inf
ROOT
ATOM      1  C   UNL     1      -0.777  17.599  47.890  1.00  0.00     0.181 C 
ENDROOT
BRANCH   1   2
ATOM      2  C   UNL     1      -1.787  16.678  47.153  1.00  0.00     0.171 C 
BRANCH   2   3
ATOM      3  C   UNL     1      -1.218  16.125  45.830  1.00  0.00     0.190 C 
BRANCH   3   4
ATOM      4  O   UNL     1      -1.510  16.983  44.761  1.00  0.00    -0.394 OA
ATOM      5  H   UNL     1      -2.110  16.482  44.150  1.00  0.00     0.210 HD
ENDBRANCH   3   4
ENDBRANCH   2   3
BRANCH   2   6
ATOM      6  O   UNL     1      -3.015  17.329  46.932  1.00  0.00    -0.388 OA
ATOM      7  H   UNL     1      -2.990  17.735  46.027  1.00  0.00     0.211 HD
ENDBRANCH   2   6
ENDBRANCH   1   2
BRANCH   1   8
ATOM      8  C   UNL     1      -1.282  18.031  49.290  1.00  0.00     0.214 C 
BRANCH   8   9
ATOM      9  C   UNL     1      -1.438  19.534  49.362  1.00  0.00     0.189 C 
ATOM     10  O   UNL     1      -0.468  20.232  49.620  1.00  0.00    -0.294 OA
BRANCH   9  11
ATOM     11  C   UNL     1      -2.767  20.193  49.111  1.00  0.00     0.234 C 
BRANCH  11  12
ATOM     12  O   UNL     1      -3.189  19.943  47.799  1.00  0.00    -0.388 OA
ATOM     13  H   UNL     1      -2.458  19.432  47.361  1.00  0.00     0.211 HD
ENDBRANCH  11  12
ENDBRANCH   9  11
ENDBRANCH   8   9
BRANCH   8  14
ATOM     14  O   UNL     1      -2.508  17.413  49.587  1.00  0.00    -0.382 OA
ATOM     15  H   UNL     1      -2.822  16.984  48.749  1.00  0.00     0.211 HD
ENDBRANCH   8  14
ENDBRANCH   1   8
BRANCH   1  16
ATOM     16  O   UNL     1      -0.412  18.705  47.097  1.00  0.00    -0.387 OA
ATOM     17  H   UNL     1      -0.722  19.529  47.553  1.00  0.00     0.211 HD
ENDBRANCH   1  16
TORSDOF 10
ENDMDL
MODEL 2
REMARK VINA RESULT:    -4.212      1.376      1.912
REMARK INTER + INTRA:          -7.411
REMARK INTER:                  -6.365
REMARK INTRA:                  -1.047
REMARK UNBOUND:                -1.353
REMARK SMILES O=C(CO)[C@@H](O)[C@H](O)[C@@H](O)CO
REMARK SMILES IDX 7 1 9 2 11 3 12 4 10 6 5 8 2 9 1 10 3 11 4 12 6 14 8 16
REMARK H PARENT 12 5 10 7 4 13 6 15 8 17
REMARK Flexibility Score: inf
ROOT
ATOM      1  C   UNL     1      -0.925  17.356  46.519  1.00  0.00     0.181 C 
ENDROOT
BRANCH   1   2
ATOM      2  C   UNL     1      -1.031  16.173  45.519  1.00  0.00     0.171 C 
BRANCH   2   3
ATOM      3  C   UNL     1       0.245  16.009  44.668  1.00  0.00     0.190 C 
BRANCH   3   4
ATOM      4  O   UNL     1       1.337  16.646  45.272  1.00  0.00    -0.394 OA
ATOM      5  H   UNL     1       2.137  16.097  45.063  1.00  0.00     0.210 HD
ENDBRANCH   3   4
ENDBRANCH   2   3
BRANCH   2   6
ATOM      6  O   UNL     1      -2.166  16.293  44.695  1.00  0.00    -0.388 OA
ATOM      7  H   UNL     1      -1.873  16.650  43.817  1.00  0.00     0.211 HD
ENDBRANCH   2   6
ENDBRANCH   1   2
BRANCH   1   8
ATOM      8  C   UNL     1      -2.040  17.326  47.594  1.00  0.00     0.214 C 
BRANCH   8   9
ATOM      9  C   UNL     1      -1.850  18.446  48.593  1.00  0.00     0.189 C 
ATOM     10  O   UNL     1      -0.916  18.402  49.381  1.00  0.00    -0.294 OA
BRANCH   9  11
ATOM     11  C   UNL     1      -2.784  19.625  48.632  1.00  0.00     0.234 C 
BRANCH  11  12
ATOM     12  O   UNL     1      -2.803  20.267  47.387  1.00  0.00    -0.388 OA
ATOM     13  H   UNL     1      -3.758  20.354  47.130  1.00  0.00     0.211 HD
ENDBRANCH  11  12
ENDBRANCH   9  11
ENDBRANCH   8   9
BRANCH   8  14
ATOM     14  O   UNL     1      -3.306  17.436  46.996  1.00  0.00    -0.382 OA
ATOM     15  H   UNL     1      -3.748  18.227  47.403  1.00  0.00     0.211 HD
ENDBRANCH   8  14
ENDBRANCH   1   8
BRANCH   1  16
ATOM     16  O   UNL     1      -0.869  18.595  45.850  1.00  0.00    -0.387 OA
ATOM     17  H   UNL     1      -1.732  18.733  45.382  1.00  0.00     0.211 HD
ENDBRANCH   1  16
TORSDOF 10
ENDMDL
MODEL 3
REMARK VINA RESULT:    -4.048      1.418      2.030
REMARK INTER + INTRA:          -7.175
REMARK INTER:                  -5.884
REMARK INTRA:                  -1.291
REMARK UNBOUND:                -1.353
REMARK SMILES O=C(CO)[C@@H](O)[C@H](O)[C@@H](O)CO
REMARK SMILES IDX 7 1 9 2 11 3 12 4 10 6 5 8 2 9 1 10 3 11 4 12 6 14 8 16
REMARK H PARENT 12 5 10 7 4 13 6 15 8 17
REMARK Flexibility Score: inf
ROOT
ATOM      1  C   UNL     1      -0.982  16.526  47.273  1.00  0.00     0.181 C 
ENDROOT
BRANCH   1   2
ATOM      2  C   UNL     1      -0.970  16.882  45.761  1.00  0.00     0.171 C 
BRANCH   2   3
ATOM      3  C   UNL     1       0.113  16.105  44.985  1.00  0.00     0.190 C 
BRANCH   3   4
ATOM      4  O   UNL     1       1.392  16.599  45.279  1.00  0.00    -0.394 OA
ATOM      5  H   UNL     1       2.025  15.846  45.144  1.00  0.00     0.210 HD
ENDBRANCH   3   4
ENDBRANCH   2   3
BRANCH   2   6
ATOM      6  O   UNL     1      -0.829  18.268  45.557  1.00  0.00    -0.388 OA
ATOM      7  H   UNL     1      -1.230  18.492  44.677  1.00  0.00     0.211 HD
ENDBRANCH   2   6
ENDBRANCH   1   2
BRANCH   1   8
ATOM      8  C   UNL     1      -2.307  16.932  47.966  1.00  0.00     0.214 C 
BRANCH   8   9
ATOM      9  C   UNL     1      -2.070  18.045  48.964  1.00  0.00     0.189 C 
ATOM     10  O   UNL     1      -1.441  17.815  49.987  1.00  0.00    -0.294 OA
BRANCH   9  11
ATOM     11  C   UNL     1      -2.585  19.436  48.717  1.00  0.00     0.234 C 
BRANCH  11  12
ATOM     12  O   UNL     1      -2.287  19.836  47.408  1.00  0.00    -0.388 OA
ATOM     13  H   UNL     1      -2.191  19.002  46.875  1.00  0.00     0.211 HD
ENDBRANCH  11  12
ENDBRANCH   9  11
ENDBRANCH   8   9
BRANCH   8  14
ATOM     14  O   UNL     1      -3.258  17.342  47.017  1.00  0.00    -0.382 OA
ATOM     15  H   UNL     1      -2.958  16.987  46.139  1.00  0.00     0.211 HD
ENDBRANCH   8  14
ENDBRANCH   1   8
BRANCH   1  16
ATOM     16  O   UNL     1       0.143  17.053  47.937  1.00  0.00    -0.387 OA
ATOM     17  H   UNL     1       0.682  17.561  47.278  1.00  0.00     0.211 HD
ENDBRANCH   1  16
TORSDOF 10
ENDMDL
MODEL 4
REMARK VINA RESULT:    -4.042      1.379      4.588
REMARK INTER + INTRA:          -7.167
REMARK INTER:                  -6.170
REMARK INTRA:                  -0.996
REMARK UNBOUND:                -1.353
REMARK SMILES O=C(CO)[C@@H](O)[C@H](O)[C@@H](O)CO
REMARK SMILES IDX 7 1 9 2 11 3 12 4 10 6 5 8 2 9 1 10 3 11 4 12 6 14 8 16
REMARK H PARENT 12 5 10 7 4 13 6 15 8 17
REMARK Flexibility Score: inf
ROOT
ATOM      1  C   UNL     1      -1.906  17.405  47.495  1.00  0.00     0.181 C 
ENDROOT
BRANCH   1   2
ATOM      2  C   UNL     1      -1.694  18.425  48.646  1.00  0.00     0.171 C 
BRANCH   2   3
ATOM      3  C   UNL     1      -2.802  19.497  48.690  1.00  0.00     0.190 C 
BRANCH   3   4
ATOM      4  O   UNL     1      -2.854  20.215  47.487  1.00  0.00    -0.394 OA
ATOM      5  H   UNL     1      -3.815  20.327  47.264  1.00  0.00     0.210 HD
ENDBRANCH   3   4
ENDBRANCH   2   3
BRANCH   2   6
ATOM      6  O   UNL     1      -0.423  19.026  48.577  1.00  0.00    -0.388 OA
ATOM      7  H   UNL     1      -0.159  19.294  49.495  1.00  0.00     0.211 HD
ENDBRANCH   2   6
ENDBRANCH   1   2
BRANCH   1   8
ATOM      8  C   UNL     1      -0.838  17.538  46.380  1.00  0.00     0.214 C 
BRANCH   8   9
ATOM      9  C   UNL     1      -1.001  16.443  45.349  1.00  0.00     0.189 C 
ATOM     10  O   UNL     1      -2.118  16.014  45.094  1.00  0.00    -0.294 OA
BRANCH   9  11
ATOM     11  C   UNL     1       0.185  15.876  44.619  1.00  0.00     0.234 C 
BRANCH  11  12
ATOM     12  O   UNL     1       1.357  16.527  45.025  1.00  0.00    -0.388 OA
ATOM     13  H   UNL     1       1.808  15.918  45.668  1.00  0.00     0.211 HD
ENDBRANCH  11  12
ENDBRANCH   9  11
ENDBRANCH   8   9
BRANCH   8  14
ATOM     14  O   UNL     1      -0.929  18.793  45.756  1.00  0.00    -0.382 OA
ATOM     15  H   UNL     1      -0.891  19.475  46.477  1.00  0.00     0.211 HD
ENDBRANCH   8  14
ENDBRANCH   1   8
BRANCH   1  16
ATOM     16  O   UNL     1      -3.216  17.470  46.980  1.00  0.00    -0.387 OA
ATOM     17  H   UNL     1      -3.432  16.594  46.569  1.00  0.00     0.211 HD
ENDBRANCH   1  16
TORSDOF 10
ENDMDL
MODEL 5
REMARK VINA RESULT:    -4.019      1.625      4.501
REMARK INTER + INTRA:          -7.134
REMARK INTER:                  -6.188
REMARK INTRA:                  -0.946
REMARK UNBOUND:                -1.353
REMARK SMILES O=C(CO)[C@@H](O)[C@H](O)[C@@H](O)CO
REMARK SMILES IDX 7 1 9 2 11 3 12 4 10 6 5 8 2 9 1 10 3 11 4 12 6 14 8 16
REMARK H PARENT 12 5 10 7 4 13 6 15 8 17
REMARK Flexibility Score: inf
ROOT
ATOM      1  C   UNL     1      -1.963  19.719  47.892  1.00  0.00     0.181 C 
ENDROOT
BRANCH   1   2
ATOM      2  C   UNL     1      -1.490  21.172  47.617  1.00  0.00     0.171 C 
BRANCH   2   3
ATOM      3  C   UNL     1      -1.668  22.089  48.845  1.00  0.00     0.190 C 
BRANCH   3   4
ATOM      4  O   UNL     1      -2.680  21.607  49.688  1.00  0.00    -0.394 OA
ATOM      5  H   UNL     1      -2.266  21.472  50.580  1.00  0.00     0.210 HD
ENDBRANCH   3   4
ENDBRANCH   2   3
BRANCH   2   6
ATOM      6  O   UNL     1      -2.132  21.720  46.491  1.00  0.00    -0.388 OA
ATOM      7  H   UNL     1      -2.599  22.548  46.775  1.00  0.00     0.211 HD
ENDBRANCH   2   6
ENDBRANCH   1   2
BRANCH   1   8
ATOM      8  C   UNL     1      -1.081  18.663  47.179  1.00  0.00     0.214 C 
BRANCH   8   9
ATOM      9  C   UNL     1      -1.692  17.284  47.303  1.00  0.00     0.189 C 
ATOM     10  O   UNL     1      -2.409  17.024  48.258  1.00  0.00    -0.294 OA
BRANCH   9  11
ATOM     11  C   UNL     1      -1.442  16.225  46.265  1.00  0.00     0.234 C 
BRANCH  11  12
ATOM     12  O   UNL     1      -2.069  16.572  45.061  1.00  0.00    -0.388 OA
ATOM     13  H   UNL     1      -3.039  16.401  45.190  1.00  0.00     0.211 HD
ENDBRANCH  11  12
ENDBRANCH   9  11
ENDBRANCH   8   9
BRANCH   8  14
ATOM     14  O   UNL     1      -0.919  18.989  45.822  1.00  0.00    -0.382 OA
ATOM     15  H   UNL     1       0.046  19.182  45.687  1.00  0.00     0.211 HD
ENDBRANCH   8  14
ENDBRANCH   1   8
BRANCH   1  16
ATOM     16  O   UNL     1      -3.330  19.554  47.592  1.00  0.00    -0.387 OA
ATOM     17  H   UNL     1      -3.421  18.783  46.976  1.00  0.00     0.211 HD
ENDBRANCH   1  16
TORSDOF 10
ENDMDL
MODEL 6
REMARK VINA RESULT:    -3.984      1.398      4.189
REMARK INTER + INTRA:          -7.085
REMARK INTER:                  -6.109
REMARK INTRA:                  -0.975
REMARK UNBOUND:                -1.353
REMARK SMILES O=C(CO)[C@@H](O)[C@H](O)[C@@H](O)CO
REMARK SMILES IDX 7 1 9 2 11 3 12 4 10 6 5 8 2 9 1 10 3 11 4 12 6 14 8 16
REMARK H PARENT 12 5 10 7 4 13 6 15 8 17
REMARK Flexibility Score: inf
ROOT
ATOM      1  C   UNL     1      -2.642  19.182  48.053  1.00  0.00     0.181 C 
ENDROOT
BRANCH   1   2
ATOM      2  C   UNL     1      -2.287  19.724  49.464  1.00  0.00     0.171 C 
BRANCH   2   3
ATOM      3  C   UNL     1      -2.140  21.260  49.482  1.00  0.00     0.190 C 
BRANCH   3   4
ATOM      4  O   UNL     1      -2.281  21.762  50.783  1.00  0.00    -0.394 OA
ATOM      5  H   UNL     1      -1.421  21.594  51.247  1.00  0.00     0.210 HD
ENDBRANCH   3   4
ENDBRANCH   2   3
BRANCH   2   6
ATOM      6  O   UNL     1      -1.130  19.109  49.979  1.00  0.00    -0.388 OA
ATOM      7  H   UNL     1      -1.340  18.769  50.887  1.00  0.00     0.211 HD
ENDBRANCH   2   6
ENDBRANCH   1   2
BRANCH   1   8
ATOM      8  C   UNL     1      -2.805  17.641  48.034  1.00  0.00     0.214 C 
BRANCH   8   9
ATOM      9  C   UNL     1      -1.601  16.984  47.394  1.00  0.00     0.189 C 
ATOM     10  O   UNL     1      -0.536  16.957  47.995  1.00  0.00    -0.294 OA
BRANCH   9  11
ATOM     11  C   UNL     1      -1.689  16.351  46.033  1.00  0.00     0.234 C 
BRANCH  11  12
ATOM     12  O   UNL     1      -1.519  17.323  45.037  1.00  0.00    -0.388 OA
ATOM     13  H   UNL     1      -1.248  16.837  44.214  1.00  0.00     0.211 HD
ENDBRANCH  11  12
ENDBRANCH   9  11
ENDBRANCH   8   9
BRANCH   8  14
ATOM     14  O   UNL     1      -2.977  17.146  49.337  1.00  0.00    -0.382 OA
ATOM     15  H   UNL     1      -3.956  17.078  49.490  1.00  0.00     0.211 HD
ENDBRANCH   8  14
ENDBRANCH   1   8
BRANCH   1  16
ATOM     16  O   UNL     1      -1.723  19.627  47.082  1.00  0.00    -0.387 OA
ATOM     17  H   UNL     1      -2.101  20.433  46.645  1.00  0.00     0.211 HD
ENDBRANCH   1  16
TORSDOF 10
ENDMDL
MODEL 7
REMARK VINA RESULT:    -3.925      1.488      3.957
REMARK INTER + INTRA:          -6.999
REMARK INTER:                  -6.215
REMARK INTRA:                  -0.783
REMARK UNBOUND:                -1.353
REMARK SMILES O=C(CO)[C@@H](O)[C@H](O)[C@@H](O)CO
REMARK SMILES IDX 7 1 9 2 11 3 12 4 10 6 5 8 2 9 1 10 3 11 4 12 6 14 8 16
REMARK H PARENT 12 5 10 7 4 13 6 15 8 17
REMARK Flexibility Score: inf
ROOT
ATOM      1  C   UNL     1      -1.818  17.177  47.514  1.00  0.00     0.181 C 
ENDROOT
BRANCH   1   2
ATOM      2  C   UNL     1      -2.570  17.646  48.790  1.00  0.00     0.171 C 
BRANCH   2   3
ATOM      3  C   UNL     1      -2.784  19.173  48.816  1.00  0.00     0.190 C 
BRANCH   3   4
ATOM      4  O   UNL     1      -3.574  19.588  47.735  1.00  0.00    -0.394 OA
ATOM      5  H   UNL     1      -4.096  20.372  48.048  1.00  0.00     0.210 HD
ENDBRANCH   3   4
ENDBRANCH   2   3
BRANCH   2   6
ATOM      6  O   UNL     1      -1.920  17.215  49.961  1.00  0.00    -0.388 OA
ATOM      7  H   UNL     1      -2.131  16.255  50.096  1.00  0.00     0.211 HD
ENDBRANCH   2   6
ENDBRANCH   1   2
BRANCH   1   8
ATOM      8  C   UNL     1      -0.633  18.107  47.150  1.00  0.00     0.214 C 
BRANCH   8   9
ATOM      9  C   UNL     1       0.619  17.299  46.890  1.00  0.00     0.189 C 
ATOM     10  O   UNL     1       1.636  17.538  47.525  1.00  0.00    -0.294 OA
BRANCH   9  11
ATOM     11  C   UNL     1       0.638  16.196  45.867  1.00  0.00     0.234 C 
BRANCH  11  12
ATOM     12  O   UNL     1      -0.002  16.616  44.694  1.00  0.00    -0.388 OA
ATOM     13  H   UNL     1      -0.978  16.515  44.854  1.00  0.00     0.211 HD
ENDBRANCH  11  12
ENDBRANCH   9  11
ENDBRANCH   8   9
BRANCH   8  14
ATOM     14  O   UNL     1      -0.941  18.881  46.019  1.00  0.00    -0.382 OA
ATOM     15  H   UNL     1      -0.610  18.378  45.229  1.00  0.00     0.211 HD
ENDBRANCH   8  14
ENDBRANCH   1   8
BRANCH   1  16
ATOM     16  O   UNL     1      -2.700  16.998  46.430  1.00  0.00    -0.387 OA
ATOM     17  H   UNL     1      -3.494  16.500  46.756  1.00  0.00     0.211 HD
ENDBRANCH   1  16
TORSDOF 10
ENDMDL
MODEL 8
REMARK VINA RESULT:    -3.857      1.726      2.311
REMARK INTER + INTRA:          -6.901
REMARK INTER:                  -5.473
REMARK INTRA:                  -1.428
REMARK UNBOUND:                -1.353
REMARK SMILES O=C(CO)[C@@H](O)[C@H](O)[C@@H](O)CO
REMARK SMILES IDX 7 1 9 2 11 3 12 4 10 6 5 8 2 9 1 10 3 11 4 12 6 14 8 16
REMARK H PARENT 12 5 10 7 4 13 6 15 8 17
REMARK Flexibility Score: inf
ROOT
ATOM      1  C   UNL     1      -1.569  18.622  48.818  1.00  0.00     0.181 C 
ENDROOT
BRANCH   1   2
ATOM      2  C   UNL     1      -2.127  17.380  48.070  1.00  0.00     0.171 C 
BRANCH   2   3
ATOM      3  C   UNL     1      -1.411  16.078  48.481  1.00  0.00     0.190 C 
BRANCH   3   4
ATOM      4  O   UNL     1      -0.180  15.953  47.822  1.00  0.00    -0.394 OA
ATOM      5  H   UNL     1      -0.116  16.718  47.192  1.00  0.00     0.210 HD
ENDBRANCH   3   4
ENDBRANCH   2   3
BRANCH   2   6
ATOM      6  O   UNL     1      -2.081  17.554  46.674  1.00  0.00    -0.388 OA
ATOM      7  H   UNL     1      -2.874  18.084  46.403  1.00  0.00     0.211 HD
ENDBRANCH   2   6
ENDBRANCH   1   2
BRANCH   1   8
ATOM      8  C   UNL     1      -2.454  19.879  48.623  1.00  0.00     0.214 C 
BRANCH   8   9
ATOM      9  C   UNL     1      -1.638  21.024  48.063  1.00  0.00     0.189 C 
ATOM     10  O   UNL     1      -0.946  21.697  48.814  1.00  0.00    -0.294 OA
BRANCH   9  11
ATOM     11  C   UNL     1      -1.653  21.348  46.595  1.00  0.00     0.234 C 
BRANCH  11  12
ATOM     12  O   UNL     1      -1.256  20.230  45.850  1.00  0.00    -0.388 OA
ATOM     13  H   UNL     1      -1.544  19.432  46.367  1.00  0.00     0.211 HD
ENDBRANCH  11  12
ENDBRANCH   9  11
ENDBRANCH   8   9
BRANCH   8  14
ATOM     14  O   UNL     1      -3.528  19.599  47.763  1.00  0.00    -0.382 OA
ATOM     15  H   UNL     1      -3.402  20.161  46.954  1.00  0.00     0.211 HD
ENDBRANCH   8  14
ENDBRANCH   1   8
BRANCH   1  16
ATOM     16  O   UNL     1      -0.223  18.866  48.481  1.00  0.00    -0.387 OA
ATOM     17  H   UNL     1      -0.170  19.753  48.039  1.00  0.00     0.211 HD
ENDBRANCH   1  16
TORSDOF 10
ENDMDL
MODEL 9
REMARK VINA RESULT:    -3.851      1.509      3.692
REMARK INTER + INTRA:          -6.893
REMARK INTER:                  -5.885
REMARK INTRA:                  -1.008
REMARK UNBOUND:                -1.353
REMARK SMILES O=C(CO)[C@@H](O)[C@H](O)[C@@H](O)CO
REMARK SMILES IDX 7 1 9 2 11 3 12 4 10 6 5 8 2 9 1 10 3 11 4 12 6 14 8 16
REMARK H PARENT 12 5 10 7 4 13 6 15 8 17
REMARK Flexibility Score: inf
ROOT
ATOM      1  C   UNL     1      -0.851  19.341  48.520  1.00  0.00     0.181 C 
ENDROOT
BRANCH   1   2
ATOM      2  C   UNL     1      -2.065  19.850  47.697  1.00  0.00     0.171 C 
BRANCH   2   3
ATOM      3  C   UNL     1      -1.709  21.070  46.822  1.00  0.00     0.190 C 
BRANCH   3   4
ATOM      4  O   UNL     1      -1.444  20.679  45.502  1.00  0.00    -0.394 OA
ATOM      5  H   UNL     1      -0.781  19.942  45.551  1.00  0.00     0.210 HD
ENDBRANCH   3   4
ENDBRANCH   2   3
BRANCH   2   6
ATOM      6  O   UNL     1      -3.167  20.137  48.524  1.00  0.00    -0.388 OA
ATOM      7  H   UNL     1      -3.880  19.476  48.328  1.00  0.00     0.211 HD
ENDBRANCH   2   6
ENDBRANCH   1   2
BRANCH   1   8
ATOM      8  C   UNL     1      -0.089  18.195  47.807  1.00  0.00     0.214 C 
BRANCH   8   9
ATOM      9  C   UNL     1      -1.038  17.079  47.426  1.00  0.00     0.189 C 
ATOM     10  O   UNL     1      -1.771  16.592  48.275  1.00  0.00    -0.294 OA
BRANCH   9  11
ATOM     11  C   UNL     1      -1.106  16.561  46.015  1.00  0.00     0.234 C 
BRANCH  11  12
ATOM     12  O   UNL     1      -1.417  17.605  45.133  1.00  0.00    -0.388 OA
ATOM     13  H   UNL     1      -1.482  18.429  45.684  1.00  0.00     0.211 HD
ENDBRANCH  11  12
ENDBRANCH   9  11
ENDBRANCH   8   9
BRANCH   8  14
ATOM     14  O   UNL     1       0.563  18.674  46.659  1.00  0.00    -0.382 OA
ATOM     15  H   UNL     1       1.422  18.181  46.591  1.00  0.00     0.211 HD
ENDBRANCH   8  14
ENDBRANCH   1   8
BRANCH   1  16
ATOM     16  O   UNL     1      -1.226  18.988  49.832  1.00  0.00    -0.387 OA
ATOM     17  H   UNL     1      -0.444  18.573  50.277  1.00  0.00     0.211 HD
ENDBRANCH   1  16
TORSDOF 10
ENDMDL
