MODEL 1
REMARK VINA RESULT:    -4.470      0.000      0.000
REMARK INTER + INTRA:          -6.331
REMARK INTER:                  -6.169
REMARK INTRA:                  -0.163
REMARK UNBOUND:                -0.163
REMARK SMILES CC[C@@H](CC[C@@H](C)[C@H]1CC[C@@H]2[C@@H]3CC=C4C[C@@H](O)CC[C@@]4(C)[C@@H]3CC[C@]21C)C(C)C
REMARK SMILES IDX 5 1 4 2 3 3 2 4 1 5 28 6 29 7 30 8 6 9 7 10 8 11 9 12 26 13
REMARK SMILES IDX 10 14 11 15 25 16 27 17 12 18 24 19 23 20 13 21 21 22 14 23
REMARK SMILES IDX 15 24 20 25 22 26 16 27 19 28 17 29 18 30
REMARK H PARENT 18 31
REMARK Flexibility Score: inf
ROOT
ATOM      1  C   UNL     1      27.922  19.843   6.905  1.00  0.00     0.004 C 
ENDROOT
BRANCH   1   2
ATOM      2  C   UNL     1      26.441  20.224   6.710  1.00  0.00     0.004 C 
BRANCH   2   3
ATOM      3  C   UNL     1      26.182  21.231   5.551  1.00  0.00    -0.009 C 
BRANCH   3   4
ATOM      4  C   UNL     1      25.939  22.685   6.054  1.00  0.00     0.000 C 
ATOM      5  C   UNL     1      27.211  23.516   6.231  1.00  0.00     0.004 C 
ENDBRANCH   3   4
BRANCH   3   6
ATOM      6  C   UNL     1      25.040  20.717   4.605  1.00  0.00    -0.014 C 
ATOM      7  C   UNL     1      25.267  21.145   3.136  1.00  0.00     0.007 C 
ATOM      8  C   UNL     1      23.646  21.201   5.054  1.00  0.00     0.007 C 
ENDBRANCH   3   6
ENDBRANCH   2   3
ENDBRANCH   1   2
BRANCH   1   9
ATOM      9  C   UNL     1      28.343  18.663   5.973  1.00  0.00    -0.011 C 
ATOM     10  C   UNL     1      27.115  17.731   5.789  1.00  0.00     0.008 C 
BRANCH   9  11
ATOM     11  C   UNL     1      28.893  19.197   4.599  1.00  0.00    -0.002 C 
ATOM     12  C   UNL     1      28.475  20.684   4.347  1.00  0.00     0.005 C 
ATOM     13  C   UNL     1      30.456  19.189   4.348  1.00  0.00    -0.026 C 
ATOM     14  C   UNL     1      29.721  21.448   3.913  1.00  0.00     0.005 C 
ATOM     15  C   UNL     1      30.828  20.657   4.578  1.00  0.00    -0.001 C 
ATOM     16  C   UNL     1      31.366  18.366   5.291  1.00  0.00     0.007 C 
ATOM     17  C   UNL     1      30.676  18.713   2.875  1.00  0.00     0.012 C 
ATOM     18  C   UNL     1      32.302  21.077   4.337  1.00  0.00     0.000 C 
ATOM     19  C   UNL     1      32.854  18.560   4.941  1.00  0.00     0.005 C 
ATOM     20  C   UNL     1      33.345  20.049   4.907  1.00  0.00     0.003 C 
ATOM     21  C   UNL     1      32.666  21.608   2.938  1.00  0.00     0.031 C 
ATOM     22  C   UNL     1      34.813  20.207   4.304  1.00  0.00    -0.008 C 
ATOM     23  C   UNL     1      34.039  22.212   3.019  1.00  0.00    -0.027 C 
ATOM     24  C   UNL     1      35.015  21.636   3.751  1.00  0.00    -0.065 C 
ATOM     25  C   UNL     1      35.867  19.823   5.410  1.00  0.00     0.014 C 
ATOM     26  C   UNL     1      35.060  19.261   3.091  1.00  0.00     0.016 C 
ATOM     27  C   UNL     1      36.264  22.460   4.006  1.00  0.00     0.063 C 
ATOM     28  C   UNL     1      36.580  21.019   6.029  1.00  0.00     0.033 C 
ATOM     29  C   UNL     1      37.290  21.793   4.927  1.00  0.00     0.118 C 
BRANCH  29  30
ATOM     30  O   UNL     1      38.125  22.758   5.509  1.00  0.00    -0.393 OA
ATOM     31  H   UNL     1      38.294  23.442   4.811  1.00  0.00     0.210 HD
ENDBRANCH  29  30
ENDBRANCH   9  11
ENDBRANCH   1   9
TORSDOF 7
ENDMDL
MODEL 2
REMARK VINA RESULT:    -3.053      3.537      7.783
REMARK INTER + INTRA:          -4.376
REMARK INTER:                  -3.042
REMARK INTRA:                  -1.334
REMARK UNBOUND:                -0.163
REMARK SMILES CC[C@@H](CC[C@@H](C)[C@H]1CC[C@@H]2[C@@H]3CC=C4C[C@@H](O)CC[C@@]4(C)[C@@H]3CC[C@]21C)C(C)C
REMARK SMILES IDX 5 1 4 2 3 3 2 4 1 5 28 6 29 7 30 8 6 9 7 10 8 11 9 12 26 13
REMARK SMILES IDX 10 14 11 15 25 16 27 17 12 18 24 19 23 20 13 21 21 22 14 23
REMARK SMILES IDX 15 24 20 25 22 26 16 27 19 28 17 29 18 30
REMARK H PARENT 18 31
REMARK Flexibility Score: inf
ROOT
ATOM      1  C   UNL     1      32.898  22.883   4.487  1.00  0.00     0.004 C 
ENDROOT
BRANCH   1   2
ATOM      2  C   UNL     1      32.905  24.286   3.848  1.00  0.00     0.004 C 
BRANCH   2   3
ATOM      3  C   UNL     1      31.686  25.176   4.233  1.00  0.00    -0.009 C 
BRANCH   3   4
ATOM      4  C   UNL     1      30.320  24.461   4.011  1.00  0.00     0.000 C 
ATOM      5  C   UNL     1      29.244  24.817   5.039  1.00  0.00     0.004 C 
ENDBRANCH   3   4
BRANCH   3   6
ATOM      6  C   UNL     1      31.764  26.573   3.521  1.00  0.00    -0.014 C 
ATOM      7  C   UNL     1      33.162  26.839   2.917  1.00  0.00     0.007 C 
ATOM      8  C   UNL     1      31.403  27.733   4.471  1.00  0.00     0.007 C 
ENDBRANCH   3   6
ENDBRANCH   2   3
ENDBRANCH   1   2
BRANCH   1   9
ATOM      9  C   UNL     1      33.426  21.796   3.501  1.00  0.00    -0.011 C 
ATOM     10  C   UNL     1      34.969  21.715   3.651  1.00  0.00     0.008 C 
BRANCH   9  11
ATOM     11  C   UNL     1      32.732  20.409   3.763  1.00  0.00    -0.002 C 
ATOM     12  C   UNL     1      33.000  19.894   5.216  1.00  0.00     0.005 C 
ATOM     13  C   UNL     1      31.160  20.299   3.600  1.00  0.00    -0.026 C 
ATOM     14  C   UNL     1      31.664  19.457   5.807  1.00  0.00     0.005 C 
ATOM     15  C   UNL     1      30.682  20.329   5.055  1.00  0.00    -0.001 C 
ATOM     16  C   UNL     1      30.397  21.434   2.876  1.00  0.00     0.007 C 
ATOM     17  C   UNL     1      30.873  18.942   2.878  1.00  0.00     0.012 C 
ATOM     18  C   UNL     1      29.163  20.156   5.321  1.00  0.00     0.000 C 
ATOM     19  C   UNL     1      28.877  21.189   2.901  1.00  0.00     0.005 C 
ATOM     20  C   UNL     1      28.258  20.967   4.325  1.00  0.00     0.003 C 
ATOM     21  C   UNL     1      28.652  18.728   5.591  1.00  0.00     0.031 C 
ATOM     22  C   UNL     1      26.741  20.476   4.276  1.00  0.00    -0.008 C 
ATOM     23  C   UNL     1      27.241  18.834   6.098  1.00  0.00    -0.027 C 
ATOM     24  C   UNL     1      26.376  19.729   5.578  1.00  0.00    -0.065 C 
ATOM     25  C   UNL     1      25.808  21.717   4.000  1.00  0.00     0.014 C 
ATOM     26  C   UNL     1      26.487  19.451   3.131  1.00  0.00     0.016 C 
ATOM     27  C   UNL     1      25.083  19.960   6.339  1.00  0.00     0.063 C 
ATOM     28  C   UNL     1      25.043  22.203   5.224  1.00  0.00     0.033 C 
ATOM     29  C   UNL     1      24.189  21.059   5.755  1.00  0.00     0.118 C 
BRANCH  29  30
ATOM     30  O   UNL     1      23.320  21.555   6.738  1.00  0.00    -0.393 OA
ATOM     31  H   UNL     1      22.558  21.970   6.257  1.00  0.00     0.210 HD
ENDBRANCH  29  30
ENDBRANCH   9  11
ENDBRANCH   1   9
TORSDOF 7
ENDMDL
MODEL 3
REMARK VINA RESULT:    -2.611      1.781      2.717
REMARK INTER + INTRA:          -3.766
REMARK INTER:                  -2.527
REMARK INTRA:                  -1.238
REMARK UNBOUND:                -0.163
REMARK SMILES CC[C@@H](CC[C@@H](C)[C@H]1CC[C@@H]2[C@@H]3CC=C4C[C@@H](O)CC[C@@]4(C)[C@@H]3CC[C@]21C)C(C)C
REMARK SMILES IDX 5 1 4 2 3 3 2 4 1 5 28 6 29 7 30 8 6 9 7 10 8 11 9 12 26 13
REMARK SMILES IDX 10 14 11 15 25 16 27 17 12 18 24 19 23 20 13 21 21 22 14 23
REMARK SMILES IDX 15 24 20 25 22 26 16 27 19 28 17 29 18 30
REMARK H PARENT 18 31
REMARK Flexibility Score: inf
ROOT
ATOM      1  C   UNL     1      26.813  20.666   6.443  1.00  0.00     0.004 C 
ENDROOT
BRANCH   1   2
ATOM      2  C   UNL     1      26.199  19.468   5.691  1.00  0.00     0.004 C 
BRANCH   2   3
ATOM      3  C   UNL     1      25.440  19.848   4.385  1.00  0.00    -0.009 C 
BRANCH   3   4
ATOM      4  C   UNL     1      26.300  19.643   3.103  1.00  0.00     0.000 C 
ATOM      5  C   UNL     1      27.411  18.602   3.244  1.00  0.00     0.004 C 
ENDBRANCH   3   4
BRANCH   3   6
ATOM      6  C   UNL     1      24.835  21.293   4.487  1.00  0.00    -0.014 C 
ATOM      7  C   UNL     1      23.559  21.327   5.360  1.00  0.00     0.007 C 
ATOM      8  C   UNL     1      24.507  21.888   3.103  1.00  0.00     0.007 C 
ENDBRANCH   3   6
ENDBRANCH   2   3
ENDBRANCH   1   2
BRANCH   1   9
ATOM      9  C   UNL     1      28.361  20.732   6.259  1.00  0.00    -0.011 C 
ATOM     10  C   UNL     1      28.916  19.282   6.303  1.00  0.00     0.008 C 
BRANCH   9  11
ATOM     11  C   UNL     1      28.740  21.471   4.922  1.00  0.00    -0.002 C 
ATOM     12  C   UNL     1      28.212  22.943   4.906  1.00  0.00     0.005 C 
ATOM     13  C   UNL     1      30.269  21.605   4.531  1.00  0.00    -0.026 C 
ATOM     14  C   UNL     1      29.362  23.843   4.465  1.00  0.00     0.005 C 
ATOM     15  C   UNL     1      30.574  23.056   4.917  1.00  0.00    -0.001 C 
ATOM     16  C   UNL     1      31.315  20.738   5.272  1.00  0.00     0.007 C 
ATOM     17  C   UNL     1      30.370  21.334   2.995  1.00  0.00     0.012 C 
ATOM     18  C   UNL     1      31.990  23.607   4.601  1.00  0.00     0.000 C 
ATOM     19  C   UNL     1      32.746  21.080   4.818  1.00  0.00     0.005 C 
ATOM     20  C   UNL     1      33.143  22.593   4.935  1.00  0.00     0.003 C 
ATOM     21  C   UNL     1      32.181  24.332   3.256  1.00  0.00     0.031 C 
ATOM     22  C   UNL     1      34.532  22.929   4.227  1.00  0.00    -0.008 C 
ATOM     23  C   UNL     1      33.518  25.018   3.291  1.00  0.00    -0.027 C 
ATOM     24  C   UNL     1      34.594  24.427   3.850  1.00  0.00    -0.065 C 
ATOM     25  C   UNL     1      35.712  22.486   5.173  1.00  0.00     0.014 C 
ATOM     26  C   UNL     1      34.713  22.162   2.883  1.00  0.00     0.016 C 
ATOM     27  C   UNL     1      35.811  25.299   4.096  1.00  0.00     0.063 C 
ATOM     28  C   UNL     1      36.411  23.643   5.876  1.00  0.00     0.033 C 
ATOM     29  C   UNL     1      36.961  24.597   4.825  1.00  0.00     0.118 C 
BRANCH  29  30
ATOM     30  O   UNL     1      37.791  25.539   5.451  1.00  0.00    -0.393 OA
ATOM     31  H   UNL     1      38.118  25.115   6.286  1.00  0.00     0.210 HD
ENDBRANCH  29  30
ENDBRANCH   9  11
ENDBRANCH   1   9
TORSDOF 7
ENDMDL
MODEL 4
REMARK VINA RESULT:    -2.451      3.092      8.530
REMARK INTER + INTRA:          -3.545
REMARK INTER:                  -3.541
REMARK INTRA:                  -0.005
REMARK UNBOUND:                -0.163
REMARK SMILES CC[C@@H](CC[C@@H](C)[C@H]1CC[C@@H]2[C@@H]3CC=C4C[C@@H](O)CC[C@@]4(C)[C@@H]3CC[C@]21C)C(C)C
REMARK SMILES IDX 5 1 4 2 3 3 2 4 1 5 28 6 29 7 30 8 6 9 7 10 8 11 9 12 26 13
REMARK SMILES IDX 10 14 11 15 25 16 27 17 12 18 24 19 23 20 13 21 21 22 14 23
REMARK SMILES IDX 15 24 20 25 22 26 16 27 19 28 17 29 18 30
REMARK H PARENT 18 31
REMARK Flexibility Score: inf
ROOT
ATOM      1  C   UNL     1      35.275  16.881   3.244  1.00  0.00     0.004 C 
ENDROOT
BRANCH   1   2
ATOM      2  C   UNL     1      36.444  17.857   3.004  1.00  0.00     0.004 C 
BRANCH   2   3
ATOM      3  C   UNL     1      37.362  18.081   4.243  1.00  0.00    -0.009 C 
BRANCH   3   4
ATOM      4  C   UNL     1      37.028  17.124   5.425  1.00  0.00     0.000 C 
ATOM      5  C   UNL     1      37.882  17.338   6.676  1.00  0.00     0.004 C 
ENDBRANCH   3   4
BRANCH   3   6
ATOM      6  C   UNL     1      37.371  19.592   4.668  1.00  0.00    -0.014 C 
ATOM      7  C   UNL     1      36.146  19.957   5.539  1.00  0.00     0.007 C 
ATOM      8  C   UNL     1      37.419  20.541   3.453  1.00  0.00     0.007 C 
ENDBRANCH   3   6
ENDBRANCH   2   3
ENDBRANCH   1   2
BRANCH   1   9
ATOM      9  C   UNL     1      33.901  17.523   2.876  1.00  0.00    -0.011 C 
ATOM     10  C   UNL     1      32.796  16.453   3.084  1.00  0.00     0.008 C 
BRANCH   9  11
ATOM     11  C   UNL     1      33.638  18.820   3.728  1.00  0.00    -0.002 C 
ATOM     12  C   UNL     1      33.834  20.119   2.878  1.00  0.00     0.005 C 
ATOM     13  C   UNL     1      32.221  19.014   4.406  1.00  0.00    -0.026 C 
ATOM     14  C   UNL     1      32.626  21.018   3.121  1.00  0.00     0.005 C 
ATOM     15  C   UNL     1      31.545  20.015   3.463  1.00  0.00    -0.001 C 
ATOM     16  C   UNL     1      31.260  17.804   4.502  1.00  0.00     0.007 C 
ATOM     17  C   UNL     1      32.477  19.584   5.839  1.00  0.00     0.012 C 
ATOM     18  C   UNL     1      30.133  20.530   3.845  1.00  0.00     0.000 C 
ATOM     19  C   UNL     1      29.904  18.214   5.106  1.00  0.00     0.005 C 
ATOM     20  C   UNL     1      29.179  19.401   4.380  1.00  0.00     0.003 C 
ATOM     21  C   UNL     1      30.054  21.836   4.658  1.00  0.00     0.031 C 
ATOM     22  C   UNL     1      27.914  19.944   5.184  1.00  0.00    -0.008 C 
ATOM     23  C   UNL     1      28.621  22.288   4.662  1.00  0.00    -0.027 C 
ATOM     24  C   UNL     1      27.608  21.404   4.783  1.00  0.00    -0.065 C 
ATOM     25  C   UNL     1      26.695  18.974   4.940  1.00  0.00     0.014 C 
ATOM     26  C   UNL     1      28.162  19.985   6.721  1.00  0.00     0.016 C 
ATOM     27  C   UNL     1      26.209  21.914   4.488  1.00  0.00     0.063 C 
ATOM     28  C   UNL     1      25.645  19.526   3.985  1.00  0.00     0.033 C 
ATOM     29  C   UNL     1      25.117  20.841   4.542  1.00  0.00     0.118 C 
BRANCH  29  30
ATOM     30  O   UNL     1      24.001  21.242   3.792  1.00  0.00    -0.393 OA
ATOM     31  H   UNL     1      23.336  21.588   4.441  1.00  0.00     0.210 HD
ENDBRANCH  29  30
ENDBRANCH   9  11
ENDBRANCH   1   9
TORSDOF 7
ENDMDL
MODEL 5
REMARK VINA RESULT:    -1.536      3.081      8.762
REMARK INTER + INTRA:          -2.282
REMARK INTER:                  -1.301
REMARK INTRA:                  -0.980
REMARK UNBOUND:                -0.163
REMARK SMILES CC[C@@H](CC[C@@H](C)[C@H]1CC[C@@H]2[C@@H]3CC=C4C[C@@H](O)CC[C@@]4(C)[C@@H]3CC[C@]21C)C(C)C
REMARK SMILES IDX 5 1 4 2 3 3 2 4 1 5 28 6 29 7 30 8 6 9 7 10 8 11 9 12 26 13
REMARK SMILES IDX 10 14 11 15 25 16 27 17 12 18 24 19 23 20 13 21 21 22 14 23
REMARK SMILES IDX 15 24 20 25 22 26 16 27 19 28 17 29 18 30
REMARK H PARENT 18 31
REMARK Flexibility Score: inf
ROOT
ATOM      1  C   UNL     1      35.754  19.291   6.377  1.00  0.00     0.004 C 
ENDROOT
BRANCH   1   2
ATOM      2  C   UNL     1      37.281  19.418   6.544  1.00  0.00     0.004 C 
BRANCH   2   3
ATOM      3  C   UNL     1      38.113  18.614   5.501  1.00  0.00    -0.009 C 
BRANCH   3   4
ATOM      4  C   UNL     1      37.730  18.952   4.029  1.00  0.00     0.000 C 
ATOM      5  C   UNL     1      38.008  20.399   3.618  1.00  0.00     0.004 C 
ENDBRANCH   3   4
BRANCH   3   6
ATOM      6  C   UNL     1      38.057  17.075   5.805  1.00  0.00    -0.014 C 
ATOM      7  C   UNL     1      36.840  16.396   5.136  1.00  0.00     0.007 C 
ATOM      8  C   UNL     1      38.024  16.780   7.318  1.00  0.00     0.007 C 
ENDBRANCH   3   6
ENDBRANCH   2   3
ENDBRANCH   1   2
BRANCH   1   9
ATOM      9  C   UNL     1      35.111  20.630   5.899  1.00  0.00    -0.011 C 
ATOM     10  C   UNL     1      36.230  21.704   5.823  1.00  0.00     0.008 C 
BRANCH   9  11
ATOM     11  C   UNL     1      34.375  20.443   4.521  1.00  0.00    -0.002 C 
ATOM     12  C   UNL     1      34.139  18.931   4.193  1.00  0.00     0.005 C 
ATOM     13  C   UNL     1      32.953  21.108   4.319  1.00  0.00    -0.026 C 
ATOM     14  C   UNL     1      32.683  18.773   3.765  1.00  0.00     0.005 C 
ATOM     15  C   UNL     1      32.009  19.914   4.497  1.00  0.00    -0.001 C 
ATOM     16  C   UNL     1      32.474  22.183   5.324  1.00  0.00     0.007 C 
ATOM     17  C   UNL     1      32.933  21.708   2.875  1.00  0.00     0.012 C 
ATOM     18  C   UNL     1      30.491  20.153   4.284  1.00  0.00     0.000 C 
ATOM     19  C   UNL     1      31.036  22.638   5.013  1.00  0.00     0.005 C 
ATOM     20  C   UNL     1      29.973  21.488   4.930  1.00  0.00     0.003 C 
ATOM     21  C   UNL     1      29.926  19.893   2.875  1.00  0.00     0.031 C 
ATOM     22  C   UNL     1      28.565  21.981   4.366  1.00  0.00    -0.008 C 
ATOM     23  C   UNL     1      28.426  19.905   2.973  1.00  0.00    -0.027 C 
ATOM     24  C   UNL     1      27.784  20.793   3.760  1.00  0.00    -0.065 C 
ATOM     25  C   UNL     1      27.775  22.708   5.521  1.00  0.00     0.014 C 
ATOM     26  C   UNL     1      28.718  23.006   3.203  1.00  0.00     0.016 C 
ATOM     27  C   UNL     1      26.309  20.546   4.017  1.00  0.00     0.063 C 
ATOM     28  C   UNL     1      26.638  21.882   6.110  1.00  0.00     0.033 C 
ATOM     29  C   UNL     1      25.660  21.528   4.998  1.00  0.00     0.118 C 
BRANCH  29  30
ATOM     30  O   UNL     1      24.507  20.964   5.564  1.00  0.00    -0.393 OA
ATOM     31  H   UNL     1      23.961  21.721   5.903  1.00  0.00     0.210 HD
ENDBRANCH  29  30
ENDBRANCH   9  11
ENDBRANCH   1   9
TORSDOF 7
ENDMDL
