MODEL 1
REMARK VINA RESULT:    -4.244      0.000      0.000
REMARK INTER + INTRA:          -6.387
REMARK INTER:                  -5.857
REMARK INTRA:                  -0.530
REMARK UNBOUND:                -0.530
REMARK SMILES OC[C@@H](O)C(O)[C@H](O)CO
REMARK SMILES IDX 5 1 7 2 9 3 10 4 8 6 3 8 2 9 1 10 4 12 6 14
REMARK H PARENT 10 5 8 7 1 11 4 13 6 15
REMARK Flexibility Score: inf
ROOT
ATOM      1  C   UNL     1      -1.621 -14.176  19.822  1.00  0.00     0.176 C 
ENDROOT
BRANCH   1   2
ATOM      2  C   UNL     1      -2.237 -15.549  20.200  1.00  0.00     0.171 C 
BRANCH   2   3
ATOM      3  C   UNL     1      -1.327 -16.734  19.817  1.00  0.00     0.190 C 
BRANCH   3   4
ATOM      4  O   UNL     1      -0.170 -16.295  19.154  1.00  0.00    -0.394 OA
ATOM      5  H   UNL     1       0.548 -16.235  19.838  1.00  0.00     0.210 HD
ENDBRANCH   3   4
ENDBRANCH   2   3
BRANCH   2   6
ATOM      6  O   UNL     1      -2.560 -15.609  21.567  1.00  0.00    -0.388 OA
ATOM      7  H   UNL     1      -1.711 -15.573  22.081  1.00  0.00     0.211 HD
ENDBRANCH   2   6
ENDBRANCH   1   2
BRANCH   1   8
ATOM      8  C   UNL     1      -2.335 -13.017  20.558  1.00  0.00     0.171 C 
BRANCH   8   9
ATOM      9  C   UNL     1      -1.353 -11.877  20.881  1.00  0.00     0.190 C 
BRANCH   9  10
ATOM     10  O   UNL     1      -0.292 -11.866  19.964  1.00  0.00    -0.394 OA
ATOM     11  H   UNL     1      -0.021 -10.917  19.855  1.00  0.00     0.210 HD
ENDBRANCH   9  10
ENDBRANCH   8   9
BRANCH   8  12
ATOM     12  O   UNL     1      -3.385 -12.528  19.763  1.00  0.00    -0.388 OA
ATOM     13  H   UNL     1      -3.151 -12.726  18.818  1.00  0.00     0.211 HD
ENDBRANCH   8  12
ENDBRANCH   1   8
BRANCH   1  14
ATOM     14  O   UNL     1      -1.725 -13.991  18.431  1.00  0.00    -0.388 OA
ATOM     15  H   UNL     1      -2.618 -14.326  18.154  1.00  0.00     0.211 HD
ENDBRANCH   1  14
TORSDOF 9
ENDMDL
MODEL 2
REMARK VINA RESULT:    -4.094      1.716      2.398
REMARK INTER + INTRA:          -6.180
REMARK INTER:                  -5.888
REMARK INTRA:                  -0.292
REMARK UNBOUND:                -0.530
REMARK SMILES OC[C@@H](O)C(O)[C@H](O)CO
REMARK SMILES IDX 5 1 7 2 9 3 10 4 8 6 3 8 2 9 1 10 4 12 6 14
REMARK H PARENT 10 5 8 7 1 11 4 13 6 15
REMARK Flexibility Score: inf
ROOT
ATOM      1  C   UNL     1      -1.316 -15.583  20.010  1.00  0.00     0.176 C 
ENDROOT
BRANCH   1   2
ATOM      2  C   UNL     1      -2.643 -16.053  20.662  1.00  0.00     0.171 C 
BRANCH   2   3
ATOM      3  C   UNL     1      -2.837 -17.581  20.580  1.00  0.00     0.190 C 
BRANCH   3   4
ATOM      4  O   UNL     1      -2.773 -18.171  21.852  1.00  0.00    -0.394 OA
ATOM      5  H   UNL     1      -3.370 -18.965  21.832  1.00  0.00     0.210 HD
ENDBRANCH   3   4
ENDBRANCH   2   3
BRANCH   2   6
ATOM      6  O   UNL     1      -2.740 -15.623  21.997  1.00  0.00    -0.388 OA
ATOM      7  H   UNL     1      -3.021 -16.402  22.546  1.00  0.00     0.211 HD
ENDBRANCH   2   6
ENDBRANCH   1   2
BRANCH   1   8
ATOM      8  C   UNL     1      -1.460 -14.173  19.391  1.00  0.00     0.171 C 
BRANCH   8   9
ATOM      9  C   UNL     1      -0.106 -13.442  19.353  1.00  0.00     0.190 C 
BRANCH   9  10
ATOM     10  O   UNL     1       0.924 -14.332  19.017  1.00  0.00    -0.394 OA
ATOM     11  H   UNL     1       1.708 -13.777  18.766  1.00  0.00     0.210 HD
ENDBRANCH   9  10
ENDBRANCH   8   9
BRANCH   8  12
ATOM     12  O   UNL     1      -1.979 -14.279  18.089  1.00  0.00    -0.388 OA
ATOM     13  H   UNL     1      -2.894 -14.658  18.171  1.00  0.00     0.211 HD
ENDBRANCH   8  12
ENDBRANCH   1   8
BRANCH   1  14
ATOM     14  O   UNL     1      -0.940 -16.504  19.014  1.00  0.00    -0.388 OA
ATOM     15  H   UNL     1      -0.242 -17.092  19.404  1.00  0.00     0.211 HD
ENDBRANCH   1  14
TORSDOF 9
ENDMDL
MODEL 3
REMARK VINA RESULT:    -4.073      1.425      4.030
REMARK INTER + INTRA:          -6.151
REMARK INTER:                  -5.834
REMARK INTRA:                  -0.318
REMARK UNBOUND:                -0.530
REMARK SMILES OC[C@@H](O)C(O)[C@H](O)CO
REMARK SMILES IDX 5 1 7 2 9 3 10 4 8 6 3 8 2 9 1 10 4 12 6 14
REMARK H PARENT 10 5 8 7 1 11 4 13 6 15
REMARK Flexibility Score: inf
ROOT
ATOM      1  C   UNL     1      -2.402 -14.677  19.614  1.00  0.00     0.176 C 
ENDROOT
BRANCH   1   2
ATOM      2  C   UNL     1      -2.664 -13.579  20.678  1.00  0.00     0.171 C 
BRANCH   2   3
ATOM      3  C   UNL     1      -3.678 -12.519  20.202  1.00  0.00     0.190 C 
BRANCH   3   4
ATOM      4  O   UNL     1      -3.100 -11.240  20.170  1.00  0.00    -0.394 OA
ATOM      5  H   UNL     1      -2.154 -11.344  20.454  1.00  0.00     0.210 HD
ENDBRANCH   3   4
ENDBRANCH   2   3
BRANCH   2   6
ATOM      6  O   UNL     1      -3.085 -14.136  21.899  1.00  0.00    -0.388 OA
ATOM      7  H   UNL     1      -2.723 -15.061  21.950  1.00  0.00     0.211 HD
ENDBRANCH   2   6
ENDBRANCH   1   2
BRANCH   1   8
ATOM      8  C   UNL     1      -1.548 -15.830  20.192  1.00  0.00     0.171 C 
BRANCH   8   9
ATOM      9  C   UNL     1      -2.395 -17.100  20.394  1.00  0.00     0.190 C 
BRANCH   9  10
ATOM     10  O   UNL     1      -3.091 -17.039  21.610  1.00  0.00    -0.394 OA
ATOM     11  H   UNL     1      -2.533 -17.514  22.281  1.00  0.00     0.210 HD
ENDBRANCH   9  10
ENDBRANCH   8   9
BRANCH   8  12
ATOM     12  O   UNL     1      -0.477 -16.106  19.326  1.00  0.00    -0.388 OA
ATOM     13  H   UNL     1      -0.293 -17.079  19.393  1.00  0.00     0.211 HD
ENDBRANCH   8  12
ENDBRANCH   1   8
BRANCH   1  14
ATOM     14  O   UNL     1      -1.740 -14.102  18.513  1.00  0.00    -0.388 OA
ATOM     15  H   UNL     1      -0.787 -13.990  18.767  1.00  0.00     0.211 HD
ENDBRANCH   1  14
TORSDOF 9
ENDMDL
MODEL 4
REMARK VINA RESULT:    -4.058      1.361      3.727
REMARK INTER + INTRA:          -6.131
REMARK INTER:                  -5.806
REMARK INTRA:                  -0.324
REMARK UNBOUND:                -0.530
REMARK SMILES OC[C@@H](O)C(O)[C@H](O)CO
REMARK SMILES IDX 5 1 7 2 9 3 10 4 8 6 3 8 2 9 1 10 4 12 6 14
REMARK H PARENT 10 5 8 7 1 11 4 13 6 15
REMARK Flexibility Score: inf
ROOT
ATOM      1  C   UNL     1      -1.937 -14.698  19.567  1.00  0.00     0.176 C 
ENDROOT
BRANCH   1   2
ATOM      2  C   UNL     1      -1.124 -13.502  20.127  1.00  0.00     0.171 C 
BRANCH   2   3
ATOM      3  C   UNL     1       0.075 -13.127  19.233  1.00  0.00     0.190 C 
BRANCH   3   4
ATOM      4  O   UNL     1       0.928 -14.224  19.038  1.00  0.00    -0.394 OA
ATOM      5  H   UNL     1       0.349 -15.017  18.886  1.00  0.00     0.210 HD
ENDBRANCH   3   4
ENDBRANCH   2   3
BRANCH   2   6
ATOM      6  O   UNL     1      -1.942 -12.377  20.337  1.00  0.00    -0.388 OA
ATOM      7  H   UNL     1      -2.366 -12.145  19.468  1.00  0.00     0.211 HD
ENDBRANCH   2   6
ENDBRANCH   1   2
BRANCH   1   8
ATOM      8  C   UNL     1      -1.396 -16.046  20.099  1.00  0.00     0.171 C 
BRANCH   8   9
ATOM      9  C   UNL     1      -2.542 -17.040  20.358  1.00  0.00     0.190 C 
BRANCH   9  10
ATOM     10  O   UNL     1      -3.072 -16.857  21.644  1.00  0.00    -0.394 OA
ATOM     11  H   UNL     1      -3.428 -15.930  21.675  1.00  0.00     0.210 HD
ENDBRANCH   9  10
ENDBRANCH   8   9
BRANCH   8  12
ATOM     12  O   UNL     1      -0.494 -16.593  19.171  1.00  0.00    -0.388 OA
ATOM     13  H   UNL     1      -0.869 -17.465  18.880  1.00  0.00     0.211 HD
ENDBRANCH   8  12
ENDBRANCH   1   8
BRANCH   1  14
ATOM     14  O   UNL     1      -1.873 -14.682  18.161  1.00  0.00    -0.388 OA
ATOM     15  H   UNL     1      -2.800 -14.791  17.822  1.00  0.00     0.211 HD
ENDBRANCH   1  14
TORSDOF 9
ENDMDL
MODEL 5
REMARK VINA RESULT:    -4.057      1.532      2.315
REMARK INTER + INTRA:          -6.129
REMARK INTER:                  -5.644
REMARK INTRA:                  -0.485
REMARK UNBOUND:                -0.530
REMARK SMILES OC[C@@H](O)C(O)[C@H](O)CO
REMARK SMILES IDX 5 1 7 2 9 3 10 4 8 6 3 8 2 9 1 10 4 12 6 14
REMARK H PARENT 10 5 8 7 1 11 4 13 6 15
REMARK Flexibility Score: inf
ROOT
ATOM      1  C   UNL     1      -1.759 -14.564  19.529  1.00  0.00     0.176 C 
ENDROOT
BRANCH   1   2
ATOM      2  C   UNL     1      -1.259 -15.934  20.057  1.00  0.00     0.171 C 
BRANCH   2   3
ATOM      3  C   UNL     1      -2.409 -16.927  20.317  1.00  0.00     0.190 C 
BRANCH   3   4
ATOM      4  O   UNL     1      -2.979 -16.728  21.584  1.00  0.00    -0.394 OA
ATOM      5  H   UNL     1      -2.885 -17.583  22.080  1.00  0.00     0.210 HD
ENDBRANCH   3   4
ENDBRANCH   2   3
BRANCH   2   6
ATOM      6  O   UNL     1      -0.312 -16.505  19.188  1.00  0.00    -0.388 OA
ATOM      7  H   UNL     1       0.330 -17.025  19.740  1.00  0.00     0.211 HD
ENDBRANCH   2   6
ENDBRANCH   1   2
BRANCH   1   8
ATOM      8  C   UNL     1      -0.860 -13.406  20.023  1.00  0.00     0.171 C 
BRANCH   8   9
ATOM      9  C   UNL     1       0.235 -13.075  18.993  1.00  0.00     0.190 C 
BRANCH   9  10
ATOM     10  O   UNL     1       1.353 -13.900  19.182  1.00  0.00    -0.394 OA
ATOM     11  H   UNL     1       2.125 -13.299  19.349  1.00  0.00     0.210 HD
ENDBRANCH   9  10
ENDBRANCH   8   9
BRANCH   8  12
ATOM     12  O   UNL     1      -1.646 -12.267  20.264  1.00  0.00    -0.388 OA
ATOM     13  H   UNL     1      -2.289 -12.504  20.982  1.00  0.00     0.211 HD
ENDBRANCH   8  12
ENDBRANCH   1   8
BRANCH   1  14
ATOM     14  O   UNL     1      -3.082 -14.357  19.964  1.00  0.00    -0.388 OA
ATOM     15  H   UNL     1      -3.059 -14.291  20.954  1.00  0.00     0.211 HD
ENDBRANCH   1  14
TORSDOF 9
ENDMDL
MODEL 6
REMARK VINA RESULT:    -4.023      1.882      4.463
REMARK INTER + INTRA:          -6.082
REMARK INTER:                  -5.811
REMARK INTRA:                  -0.270
REMARK UNBOUND:                -0.530
REMARK SMILES OC[C@@H](O)C(O)[C@H](O)CO
REMARK SMILES IDX 5 1 7 2 9 3 10 4 8 6 3 8 2 9 1 10 4 12 6 14
REMARK H PARENT 10 5 8 7 1 11 4 13 6 15
REMARK Flexibility Score: inf
ROOT
ATOM      1  C   UNL     1      -2.003 -16.678  20.882  1.00  0.00     0.176 C 
ENDROOT
BRANCH   1   2
ATOM      2  C   UNL     1      -1.519 -16.142  19.509  1.00  0.00     0.171 C 
BRANCH   2   3
ATOM      3  C   UNL     1      -1.556 -14.603  19.425  1.00  0.00     0.190 C 
BRANCH   3   4
ATOM      4  O   UNL     1      -1.959 -14.172  18.151  1.00  0.00    -0.394 OA
ATOM      5  H   UNL     1      -1.712 -14.892  17.512  1.00  0.00     0.210 HD
ENDBRANCH   3   4
ENDBRANCH   2   3
BRANCH   2   6
ATOM      6  O   UNL     1      -0.231 -16.613  19.199  1.00  0.00    -0.388 OA
ATOM      7  H   UNL     1      -0.103 -16.524  18.218  1.00  0.00     0.211 HD
ENDBRANCH   2   6
ENDBRANCH   1   2
BRANCH   1   8
ATOM      8  C   UNL     1      -3.014 -17.836  20.710  1.00  0.00     0.171 C 
BRANCH   8   9
ATOM      9  C   UNL     1      -3.389 -18.452  22.070  1.00  0.00     0.190 C 
BRANCH   9  10
ATOM     10  O   UNL     1      -4.086 -17.523  22.856  1.00  0.00    -0.394 OA
ATOM     11  H   UNL     1      -5.050 -17.644  22.651  1.00  0.00     0.210 HD
ENDBRANCH   9  10
ENDBRANCH   8   9
BRANCH   8  12
ATOM     12  O   UNL     1      -4.171 -17.363  20.068  1.00  0.00    -0.388 OA
ATOM     13  H   UNL     1      -4.025 -16.398  19.881  1.00  0.00     0.211 HD
ENDBRANCH   8  12
ENDBRANCH   1   8
BRANCH   1  14
ATOM     14  O   UNL     1      -2.602 -15.627  21.602  1.00  0.00    -0.388 OA
ATOM     15  H   UNL     1      -3.586 -15.755  21.547  1.00  0.00     0.211 HD
ENDBRANCH   1  14
TORSDOF 9
ENDMDL
MODEL 7
REMARK VINA RESULT:    -3.980      1.413      2.323
REMARK INTER + INTRA:          -6.023
REMARK INTER:                  -5.672
REMARK INTRA:                  -0.351
REMARK UNBOUND:                -0.530
REMARK SMILES OC[C@@H](O)C(O)[C@H](O)CO
REMARK SMILES IDX 5 1 7 2 9 3 10 4 8 6 3 8 2 9 1 10 4 12 6 14
REMARK H PARENT 10 5 8 7 1 11 4 13 6 15
REMARK Flexibility Score: inf
ROOT
ATOM      1  C   UNL     1      -1.628 -14.152  19.572  1.00  0.00     0.176 C 
ENDROOT
BRANCH   1   2
ATOM      2  C   UNL     1      -1.282 -15.595  20.023  1.00  0.00     0.171 C 
BRANCH   2   3
ATOM      3  C   UNL     1      -2.513 -16.523  20.041  1.00  0.00     0.190 C 
BRANCH   3   4
ATOM      4  O   UNL     1      -2.862 -16.880  21.353  1.00  0.00    -0.394 OA
ATOM      5  H   UNL     1      -2.250 -17.613  21.625  1.00  0.00     0.210 HD
ENDBRANCH   3   4
ENDBRANCH   2   3
BRANCH   2   6
ATOM      6  O   UNL     1      -0.267 -16.153  19.225  1.00  0.00    -0.388 OA
ATOM      7  H   UNL     1       0.607 -15.859  19.598  1.00  0.00     0.211 HD
ENDBRANCH   2   6
ENDBRANCH   1   2
BRANCH   1   8
ATOM      8  C   UNL     1      -2.932 -13.650  20.236  1.00  0.00     0.171 C 
BRANCH   8   9
ATOM      9  C   UNL     1      -2.711 -13.341  21.728  1.00  0.00     0.190 C 
BRANCH   9  10
ATOM     10  O   UNL     1      -3.543 -14.140  22.524  1.00  0.00    -0.394 OA
ATOM     11  H   UNL     1      -4.299 -13.565  22.812  1.00  0.00     0.210 HD
ENDBRANCH   9  10
ENDBRANCH   8   9
BRANCH   8  12
ATOM     12  O   UNL     1      -3.387 -12.498  19.574  1.00  0.00    -0.388 OA
ATOM     13  H   UNL     1      -4.257 -12.729  19.154  1.00  0.00     0.211 HD
ENDBRANCH   8  12
ENDBRANCH   1   8
BRANCH   1  14
ATOM     14  O   UNL     1      -1.769 -14.127  18.171  1.00  0.00    -0.388 OA
ATOM     15  H   UNL     1      -2.729 -14.275  17.969  1.00  0.00     0.211 HD
ENDBRANCH   1  14
TORSDOF 9
ENDMDL
MODEL 8
REMARK VINA RESULT:    -3.884      0.776      1.825
REMARK INTER + INTRA:          -5.890
REMARK INTER:                  -5.594
REMARK INTRA:                  -0.297
REMARK UNBOUND:                -0.530
REMARK SMILES OC[C@@H](O)C(O)[C@H](O)CO
REMARK SMILES IDX 5 1 7 2 9 3 10 4 8 6 3 8 2 9 1 10 4 12 6 14
REMARK H PARENT 10 5 8 7 1 11 4 13 6 15
REMARK Flexibility Score: inf
ROOT
ATOM      1  C   UNL     1      -2.856 -14.086  20.462  1.00  0.00     0.176 C 
ENDROOT
BRANCH   1   2
ATOM      2  C   UNL     1      -1.627 -14.509  19.617  1.00  0.00     0.171 C 
BRANCH   2   3
ATOM      3  C   UNL     1      -1.286 -16.005  19.770  1.00  0.00     0.190 C 
BRANCH   3   4
ATOM      4  O   UNL     1      -0.123 -16.339  19.059  1.00  0.00    -0.394 OA
ATOM      5  H   UNL     1      -0.232 -17.277  18.751  1.00  0.00     0.210 HD
ENDBRANCH   3   4
ENDBRANCH   2   3
BRANCH   2   6
ATOM      6  O   UNL     1      -1.801 -14.189  18.259  1.00  0.00    -0.388 OA
ATOM      7  H   UNL     1      -0.971 -14.446  17.778  1.00  0.00     0.211 HD
ENDBRANCH   2   6
ENDBRANCH   1   2
BRANCH   1   8
ATOM      8  C   UNL     1      -2.867 -12.560  20.718  1.00  0.00     0.171 C 
BRANCH   8   9
ATOM      9  C   UNL     1      -1.439 -12.021  20.915  1.00  0.00     0.190 C 
BRANCH   9  10
ATOM     10  O   UNL     1      -1.262 -10.825  20.203  1.00  0.00    -0.394 OA
ATOM     11  H   UNL     1      -0.334 -10.838  19.852  1.00  0.00     0.210 HD
ENDBRANCH   9  10
ENDBRANCH   8   9
BRANCH   8  12
ATOM     12  O   UNL     1      -3.478 -11.904  19.637  1.00  0.00    -0.388 OA
ATOM     13  H   UNL     1      -3.972 -12.593  19.120  1.00  0.00     0.211 HD
ENDBRANCH   8  12
ENDBRANCH   1   8
BRANCH   1  14
ATOM     14  O   UNL     1      -2.831 -14.773  21.690  1.00  0.00    -0.388 OA
ATOM     15  H   UNL     1      -3.693 -14.590  22.148  1.00  0.00     0.211 HD
ENDBRANCH   1  14
TORSDOF 9
ENDMDL
MODEL 9
REMARK VINA RESULT:    -3.776      4.047      6.111
REMARK INTER + INTRA:          -5.742
REMARK INTER:                  -5.413
REMARK INTRA:                  -0.329
REMARK UNBOUND:                -0.530
REMARK SMILES OC[C@@H](O)C(O)[C@H](O)CO
REMARK SMILES IDX 5 1 7 2 9 3 10 4 8 6 3 8 2 9 1 10 4 12 6 14
REMARK H PARENT 10 5 8 7 1 11 4 13 6 15
REMARK Flexibility Score: inf
ROOT
ATOM      1  C   UNL     1       1.625 -11.444  17.927  1.00  0.00     0.176 C 
ENDROOT
BRANCH   1   2
ATOM      2  C   UNL     1       1.748  -9.901  18.030  1.00  0.00     0.171 C 
BRANCH   2   3
ATOM      3  C   UNL     1       3.139  -9.447  18.515  1.00  0.00     0.190 C 
BRANCH   3   4
ATOM      4  O   UNL     1       4.073  -9.456  17.467  1.00  0.00    -0.394 OA
ATOM      5  H   UNL     1       4.004  -8.575  17.012  1.00  0.00     0.210 HD
ENDBRANCH   3   4
ENDBRANCH   2   3
BRANCH   2   6
ATOM      6  O   UNL     1       1.434  -9.278  16.809  1.00  0.00    -0.388 OA
ATOM      7  H   UNL     1       0.488  -8.977  16.857  1.00  0.00     0.211 HD
ENDBRANCH   2   6
ENDBRANCH   1   2
BRANCH   1   8
ATOM      8  C   UNL     1       1.741 -12.113  19.316  1.00  0.00     0.171 C 
BRANCH   8   9
ATOM      9  C   UNL     1       0.482 -11.856  20.163  1.00  0.00     0.190 C 
BRANCH   9  10
ATOM     10  O   UNL     1      -0.551 -12.726  19.786  1.00  0.00    -0.394 OA
ATOM     11  H   UNL     1      -1.365 -12.429  20.271  1.00  0.00     0.210 HD
ENDBRANCH   9  10
ENDBRANCH   8   9
BRANCH   8  12
ATOM     12  O   UNL     1       1.935 -13.496  19.161  1.00  0.00    -0.388 OA
ATOM     13  H   UNL     1       1.055 -13.887  18.914  1.00  0.00     0.211 HD
ENDBRANCH   8  12
ENDBRANCH   1   8
BRANCH   1  14
ATOM     14  O   UNL     1       2.636 -11.932  17.079  1.00  0.00    -0.388 OA
ATOM     15  H   UNL     1       3.155 -12.604  17.594  1.00  0.00     0.211 HD
ENDBRANCH   1  14
TORSDOF 9
ENDMDL
