MODEL 1
REMARK VINA RESULT:    -4.679      0.000      0.000
REMARK INTER + INTRA:          -4.679
REMARK INTER:                  -4.679
REMARK INTRA:                   0.000
REMARK UNBOUND:                 0.000
REMARK SMILES CC1(C)O[C@]2(C)CC[C@H]1CC2
REMARK SMILES IDX 1 1 2 2 9 3 10 4 11 5 5 6 4 7 7 8 8 9 6 10 3 11
REMARK H PARENT
REMARK Flexibility Score: inf
ROOT
ATOM      1  C   UNL     1       3.309  -1.938  23.420  1.00  0.00     0.042 C 
ATOM      2  C   UNL     1       1.883  -2.386  23.034  1.00  0.00     0.066 C 
ATOM      3  C   UNL     1       1.747  -3.955  23.126  1.00  0.00     0.021 C 
ATOM      4  C   UNL     1       0.318  -4.350  22.681  1.00  0.00     0.009 C 
ATOM      5  C   UNL     1       0.015  -3.702  21.309  1.00  0.00     0.035 C 
ATOM      6  C   UNL     1       1.274  -2.947  20.793  1.00  0.00     0.066 C 
ATOM      7  O   UNL     1       1.606  -1.904  21.712  1.00  0.00    -0.369 OA
ATOM      8  C   UNL     1       2.462  -3.948  20.707  1.00  0.00     0.035 C 
ATOM      9  C   UNL     1       2.708  -4.591  22.093  1.00  0.00     0.009 C 
ATOM     10  C   UNL     1       0.998  -2.327  19.420  1.00  0.00     0.042 C 
ATOM     11  C   UNL     1       0.906  -1.696  24.011  1.00  0.00     0.042 C 
ENDROOT
TORSDOF 0
ENDMDL
MODEL 2
REMARK VINA RESULT:    -4.606      1.192      2.423
REMARK INTER + INTRA:          -4.606
REMARK INTER:                  -4.606
REMARK INTRA:                   0.000
REMARK UNBOUND:                 0.000
REMARK SMILES CC1(C)O[C@]2(C)CC[C@H]1CC2
REMARK SMILES IDX 1 1 2 2 9 3 10 4 11 5 5 6 4 7 7 8 8 9 6 10 3 11
REMARK H PARENT
REMARK Flexibility Score: inf
ROOT
ATOM      1  C   UNL     1       2.795  -5.527  23.191  1.00  0.00     0.042 C 
ATOM      2  C   UNL     1       2.745  -4.023  22.845  1.00  0.00     0.066 C 
ATOM      3  C   UNL     1       1.544  -3.319  23.587  1.00  0.00     0.021 C 
ATOM      4  C   UNL     1       1.512  -1.831  23.164  1.00  0.00     0.009 C 
ATOM      5  C   UNL     1       1.528  -1.740  21.619  1.00  0.00     0.035 C 
ATOM      6  C   UNL     1       1.479  -3.171  21.007  1.00  0.00     0.066 C 
ATOM      7  O   UNL     1       2.638  -3.898  21.419  1.00  0.00    -0.369 OA
ATOM      8  C   UNL     1       0.207  -3.900  21.527  1.00  0.00     0.035 C 
ATOM      9  C   UNL     1       0.222  -3.939  23.074  1.00  0.00     0.009 C 
ATOM     10  C   UNL     1       1.462  -3.095  19.477  1.00  0.00     0.042 C 
ATOM     11  C   UNL     1       4.092  -3.407  23.280  1.00  0.00     0.042 C 
ENDROOT
TORSDOF 0
ENDMDL
MODEL 3
REMARK VINA RESULT:    -4.605      1.430      2.684
REMARK INTER + INTRA:          -4.605
REMARK INTER:                  -4.605
REMARK INTRA:                   0.000
REMARK UNBOUND:                 0.000
REMARK SMILES CC1(C)O[C@]2(C)CC[C@H]1CC2
REMARK SMILES IDX 1 1 2 2 9 3 10 4 11 5 5 6 4 7 7 8 8 9 6 10 3 11
REMARK H PARENT
REMARK Flexibility Score: inf
ROOT
ATOM      1  C   UNL     1       1.903  -4.324  23.061  1.00  0.00     0.042 C 
ATOM      2  C   UNL     1       1.308  -3.580  21.845  1.00  0.00     0.066 C 
ATOM      3  C   UNL     1       2.191  -3.818  20.559  1.00  0.00     0.021 C 
ATOM      4  C   UNL     1       1.579  -3.011  19.389  1.00  0.00     0.009 C 
ATOM      5  C   UNL     1       1.376  -1.543  19.835  1.00  0.00     0.035 C 
ATOM      6  C   UNL     1       1.936  -1.347  21.274  1.00  0.00     0.066 C 
ATOM      7  O   UNL     1       1.215  -2.187  22.177  1.00  0.00    -0.369 OA
ATOM      8  C   UNL     1       3.438  -1.750  21.290  1.00  0.00     0.035 C 
ATOM      9  C   UNL     1       3.593  -3.214  20.810  1.00  0.00     0.009 C 
ATOM     10  C   UNL     1       1.770   0.111  21.716  1.00  0.00     0.042 C 
ATOM     11  C   UNL     1      -0.122  -4.119  21.632  1.00  0.00     0.042 C 
ENDROOT
TORSDOF 0
ENDMDL
MODEL 4
REMARK VINA RESULT:    -4.562      1.312      3.137
REMARK INTER + INTRA:          -4.562
REMARK INTER:                  -4.562
REMARK INTRA:                   0.000
REMARK UNBOUND:                 0.000
REMARK SMILES CC1(C)O[C@]2(C)CC[C@H]1CC2
REMARK SMILES IDX 1 1 2 2 9 3 10 4 11 5 5 6 4 7 7 8 8 9 6 10 3 11
REMARK H PARENT
REMARK Flexibility Score: inf
ROOT
ATOM      1  C   UNL     1       4.266  -3.023  22.373  1.00  0.00     0.042 C 
ATOM      2  C   UNL     1       3.001  -3.547  21.659  1.00  0.00     0.066 C 
ATOM      3  C   UNL     1       2.177  -2.355  21.038  1.00  0.00     0.021 C 
ATOM      4  C   UNL     1       0.898  -2.931  20.382  1.00  0.00     0.009 C 
ATOM      5  C   UNL     1       0.163  -3.830  21.405  1.00  0.00     0.035 C 
ATOM      6  C   UNL     1       0.902  -3.783  22.774  1.00  0.00     0.066 C 
ATOM      7  O   UNL     1       2.227  -4.291  22.611  1.00  0.00    -0.369 OA
ATOM      8  C   UNL     1       0.977  -2.306  23.257  1.00  0.00     0.035 C 
ATOM      9  C   UNL     1       1.693  -1.442  22.190  1.00  0.00     0.009 C 
ATOM     10  C   UNL     1       0.166  -4.644  23.806  1.00  0.00     0.042 C 
ATOM     11  C   UNL     1       3.467  -4.521  20.555  1.00  0.00     0.042 C 
ENDROOT
TORSDOF 0
ENDMDL
MODEL 5
REMARK VINA RESULT:    -4.557      1.551      3.224
REMARK INTER + INTRA:          -4.557
REMARK INTER:                  -4.557
REMARK INTRA:                   0.000
REMARK UNBOUND:                 0.000
REMARK SMILES CC1(C)O[C@]2(C)CC[C@H]1CC2
REMARK SMILES IDX 1 1 2 2 9 3 10 4 11 5 5 6 4 7 7 8 8 9 6 10 3 11
REMARK H PARENT
REMARK Flexibility Score: inf
ROOT
ATOM      1  C   UNL     1       1.683  -2.048  21.269  1.00  0.00     0.042 C 
ATOM      2  C   UNL     1       1.078  -3.227  22.061  1.00  0.00     0.066 C 
ATOM      3  C   UNL     1       0.619  -2.759  23.496  1.00  0.00     0.021 C 
ATOM      4  C   UNL     1       0.070  -3.987  24.261  1.00  0.00     0.009 C 
ATOM      5  C   UNL     1       1.110  -5.132  24.199  1.00  0.00     0.035 C 
ATOM      6  C   UNL     1       2.394  -4.638  23.470  1.00  0.00     0.066 C 
ATOM      7  O   UNL     1       2.061  -4.270  22.130  1.00  0.00    -0.369 OA
ATOM      8  C   UNL     1       2.951  -3.393  24.218  1.00  0.00     0.035 C 
ATOM      9  C   UNL     1       1.868  -2.289  24.280  1.00  0.00     0.009 C 
ATOM     10  C   UNL     1       3.445  -5.752  23.430  1.00  0.00     0.042 C 
ATOM     11  C   UNL     1      -0.125  -3.756  21.250  1.00  0.00     0.042 C 
ENDROOT
TORSDOF 0
ENDMDL
MODEL 6
REMARK VINA RESULT:    -4.547     14.408     16.073
REMARK INTER + INTRA:          -4.547
REMARK INTER:                  -4.547
REMARK INTRA:                   0.000
REMARK UNBOUND:                 0.000
REMARK SMILES CC1(C)O[C@]2(C)CC[C@H]1CC2
REMARK SMILES IDX 1 1 2 2 9 3 10 4 11 5 5 6 4 7 7 8 8 9 6 10 3 11
REMARK H PARENT
REMARK Flexibility Score: inf
ROOT
ATOM      1  C   UNL     1      15.035  -4.186  25.670  1.00  0.00     0.042 C 
ATOM      2  C   UNL     1      16.328  -5.023  25.778  1.00  0.00     0.066 C 
ATOM      3  C   UNL     1      16.242  -6.304  24.861  1.00  0.00     0.021 C 
ATOM      4  C   UNL     1      17.538  -7.129  25.048  1.00  0.00     0.009 C 
ATOM      5  C   UNL     1      17.775  -7.367  26.559  1.00  0.00     0.035 C 
ATOM      6  C   UNL     1      16.589  -6.779  27.378  1.00  0.00     0.066 C 
ATOM      7  O   UNL     1      16.521  -5.368  27.158  1.00  0.00    -0.369 OA
ATOM      8  C   UNL     1      15.265  -7.436  26.893  1.00  0.00     0.035 C 
ATOM      9  C   UNL     1      15.087  -7.197  25.374  1.00  0.00     0.009 C 
ATOM     10  C   UNL     1      16.796  -7.036  28.874  1.00  0.00     0.042 C 
ATOM     11  C   UNL     1      17.500  -4.118  25.342  1.00  0.00     0.042 C 
ENDROOT
TORSDOF 0
ENDMDL
MODEL 7
REMARK VINA RESULT:    -4.543      1.184      2.763
REMARK INTER + INTRA:          -4.543
REMARK INTER:                  -4.543
REMARK INTRA:                   0.000
REMARK UNBOUND:                 0.000
REMARK SMILES CC1(C)O[C@]2(C)CC[C@H]1CC2
REMARK SMILES IDX 1 1 2 2 9 3 10 4 11 5 5 6 4 7 7 8 8 9 6 10 3 11
REMARK H PARENT
REMARK Flexibility Score: inf
ROOT
ATOM      1  C   UNL     1       1.746  -0.578  21.258  1.00  0.00     0.042 C 
ATOM      2  C   UNL     1       2.301  -1.847  21.942  1.00  0.00     0.066 C 
ATOM      3  C   UNL     1       2.609  -2.967  20.874  1.00  0.00     0.021 C 
ATOM      4  C   UNL     1       3.112  -4.228  21.618  1.00  0.00     0.009 C 
ATOM      5  C   UNL     1       2.110  -4.589  22.741  1.00  0.00     0.035 C 
ATOM      6  C   UNL     1       0.890  -3.624  22.690  1.00  0.00     0.066 C 
ATOM      7  O   UNL     1       1.341  -2.286  22.914  1.00  0.00    -0.369 OA
ATOM      8  C   UNL     1       0.234  -3.713  21.282  1.00  0.00     0.035 C 
ATOM      9  C   UNL     1       1.279  -3.372  20.193  1.00  0.00     0.009 C 
ATOM     10  C   UNL     1      -0.125  -3.991  23.777  1.00  0.00     0.042 C 
ATOM     11  C   UNL     1       3.588  -1.439  22.691  1.00  0.00     0.042 C 
ENDROOT
TORSDOF 0
ENDMDL
MODEL 8
REMARK VINA RESULT:    -4.424     14.247     15.811
REMARK INTER + INTRA:          -4.424
REMARK INTER:                  -4.424
REMARK INTRA:                   0.000
REMARK UNBOUND:                 0.000
REMARK SMILES CC1(C)O[C@]2(C)CC[C@H]1CC2
REMARK SMILES IDX 1 1 2 2 9 3 10 4 11 5 5 6 4 7 7 8 8 9 6 10 3 11
REMARK H PARENT
REMARK Flexibility Score: inf
ROOT
ATOM      1  C   UNL     1      13.990  -5.394  25.861  1.00  0.00     0.042 C 
ATOM      2  C   UNL     1      15.071  -6.461  26.136  1.00  0.00     0.066 C 
ATOM      3  C   UNL     1      16.065  -5.972  27.259  1.00  0.00     0.021 C 
ATOM      4  C   UNL     1      17.154  -7.055  27.455  1.00  0.00     0.009 C 
ATOM      5  C   UNL     1      17.772  -7.410  26.082  1.00  0.00     0.035 C 
ATOM      6  C   UNL     1      17.161  -6.499  24.977  1.00  0.00     0.066 C 
ATOM      7  O   UNL     1      15.753  -6.733  24.902  1.00  0.00    -0.369 OA
ATOM      8  C   UNL     1      17.412  -5.011  25.354  1.00  0.00     0.035 C 
ATOM      9  C   UNL     1      16.802  -4.712  26.745  1.00  0.00     0.009 C 
ATOM     10  C   UNL     1      17.788  -6.818  23.616  1.00  0.00     0.042 C 
ATOM     11  C   UNL     1      14.344  -7.750  26.575  1.00  0.00     0.042 C 
ENDROOT
TORSDOF 0
ENDMDL
MODEL 9
REMARK VINA RESULT:    -4.382      1.147      2.825
REMARK INTER + INTRA:          -4.382
REMARK INTER:                  -4.382
REMARK INTRA:                   0.000
REMARK UNBOUND:                 0.000
REMARK SMILES CC1(C)O[C@]2(C)CC[C@H]1CC2
REMARK SMILES IDX 1 1 2 2 9 3 10 4 11 5 5 6 4 7 7 8 8 9 6 10 3 11
REMARK H PARENT
REMARK Flexibility Score: inf
ROOT
ATOM      1  C   UNL     1       3.490  -4.379  20.877  1.00  0.00     0.042 C 
ATOM      2  C   UNL     1       2.554  -4.105  22.075  1.00  0.00     0.066 C 
ATOM      3  C   UNL     1       1.046  -4.097  21.613  1.00  0.00     0.021 C 
ATOM      4  C   UNL     1       0.160  -3.768  22.839  1.00  0.00     0.009 C 
ATOM      5  C   UNL     1       0.690  -2.483  23.520  1.00  0.00     0.035 C 
ATOM      6  C   UNL     1       1.875  -1.901  22.696  1.00  0.00     0.066 C 
ATOM      7  O   UNL     1       2.939  -2.855  22.664  1.00  0.00    -0.369 OA
ATOM      8  C   UNL     1       1.393  -1.625  21.243  1.00  0.00     0.035 C 
ATOM      9  C   UNL     1       0.846  -2.931  20.615  1.00  0.00     0.009 C 
ATOM     10  C   UNL     1       2.389  -0.610  23.341  1.00  0.00     0.042 C 
ATOM     11  C   UNL     1       2.800  -5.221  23.114  1.00  0.00     0.042 C 
ENDROOT
TORSDOF 0
ENDMDL
