MODEL 1
REMARK VINA RESULT:    -5.069      0.000      0.000
REMARK INTER + INTRA:         -10.422
REMARK INTER:                  -9.217
REMARK INTRA:                  -1.205
REMARK UNBOUND:                -1.205
REMARK SMILES CCCCCCCCCCCCCCCC(=O)[O-]
REMARK SMILES IDX 9 1 10 2 11 3 12 4 13 5 14 6 15 7 16 8 17 9 18 10 8 11 7 12
REMARK SMILES IDX 6 13 5 14 4 15 3 16 2 17 1 18
REMARK H PARENT
REMARK Flexibility Score: inf
ROOT
ATOM      1  C   UNL     1      11.421  19.842  21.288  1.00  0.00     0.000 C 
ENDROOT
BRANCH   1   2
ATOM      2  C   UNL     1      12.627  20.609  20.718  1.00  0.00     0.000 C 
BRANCH   2   3
ATOM      3  C   UNL     1      13.929  20.309  21.482  1.00  0.00     0.000 C 
BRANCH   3   4
ATOM      4  C   UNL     1      14.899  21.502  21.488  1.00  0.00     0.000 C 
BRANCH   4   5
ATOM      5  C   UNL     1      15.685  21.633  20.175  1.00  0.00     0.000 C 
BRANCH   5   6
ATOM      6  C   UNL     1      17.193  21.500  20.422  1.00  0.00     0.006 C 
BRANCH   6   7
ATOM      7  C   UNL     1      17.947  22.727  19.900  1.00  0.00     0.053 C 
BRANCH   7   8
ATOM      8  C   UNL     1      17.775  23.883  20.833  1.00  0.00     0.041 C 
ATOM      9  O   UNL     1      17.704  25.056  20.382  1.00  0.00    -0.550 OA
ATOM     10  O   UNL     1      17.737  23.670  22.206  1.00  0.00    -0.550 OA
ENDBRANCH   7   8
ENDBRANCH   6   7
ENDBRANCH   5   6
ENDBRANCH   4   5
ENDBRANCH   3   4
ENDBRANCH   2   3
ENDBRANCH   1   2
BRANCH   1  11
ATOM     11  C   UNL     1      11.488  18.333  20.993  1.00  0.00     0.000 C 
BRANCH  11  12
ATOM     12  C   UNL     1      10.645  17.501  21.974  1.00  0.00    -0.000 C 
BRANCH  12  13
ATOM     13  C   UNL     1      10.005  18.364  23.077  1.00  0.00    -0.000 C 
BRANCH  13  14
ATOM     14  C   UNL     1      10.546  18.030  24.476  1.00  0.00    -0.000 C 
BRANCH  14  15
ATOM     15  C   UNL     1      12.063  18.242  24.594  1.00  0.00    -0.000 C 
BRANCH  15  16
ATOM     16  C   UNL     1      12.767  16.949  25.032  1.00  0.00    -0.000 C 
BRANCH  16  17
ATOM     17  C   UNL     1      14.260  17.158  25.324  1.00  0.00    -0.003 C 
ATOM     18  C   UNL     1      14.833  18.394  24.630  1.00  0.00     0.004 C 
ENDBRANCH  16  17
ENDBRANCH  15  16
ENDBRANCH  14  15
ENDBRANCH  13  14
ENDBRANCH  12  13
ENDBRANCH  11  12
ENDBRANCH   1  11
TORSDOF 14
ENDMDL
MODEL 2
REMARK VINA RESULT:    -5.030      1.812      3.674
REMARK INTER + INTRA:         -10.352
REMARK INTER:                  -8.792
REMARK INTRA:                  -1.560
REMARK UNBOUND:                -1.205
REMARK SMILES CCCCCCCCCCCCCCCC(=O)[O-]
REMARK SMILES IDX 9 1 10 2 11 3 12 4 13 5 14 6 15 7 16 8 17 9 18 10 8 11 7 12
REMARK SMILES IDX 6 13 5 14 4 15 3 16 2 17 1 18
REMARK H PARENT
REMARK Flexibility Score: inf
ROOT
ATOM      1  C   UNL     1      14.578  18.499  24.126  1.00  0.00     0.000 C 
ENDROOT
BRANCH   1   2
ATOM      2  C   UNL     1      14.400  19.965  24.554  1.00  0.00     0.000 C 
BRANCH   2   3
ATOM      3  C   UNL     1      14.075  20.889  23.368  1.00  0.00     0.000 C 
BRANCH   3   4
ATOM      4  C   UNL     1      14.852  20.514  22.095  1.00  0.00     0.000 C 
BRANCH   4   5
ATOM      5  C   UNL     1      14.787  21.606  21.017  1.00  0.00     0.000 C 
BRANCH   5   6
ATOM      6  C   UNL     1      16.127  21.729  20.279  1.00  0.00     0.006 C 
BRANCH   6   7
ATOM      7  C   UNL     1      16.546  20.387  19.672  1.00  0.00     0.053 C 
BRANCH   7   8
ATOM      8  C   UNL     1      17.980  20.098  19.979  1.00  0.00     0.041 C 
ATOM      9  O   UNL     1      18.879  20.908  19.628  1.00  0.00    -0.550 OA
ATOM     10  O   UNL     1      18.331  18.913  20.615  1.00  0.00    -0.550 OA
ENDBRANCH   7   8
ENDBRANCH   6   7
ENDBRANCH   5   6
ENDBRANCH   4   5
ENDBRANCH   3   4
ENDBRANCH   2   3
ENDBRANCH   1   2
BRANCH   1  11
ATOM     11  C   UNL     1      14.564  17.528  25.320  1.00  0.00     0.000 C 
BRANCH  11  12
ATOM     12  C   UNL     1      13.206  16.827  25.497  1.00  0.00    -0.000 C 
BRANCH  12  13
ATOM     13  C   UNL     1      12.223  17.157  24.360  1.00  0.00    -0.000 C 
BRANCH  13  14
ATOM     14  C   UNL     1      10.990  17.933  24.852  1.00  0.00    -0.000 C 
BRANCH  14  15
ATOM     15  C   UNL     1      10.111  18.446  23.701  1.00  0.00    -0.000 C 
BRANCH  15  16
ATOM     16  C   UNL     1      10.650  17.969  22.343  1.00  0.00    -0.000 C 
BRANCH  16  17
ATOM     17  C   UNL     1      10.899  19.127  21.365  1.00  0.00    -0.003 C 
ATOM     18  C   UNL     1      12.128  18.906  20.484  1.00  0.00     0.004 C 
ENDBRANCH  16  17
ENDBRANCH  15  16
ENDBRANCH  14  15
ENDBRANCH  13  14
ENDBRANCH  12  13
ENDBRANCH  11  12
ENDBRANCH   1  11
TORSDOF 14
ENDMDL
MODEL 3
REMARK VINA RESULT:    -5.008      2.116      3.087
REMARK INTER + INTRA:         -10.312
REMARK INTER:                  -8.501
REMARK INTRA:                  -1.811
REMARK UNBOUND:                -1.205
REMARK SMILES CCCCCCCCCCCCCCCC(=O)[O-]
REMARK SMILES IDX 9 1 10 2 11 3 12 4 13 5 14 6 15 7 16 8 17 9 18 10 8 11 7 12
REMARK SMILES IDX 6 13 5 14 4 15 3 16 2 17 1 18
REMARK H PARENT
REMARK Flexibility Score: inf
ROOT
ATOM      1  C   UNL     1      10.839  18.467  22.360  1.00  0.00     0.000 C 
ENDROOT
BRANCH   1   2
ATOM      2  C   UNL     1      11.411  19.878  22.146  1.00  0.00     0.000 C 
BRANCH   2   3
ATOM      3  C   UNL     1      12.639  19.881  21.219  1.00  0.00     0.000 C 
BRANCH   3   4
ATOM      4  C   UNL     1      13.188  21.294  20.968  1.00  0.00     0.000 C 
BRANCH   4   5
ATOM      5  C   UNL     1      14.720  21.361  21.062  1.00  0.00     0.000 C 
BRANCH   5   6
ATOM      6  C   UNL     1      15.374  20.634  19.881  1.00  0.00     0.006 C 
BRANCH   6   7
ATOM      7  C   UNL     1      16.838  21.055  19.718  1.00  0.00     0.053 C 
BRANCH   7   8
ATOM      8  C   UNL     1      17.680  19.883  19.325  1.00  0.00     0.041 C 
ATOM      9  O   UNL     1      18.612  19.491  20.075  1.00  0.00    -0.550 OA
ATOM     10  O   UNL     1      17.463  19.249  18.107  1.00  0.00    -0.550 OA
ENDBRANCH   7   8
ENDBRANCH   6   7
ENDBRANCH   5   6
ENDBRANCH   4   5
ENDBRANCH   3   4
ENDBRANCH   2   3
ENDBRANCH   1   2
BRANCH   1  11
ATOM     11  C   UNL     1      10.028  18.349  23.663  1.00  0.00     0.000 C 
BRANCH  11  12
ATOM     12  C   UNL     1      10.883  17.874  24.850  1.00  0.00    -0.000 C 
BRANCH  12  13
ATOM     13  C   UNL     1      12.156  17.135  24.399  1.00  0.00    -0.000 C 
BRANCH  13  14
ATOM     14  C   UNL     1      13.109  16.834  25.567  1.00  0.00    -0.000 C 
BRANCH  14  15
ATOM     15  C   UNL     1      14.521  17.398  25.344  1.00  0.00    -0.000 C 
BRANCH  15  16
ATOM     16  C   UNL     1      14.563  18.295  24.097  1.00  0.00    -0.000 C 
BRANCH  16  17
ATOM     17  C   UNL     1      15.159  19.681  24.386  1.00  0.00    -0.003 C 
ATOM     18  C   UNL     1      14.092  20.733  24.691  1.00  0.00     0.004 C 
ENDBRANCH  16  17
ENDBRANCH  15  16
ENDBRANCH  14  15
ENDBRANCH  13  14
ENDBRANCH  12  13
ENDBRANCH  11  12
ENDBRANCH   1  11
TORSDOF 14
ENDMDL
MODEL 4
REMARK VINA RESULT:    -4.977      1.296      2.481
REMARK INTER + INTRA:         -10.255
REMARK INTER:                  -9.418
REMARK INTRA:                  -0.838
REMARK UNBOUND:                -1.205
REMARK SMILES CCCCCCCCCCCCCCCC(=O)[O-]
REMARK SMILES IDX 9 1 10 2 11 3 12 4 13 5 14 6 15 7 16 8 17 9 18 10 8 11 7 12
REMARK SMILES IDX 6 13 5 14 4 15 3 16 2 17 1 18
REMARK H PARENT
REMARK Flexibility Score: inf
ROOT
ATOM      1  C   UNL     1      14.028  19.762  19.544  1.00  0.00     0.000 C 
ENDROOT
BRANCH   1   2
ATOM      2  C   UNL     1      15.494  19.743  19.080  1.00  0.00     0.000 C 
BRANCH   2   3
ATOM      3  C   UNL     1      16.327  20.871  19.714  1.00  0.00     0.000 C 
BRANCH   3   4
ATOM      4  C   UNL     1      17.811  20.805  19.317  1.00  0.00     0.000 C 
BRANCH   4   5
ATOM      5  C   UNL     1      18.515  22.166  19.427  1.00  0.00     0.000 C 
BRANCH   5   6
ATOM      6  C   UNL     1      18.122  22.885  20.724  1.00  0.00     0.006 C 
BRANCH   6   7
ATOM      7  C   UNL     1      17.629  24.307  20.437  1.00  0.00     0.053 C 
BRANCH   7   8
ATOM      8  C   UNL     1      17.234  24.990  21.707  1.00  0.00     0.041 C 
ATOM      9  O   UNL     1      17.760  26.088  22.027  1.00  0.00    -0.550 OA
ATOM     10  O   UNL     1      16.315  24.392  22.562  1.00  0.00    -0.550 OA
ENDBRANCH   7   8
ENDBRANCH   6   7
ENDBRANCH   5   6
ENDBRANCH   4   5
ENDBRANCH   3   4
ENDBRANCH   2   3
ENDBRANCH   1   2
BRANCH   1  11
ATOM     11  C   UNL     1      13.873  20.274  20.988  1.00  0.00     0.000 C 
BRANCH  11  12
ATOM     12  C   UNL     1      12.429  20.692  21.314  1.00  0.00    -0.000 C 
BRANCH  12  13
ATOM     13  C   UNL     1      11.905  20.039  22.605  1.00  0.00    -0.000 C 
BRANCH  13  14
ATOM     14  C   UNL     1      11.135  18.736  22.336  1.00  0.00    -0.000 C 
BRANCH  14  15
ATOM     15  C   UNL     1      11.773  17.516  23.018  1.00  0.00    -0.000 C 
BRANCH  15  16
ATOM     16  C   UNL     1      11.916  17.744  24.531  1.00  0.00    -0.000 C 
BRANCH  16  17
ATOM     17  C   UNL     1      12.989  16.846  25.165  1.00  0.00    -0.003 C 
ATOM     18  C   UNL     1      14.356  17.525  25.250  1.00  0.00     0.004 C 
ENDBRANCH  16  17
ENDBRANCH  15  16
ENDBRANCH  14  15
ENDBRANCH  13  14
ENDBRANCH  12  13
ENDBRANCH  11  12
ENDBRANCH   1  11
TORSDOF 14
ENDMDL
MODEL 5
REMARK VINA RESULT:    -4.923      3.016      7.646
REMARK INTER + INTRA:         -10.157
REMARK INTER:                  -9.408
REMARK INTRA:                  -0.748
REMARK UNBOUND:                -1.205
REMARK SMILES CCCCCCCCCCCCCCCC(=O)[O-]
REMARK SMILES IDX 9 1 10 2 11 3 12 4 13 5 14 6 15 7 16 8 17 9 18 10 8 11 7 12
REMARK SMILES IDX 6 13 5 14 4 15 3 16 2 17 1 18
REMARK H PARENT
REMARK Flexibility Score: inf
ROOT
ATOM      1  C   UNL     1      14.236  20.608  19.528  1.00  0.00     0.000 C 
ENDROOT
BRANCH   1   2
ATOM      2  C   UNL     1      13.207  19.523  19.885  1.00  0.00     0.000 C 
BRANCH   2   3
ATOM      3  C   UNL     1      12.011  20.083  20.675  1.00  0.00     0.000 C 
BRANCH   3   4
ATOM      4  C   UNL     1      11.976  19.584  22.129  1.00  0.00     0.000 C 
BRANCH   4   5
ATOM      5  C   UNL     1      10.907  18.505  22.359  1.00  0.00     0.000 C 
BRANCH   5   6
ATOM      6  C   UNL     1      11.259  17.634  23.572  1.00  0.00     0.006 C 
BRANCH   6   7
ATOM      7  C   UNL     1      12.276  18.337  24.477  1.00  0.00     0.053 C 
BRANCH   7   8
ATOM      8  C   UNL     1      13.385  17.403  24.842  1.00  0.00     0.041 C 
ATOM      9  O   UNL     1      13.155  16.392  25.557  1.00  0.00    -0.550 OA
ATOM     10  O   UNL     1      14.685  17.672  24.428  1.00  0.00    -0.550 OA
ENDBRANCH   7   8
ENDBRANCH   6   7
ENDBRANCH   5   6
ENDBRANCH   4   5
ENDBRANCH   3   4
ENDBRANCH   2   3
ENDBRANCH   1   2
BRANCH   1  11
ATOM     11  C   UNL     1      15.661  20.045  19.378  1.00  0.00     0.000 C 
BRANCH  11  12
ATOM     12  C   UNL     1      16.686  20.792  20.247  1.00  0.00    -0.000 C 
BRANCH  12  13
ATOM     13  C   UNL     1      17.971  21.139  19.474  1.00  0.00    -0.000 C 
BRANCH  13  14
ATOM     14  C   UNL     1      18.540  22.513  19.860  1.00  0.00    -0.000 C 
BRANCH  14  15
ATOM     15  C   UNL     1      17.540  23.371  20.650  1.00  0.00    -0.000 C 
BRANCH  15  16
ATOM     16  C   UNL     1      17.515  24.814  20.120  1.00  0.00    -0.000 C 
BRANCH  16  17
ATOM     17  C   UNL     1      17.436  25.856  21.247  1.00  0.00    -0.003 C 
ATOM     18  C   UNL     1      17.083  25.240  22.600  1.00  0.00     0.004 C 
ENDBRANCH  16  17
ENDBRANCH  15  16
ENDBRANCH  14  15
ENDBRANCH  13  14
ENDBRANCH  12  13
ENDBRANCH  11  12
ENDBRANCH   1  11
TORSDOF 14
ENDMDL
MODEL 6
REMARK VINA RESULT:    -4.919      2.773      6.590
REMARK INTER + INTRA:         -10.151
REMARK INTER:                  -8.953
REMARK INTRA:                  -1.198
REMARK UNBOUND:                -1.205
REMARK SMILES CCCCCCCCCCCCCCCC(=O)[O-]
REMARK SMILES IDX 9 1 10 2 11 3 12 4 13 5 14 6 15 7 16 8 17 9 18 10 8 11 7 12
REMARK SMILES IDX 6 13 5 14 4 15 3 16 2 17 1 18
REMARK H PARENT
REMARK Flexibility Score: inf
ROOT
ATOM      1  C   UNL     1      11.747  19.003  21.016  1.00  0.00     0.000 C 
ENDROOT
BRANCH   1   2
ATOM      2  C   UNL     1      10.862  18.087  21.878  1.00  0.00     0.000 C 
BRANCH   2   3
ATOM      3  C   UNL     1      10.598  18.671  23.277  1.00  0.00     0.000 C 
BRANCH   3   4
ATOM      4  C   UNL     1      11.130  17.770  24.403  1.00  0.00     0.000 C 
BRANCH   4   5
ATOM      5  C   UNL     1      12.484  17.130  24.063  1.00  0.00     0.000 C 
BRANCH   5   6
ATOM      6  C   UNL     1      13.454  17.236  25.247  1.00  0.00     0.006 C 
BRANCH   6   7
ATOM      7  C   UNL     1      14.562  18.254  24.960  1.00  0.00     0.053 C 
BRANCH   7   8
ATOM      8  C   UNL     1      15.873  17.762  25.485  1.00  0.00     0.041 C 
ATOM      9  O   UNL     1      16.330  16.650  25.110  1.00  0.00    -0.550 OA
ATOM     10  O   UNL     1      16.572  18.512  26.423  1.00  0.00    -0.550 OA
ENDBRANCH   7   8
ENDBRANCH   6   7
ENDBRANCH   5   6
ENDBRANCH   4   5
ENDBRANCH   3   4
ENDBRANCH   2   3
ENDBRANCH   1   2
BRANCH   1  11
ATOM     11  C   UNL     1      12.169  20.284  21.756  1.00  0.00     0.000 C 
BRANCH  11  12
ATOM     12  C   UNL     1      13.696  20.465  21.803  1.00  0.00    -0.000 C 
BRANCH  12  13
ATOM     13  C   UNL     1      14.263  21.021  20.485  1.00  0.00    -0.000 C 
BRANCH  13  14
ATOM     14  C   UNL     1      15.411  20.165  19.928  1.00  0.00    -0.000 C 
BRANCH  14  15
ATOM     15  C   UNL     1      16.725  20.950  19.787  1.00  0.00    -0.000 C 
BRANCH  15  16
ATOM     16  C   UNL     1      16.704  22.216  20.657  1.00  0.00    -0.000 C 
BRANCH  16  17
ATOM     17  C   UNL     1      17.900  23.141  20.384  1.00  0.00    -0.003 C 
ATOM     18  C   UNL     1      17.546  24.622  20.515  1.00  0.00     0.004 C 
ENDBRANCH  16  17
ENDBRANCH  15  16
ENDBRANCH  14  15
ENDBRANCH  13  14
ENDBRANCH  12  13
ENDBRANCH  11  12
ENDBRANCH   1  11
TORSDOF 14
ENDMDL
MODEL 7
REMARK VINA RESULT:    -4.863      2.476      5.194
REMARK INTER + INTRA:         -10.048
REMARK INTER:                  -8.579
REMARK INTRA:                  -1.469
REMARK UNBOUND:                -1.205
REMARK SMILES CCCCCCCCCCCCCCCC(=O)[O-]
REMARK SMILES IDX 9 1 10 2 11 3 12 4 13 5 14 6 15 7 16 8 17 9 18 10 8 11 7 12
REMARK SMILES IDX 6 13 5 14 4 15 3 16 2 17 1 18
REMARK H PARENT
REMARK Flexibility Score: inf
ROOT
ATOM      1  C   UNL     1      10.871  17.866  24.896  1.00  0.00     0.000 C 
ENDROOT
BRANCH   1   2
ATOM      2  C   UNL     1      12.160  17.307  24.273  1.00  0.00     0.000 C 
BRANCH   2   3
ATOM      3  C   UNL     1      13.156  16.803  25.332  1.00  0.00     0.000 C 
BRANCH   3   4
ATOM      4  C   UNL     1      14.528  17.487  25.229  1.00  0.00     0.000 C 
BRANCH   4   5
ATOM      5  C   UNL     1      14.538  18.648  24.223  1.00  0.00     0.000 C 
BRANCH   5   6
ATOM      6  C   UNL     1      15.009  19.947  24.888  1.00  0.00     0.006 C 
BRANCH   6   7
ATOM      7  C   UNL     1      14.203  21.148  24.383  1.00  0.00     0.053 C 
BRANCH   7   8
ATOM      8  C   UNL     1      14.810  22.426  24.866  1.00  0.00     0.041 C 
ATOM      9  O   UNL     1      14.289  23.053  25.827  1.00  0.00    -0.550 OA
ATOM     10  O   UNL     1      15.927  22.951  24.228  1.00  0.00    -0.550 OA
ENDBRANCH   7   8
ENDBRANCH   6   7
ENDBRANCH   5   6
ENDBRANCH   4   5
ENDBRANCH   3   4
ENDBRANCH   2   3
ENDBRANCH   1   2
BRANCH   1  11
ATOM     11  C   UNL     1       9.980  18.584  23.867  1.00  0.00     0.000 C 
BRANCH  11  12
ATOM     12  C   UNL     1      10.342  18.222  22.417  1.00  0.00    -0.000 C 
BRANCH  12  13
ATOM     13  C   UNL     1      11.016  19.387  21.670  1.00  0.00    -0.000 C 
BRANCH  13  14
ATOM     14  C   UNL     1      12.239  18.937  20.854  1.00  0.00    -0.000 C 
BRANCH  14  15
ATOM     15  C   UNL     1      13.394  19.949  20.904  1.00  0.00    -0.000 C 
BRANCH  15  16
ATOM     16  C   UNL     1      13.908  20.266  19.492  1.00  0.00    -0.000 C 
BRANCH  16  17
ATOM     17  C   UNL     1      12.843  20.942  18.614  1.00  0.00    -0.003 C 
ATOM     18  C   UNL     1      12.482  20.117  17.378  1.00  0.00     0.004 C 
ENDBRANCH  16  17
ENDBRANCH  15  16
ENDBRANCH  14  15
ENDBRANCH  13  14
ENDBRANCH  12  13
ENDBRANCH  11  12
ENDBRANCH   1  11
TORSDOF 14
ENDMDL
MODEL 8
REMARK VINA RESULT:    -4.820      1.952      2.203
REMARK INTER + INTRA:          -9.970
REMARK INTER:                  -8.729
REMARK INTRA:                  -1.241
REMARK UNBOUND:                -1.205
REMARK SMILES CCCCCCCCCCCCCCCC(=O)[O-]
REMARK SMILES IDX 9 1 10 2 11 3 12 4 13 5 14 6 15 7 16 8 17 9 18 10 8 11 7 12
REMARK SMILES IDX 6 13 5 14 4 15 3 16 2 17 1 18
REMARK H PARENT
REMARK Flexibility Score: inf
ROOT
ATOM      1  C   UNL     1      11.377  20.049  21.495  1.00  0.00     0.000 C 
ENDROOT
BRANCH   1   2
ATOM      2  C   UNL     1      12.606  20.907  21.837  1.00  0.00     0.000 C 
BRANCH   2   3
ATOM      3  C   UNL     1      13.512  21.152  20.617  1.00  0.00     0.000 C 
BRANCH   3   4
ATOM      4  C   UNL     1      14.935  20.607  20.817  1.00  0.00     0.000 C 
BRANCH   4   5
ATOM      5  C   UNL     1      15.939  21.700  21.213  1.00  0.00     0.000 C 
BRANCH   5   6
ATOM      6  C   UNL     1      16.765  22.151  20.001  1.00  0.00     0.006 C 
BRANCH   6   7
ATOM      7  C   UNL     1      18.185  21.582  20.061  1.00  0.00     0.053 C 
BRANCH   7   8
ATOM      8  C   UNL     1      18.211  20.182  19.535  1.00  0.00     0.041 C 
ATOM      9  O   UNL     1      18.952  19.317  20.071  1.00  0.00    -0.550 OA
ATOM     10  O   UNL     1      17.449  19.843  18.423  1.00  0.00    -0.550 OA
ENDBRANCH   7   8
ENDBRANCH   6   7
ENDBRANCH   5   6
ENDBRANCH   4   5
ENDBRANCH   3   4
ENDBRANCH   2   3
ENDBRANCH   1   2
BRANCH   1  11
ATOM     11  C   UNL     1      11.749  18.597  21.146  1.00  0.00     0.000 C 
BRANCH  11  12
ATOM     12  C   UNL     1      10.898  17.569  21.912  1.00  0.00    -0.000 C 
BRANCH  12  13
ATOM     13  C   UNL     1      10.086  18.210  23.051  1.00  0.00    -0.000 C 
BRANCH  13  14
ATOM     14  C   UNL     1      10.639  17.856  24.441  1.00  0.00    -0.000 C 
BRANCH  14  15
ATOM     15  C   UNL     1      12.115  18.246  24.612  1.00  0.00    -0.000 C 
BRANCH  15  16
ATOM     16  C   UNL     1      12.963  17.026  25.006  1.00  0.00    -0.000 C 
BRANCH  16  17
ATOM     17  C   UNL     1      14.441  17.381  25.230  1.00  0.00    -0.003 C 
ATOM     18  C   UNL     1      14.888  18.596  24.418  1.00  0.00     0.004 C 
ENDBRANCH  16  17
ENDBRANCH  15  16
ENDBRANCH  14  15
ENDBRANCH  13  14
ENDBRANCH  12  13
ENDBRANCH  11  12
ENDBRANCH   1  11
TORSDOF 14
ENDMDL
MODEL 9
REMARK VINA RESULT:    -4.799      3.392      7.355
REMARK INTER + INTRA:          -9.931
REMARK INTER:                  -8.833
REMARK INTRA:                  -1.099
REMARK UNBOUND:                -1.205
REMARK SMILES CCCCCCCCCCCCCCCC(=O)[O-]
REMARK SMILES IDX 9 1 10 2 11 3 12 4 13 5 14 6 15 7 16 8 17 9 18 10 8 11 7 12
REMARK SMILES IDX 6 13 5 14 4 15 3 16 2 17 1 18
REMARK H PARENT
REMARK Flexibility Score: inf
ROOT
ATOM      1  C   UNL     1      15.240  21.223  19.977  1.00  0.00     0.000 C 
ENDROOT
BRANCH   1   2
ATOM      2  C   UNL     1      14.295  21.315  21.186  1.00  0.00     0.000 C 
BRANCH   2   3
ATOM      3  C   UNL     1      14.801  20.505  22.393  1.00  0.00     0.000 C 
BRANCH   3   4
ATOM      4  C   UNL     1      13.698  20.233  23.428  1.00  0.00     0.000 C 
BRANCH   4   5
ATOM      5  C   UNL     1      13.825  18.849  24.081  1.00  0.00     0.000 C 
BRANCH   5   6
ATOM      6  C   UNL     1      15.154  18.718  24.837  1.00  0.00     0.006 C 
BRANCH   6   7
ATOM      7  C   UNL     1      15.524  17.247  25.048  1.00  0.00     0.053 C 
BRANCH   7   8
ATOM      8  C   UNL     1      17.006  17.095  25.185  1.00  0.00     0.041 C 
ATOM      9  O   UNL     1      17.704  18.048  25.620  1.00  0.00    -0.550 OA
ATOM     10  O   UNL     1      17.623  15.914  24.790  1.00  0.00    -0.550 OA
ENDBRANCH   7   8
ENDBRANCH   6   7
ENDBRANCH   5   6
ENDBRANCH   4   5
ENDBRANCH   3   4
ENDBRANCH   2   3
ENDBRANCH   1   2
BRANCH   1  11
ATOM     11  C   UNL     1      16.669  20.809  20.375  1.00  0.00     0.000 C 
BRANCH  11  12
ATOM     12  C   UNL     1      17.690  21.059  19.252  1.00  0.00    -0.000 C 
BRANCH  12  13
ATOM     13  C   UNL     1      18.656  22.211  19.582  1.00  0.00    -0.000 C 
BRANCH  13  14
ATOM     14  C   UNL     1      18.184  23.053  20.778  1.00  0.00    -0.000 C 
BRANCH  14  15
ATOM     15  C   UNL     1      17.670  24.440  20.363  1.00  0.00    -0.000 C 
BRANCH  15  16
ATOM     16  C   UNL     1      17.404  25.319  21.596  1.00  0.00    -0.000 C 
BRANCH  16  17
ATOM     17  C   UNL     1      17.140  24.493  22.864  1.00  0.00    -0.003 C 
ATOM     18  C   UNL     1      18.046  24.892  24.030  1.00  0.00     0.004 C 
ENDBRANCH  16  17
ENDBRANCH  15  16
ENDBRANCH  14  15
ENDBRANCH  13  14
ENDBRANCH  12  13
ENDBRANCH  11  12
ENDBRANCH   1  11
TORSDOF 14
ENDMDL
