MODEL 1
REMARK VINA RESULT:    -4.444      0.000      0.000
REMARK INTER + INTRA:          -5.142
REMARK INTER:                  -4.964
REMARK INTRA:                  -0.178
REMARK UNBOUND:                -0.178
REMARK SMILES CC(C)c1ccc(C=O)cc1
REMARK SMILES IDX 4 1 5 2 6 3 7 4 10 5 11 6 2 7 1 8 3 9 8 10 9 11
REMARK H PARENT
REMARK Flexibility Score: inf
ROOT
ATOM      1  C   UNL     1      16.055 -44.947  31.266  1.00  0.00    -0.045 A 
ATOM      2  C   UNL     1      17.414 -44.965  30.907  1.00  0.00     0.005 A 
ATOM      3  C   UNL     1      17.794 -45.113  29.571  1.00  0.00     0.012 A 
ATOM      4  C   UNL     1      16.822 -45.250  28.567  1.00  0.00     0.014 A 
ATOM      5  C   UNL     1      15.466 -45.234  28.919  1.00  0.00     0.012 A 
ATOM      6  C   UNL     1      15.084 -45.084  30.255  1.00  0.00     0.005 A 
ENDROOT
BRANCH   1   7
ATOM      7  C   UNL     1      15.654 -44.785  32.720  1.00  0.00     0.013 C 
ATOM      8  C   UNL     1      14.546 -43.737  32.875  1.00  0.00     0.012 C 
ATOM      9  C   UNL     1      15.236 -46.126  33.333  1.00  0.00     0.012 C 
ENDBRANCH   1   7
BRANCH   4  10
ATOM     10  C   UNL     1      17.205 -45.409  27.152  1.00  0.00     0.260 C 
ATOM     11  O   UNL     1      17.471 -44.408  26.433  1.00  0.00    -0.298 OA
ENDBRANCH   4  10
TORSDOF 2
ENDMDL
MODEL 2
REMARK VINA RESULT:    -4.343      4.966      6.810
REMARK INTER + INTRA:          -5.028
REMARK INTER:                  -4.839
REMARK INTRA:                  -0.189
REMARK UNBOUND:                -0.178
REMARK SMILES CC(C)c1ccc(C=O)cc1
REMARK SMILES IDX 4 1 5 2 6 3 7 4 10 5 11 6 2 7 1 8 3 9 8 10 9 11
REMARK H PARENT
REMARK Flexibility Score: inf
ROOT
ATOM      1  C   UNL     1      17.333 -40.819  25.163  1.00  0.00    -0.045 A 
ATOM      2  C   UNL     1      18.561 -41.496  25.071  1.00  0.00     0.005 A 
ATOM      3  C   UNL     1      18.643 -42.860  25.365  1.00  0.00     0.012 A 
ATOM      4  C   UNL     1      17.499 -43.572  25.760  1.00  0.00     0.014 A 
ATOM      5  C   UNL     1      16.273 -42.900  25.854  1.00  0.00     0.012 A 
ATOM      6  C   UNL     1      16.188 -41.537  25.559  1.00  0.00     0.005 A 
ENDROOT
BRANCH   1   7
ATOM      7  C   UNL     1      17.256 -39.338  24.839  1.00  0.00     0.013 C 
ATOM      8  C   UNL     1      16.687 -38.543  26.020  1.00  0.00     0.012 C 
ATOM      9  C   UNL     1      18.624 -38.792  24.415  1.00  0.00     0.012 C 
ENDBRANCH   1   7
BRANCH   4  10
ATOM     10  C   UNL     1      17.568 -45.011  26.076  1.00  0.00     0.260 C 
ATOM     11  O   UNL     1      17.163 -45.454  27.184  1.00  0.00    -0.298 OA
ENDBRANCH   4  10
TORSDOF 2
ENDMDL
MODEL 3
REMARK VINA RESULT:    -4.316      2.685      5.234
REMARK INTER + INTRA:          -4.998
REMARK INTER:                  -4.816
REMARK INTRA:                  -0.182
REMARK UNBOUND:                -0.178
REMARK SMILES CC(C)c1ccc(C=O)cc1
REMARK SMILES IDX 4 1 5 2 6 3 7 4 10 5 11 6 2 7 1 8 3 9 8 10 9 11
REMARK H PARENT
REMARK Flexibility Score: inf
ROOT
ATOM      1  C   UNL     1      17.487 -44.002  27.260  1.00  0.00    -0.045 A 
ATOM      2  C   UNL     1      17.834 -42.989  28.170  1.00  0.00     0.005 A 
ATOM      3  C   UNL     1      17.922 -43.262  29.538  1.00  0.00     0.012 A 
ATOM      4  C   UNL     1      17.662 -44.554  30.022  1.00  0.00     0.014 A 
ATOM      5  C   UNL     1      17.314 -45.568  29.117  1.00  0.00     0.012 A 
ATOM      6  C   UNL     1      17.227 -45.296  27.750  1.00  0.00     0.005 A 
ENDROOT
BRANCH   1   7
ATOM      7  C   UNL     1      17.396 -43.692  25.777  1.00  0.00     0.013 C 
ATOM      8  C   UNL     1      16.061 -43.022  25.433  1.00  0.00     0.012 C 
ATOM      9  C   UNL     1      18.580 -42.834  25.317  1.00  0.00     0.012 C 
ENDBRANCH   1   7
BRANCH   4  10
ATOM     10  C   UNL     1      17.748 -44.861  31.461  1.00  0.00     0.260 C 
ATOM     11  O   UNL     1      16.738 -45.252  32.105  1.00  0.00    -0.298 OA
ENDBRANCH   4  10
TORSDOF 2
ENDMDL
MODEL 4
REMARK VINA RESULT:    -4.315      4.976      6.136
REMARK INTER + INTRA:          -4.998
REMARK INTER:                  -4.812
REMARK INTRA:                  -0.185
REMARK UNBOUND:                -0.178
REMARK SMILES CC(C)c1ccc(C=O)cc1
REMARK SMILES IDX 4 1 5 2 6 3 7 4 10 5 11 6 2 7 1 8 3 9 8 10 9 11
REMARK H PARENT
REMARK Flexibility Score: inf
ROOT
ATOM      1  C   UNL     1      18.404 -39.927  27.522  1.00  0.00    -0.045 A 
ATOM      2  C   UNL     1      18.283 -41.153  28.198  1.00  0.00     0.005 A 
ATOM      3  C   UNL     1      18.218 -42.354  27.486  1.00  0.00     0.012 A 
ATOM      4  C   UNL     1      18.269 -42.350  26.083  1.00  0.00     0.014 A 
ATOM      5  C   UNL     1      18.389 -41.129  25.404  1.00  0.00     0.012 A 
ATOM      6  C   UNL     1      18.456 -39.928  26.115  1.00  0.00     0.005 A 
ENDROOT
BRANCH   1   7
ATOM      7  C   UNL     1      18.476 -38.630  28.308  1.00  0.00     0.013 C 
ATOM      8  C   UNL     1      17.630 -38.710  29.584  1.00  0.00     0.012 C 
ATOM      9  C   UNL     1      19.927 -38.256  28.629  1.00  0.00     0.012 C 
ENDBRANCH   1   7
BRANCH   4  10
ATOM     10  C   UNL     1      18.200 -43.607  25.314  1.00  0.00     0.260 C 
ATOM     11  O   UNL     1      17.804 -44.676  25.850  1.00  0.00    -0.298 OA
ENDBRANCH   4  10
TORSDOF 2
ENDMDL
MODEL 5
REMARK VINA RESULT:    -4.305      3.938      6.195
REMARK INTER + INTRA:          -4.986
REMARK INTER:                  -4.793
REMARK INTRA:                  -0.194
REMARK UNBOUND:                -0.178
REMARK SMILES CC(C)c1ccc(C=O)cc1
REMARK SMILES IDX 4 1 5 2 6 3 7 4 10 5 11 6 2 7 1 8 3 9 8 10 9 11
REMARK H PARENT
REMARK Flexibility Score: inf
ROOT
ATOM      1  C   UNL     1      18.230 -41.606  26.244  1.00  0.00    -0.045 A 
ATOM      2  C   UNL     1      18.205 -42.711  25.377  1.00  0.00     0.005 A 
ATOM      3  C   UNL     1      17.845 -43.976  25.849  1.00  0.00     0.012 A 
ATOM      4  C   UNL     1      17.506 -44.160  27.199  1.00  0.00     0.014 A 
ATOM      5  C   UNL     1      17.531 -43.060  28.068  1.00  0.00     0.012 A 
ATOM      6  C   UNL     1      17.889 -41.795  27.597  1.00  0.00     0.005 A 
ENDROOT
BRANCH   1   7
ATOM      7  C   UNL     1      18.622 -40.237  25.718  1.00  0.00     0.013 C 
ATOM      8  C   UNL     1      18.213 -40.071  24.250  1.00  0.00     0.012 C 
ATOM      9  C   UNL     1      18.030 -39.120  26.586  1.00  0.00     0.012 C 
ENDBRANCH   1   7
BRANCH   4  10
ATOM     10  C   UNL     1      17.125 -45.488  27.716  1.00  0.00     0.260 C 
ATOM     11  O   UNL     1      17.380 -45.821  28.904  1.00  0.00    -0.298 OA
ENDBRANCH   4  10
TORSDOF 2
ENDMDL
MODEL 6
REMARK VINA RESULT:    -4.282      2.674      4.321
REMARK INTER + INTRA:          -4.960
REMARK INTER:                  -4.781
REMARK INTRA:                  -0.179
REMARK UNBOUND:                -0.178
REMARK SMILES CC(C)c1ccc(C=O)cc1
REMARK SMILES IDX 4 1 5 2 6 3 7 4 10 5 11 6 2 7 1 8 3 9 8 10 9 11
REMARK H PARENT
REMARK Flexibility Score: inf
ROOT
ATOM      1  C   UNL     1      17.114 -44.403  27.551  1.00  0.00    -0.045 A 
ATOM      2  C   UNL     1      17.206 -43.042  27.889  1.00  0.00     0.005 A 
ATOM      3  C   UNL     1      17.676 -42.109  26.961  1.00  0.00     0.012 A 
ATOM      4  C   UNL     1      18.067 -42.521  25.676  1.00  0.00     0.014 A 
ATOM      5  C   UNL     1      17.979 -43.878  25.335  1.00  0.00     0.012 A 
ATOM      6  C   UNL     1      17.507 -44.811  26.262  1.00  0.00     0.005 A 
ENDROOT
BRANCH   1   7
ATOM      7  C   UNL     1      16.601 -45.405  28.568  1.00  0.00     0.013 C 
ATOM      8  C   UNL     1      17.450 -45.382  29.845  1.00  0.00     0.012 C 
ATOM      9  C   UNL     1      15.121 -45.164  28.885  1.00  0.00     0.012 C 
ENDBRANCH   1   7
BRANCH   4  10
ATOM     10  C   UNL     1      18.567 -41.552  24.684  1.00  0.00     0.260 C 
ATOM     11  O   UNL     1      17.780 -40.778  24.076  1.00  0.00    -0.298 OA
ENDBRANCH   4  10
TORSDOF 2
ENDMDL
MODEL 7
REMARK VINA RESULT:    -4.246      3.671      4.629
REMARK INTER + INTRA:          -4.921
REMARK INTER:                  -4.727
REMARK INTRA:                  -0.193
REMARK UNBOUND:                -0.178
REMARK SMILES CC(C)c1ccc(C=O)cc1
REMARK SMILES IDX 4 1 5 2 6 3 7 4 10 5 11 6 2 7 1 8 3 9 8 10 9 11
REMARK H PARENT
REMARK Flexibility Score: inf
ROOT
ATOM      1  C   UNL     1      17.602 -44.486  32.746  1.00  0.00    -0.045 A 
ATOM      2  C   UNL     1      17.235 -43.159  32.462  1.00  0.00     0.005 A 
ATOM      3  C   UNL     1      15.889 -42.790  32.412  1.00  0.00     0.012 A 
ATOM      4  C   UNL     1      14.882 -43.741  32.644  1.00  0.00     0.014 A 
ATOM      5  C   UNL     1      15.243 -45.066  32.927  1.00  0.00     0.012 A 
ATOM      6  C   UNL     1      16.590 -45.436  32.978  1.00  0.00     0.005 A 
ENDROOT
BRANCH   1   7
ATOM      7  C   UNL     1      19.068 -44.874  32.798  1.00  0.00     0.013 C 
ATOM      8  C   UNL     1      19.910 -43.769  33.446  1.00  0.00     0.012 C 
ATOM      9  C   UNL     1      19.262 -46.211  33.522  1.00  0.00     0.012 C 
ENDBRANCH   1   7
BRANCH   4  10
ATOM     10  C   UNL     1      13.456 -43.370  32.595  1.00  0.00     0.260 C 
ATOM     11  O   UNL     1      13.075 -42.327  31.998  1.00  0.00    -0.298 OA
ENDBRANCH   4  10
TORSDOF 2
ENDMDL
MODEL 8
REMARK VINA RESULT:    -4.166      2.261      3.424
REMARK INTER + INTRA:          -4.830
REMARK INTER:                  -4.649
REMARK INTRA:                  -0.181
REMARK UNBOUND:                -0.178
REMARK SMILES CC(C)c1ccc(C=O)cc1
REMARK SMILES IDX 4 1 5 2 6 3 7 4 10 5 11 6 2 7 1 8 3 9 8 10 9 11
REMARK H PARENT
REMARK Flexibility Score: inf
ROOT
ATOM      1  C   UNL     1      18.038 -44.815  31.746  1.00  0.00    -0.045 A 
ATOM      2  C   UNL     1      17.879 -45.045  30.368  1.00  0.00     0.005 A 
ATOM      3  C   UNL     1      16.604 -45.187  29.814  1.00  0.00     0.012 A 
ATOM      4  C   UNL     1      15.463 -45.103  30.628  1.00  0.00     0.014 A 
ATOM      5  C   UNL     1      15.616 -44.875  32.003  1.00  0.00     0.012 A 
ATOM      6  C   UNL     1      16.891 -44.732  32.558  1.00  0.00     0.005 A 
ENDROOT
BRANCH   1   7
ATOM      7  C   UNL     1      19.428 -44.662  32.335  1.00  0.00     0.013 C 
ATOM      8  C   UNL     1      19.572 -43.325  33.072  1.00  0.00     0.012 C 
ATOM      9  C   UNL     1      19.772 -45.839  33.256  1.00  0.00     0.012 C 
ENDBRANCH   1   7
BRANCH   4  10
ATOM     10  C   UNL     1      14.110 -45.252  30.061  1.00  0.00     0.260 C 
ATOM     11  O   UNL     1      13.941 -45.583  28.857  1.00  0.00    -0.298 OA
ENDBRANCH   4  10
TORSDOF 2
ENDMDL
MODEL 9
REMARK VINA RESULT:    -4.135      2.724      3.882
REMARK INTER + INTRA:          -4.796
REMARK INTER:                  -4.609
REMARK INTRA:                  -0.188
REMARK UNBOUND:                -0.178
REMARK SMILES CC(C)c1ccc(C=O)cc1
REMARK SMILES IDX 4 1 5 2 6 3 7 4 10 5 11 6 2 7 1 8 3 9 8 10 9 11
REMARK H PARENT
REMARK Flexibility Score: inf
ROOT
ATOM      1  C   UNL     1      15.657 -45.085  31.090  1.00  0.00    -0.045 A 
ATOM      2  C   UNL     1      16.713 -44.897  30.182  1.00  0.00     0.005 A 
ATOM      3  C   UNL     1      18.035 -44.843  30.632  1.00  0.00     0.012 A 
ATOM      4  C   UNL     1      18.326 -44.974  31.999  1.00  0.00     0.014 A 
ATOM      5  C   UNL     1      17.276 -45.160  32.909  1.00  0.00     0.012 A 
ATOM      6  C   UNL     1      15.953 -45.215  32.461  1.00  0.00     0.005 A 
ENDROOT
BRANCH   1   7
ATOM      7  C   UNL     1      14.225 -45.142  30.590  1.00  0.00     0.013 C 
ATOM      8  C   UNL     1      13.445 -43.888  31.002  1.00  0.00     0.012 C 
ATOM      9  C   UNL     1      14.177 -45.347  29.071  1.00  0.00     0.012 C 
ENDBRANCH   1   7
BRANCH   4  10
ATOM     10  C   UNL     1      19.715 -44.919  32.492  1.00  0.00     0.260 C 
ATOM     11  O   UNL     1      19.987 -44.421  33.617  1.00  0.00    -0.298 OA
ENDBRANCH   4  10
TORSDOF 2
ENDMDL
