MODEL 1
REMARK VINA RESULT:    -3.045      0.000      0.000
REMARK INTER + INTRA:          -8.656
REMARK INTER:                  -5.893
REMARK INTRA:                  -2.763
REMARK UNBOUND:                -2.763
REMARK SMILES CCCCCCCCCCCCCCCCCC(=O)[O-]
REMARK SMILES IDX 10 1 11 2 12 3 13 4 14 5 15 6 16 7 17 8 18 9 19 10 20 11
REMARK SMILES IDX 9 12 8 13 7 14 6 15 5 16 4 17 3 18 2 19 1 20
REMARK H PARENT
REMARK Flexibility Score: inf
ROOT
ATOM      1  C   UNL     1     -18.968  37.635  94.772  1.00  0.00     0.000 C 
ENDROOT
BRANCH   1   2
ATOM      2  C   UNL     1     -20.076  36.906  93.989  1.00  0.00     0.000 C 
BRANCH   2   3
ATOM      3  C   UNL     1     -20.533  37.615  92.699  1.00  0.00     0.000 C 
BRANCH   3   4
ATOM      4  C   UNL     1     -20.025  39.068  92.578  1.00  0.00     0.000 C 
BRANCH   4   5
ATOM      5  C   UNL     1     -19.055  39.251  91.399  1.00  0.00     0.000 C 
BRANCH   5   6
ATOM      6  C   UNL     1     -17.646  38.714  91.699  1.00  0.00     0.000 C 
BRANCH   6   7
ATOM      7  C   UNL     1     -17.118  37.780  90.600  1.00  0.00     0.006 C 
BRANCH   7   8
ATOM      8  C   UNL     1     -17.674  36.362  90.774  1.00  0.00     0.053 C 
BRANCH   8   9
ATOM      9  C   UNL     1     -18.425  35.939  89.553  1.00  0.00     0.041 C 
ATOM     10  O   UNL     1     -18.049  34.935  88.893  1.00  0.00    -0.550 OA
ATOM     11  O   UNL     1     -19.516  36.680  89.116  1.00  0.00    -0.550 OA
ENDBRANCH   8   9
ENDBRANCH   7   8
ENDBRANCH   6   7
ENDBRANCH   5   6
ENDBRANCH   4   5
ENDBRANCH   3   4
ENDBRANCH   2   3
ENDBRANCH   1   2
BRANCH   1  12
ATOM     12  C   UNL     1     -19.316  37.959  96.237  1.00  0.00     0.000 C 
BRANCH  12  13
ATOM     13  C   UNL     1     -19.935  39.357  96.410  1.00  0.00    -0.000 C 
BRANCH  13  14
ATOM     14  C   UNL     1     -19.131  40.247  97.371  1.00  0.00    -0.000 C 
BRANCH  14  15
ATOM     15  C   UNL     1     -18.463  41.435  96.657  1.00  0.00    -0.000 C 
BRANCH  15  16
ATOM     16  C   UNL     1     -18.759  41.470  95.146  1.00  0.00    -0.000 C 
BRANCH  16  17
ATOM     17  C   UNL     1     -17.524  41.348  94.234  1.00  0.00    -0.000 C 
BRANCH  17  18
ATOM     18  C   UNL     1     -16.233  41.053  95.013  1.00  0.00    -0.000 C 
BRANCH  18  19
ATOM     19  C   UNL     1     -15.831  39.581  94.869  1.00  0.00    -0.003 C 
ATOM     20  C   UNL     1     -14.562  39.436  94.032  1.00  0.00     0.004 C 
ENDBRANCH  18  19
ENDBRANCH  17  18
ENDBRANCH  16  17
ENDBRANCH  15  16
ENDBRANCH  14  15
ENDBRANCH  13  14
ENDBRANCH  12  13
ENDBRANCH   1  12
TORSDOF 16
ENDMDL
MODEL 2
REMARK VINA RESULT:    -2.956      1.498      4.191
REMARK INTER + INTRA:          -8.484
REMARK INTER:                  -5.468
REMARK INTRA:                  -3.016
REMARK UNBOUND:                -2.763
REMARK SMILES CCCCCCCCCCCCCCCCCC(=O)[O-]
REMARK SMILES IDX 10 1 11 2 12 3 13 4 14 5 15 6 16 7 17 8 18 9 19 10 20 11
REMARK SMILES IDX 9 12 8 13 7 14 6 15 5 16 4 17 3 18 2 19 1 20
REMARK H PARENT
REMARK Flexibility Score: inf
ROOT
ATOM      1  C   UNL     1     -16.328  40.965  94.904  1.00  0.00     0.000 C 
ENDROOT
BRANCH   1   2
ATOM      2  C   UNL     1     -17.522  41.110  95.866  1.00  0.00     0.000 C 
BRANCH   2   3
ATOM      3  C   UNL     1     -18.860  41.469  95.190  1.00  0.00     0.000 C 
BRANCH   3   4
ATOM      4  C   UNL     1     -18.872  41.214  93.667  1.00  0.00     0.000 C 
BRANCH   4   5
ATOM      5  C   UNL     1     -20.291  40.980  93.125  1.00  0.00     0.000 C 
BRANCH   5   6
ATOM      6  C   UNL     1     -20.407  39.693  92.294  1.00  0.00     0.000 C 
BRANCH   6   7
ATOM      7  C   UNL     1     -19.090  39.310  91.603  1.00  0.00     0.006 C 
BRANCH   7   8
ATOM      8  C   UNL     1     -19.186  37.914  90.977  1.00  0.00     0.053 C 
BRANCH   8   9
ATOM      9  C   UNL     1     -17.823  37.335  90.774  1.00  0.00     0.041 C 
ATOM     10  O   UNL     1     -17.649  36.089  90.824  1.00  0.00    -0.550 OA
ATOM     11  O   UNL     1     -16.734  38.174  90.574  1.00  0.00    -0.550 OA
ENDBRANCH   8   9
ENDBRANCH   7   8
ENDBRANCH   6   7
ENDBRANCH   5   6
ENDBRANCH   4   5
ENDBRANCH   3   4
ENDBRANCH   2   3
ENDBRANCH   1   2
BRANCH   1  12
ATOM     12  C   UNL     1     -15.608  39.605  94.966  1.00  0.00     0.000 C 
BRANCH  12  13
ATOM     13  C   UNL     1     -16.230  38.556  94.028  1.00  0.00    -0.000 C 
BRANCH  13  14
ATOM     14  C   UNL     1     -16.432  37.194  94.710  1.00  0.00    -0.000 C 
BRANCH  14  15
ATOM     15  C   UNL     1     -17.864  36.656  94.542  1.00  0.00    -0.000 C 
BRANCH  15  16
ATOM     16  C   UNL     1     -18.941  37.702  94.882  1.00  0.00    -0.000 C 
BRANCH  16  17
ATOM     17  C   UNL     1     -19.487  37.635  96.321  1.00  0.00    -0.000 C 
BRANCH  17  18
ATOM     18  C   UNL     1     -20.683  38.571  96.550  1.00  0.00    -0.000 C 
BRANCH  18  19
ATOM     19  C   UNL     1     -20.440  39.485  97.757  1.00  0.00    -0.003 C 
ATOM     20  C   UNL     1     -19.164  39.091  98.497  1.00  0.00     0.004 C 
ENDBRANCH  18  19
ENDBRANCH  17  18
ENDBRANCH  16  17
ENDBRANCH  15  16
ENDBRANCH  14  15
ENDBRANCH  13  14
ENDBRANCH  12  13
ENDBRANCH   1  12
TORSDOF 16
ENDMDL
MODEL 3
REMARK VINA RESULT:    -2.948      2.324      3.797
REMARK INTER + INTRA:          -8.469
REMARK INTER:                  -5.663
REMARK INTRA:                  -2.806
REMARK UNBOUND:                -2.763
REMARK SMILES CCCCCCCCCCCCCCCCCC(=O)[O-]
REMARK SMILES IDX 10 1 11 2 12 3 13 4 14 5 15 6 16 7 17 8 18 9 19 10 20 11
REMARK SMILES IDX 9 12 8 13 7 14 6 15 5 16 4 17 3 18 2 19 1 20
REMARK H PARENT
REMARK Flexibility Score: inf
ROOT
ATOM      1  C   UNL     1     -19.591  37.663  91.114  1.00  0.00     0.000 C 
ENDROOT
BRANCH   1   2
ATOM      2  C   UNL     1     -20.157  36.831  92.280  1.00  0.00     0.000 C 
BRANCH   2   3
ATOM      3  C   UNL     1     -19.097  36.123  93.146  1.00  0.00     0.000 C 
BRANCH   3   4
ATOM      4  C   UNL     1     -18.787  36.856  94.469  1.00  0.00     0.000 C 
BRANCH   4   5
ATOM      5  C   UNL     1     -17.329  37.340  94.541  1.00  0.00     0.000 C 
BRANCH   5   6
ATOM      6  C   UNL     1     -16.546  37.065  93.248  1.00  0.00     0.000 C 
BRANCH   6   7
ATOM      7  C   UNL     1     -15.900  38.329  92.662  1.00  0.00     0.006 C 
BRANCH   7   8
ATOM      8  C   UNL     1     -15.833  38.252  91.133  1.00  0.00     0.053 C 
BRANCH   8   9
ATOM      9  C   UNL     1     -14.420  38.388  90.663  1.00  0.00     0.041 C 
ATOM     10  O   UNL     1     -13.775  37.373  90.289  1.00  0.00    -0.550 OA
ATOM     11  O   UNL     1     -13.799  39.630  90.678  1.00  0.00    -0.550 OA
ENDBRANCH   8   9
ENDBRANCH   7   8
ENDBRANCH   6   7
ENDBRANCH   5   6
ENDBRANCH   4   5
ENDBRANCH   3   4
ENDBRANCH   2   3
ENDBRANCH   1   2
BRANCH   1  12
ATOM     12  C   UNL     1     -19.371  39.155  91.431  1.00  0.00     0.000 C 
BRANCH  12  13
ATOM     13  C   UNL     1     -20.551  39.785  92.191  1.00  0.00    -0.000 C 
BRANCH  13  14
ATOM     14  C   UNL     1     -20.199  40.143  93.643  1.00  0.00    -0.000 C 
BRANCH  14  15
ATOM     15  C   UNL     1     -19.208  41.316  93.740  1.00  0.00    -0.000 C 
BRANCH  15  16
ATOM     16  C   UNL     1     -17.779  40.865  94.094  1.00  0.00    -0.000 C 
BRANCH  16  17
ATOM     17  C   UNL     1     -17.258  41.357  95.458  1.00  0.00    -0.000 C 
BRANCH  17  18
ATOM     18  C   UNL     1     -18.327  41.306  96.560  1.00  0.00    -0.000 C 
BRANCH  18  19
ATOM     19  C   UNL     1     -18.414  39.904  97.175  1.00  0.00    -0.003 C 
ATOM     20  C   UNL     1     -19.856  39.402  97.200  1.00  0.00     0.004 C 
ENDBRANCH  18  19
ENDBRANCH  17  18
ENDBRANCH  16  17
ENDBRANCH  15  16
ENDBRANCH  14  15
ENDBRANCH  13  14
ENDBRANCH  12  13
ENDBRANCH   1  12
TORSDOF 16
ENDMDL
MODEL 4
REMARK VINA RESULT:    -2.926      8.427     10.517
REMARK INTER + INTRA:          -8.426
REMARK INTER:                  -5.199
REMARK INTRA:                  -3.227
REMARK UNBOUND:                -2.763
REMARK SMILES CCCCCCCCCCCCCCCCCC(=O)[O-]
REMARK SMILES IDX 10 1 11 2 12 3 13 4 14 5 15 6 16 7 17 8 18 9 19 10 20 11
REMARK SMILES IDX 9 12 8 13 7 14 6 15 5 16 4 17 3 18 2 19 1 20
REMARK H PARENT
REMARK Flexibility Score: inf
ROOT
ATOM      1  C   UNL     1     -18.006  30.747  93.882  1.00  0.00     0.000 C 
ENDROOT
BRANCH   1   2
ATOM      2  C   UNL     1     -17.932  30.187  92.449  1.00  0.00     0.000 C 
BRANCH   2   3
ATOM      3  C   UNL     1     -16.865  30.843  91.551  1.00  0.00     0.000 C 
BRANCH   3   4
ATOM      4  C   UNL     1     -15.990  29.827  90.785  1.00  0.00     0.000 C 
BRANCH   4   5
ATOM      5  C   UNL     1     -16.072  28.414  91.388  1.00  0.00     0.000 C 
BRANCH   5   6
ATOM      6  C   UNL     1     -15.017  27.458  90.811  1.00  0.00     0.000 C 
BRANCH   6   7
ATOM      7  C   UNL     1     -14.035  28.159  89.860  1.00  0.00     0.006 C 
BRANCH   7   8
ATOM      8  C   UNL     1     -12.588  27.771  90.185  1.00  0.00     0.053 C 
BRANCH   8   9
ATOM      9  C   UNL     1     -11.936  28.828  91.017  1.00  0.00     0.041 C 
ATOM     10  O   UNL     1     -11.116  28.510  91.919  1.00  0.00    -0.550 OA
ATOM     11  O   UNL     1     -12.267  30.164  90.829  1.00  0.00    -0.550 OA
ENDBRANCH   8   9
ENDBRANCH   7   8
ENDBRANCH   6   7
ENDBRANCH   5   6
ENDBRANCH   4   5
ENDBRANCH   3   4
ENDBRANCH   2   3
ENDBRANCH   1   2
BRANCH   1  12
ATOM     12  C   UNL     1     -18.102  29.680  94.989  1.00  0.00     0.000 C 
BRANCH  12  13
ATOM     13  C   UNL     1     -18.090  28.243  94.439  1.00  0.00    -0.000 C 
BRANCH  13  14
ATOM     14  C   UNL     1     -16.828  27.464  94.839  1.00  0.00    -0.000 C 
BRANCH  14  15
ATOM     15  C   UNL     1     -16.206  27.978  96.150  1.00  0.00    -0.000 C 
BRANCH  15  16
ATOM     16  C   UNL     1     -14.757  28.466  95.975  1.00  0.00    -0.000 C 
BRANCH  16  17
ATOM     17  C   UNL     1     -14.218  28.411  94.533  1.00  0.00    -0.000 C 
BRANCH  17  18
ATOM     18  C   UNL     1     -13.872  29.799  93.971  1.00  0.00    -0.000 C 
BRANCH  18  19
ATOM     19  C   UNL     1     -14.389  30.908  94.895  1.00  0.00    -0.003 C 
ATOM     20  C   UNL     1     -14.545  32.225  94.140  1.00  0.00     0.004 C 
ENDBRANCH  18  19
ENDBRANCH  17  18
ENDBRANCH  16  17
ENDBRANCH  15  16
ENDBRANCH  14  15
ENDBRANCH  13  14
ENDBRANCH  12  13
ENDBRANCH   1  12
TORSDOF 16
ENDMDL
MODEL 5
REMARK VINA RESULT:    -2.893      8.501     11.236
REMARK INTER + INTRA:          -8.363
REMARK INTER:                  -5.238
REMARK INTRA:                  -3.125
REMARK UNBOUND:                -2.763
REMARK SMILES CCCCCCCCCCCCCCCCCC(=O)[O-]
REMARK SMILES IDX 10 1 11 2 12 3 13 4 14 5 15 6 16 7 17 8 18 9 19 10 20 11
REMARK SMILES IDX 9 12 8 13 7 14 6 15 5 16 4 17 3 18 2 19 1 20
REMARK H PARENT
REMARK Flexibility Score: inf
ROOT
ATOM      1  C   UNL     1     -16.376  31.447  91.838  1.00  0.00     0.000 C 
ENDROOT
BRANCH   1   2
ATOM      2  C   UNL     1     -16.326  30.777  93.224  1.00  0.00     0.000 C 
BRANCH   2   3
ATOM      3  C   UNL     1     -17.476  31.163  94.173  1.00  0.00     0.000 C 
BRANCH   3   4
ATOM      4  C   UNL     1     -18.527  30.047  94.359  1.00  0.00     0.000 C 
BRANCH   4   5
ATOM      5  C   UNL     1     -18.049  28.696  93.804  1.00  0.00     0.000 C 
BRANCH   5   6
ATOM      6  C   UNL     1     -17.820  27.647  94.903  1.00  0.00     0.000 C 
BRANCH   6   7
ATOM      7  C   UNL     1     -16.378  27.119  94.931  1.00  0.00     0.006 C 
BRANCH   7   8
ATOM      8  C   UNL     1     -15.707  27.432  96.274  1.00  0.00     0.053 C 
BRANCH   8   9
ATOM      9  C   UNL     1     -15.033  28.766  96.225  1.00  0.00     0.041 C 
ATOM     10  O   UNL     1     -13.916  28.892  95.657  1.00  0.00    -0.550 OA
ATOM     11  O   UNL     1     -15.616  29.862  96.847  1.00  0.00    -0.550 OA
ENDBRANCH   8   9
ENDBRANCH   7   8
ENDBRANCH   6   7
ENDBRANCH   5   6
ENDBRANCH   4   5
ENDBRANCH   3   4
ENDBRANCH   2   3
ENDBRANCH   1   2
BRANCH   1  12
ATOM     12  C   UNL     1     -17.121  30.642  90.756  1.00  0.00     0.000 C 
BRANCH  12  13
ATOM     13  C   UNL     1     -16.205  30.198  89.602  1.00  0.00    -0.000 C 
BRANCH  13  14
ATOM     14  C   UNL     1     -16.308  28.694  89.307  1.00  0.00    -0.000 C 
BRANCH  14  15
ATOM     15  C   UNL     1     -15.121  27.897  89.875  1.00  0.00    -0.000 C 
BRANCH  15  16
ATOM     16  C   UNL     1     -15.270  27.588  91.375  1.00  0.00    -0.000 C 
BRANCH  16  17
ATOM     17  C   UNL     1     -14.082  28.024  92.254  1.00  0.00    -0.000 C 
BRANCH  17  18
ATOM     18  C   UNL     1     -12.994  28.766  91.463  1.00  0.00    -0.000 C 
BRANCH  18  19
ATOM     19  C   UNL     1     -12.867  30.218  91.937  1.00  0.00    -0.003 C 
ATOM     20  C   UNL     1     -12.791  31.178  90.752  1.00  0.00     0.004 C 
ENDBRANCH  18  19
ENDBRANCH  17  18
ENDBRANCH  16  17
ENDBRANCH  15  16
ENDBRANCH  14  15
ENDBRANCH  13  14
ENDBRANCH  12  13
ENDBRANCH   1  12
TORSDOF 16
ENDMDL
MODEL 6
REMARK VINA RESULT:    -2.892      2.428      3.905
REMARK INTER + INTRA:          -8.360
REMARK INTER:                  -5.603
REMARK INTRA:                  -2.757
REMARK UNBOUND:                -2.763
REMARK SMILES CCCCCCCCCCCCCCCCCC(=O)[O-]
REMARK SMILES IDX 10 1 11 2 12 3 13 4 14 5 15 6 16 7 17 8 18 9 19 10 20 11
REMARK SMILES IDX 9 12 8 13 7 14 6 15 5 16 4 17 3 18 2 19 1 20
REMARK H PARENT
REMARK Flexibility Score: inf
ROOT
ATOM      1  C   UNL     1     -18.751  39.607  92.198  1.00  0.00     0.000 C 
ENDROOT
BRANCH   1   2
ATOM      2  C   UNL     1     -19.277  38.946  90.910  1.00  0.00     0.000 C 
BRANCH   2   3
ATOM      3  C   UNL     1     -19.657  37.459  91.054  1.00  0.00     0.000 C 
BRANCH   3   4
ATOM      4  C   UNL     1     -19.193  36.583  89.870  1.00  0.00     0.000 C 
BRANCH   4   5
ATOM      5  C   UNL     1     -17.731  36.130  90.017  1.00  0.00     0.000 C 
BRANCH   5   6
ATOM      6  C   UNL     1     -17.340  35.842  91.474  1.00  0.00     0.000 C 
BRANCH   6   7
ATOM      7  C   UNL     1     -16.212  36.753  91.981  1.00  0.00     0.006 C 
BRANCH   7   8
ATOM      8  C   UNL     1     -15.673  37.636  90.850  1.00  0.00     0.053 C 
BRANCH   8   9
ATOM      9  C   UNL     1     -14.967  38.830  91.408  1.00  0.00     0.041 C 
ATOM     10  O   UNL     1     -14.139  39.465  90.702  1.00  0.00    -0.550 OA
ATOM     11  O   UNL     1     -15.189  39.218  92.723  1.00  0.00    -0.550 OA
ENDBRANCH   8   9
ENDBRANCH   7   8
ENDBRANCH   6   7
ENDBRANCH   5   6
ENDBRANCH   4   5
ENDBRANCH   3   4
ENDBRANCH   2   3
ENDBRANCH   1   2
BRANCH   1  12
ATOM     12  C   UNL     1     -19.834  40.252  93.083  1.00  0.00     0.000 C 
BRANCH  12  13
ATOM     13  C   UNL     1     -19.264  41.287  94.069  1.00  0.00    -0.000 C 
BRANCH  13  14
ATOM     14  C   UNL     1     -17.729  41.266  94.131  1.00  0.00    -0.000 C 
BRANCH  14  15
ATOM     15  C   UNL     1     -17.197  41.135  95.568  1.00  0.00    -0.000 C 
BRANCH  15  16
ATOM     16  C   UNL     1     -17.648  39.835  96.259  1.00  0.00    -0.000 C 
BRANCH  16  17
ATOM     17  C   UNL     1     -17.286  38.538  95.511  1.00  0.00    -0.000 C 
BRANCH  17  18
ATOM     18  C   UNL     1     -18.207  37.363  95.873  1.00  0.00    -0.000 C 
BRANCH  18  19
ATOM     19  C   UNL     1     -19.121  37.000  94.696  1.00  0.00    -0.003 C 
ATOM     20  C   UNL     1     -19.296  35.488  94.581  1.00  0.00     0.004 C 
ENDBRANCH  18  19
ENDBRANCH  17  18
ENDBRANCH  16  17
ENDBRANCH  15  16
ENDBRANCH  14  15
ENDBRANCH  13  14
ENDBRANCH  12  13
ENDBRANCH   1  12
TORSDOF 16
ENDMDL
MODEL 7
REMARK VINA RESULT:    -2.865      3.362      5.176
REMARK INTER + INTRA:          -8.309
REMARK INTER:                  -5.583
REMARK INTRA:                  -2.725
REMARK UNBOUND:                -2.763
REMARK SMILES CCCCCCCCCCCCCCCCCC(=O)[O-]
REMARK SMILES IDX 10 1 11 2 12 3 13 4 14 5 15 6 16 7 17 8 18 9 19 10 20 11
REMARK SMILES IDX 9 12 8 13 7 14 6 15 5 16 4 17 3 18 2 19 1 20
REMARK H PARENT
REMARK Flexibility Score: inf
ROOT
ATOM      1  C   UNL     1     -20.124  39.112  92.554  1.00  0.00     0.000 C 
ENDROOT
BRANCH   1   2
ATOM      2  C   UNL     1     -19.194  39.179  91.328  1.00  0.00     0.000 C 
BRANCH   2   3
ATOM      3  C   UNL     1     -17.869  38.406  91.476  1.00  0.00     0.000 C 
BRANCH   3   4
ATOM      4  C   UNL     1     -17.915  37.300  92.552  1.00  0.00     0.000 C 
BRANCH   4   5
ATOM      5  C   UNL     1     -16.818  37.474  93.616  1.00  0.00     0.000 C 
BRANCH   5   6
ATOM      6  C   UNL     1     -15.941  38.712  93.370  1.00  0.00     0.000 C 
BRANCH   6   7
ATOM      7  C   UNL     1     -15.034  39.046  94.563  1.00  0.00     0.006 C 
BRANCH   7   8
ATOM      8  C   UNL     1     -14.772  40.554  94.645  1.00  0.00     0.053 C 
BRANCH   8   9
ATOM      9  C   UNL     1     -13.304  40.835  94.582  1.00  0.00     0.041 C 
ATOM     10  O   UNL     1     -12.474  39.892  94.668  1.00  0.00    -0.550 OA
ATOM     11  O   UNL     1     -12.851  42.143  94.473  1.00  0.00    -0.550 OA
ENDBRANCH   8   9
ENDBRANCH   7   8
ENDBRANCH   6   7
ENDBRANCH   5   6
ENDBRANCH   4   5
ENDBRANCH   3   4
ENDBRANCH   2   3
ENDBRANCH   1   2
BRANCH   1  12
ATOM     12  C   UNL     1     -20.646  40.475  93.045  1.00  0.00     0.000 C 
BRANCH  12  13
ATOM     13  C   UNL     1     -19.515  41.458  93.396  1.00  0.00    -0.000 C 
BRANCH  13  14
ATOM     14  C   UNL     1     -18.440  40.831  94.296  1.00  0.00    -0.000 C 
BRANCH  14  15
ATOM     15  C   UNL     1     -18.424  41.439  95.709  1.00  0.00    -0.000 C 
BRANCH  15  16
ATOM     16  C   UNL     1     -18.795  40.422  96.804  1.00  0.00    -0.000 C 
BRANCH  16  17
ATOM     17  C   UNL     1     -17.857  39.205  96.911  1.00  0.00    -0.000 C 
BRANCH  17  18
ATOM     18  C   UNL     1     -18.615  37.873  97.012  1.00  0.00    -0.000 C 
BRANCH  18  19
ATOM     19  C   UNL     1     -19.702  37.778  95.935  1.00  0.00    -0.003 C 
ATOM     20  C   UNL     1     -20.733  36.709  96.286  1.00  0.00     0.004 C 
ENDBRANCH  18  19
ENDBRANCH  17  18
ENDBRANCH  16  17
ENDBRANCH  15  16
ENDBRANCH  14  15
ENDBRANCH  13  14
ENDBRANCH  12  13
ENDBRANCH   1  12
TORSDOF 16
ENDMDL
MODEL 8
REMARK VINA RESULT:    -2.862     13.965     16.834
REMARK INTER + INTRA:          -8.302
REMARK INTER:                  -6.136
REMARK INTRA:                  -2.167
REMARK UNBOUND:                -2.763
REMARK SMILES CCCCCCCCCCCCCCCCCC(=O)[O-]
REMARK SMILES IDX 10 1 11 2 12 3 13 4 14 5 15 6 16 7 17 8 18 9 19 10 20 11
REMARK SMILES IDX 9 12 8 13 7 14 6 15 5 16 4 17 3 18 2 19 1 20
REMARK H PARENT
REMARK Flexibility Score: inf
ROOT
ATOM      1  C   UNL     1      -3.880  43.268  95.354  1.00  0.00     0.000 C 
ENDROOT
BRANCH   1   2
ATOM      2  C   UNL     1      -3.518  44.752  95.153  1.00  0.00     0.000 C 
BRANCH   2   3
ATOM      3  C   UNL     1      -2.091  45.137  95.590  1.00  0.00     0.000 C 
BRANCH   3   4
ATOM      4  C   UNL     1      -2.034  46.398  96.479  1.00  0.00     0.000 C 
BRANCH   4   5
ATOM      5  C   UNL     1      -3.416  46.793  97.022  1.00  0.00     0.000 C 
BRANCH   5   6
ATOM      6  C   UNL     1      -3.495  46.728  98.555  1.00  0.00     0.000 C 
BRANCH   6   7
ATOM      7  C   UNL     1      -4.883  46.311  99.064  1.00  0.00     0.006 C 
BRANCH   7   8
ATOM      8  C   UNL     1      -5.350  45.020  98.382  1.00  0.00     0.053 C 
BRANCH   8   9
ATOM      9  C   UNL     1      -6.651  45.239  97.680  1.00  0.00     0.041 C 
ATOM     10  O   UNL     1      -7.298  46.305  97.860  1.00  0.00    -0.550 OA
ATOM     11  O   UNL     1      -7.175  44.247  96.861  1.00  0.00    -0.550 OA
ENDBRANCH   8   9
ENDBRANCH   7   8
ENDBRANCH   6   7
ENDBRANCH   5   6
ENDBRANCH   4   5
ENDBRANCH   3   4
ENDBRANCH   2   3
ENDBRANCH   1   2
BRANCH   1  12
ATOM     12  C   UNL     1      -3.343  42.641  96.654  1.00  0.00     0.000 C 
BRANCH  12  13
ATOM     13  C   UNL     1      -2.340  41.502  96.399  1.00  0.00    -0.000 C 
BRANCH  13  14
ATOM     14  C   UNL     1      -2.527  40.320  97.362  1.00  0.00    -0.000 C 
BRANCH  14  15
ATOM     15  C   UNL     1      -1.962  39.004  96.799  1.00  0.00    -0.000 C 
BRANCH  15  16
ATOM     16  C   UNL     1      -1.212  39.194  95.468  1.00  0.00    -0.000 C 
BRANCH  16  17
ATOM     17  C   UNL     1      -1.918  38.610  94.231  1.00  0.00    -0.000 C 
BRANCH  17  18
ATOM     18  C   UNL     1      -2.208  39.666  93.153  1.00  0.00    -0.000 C 
BRANCH  18  19
ATOM     19  C   UNL     1      -3.664  40.140  93.228  1.00  0.00    -0.003 C 
ATOM     20  C   UNL     1      -4.522  39.158  94.022  1.00  0.00     0.004 C 
ENDBRANCH  18  19
ENDBRANCH  17  18
ENDBRANCH  16  17
ENDBRANCH  15  16
ENDBRANCH  14  15
ENDBRANCH  13  14
ENDBRANCH  12  13
ENDBRANCH   1  12
TORSDOF 16
ENDMDL
MODEL 9
REMARK VINA RESULT:    -2.851     13.202     16.868
REMARK INTER + INTRA:          -8.281
REMARK INTER:                  -6.042
REMARK INTRA:                  -2.239
REMARK UNBOUND:                -2.763
REMARK SMILES CCCCCCCCCCCCCCCCCC(=O)[O-]
REMARK SMILES IDX 10 1 11 2 12 3 13 4 14 5 15 6 16 7 17 8 18 9 19 10 20 11
REMARK SMILES IDX 9 12 8 13 7 14 6 15 5 16 4 17 3 18 2 19 1 20
REMARK H PARENT
REMARK Flexibility Score: inf
ROOT
ATOM      1  C   UNL     1      -1.675  38.507  94.229  1.00  0.00     0.000 C 
ENDROOT
BRANCH   1   2
ATOM      2  C   UNL     1      -1.202  39.100  95.569  1.00  0.00     0.000 C 
BRANCH   2   3
ATOM      3  C   UNL     1      -2.208  38.963  96.729  1.00  0.00     0.000 C 
BRANCH   3   4
ATOM      4  C   UNL     1      -2.460  40.283  97.489  1.00  0.00     0.000 C 
BRANCH   4   5
ATOM      5  C   UNL     1      -2.354  41.514  96.574  1.00  0.00     0.000 C 
BRANCH   5   6
ATOM      6  C   UNL     1      -3.553  42.465  96.714  1.00  0.00     0.000 C 
BRANCH   6   7
ATOM      7  C   UNL     1      -3.174  43.937  96.492  1.00  0.00     0.006 C 
BRANCH   7   8
ATOM      8  C   UNL     1      -3.437  44.357  95.042  1.00  0.00     0.053 C 
BRANCH   8   9
ATOM      9  C   UNL     1      -2.658  45.587  94.703  1.00  0.00     0.041 C 
ATOM     10  O   UNL     1      -1.402  45.590  94.799  1.00  0.00    -0.550 OA
ATOM     11  O   UNL     1      -3.322  46.747  94.323  1.00  0.00    -0.550 OA
ENDBRANCH   8   9
ENDBRANCH   7   8
ENDBRANCH   6   7
ENDBRANCH   5   6
ENDBRANCH   4   5
ENDBRANCH   3   4
ENDBRANCH   2   3
ENDBRANCH   1   2
BRANCH   1  12
ATOM     12  C   UNL     1      -1.176  39.256  92.978  1.00  0.00     0.000 C 
BRANCH  12  13
ATOM     13  C   UNL     1      -1.858  38.780  91.684  1.00  0.00    -0.000 C 
BRANCH  13  14
ATOM     14  C   UNL     1      -1.678  39.767  90.520  1.00  0.00    -0.000 C 
BRANCH  14  15
ATOM     15  C   UNL     1      -2.996  40.446  90.111  1.00  0.00    -0.000 C 
BRANCH  15  16
ATOM     16  C   UNL     1      -4.185  40.027  90.995  1.00  0.00    -0.000 C 
BRANCH  16  17
ATOM     17  C   UNL     1      -4.797  41.155  91.846  1.00  0.00    -0.000 C 
BRANCH  17  18
ATOM     18  C   UNL     1      -4.271  41.168  93.289  1.00  0.00    -0.000 C 
BRANCH  18  19
ATOM     19  C   UNL     1      -5.012  40.140  94.152  1.00  0.00    -0.003 C 
ATOM     20  C   UNL     1      -6.523  40.255  93.969  1.00  0.00     0.004 C 
ENDBRANCH  18  19
ENDBRANCH  17  18
ENDBRANCH  16  17
ENDBRANCH  15  16
ENDBRANCH  14  15
ENDBRANCH  13  14
ENDBRANCH  12  13
ENDBRANCH   1  12
TORSDOF 16
ENDMDL
