MODEL 1
REMARK VINA RESULT:    -4.020      0.000      0.000
REMARK INTER + INTRA:          -9.939
REMARK INTER:                  -7.311
REMARK INTRA:                  -2.628
REMARK UNBOUND:                -2.628
REMARK SMILES CCCCCCCCCCCCCC[C@H](C)C(=O)[O-]
REMARK SMILES IDX 9 1 10 2 11 3 12 4 13 5 14 6 15 7 16 8 17 9 18 10 19 11 8 12
REMARK SMILES IDX 7 13 6 14 5 15 4 16 3 17 2 18 1 19
REMARK H PARENT
REMARK Flexibility Score: inf
ROOT
ATOM      1  C   UNL     1     -20.149 119.938  -2.045  1.00  0.00     0.000 C 
ENDROOT
BRANCH   1   2
ATOM      2  C   UNL     1     -20.042 118.440  -1.713  1.00  0.00     0.000 C 
BRANCH   2   3
ATOM      3  C   UNL     1     -20.289 117.539  -2.935  1.00  0.00     0.000 C 
BRANCH   3   4
ATOM      4  C   UNL     1     -21.486 116.594  -2.739  1.00  0.00     0.000 C 
BRANCH   4   5
ATOM      5  C   UNL     1     -21.056 115.160  -2.394  1.00  0.00     0.001 C 
BRANCH   5   6
ATOM      6  C   UNL     1     -19.577 114.931  -2.744  1.00  0.00     0.009 C 
BRANCH   6   7
ATOM      7  C   UNL     1     -18.755 114.463  -1.525  1.00  0.00     0.032 C 
ATOM      8  C   UNL     1     -19.463 114.845  -0.220  1.00  0.00     0.014 C 
BRANCH   7   9
ATOM      9  C   UNL     1     -17.370 115.049  -1.541  1.00  0.00     0.044 C 
ATOM     10  O   UNL     1     -17.209 116.294  -1.449  1.00  0.00    -0.550 OA
ATOM     11  O   UNL     1     -16.258 114.223  -1.658  1.00  0.00    -0.550 OA
ENDBRANCH   7   9
ENDBRANCH   6   7
ENDBRANCH   5   6
ENDBRANCH   4   5
ENDBRANCH   3   4
ENDBRANCH   2   3
ENDBRANCH   1   2
BRANCH   1  12
ATOM     12  C   UNL     1     -20.547 120.813  -0.835  1.00  0.00     0.000 C 
BRANCH  12  13
ATOM     13  C   UNL     1     -22.069 121.025  -0.751  1.00  0.00    -0.000 C 
BRANCH  13  14
ATOM     14  C   UNL     1     -22.812 120.515  -1.997  1.00  0.00    -0.000 C 
BRANCH  14  15
ATOM     15  C   UNL     1     -23.730 119.319  -1.691  1.00  0.00    -0.000 C 
BRANCH  15  16
ATOM     16  C   UNL     1     -23.782 118.971  -0.192  1.00  0.00    -0.000 C 
BRANCH  16  17
ATOM     17  C   UNL     1     -23.744 117.466   0.132  1.00  0.00    -0.000 C 
BRANCH  17  18
ATOM     18  C   UNL     1     -22.378 117.000   0.658  1.00  0.00    -0.003 C 
ATOM     19  C   UNL     1     -21.791 118.012   1.637  1.00  0.00     0.004 C 
ENDBRANCH  17  18
ENDBRANCH  16  17
ENDBRANCH  15  16
ENDBRANCH  14  15
ENDBRANCH  13  14
ENDBRANCH  12  13
ENDBRANCH   1  12
TORSDOF 14
ENDMDL
MODEL 2
REMARK VINA RESULT:    -3.977      1.351      3.002
REMARK INTER + INTRA:          -9.860
REMARK INTER:                  -7.255
REMARK INTRA:                  -2.605
REMARK UNBOUND:                -2.628
REMARK SMILES CCCCCCCCCCCCCC[C@H](C)C(=O)[O-]
REMARK SMILES IDX 9 1 10 2 11 3 12 4 13 5 14 6 15 7 16 8 17 9 18 10 19 11 8 12
REMARK SMILES IDX 7 13 6 14 5 15 4 16 3 17 2 18 1 19
REMARK H PARENT
REMARK Flexibility Score: inf
ROOT
ATOM      1  C   UNL     1     -21.578 118.624   0.903  1.00  0.00     0.000 C 
ENDROOT
BRANCH   1   2
ATOM      2  C   UNL     1     -22.698 117.581   0.749  1.00  0.00     0.000 C 
BRANCH   2   3
ATOM      3  C   UNL     1     -22.163 116.169   0.456  1.00  0.00     0.000 C 
BRANCH   3   4
ATOM      4  C   UNL     1     -20.808 116.191  -0.271  1.00  0.00     0.000 C 
BRANCH   4   5
ATOM      5  C   UNL     1     -20.325 114.787  -0.664  1.00  0.00     0.001 C 
BRANCH   5   6
ATOM      6  C   UNL     1     -20.073 114.697  -2.177  1.00  0.00     0.009 C 
BRANCH   6   7
ATOM      7  C   UNL     1     -19.154 115.829  -2.683  1.00  0.00     0.032 C 
ATOM      8  C   UNL     1     -19.230 115.943  -4.209  1.00  0.00     0.014 C 
BRANCH   7   9
ATOM      9  C   UNL     1     -17.727 115.605  -2.262  1.00  0.00     0.044 C 
ATOM     10  O   UNL     1     -17.216 116.317  -1.358  1.00  0.00    -0.550 OA
ATOM     11  O   UNL     1     -16.964 114.612  -2.864  1.00  0.00    -0.550 OA
ENDBRANCH   7   9
ENDBRANCH   6   7
ENDBRANCH   5   6
ENDBRANCH   4   5
ENDBRANCH   3   4
ENDBRANCH   2   3
ENDBRANCH   1   2
BRANCH   1  12
ATOM     12  C   UNL     1     -21.759 119.865   0.002  1.00  0.00     0.000 C 
BRANCH  12  13
ATOM     13  C   UNL     1     -20.409 120.478  -0.413  1.00  0.00    -0.000 C 
BRANCH  13  14
ATOM     14  C   UNL     1     -20.156 120.392  -1.927  1.00  0.00    -0.000 C 
BRANCH  14  15
ATOM     15  C   UNL     1     -21.442 120.138  -2.730  1.00  0.00    -0.000 C 
BRANCH  15  16
ATOM     16  C   UNL     1     -21.519 118.712  -3.306  1.00  0.00    -0.000 C 
BRANCH  16  17
ATOM     17  C   UNL     1     -22.760 117.902  -2.887  1.00  0.00    -0.000 C 
BRANCH  17  18
ATOM     18  C   UNL     1     -22.826 116.519  -3.550  1.00  0.00    -0.003 C 
ATOM     19  C   UNL     1     -23.819 115.611  -2.830  1.00  0.00     0.004 C 
ENDBRANCH  17  18
ENDBRANCH  16  17
ENDBRANCH  15  16
ENDBRANCH  14  15
ENDBRANCH  13  14
ENDBRANCH  12  13
ENDBRANCH   1  12
TORSDOF 14
ENDMDL
MODEL 3
REMARK VINA RESULT:    -3.937      3.007      5.277
REMARK INTER + INTRA:          -9.787
REMARK INTER:                  -7.392
REMARK INTRA:                  -2.395
REMARK UNBOUND:                -2.628
REMARK SMILES CCCCCCCCCCCCCC[C@H](C)C(=O)[O-]
REMARK SMILES IDX 9 1 10 2 11 3 12 4 13 5 14 6 15 7 16 8 17 9 18 10 19 11 8 12
REMARK SMILES IDX 7 13 6 14 5 15 4 16 3 17 2 18 1 19
REMARK H PARENT
REMARK Flexibility Score: inf
ROOT
ATOM      1  C   UNL     1     -18.730 115.748  -3.534  1.00  0.00     0.000 C 
ENDROOT
BRANCH   1   2
ATOM      2  C   UNL     1     -18.435 115.154  -2.146  1.00  0.00     0.000 C 
BRANCH   2   3
ATOM      3  C   UNL     1     -19.638 114.405  -1.550  1.00  0.00     0.000 C 
BRANCH   3   4
ATOM      4  C   UNL     1     -20.410 115.251  -0.522  1.00  0.00     0.000 C 
BRANCH   4   5
ATOM      5  C   UNL     1     -21.925 115.247  -0.772  1.00  0.00     0.001 C 
BRANCH   5   6
ATOM      6  C   UNL     1     -22.678 115.872   0.413  1.00  0.00     0.009 C 
BRANCH   6   7
ATOM      7  C   UNL     1     -22.564 117.411   0.429  1.00  0.00     0.032 C 
ATOM      8  C   UNL     1     -21.815 117.882   1.679  1.00  0.00     0.014 C 
BRANCH   7   9
ATOM      9  C   UNL     1     -23.921 118.060   0.376  1.00  0.00     0.044 C 
ATOM     10  O   UNL     1     -24.082 119.135  -0.259  1.00  0.00    -0.550 OA
ATOM     11  O   UNL     1     -25.004 117.480   1.025  1.00  0.00    -0.550 OA
ENDBRANCH   7   9
ENDBRANCH   6   7
ENDBRANCH   5   6
ENDBRANCH   4   5
ENDBRANCH   3   4
ENDBRANCH   2   3
ENDBRANCH   1   2
BRANCH   1  12
ATOM     12  C   UNL     1     -19.776 114.947  -4.340  1.00  0.00     0.000 C 
BRANCH  12  13
ATOM     13  C   UNL     1     -20.669 115.862  -5.197  1.00  0.00    -0.000 C 
BRANCH  13  14
ATOM     14  C   UNL     1     -20.707 117.310  -4.682  1.00  0.00    -0.000 C 
BRANCH  14  15
ATOM     15  C   UNL     1     -21.780 117.526  -3.601  1.00  0.00    -0.000 C 
BRANCH  15  16
ATOM     16  C   UNL     1     -21.518 118.773  -2.737  1.00  0.00    -0.000 C 
BRANCH  16  17
ATOM     17  C   UNL     1     -20.199 118.754  -1.942  1.00  0.00    -0.000 C 
BRANCH  17  18
ATOM     18  C   UNL     1     -19.702 120.158  -1.568  1.00  0.00    -0.003 C 
ATOM     19  C   UNL     1     -20.849 121.033  -1.071  1.00  0.00     0.004 C 
ENDBRANCH  17  18
ENDBRANCH  16  17
ENDBRANCH  15  16
ENDBRANCH  14  15
ENDBRANCH  13  14
ENDBRANCH  12  13
ENDBRANCH   1  12
TORSDOF 14
ENDMDL
MODEL 4
REMARK VINA RESULT:    -3.904      3.098      4.710
REMARK INTER + INTRA:          -9.728
REMARK INTER:                  -7.286
REMARK INTRA:                  -2.442
REMARK UNBOUND:                -2.628
REMARK SMILES CCCCCCCCCCCCCC[C@H](C)C(=O)[O-]
REMARK SMILES IDX 9 1 10 2 11 3 12 4 13 5 14 6 15 7 16 8 17 9 18 10 19 11 8 12
REMARK SMILES IDX 7 13 6 14 5 15 4 16 3 17 2 18 1 19
REMARK H PARENT
REMARK Flexibility Score: inf
ROOT
ATOM      1  C   UNL     1     -20.954 117.006  -3.886  1.00  0.00     0.000 C 
ENDROOT
BRANCH   1   2
ATOM      2  C   UNL     1     -19.578 116.372  -3.620  1.00  0.00     0.000 C 
BRANCH   2   3
ATOM      3  C   UNL     1     -19.623 115.282  -2.537  1.00  0.00     0.000 C 
BRANCH   3   4
ATOM      4  C   UNL     1     -21.019 114.656  -2.387  1.00  0.00     0.000 C 
BRANCH   4   5
ATOM      5  C   UNL     1     -21.676 114.991  -1.040  1.00  0.00     0.001 C 
BRANCH   5   6
ATOM      6  C   UNL     1     -23.028 115.692  -1.247  1.00  0.00     0.009 C 
BRANCH   6   7
ATOM      7  C   UNL     1     -23.251 116.838  -0.238  1.00  0.00     0.032 C 
ATOM      8  C   UNL     1     -22.161 116.827   0.839  1.00  0.00     0.014 C 
BRANCH   7   9
ATOM      9  C   UNL     1     -24.605 116.741   0.410  1.00  0.00     0.044 C 
ATOM     10  O   UNL     1     -25.243 117.787   0.701  1.00  0.00    -0.550 OA
ATOM     11  O   UNL     1     -25.163 115.500   0.691  1.00  0.00    -0.550 OA
ENDBRANCH   7   9
ENDBRANCH   6   7
ENDBRANCH   5   6
ENDBRANCH   4   5
ENDBRANCH   3   4
ENDBRANCH   2   3
ENDBRANCH   1   2
BRANCH   1  12
ATOM     12  C   UNL     1     -21.114 118.417  -3.276  1.00  0.00     0.000 C 
BRANCH  12  13
ATOM     13  C   UNL     1     -20.362 118.556  -1.940  1.00  0.00    -0.000 C 
BRANCH  13  14
ATOM     14  C   UNL     1     -19.811 119.973  -1.711  1.00  0.00    -0.000 C 
BRANCH  14  15
ATOM     15  C   UNL     1     -20.511 120.701  -0.551  1.00  0.00    -0.000 C 
BRANCH  15  16
ATOM     16  C   UNL     1     -21.850 121.340  -0.965  1.00  0.00    -0.000 C 
BRANCH  16  17
ATOM     17  C   UNL     1     -23.108 120.596  -0.479  1.00  0.00    -0.000 C 
BRANCH  17  18
ATOM     18  C   UNL     1     -24.034 120.168  -1.628  1.00  0.00    -0.003 C 
ATOM     19  C   UNL     1     -23.803 121.026  -2.868  1.00  0.00     0.004 C 
ENDBRANCH  17  18
ENDBRANCH  16  17
ENDBRANCH  15  16
ENDBRANCH  14  15
ENDBRANCH  13  14
ENDBRANCH  12  13
ENDBRANCH   1  12
TORSDOF 14
ENDMDL
MODEL 5
REMARK VINA RESULT:    -3.891      3.099      6.283
REMARK INTER + INTRA:          -9.703
REMARK INTER:                  -7.312
REMARK INTRA:                  -2.391
REMARK UNBOUND:                -2.628
REMARK SMILES CCCCCCCCCCCCCC[C@H](C)C(=O)[O-]
REMARK SMILES IDX 9 1 10 2 11 3 12 4 13 5 14 6 15 7 16 8 17 9 18 10 19 11 8 12
REMARK SMILES IDX 7 13 6 14 5 15 4 16 3 17 2 18 1 19
REMARK H PARENT
REMARK Flexibility Score: inf
ROOT
ATOM      1  C   UNL     1     -19.172 115.799  -4.440  1.00  0.00     0.000 C 
ENDROOT
BRANCH   1   2
ATOM      2  C   UNL     1     -20.658 116.190  -4.379  1.00  0.00     0.000 C 
BRANCH   2   3
ATOM      3  C   UNL     1     -20.947 117.274  -3.327  1.00  0.00     0.000 C 
BRANCH   3   4
ATOM      4  C   UNL     1     -19.715 117.609  -2.471  1.00  0.00     0.000 C 
BRANCH   4   5
ATOM      5  C   UNL     1     -20.016 118.649  -1.382  1.00  0.00     0.001 C 
BRANCH   5   6
ATOM      6  C   UNL     1     -20.296 120.027  -2.002  1.00  0.00     0.009 C 
BRANCH   6   7
ATOM      7  C   UNL     1     -21.305 120.846  -1.170  1.00  0.00     0.032 C 
ATOM      8  C   UNL     1     -21.359 120.330   0.271  1.00  0.00     0.014 C 
BRANCH   7   9
ATOM      9  C   UNL     1     -22.681 120.799  -1.778  1.00  0.00     0.044 C 
ATOM     10  O   UNL     1     -22.818 120.646  -3.020  1.00  0.00    -0.550 OA
ATOM     11  O   UNL     1     -23.809 120.922  -0.975  1.00  0.00    -0.550 OA
ENDBRANCH   7   9
ENDBRANCH   6   7
ENDBRANCH   5   6
ENDBRANCH   4   5
ENDBRANCH   3   4
ENDBRANCH   2   3
ENDBRANCH   1   2
BRANCH   1  12
ATOM     12  C   UNL     1     -18.932 114.273  -4.411  1.00  0.00     0.000 C 
BRANCH  12  13
ATOM     13  C   UNL     1     -17.791 113.887  -3.452  1.00  0.00    -0.000 C 
BRANCH  13  14
ATOM     14  C   UNL     1     -17.051 115.108  -2.882  1.00  0.00    -0.000 C 
BRANCH  14  15
ATOM     15  C   UNL     1     -16.956 115.080  -1.347  1.00  0.00    -0.000 C 
BRANCH  15  16
ATOM     16  C   UNL     1     -18.012 114.166  -0.697  1.00  0.00    -0.000 C 
BRANCH  16  17
ATOM     17  C   UNL     1     -19.277 114.884  -0.192  1.00  0.00    -0.000 C 
BRANCH  17  18
ATOM     18  C   UNL     1     -20.557 114.414  -0.899  1.00  0.00    -0.003 C 
ATOM     19  C   UNL     1     -21.765 115.232  -0.451  1.00  0.00     0.004 C 
ENDBRANCH  17  18
ENDBRANCH  16  17
ENDBRANCH  15  16
ENDBRANCH  14  15
ENDBRANCH  13  14
ENDBRANCH  12  13
ENDBRANCH   1  12
TORSDOF 14
ENDMDL
MODEL 6
REMARK VINA RESULT:    -3.890      3.885      6.425
REMARK INTER + INTRA:          -9.701
REMARK INTER:                  -7.112
REMARK INTRA:                  -2.589
REMARK UNBOUND:                -2.628
REMARK SMILES CCCCCCCCCCCCCC[C@H](C)C(=O)[O-]
REMARK SMILES IDX 9 1 10 2 11 3 12 4 13 5 14 6 15 7 16 8 17 9 18 10 19 11 8 12
REMARK SMILES IDX 7 13 6 14 5 15 4 16 3 17 2 18 1 19
REMARK H PARENT
REMARK Flexibility Score: inf
ROOT
ATOM      1  C   UNL     1     -20.369 118.739  -2.195  1.00  0.00     0.000 C 
ENDROOT
BRANCH   1   2
ATOM      2  C   UNL     1     -20.286 120.272  -2.102  1.00  0.00     0.000 C 
BRANCH   2   3
ATOM      3  C   UNL     1     -20.402 120.790  -0.659  1.00  0.00     0.000 C 
BRANCH   3   4
ATOM      4  C   UNL     1     -21.541 120.111   0.121  1.00  0.00     0.000 C 
BRANCH   4   5
ATOM      5  C   UNL     1     -22.927 120.639  -0.280  1.00  0.00     0.001 C 
BRANCH   5   6
ATOM      6  C   UNL     1     -23.776 119.526  -0.915  1.00  0.00     0.009 C 
BRANCH   6   7
ATOM      7  C   UNL     1     -24.673 120.056  -2.053  1.00  0.00     0.032 C 
ATOM      8  C   UNL     1     -23.897 121.035  -2.940  1.00  0.00     0.014 C 
BRANCH   7   9
ATOM      9  C   UNL     1     -25.904 120.730  -1.510  1.00  0.00     0.044 C 
ATOM     10  O   UNL     1     -26.100 121.956  -1.723  1.00  0.00    -0.550 OA
ATOM     11  O   UNL     1     -26.833 120.008  -0.771  1.00  0.00    -0.550 OA
ENDBRANCH   7   9
ENDBRANCH   6   7
ENDBRANCH   5   6
ENDBRANCH   4   5
ENDBRANCH   3   4
ENDBRANCH   2   3
ENDBRANCH   1   2
BRANCH   1  12
ATOM     12  C   UNL     1     -21.187 118.236  -3.405  1.00  0.00     0.000 C 
BRANCH  12  13
ATOM     13  C   UNL     1     -20.672 116.882  -3.927  1.00  0.00    -0.000 C 
BRANCH  13  14
ATOM     14  C   UNL     1     -19.530 116.308  -3.072  1.00  0.00    -0.000 C 
BRANCH  14  15
ATOM     15  C   UNL     1     -19.731 114.821  -2.737  1.00  0.00    -0.000 C 
BRANCH  15  16
ATOM     16  C   UNL     1     -20.790 114.590  -1.643  1.00  0.00    -0.000 C 
BRANCH  16  17
ATOM     17  C   UNL     1     -20.669 115.506  -0.411  1.00  0.00    -0.000 C 
BRANCH  17  18
ATOM     18  C   UNL     1     -22.008 116.130   0.007  1.00  0.00    -0.003 C 
ATOM     19  C   UNL     1     -23.102 115.817  -1.010  1.00  0.00     0.004 C 
ENDBRANCH  17  18
ENDBRANCH  16  17
ENDBRANCH  15  16
ENDBRANCH  14  15
ENDBRANCH  13  14
ENDBRANCH  12  13
ENDBRANCH   1  12
TORSDOF 14
ENDMDL
MODEL 7
REMARK VINA RESULT:    -3.869      2.821      6.409
REMARK INTER + INTRA:          -9.665
REMARK INTER:                  -7.347
REMARK INTRA:                  -2.317
REMARK UNBOUND:                -2.628
REMARK SMILES CCCCCCCCCCCCCC[C@H](C)C(=O)[O-]
REMARK SMILES IDX 9 1 10 2 11 3 12 4 13 5 14 6 15 7 16 8 17 9 18 10 19 11 8 12
REMARK SMILES IDX 7 13 6 14 5 15 4 16 3 17 2 18 1 19
REMARK H PARENT
REMARK Flexibility Score: inf
ROOT
ATOM      1  C   UNL     1     -19.265 114.873  -0.200  1.00  0.00     0.000 C 
ENDROOT
BRANCH   1   2
ATOM      2  C   UNL     1     -20.497 114.408  -0.995  1.00  0.00     0.000 C 
BRANCH   2   3
ATOM      3  C   UNL     1     -21.321 115.580  -1.555  1.00  0.00     0.000 C 
BRANCH   3   4
ATOM      4  C   UNL     1     -20.852 116.942  -1.016  1.00  0.00     0.000 C 
BRANCH   4   5
ATOM      5  C   UNL     1     -20.313 117.860  -2.123  1.00  0.00     0.001 C 
BRANCH   5   6
ATOM      6  C   UNL     1     -21.390 118.857  -2.582  1.00  0.00     0.009 C 
BRANCH   6   7
ATOM      7  C   UNL     1     -21.168 120.266  -1.995  1.00  0.00     0.032 C 
ATOM      8  C   UNL     1     -19.678 120.513  -1.737  1.00  0.00     0.014 C 
BRANCH   7   9
ATOM      9  C   UNL     1     -21.941 120.454  -0.718  1.00  0.00     0.044 C 
ATOM     10  O   UNL     1     -23.082 120.986  -0.742  1.00  0.00    -0.550 OA
ATOM     11  O   UNL     1     -21.404 120.042   0.497  1.00  0.00    -0.550 OA
ENDBRANCH   7   9
ENDBRANCH   6   7
ENDBRANCH   5   6
ENDBRANCH   4   5
ENDBRANCH   3   4
ENDBRANCH   2   3
ENDBRANCH   1   2
BRANCH   1  12
ATOM     12  C   UNL     1     -18.031 113.962  -0.383  1.00  0.00     0.000 C 
BRANCH  12  13
ATOM     13  C   UNL     1     -16.851 114.713  -1.028  1.00  0.00    -0.000 C 
BRANCH  13  14
ATOM     14  C   UNL     1     -17.262 115.513  -2.274  1.00  0.00    -0.000 C 
BRANCH  14  15
ATOM     15  C   UNL     1     -17.343 114.641  -3.538  1.00  0.00    -0.000 C 
BRANCH  15  16
ATOM     16  C   UNL     1     -18.760 114.581  -4.137  1.00  0.00    -0.000 C 
BRANCH  16  17
ATOM     17  C   UNL     1     -19.174 115.813  -4.964  1.00  0.00    -0.000 C 
BRANCH  17  18
ATOM     18  C   UNL     1     -20.685 115.876  -5.231  1.00  0.00    -0.003 C 
ATOM     19  C   UNL     1     -21.318 114.491  -5.143  1.00  0.00     0.004 C 
ENDBRANCH  17  18
ENDBRANCH  16  17
ENDBRANCH  15  16
ENDBRANCH  14  15
ENDBRANCH  13  14
ENDBRANCH  12  13
ENDBRANCH   1  12
TORSDOF 14
ENDMDL
MODEL 8
REMARK VINA RESULT:    -3.846      1.248      2.240
REMARK INTER + INTRA:          -9.621
REMARK INTER:                  -7.125
REMARK INTRA:                  -2.496
REMARK UNBOUND:                -2.628
REMARK SMILES CCCCCCCCCCCCCC[C@H](C)C(=O)[O-]
REMARK SMILES IDX 9 1 10 2 11 3 12 4 13 5 14 6 15 7 16 8 17 9 18 10 19 11 8 12
REMARK SMILES IDX 7 13 6 14 5 15 4 16 3 17 2 18 1 19
REMARK H PARENT
REMARK Flexibility Score: inf
ROOT
ATOM      1  C   UNL     1     -20.662 121.007  -1.179  1.00  0.00     0.000 C 
ENDROOT
BRANCH   1   2
ATOM      2  C   UNL     1     -20.189 120.313  -2.468  1.00  0.00     0.000 C 
BRANCH   2   3
ATOM      3  C   UNL     1     -21.348 119.720  -3.286  1.00  0.00     0.000 C 
BRANCH   3   4
ATOM      4  C   UNL     1     -21.189 118.210  -3.527  1.00  0.00     0.000 C 
BRANCH   4   5
ATOM      5  C   UNL     1     -20.392 117.515  -2.412  1.00  0.00     0.001 C 
BRANCH   5   6
ATOM      6  C   UNL     1     -19.549 116.361  -2.978  1.00  0.00     0.009 C 
BRANCH   6   7
ATOM      7  C   UNL     1     -19.472 115.165  -2.005  1.00  0.00     0.032 C 
ATOM      8  C   UNL     1     -20.719 115.114  -1.115  1.00  0.00     0.014 C 
BRANCH   7   9
ATOM      9  C   UNL     1     -18.239 115.237  -1.146  1.00  0.00     0.044 C 
ATOM     10  O   UNL     1     -17.368 116.120  -1.364  1.00  0.00    -0.550 OA
ATOM     11  O   UNL     1     -18.051 114.333  -0.108  1.00  0.00    -0.550 OA
ENDBRANCH   7   9
ENDBRANCH   6   7
ENDBRANCH   5   6
ENDBRANCH   4   5
ENDBRANCH   3   4
ENDBRANCH   2   3
ENDBRANCH   1   2
BRANCH   1  12
ATOM     12  C   UNL     1     -22.197 121.012  -1.007  1.00  0.00     0.000 C 
BRANCH  12  13
ATOM     13  C   UNL     1     -22.653 120.087   0.137  1.00  0.00    -0.000 C 
BRANCH  13  14
ATOM     14  C   UNL     1     -21.574 119.072   0.549  1.00  0.00    -0.000 C 
BRANCH  14  15
ATOM     15  C   UNL     1     -22.171 117.757   1.077  1.00  0.00    -0.000 C 
BRANCH  15  16
ATOM     16  C   UNL     1     -23.674 117.616   0.776  1.00  0.00    -0.000 C 
BRANCH  16  17
ATOM     17  C   UNL     1     -24.050 116.442  -0.148  1.00  0.00    -0.000 C 
BRANCH  17  18
ATOM     18  C   UNL     1     -23.925 116.789  -1.639  1.00  0.00    -0.003 C 
ATOM     19  C   UNL     1     -24.792 117.992  -1.999  1.00  0.00     0.004 C 
ENDBRANCH  17  18
ENDBRANCH  16  17
ENDBRANCH  15  16
ENDBRANCH  14  15
ENDBRANCH  13  14
ENDBRANCH  12  13
ENDBRANCH   1  12
TORSDOF 14
ENDMDL
MODEL 9
REMARK VINA RESULT:    -3.778      2.875      5.471
REMARK INTER + INTRA:          -9.498
REMARK INTER:                  -7.205
REMARK INTRA:                  -2.294
REMARK UNBOUND:                -2.628
REMARK SMILES CCCCCCCCCCCCCC[C@H](C)C(=O)[O-]
REMARK SMILES IDX 9 1 10 2 11 3 12 4 13 5 14 6 15 7 16 8 17 9 18 10 19 11 8 12
REMARK SMILES IDX 7 13 6 14 5 15 4 16 3 17 2 18 1 19
REMARK H PARENT
REMARK Flexibility Score: inf
ROOT
ATOM      1  C   UNL     1     -18.126 115.193  -3.644  1.00  0.00     0.000 C 
ENDROOT
BRANCH   1   2
ATOM      2  C   UNL     1     -19.397 115.421  -4.481  1.00  0.00     0.000 C 
BRANCH   2   3
ATOM      3  C   UNL     1     -20.044 116.791  -4.221  1.00  0.00     0.000 C 
BRANCH   3   4
ATOM      4  C   UNL     1     -21.533 116.681  -3.855  1.00  0.00     0.000 C 
BRANCH   4   5
ATOM      5  C   UNL     1     -22.050 117.916  -3.103  1.00  0.00     0.001 C 
BRANCH   5   6
ATOM      6  C   UNL     1     -20.890 118.690  -2.457  1.00  0.00     0.009 C 
BRANCH   6   7
ATOM      7  C   UNL     1     -21.120 120.216  -2.486  1.00  0.00     0.032 C 
ATOM      8  C   UNL     1     -19.933 120.952  -1.855  1.00  0.00     0.014 C 
BRANCH   7   9
ATOM      9  C   UNL     1     -22.388 120.592  -1.770  1.00  0.00     0.044 C 
ATOM     10  O   UNL     1     -23.394 120.972  -2.423  1.00  0.00    -0.550 OA
ATOM     11  O   UNL     1     -22.460 120.522  -0.383  1.00  0.00    -0.550 OA
ENDBRANCH   7   9
ENDBRANCH   6   7
ENDBRANCH   5   6
ENDBRANCH   4   5
ENDBRANCH   3   4
ENDBRANCH   2   3
ENDBRANCH   1   2
BRANCH   1  12
ATOM     12  C   UNL     1     -18.138 115.930  -2.287  1.00  0.00     0.000 C 
BRANCH  12  13
ATOM     13  C   UNL     1     -17.742 115.004  -1.123  1.00  0.00    -0.000 C 
BRANCH  13  14
ATOM     14  C   UNL     1     -18.933 114.630  -0.226  1.00  0.00    -0.000 C 
BRANCH  14  15
ATOM     15  C   UNL     1     -20.178 114.225  -1.033  1.00  0.00    -0.000 C 
BRANCH  15  16
ATOM     16  C   UNL     1     -21.445 114.987  -0.604  1.00  0.00    -0.000 C 
BRANCH  16  17
ATOM     17  C   UNL     1     -21.192 116.291   0.175  1.00  0.00    -0.000 C 
BRANCH  17  18
ATOM     18  C   UNL     1     -22.487 117.036   0.535  1.00  0.00    -0.003 C 
ATOM     19  C   UNL     1     -23.716 116.214   0.160  1.00  0.00     0.004 C 
ENDBRANCH  17  18
ENDBRANCH  16  17
ENDBRANCH  15  16
ENDBRANCH  14  15
ENDBRANCH  13  14
ENDBRANCH  12  13
ENDBRANCH   1  12
TORSDOF 14
ENDMDL
