MODEL 1
REMARK VINA RESULT:    -5.820      0.000      0.000
REMARK INTER + INTRA:          -7.192
REMARK INTER:                  -7.010
REMARK INTRA:                  -0.182
REMARK UNBOUND:                -0.182
REMARK SMILES O=c1c(O)c(-c2ccc(O)c(O)c2)oc2cc(O)cc(O)c12
REMARK SMILES IDX 5 1 3 2 2 3 1 4 22 5 20 6 19 7 17 8 16 9 15 10 14 11 6 12
REMARK SMILES IDX 7 13 8 14 9 15 13 16 11 17 10 18 12 20 4 22 21 24 18 26
REMARK H PARENT 10 19 12 21 4 23 21 25 18 27
REMARK Flexibility Score: inf
ROOT
ATOM      1  C   UNL     1      25.383  -5.452 -19.639  1.00  0.00     0.180 A 
ATOM      2  C   UNL     1      24.095  -5.623 -20.181  1.00  0.00     0.208 A 
ATOM      3  C   UNL     1      23.486  -6.885 -20.097  1.00  0.00     0.238 A 
ATOM      4  O   UNL     1      22.328  -7.047 -20.570  1.00  0.00    -0.285 OA
ATOM      5  C   UNL     1      24.179  -7.955 -19.495  1.00  0.00     0.111 A 
ATOM      6  C   UNL     1      23.639  -9.258 -19.374  1.00  0.00     0.134 A 
ATOM      7  C   UNL     1      24.395 -10.272 -18.769  1.00  0.00     0.093 A 
ATOM      8  C   UNL     1      25.681 -10.008 -18.284  1.00  0.00     0.123 A 
ATOM      9  C   UNL     1      26.218  -8.725 -18.399  1.00  0.00     0.094 A 
ATOM     10  C   UNL     1      25.479  -7.701 -18.999  1.00  0.00     0.146 A 
ATOM     11  O   UNL     1      26.013  -6.487 -19.091  1.00  0.00    -0.452 OA
ENDROOT
BRANCH   1  12
ATOM     12  C   UNL     1      26.084  -4.148 -19.671  1.00  0.00     0.025 A 
ATOM     13  C   UNL     1      27.226  -3.951 -20.468  1.00  0.00     0.016 A 
ATOM     14  C   UNL     1      27.857  -2.705 -20.503  1.00  0.00     0.051 A 
ATOM     15  C   UNL     1      27.350  -1.635 -19.754  1.00  0.00     0.157 A 
ATOM     16  C   UNL     1      25.568  -3.067 -18.939  1.00  0.00     0.062 A 
ATOM     17  C   UNL     1      26.201  -1.816 -18.973  1.00  0.00     0.158 A 
BRANCH  15  18
ATOM     18  O   UNL     1      27.977  -0.392 -19.784  1.00  0.00    -0.504 OA
ATOM     19  H   UNL     1      28.351   0.033 -18.943  1.00  0.00     0.293 HD
ENDBRANCH  15  18
BRANCH  17  20
ATOM     20  O   UNL     1      25.694  -0.748 -18.234  1.00  0.00    -0.504 OA
ATOM     21  H   UNL     1      25.829  -0.684 -17.232  1.00  0.00     0.293 HD
ENDBRANCH  17  20
ENDBRANCH   1  12
BRANCH   2  22
ATOM     22  O   UNL     1      23.450  -4.560 -20.817  1.00  0.00    -0.502 OA
ATOM     23  H   UNL     1      23.660  -4.289 -21.770  1.00  0.00     0.293 HD
ENDBRANCH   2  22
BRANCH   6  24
ATOM     24  O   UNL     1      22.360  -9.552 -19.849  1.00  0.00    -0.507 OA
ATOM     25  H   UNL     1      21.535  -9.095 -19.478  1.00  0.00     0.293 HD
ENDBRANCH   6  24
BRANCH   8  26
ATOM     26  O   UNL     1      26.434 -11.015 -17.684  1.00  0.00    -0.508 OA
ATOM     27  H   UNL     1      26.509 -11.938 -18.095  1.00  0.00     0.293 HD
ENDBRANCH   8  26
TORSDOF 6
ENDMDL
MODEL 2
REMARK VINA RESULT:    -5.435      1.267      2.917
REMARK INTER + INTRA:          -6.729
REMARK INTER:                  -6.480
REMARK INTRA:                  -0.249
REMARK UNBOUND:                -0.182
REMARK SMILES O=c1c(O)c(-c2ccc(O)c(O)c2)oc2cc(O)cc(O)c12
REMARK SMILES IDX 5 1 3 2 2 3 1 4 22 5 20 6 19 7 17 8 16 9 15 10 14 11 6 12
REMARK SMILES IDX 7 13 8 14 9 15 13 16 11 17 10 18 12 20 4 22 21 24 18 26
REMARK H PARENT 10 19 12 21 4 23 21 25 18 27
REMARK Flexibility Score: inf
ROOT
ATOM      1  C   UNL     1      25.856  -5.235 -19.254  1.00  0.00     0.180 A 
ATOM      2  C   UNL     1      26.576  -6.309 -18.697  1.00  0.00     0.208 A 
ATOM      3  C   UNL     1      26.023  -7.598 -18.755  1.00  0.00     0.238 A 
ATOM      4  O   UNL     1      26.664  -8.570 -18.269  1.00  0.00    -0.285 OA
ATOM      5  C   UNL     1      24.757  -7.788 -19.345  1.00  0.00     0.111 A 
ATOM      6  C   UNL     1      24.128  -9.052 -19.439  1.00  0.00     0.134 A 
ATOM      7  C   UNL     1      22.862  -9.158 -20.034  1.00  0.00     0.093 A 
ATOM      8  C   UNL     1      22.214  -8.023 -20.535  1.00  0.00     0.123 A 
ATOM      9  C   UNL     1      22.830  -6.774 -20.445  1.00  0.00     0.094 A 
ATOM     10  C   UNL     1      24.092  -6.649 -19.857  1.00  0.00     0.146 A 
ATOM     11  O   UNL     1      24.658  -5.448 -19.790  1.00  0.00    -0.452 OA
ENDROOT
BRANCH   1  12
ATOM     12  C   UNL     1      26.380  -3.849 -19.249  1.00  0.00     0.025 A 
ATOM     13  C   UNL     1      27.463  -3.473 -20.064  1.00  0.00     0.016 A 
ATOM     14  C   UNL     1      27.925  -2.155 -20.062  1.00  0.00     0.051 A 
ATOM     15  C   UNL     1      27.304  -1.191 -19.257  1.00  0.00     0.157 A 
ATOM     16  C   UNL     1      25.748  -2.874 -18.461  1.00  0.00     0.062 A 
ATOM     17  C   UNL     1      26.212  -1.550 -18.457  1.00  0.00     0.158 A 
BRANCH  15  18
ATOM     18  O   UNL     1      27.763   0.125 -19.250  1.00  0.00    -0.504 OA
ATOM     19  H   UNL     1      27.670   0.714 -18.431  1.00  0.00     0.293 HD
ENDBRANCH  15  18
BRANCH  17  20
ATOM     20  O   UNL     1      25.591  -0.587 -17.664  1.00  0.00    -0.504 OA
ATOM     21  H   UNL     1      25.941  -0.353 -16.742  1.00  0.00     0.293 HD
ENDBRANCH  17  20
ENDBRANCH   1  12
BRANCH   2  22
ATOM     22  O   UNL     1      27.806  -6.087 -18.073  1.00  0.00    -0.502 OA
ATOM     23  H   UNL     1      28.008  -6.419 -17.138  1.00  0.00     0.293 HD
ENDBRANCH   2  22
BRANCH   6  24
ATOM     24  O   UNL     1      24.749 -10.201 -18.948  1.00  0.00    -0.507 OA
ATOM     25  H   UNL     1      24.270 -11.094 -18.915  1.00  0.00     0.293 HD
ENDBRANCH   6  24
BRANCH   8  26
ATOM     26  O   UNL     1      20.956  -8.127 -21.125  1.00  0.00    -0.508 OA
ATOM     27  H   UNL     1      20.690  -8.941 -21.665  1.00  0.00     0.293 HD
ENDBRANCH   8  26
TORSDOF 6
ENDMDL
MODEL 3
REMARK VINA RESULT:    -5.166      1.708      3.145
REMARK INTER + INTRA:          -6.404
REMARK INTER:                  -6.410
REMARK INTRA:                   0.005
REMARK UNBOUND:                -0.182
REMARK SMILES O=c1c(O)c(-c2ccc(O)c(O)c2)oc2cc(O)cc(O)c12
REMARK SMILES IDX 5 1 3 2 2 3 1 4 22 5 20 6 19 7 17 8 16 9 15 10 14 11 6 12
REMARK SMILES IDX 7 13 8 14 9 15 13 16 11 17 10 18 12 20 4 22 21 24 18 26
REMARK H PARENT 10 19 12 21 4 23 21 25 18 27
REMARK Flexibility Score: inf
ROOT
ATOM      1  C   UNL     1      25.064  -5.836 -20.205  1.00  0.00     0.180 A 
ATOM      2  C   UNL     1      25.742  -7.046 -20.450  1.00  0.00     0.208 A 
ATOM      3  C   UNL     1      24.991  -8.210 -20.677  1.00  0.00     0.238 A 
ATOM      4  O   UNL     1      25.587  -9.297 -20.909  1.00  0.00    -0.285 OA
ATOM      5  C   UNL     1      23.582  -8.150 -20.634  1.00  0.00     0.111 A 
ATOM      6  C   UNL     1      22.753  -9.277 -20.847  1.00  0.00     0.134 A 
ATOM      7  C   UNL     1      21.359  -9.138 -20.778  1.00  0.00     0.093 A 
ATOM      8  C   UNL     1      20.780  -7.895 -20.500  1.00  0.00     0.123 A 
ATOM      9  C   UNL     1      21.594  -6.781 -20.291  1.00  0.00     0.094 A 
ATOM     10  C   UNL     1      22.985  -6.899 -20.356  1.00  0.00     0.146 A 
ATOM     11  O   UNL     1      23.736  -5.820 -20.157  1.00  0.00    -0.452 OA
ENDROOT
BRANCH   1  12
ATOM     12  C   UNL     1      25.785  -4.563 -19.975  1.00  0.00     0.025 A 
ATOM     13  C   UNL     1      26.825  -4.147 -20.825  1.00  0.00     0.016 A 
ATOM     14  C   UNL     1      27.475  -2.930 -20.605  1.00  0.00     0.051 A 
ATOM     15  C   UNL     1      27.087  -2.106 -19.540  1.00  0.00     0.157 A 
ATOM     16  C   UNL     1      25.387  -3.723 -18.923  1.00  0.00     0.062 A 
ATOM     17  C   UNL     1      26.039  -2.502 -18.699  1.00  0.00     0.158 A 
BRANCH  15  18
ATOM     18  O   UNL     1      27.734  -0.893 -19.314  1.00  0.00    -0.504 OA
ATOM     19  H   UNL     1      28.293  -0.737 -18.483  1.00  0.00     0.293 HD
ENDBRANCH  15  18
BRANCH  17  20
ATOM     20  O   UNL     1      25.650  -1.677 -17.646  1.00  0.00    -0.504 OA
ATOM     21  H   UNL     1      25.311  -0.736 -17.806  1.00  0.00     0.293 HD
ENDBRANCH  17  20
ENDBRANCH   1  12
BRANCH   2  22
ATOM     22  O   UNL     1      27.138  -7.089 -20.439  1.00  0.00    -0.502 OA
ATOM     23  H   UNL     1      27.685  -6.750 -19.657  1.00  0.00     0.293 HD
ENDBRANCH   2  22
BRANCH   6  24
ATOM     24  O   UNL     1      23.301 -10.530 -21.125  1.00  0.00    -0.507 OA
ATOM     25  H   UNL     1      23.986 -10.960 -20.515  1.00  0.00     0.293 HD
ENDBRANCH   6  24
BRANCH   8  26
ATOM     26  O   UNL     1      19.396  -7.756 -20.431  1.00  0.00    -0.508 OA
ATOM     27  H   UNL     1      18.872  -8.066 -19.622  1.00  0.00     0.293 HD
ENDBRANCH   8  26
TORSDOF 6
ENDMDL
MODEL 4
REMARK VINA RESULT:    -4.434      1.632      7.189
REMARK INTER + INTRA:          -5.523
REMARK INTER:                  -5.194
REMARK INTRA:                  -0.328
REMARK UNBOUND:                -0.182
REMARK SMILES O=c1c(O)c(-c2ccc(O)c(O)c2)oc2cc(O)cc(O)c12
REMARK SMILES IDX 5 1 3 2 2 3 1 4 22 5 20 6 19 7 17 8 16 9 15 10 14 11 6 12
REMARK SMILES IDX 7 13 8 14 9 15 13 16 11 17 10 18 12 20 4 22 21 24 18 26
REMARK H PARENT 10 19 12 21 4 23 21 25 18 27
REMARK Flexibility Score: inf
ROOT
ATOM      1  C   UNL     1      25.744  -4.627 -19.051  1.00  0.00     0.180 A 
ATOM      2  C   UNL     1      26.613  -4.225 -20.083  1.00  0.00     0.208 A 
ATOM      3  C   UNL     1      27.133  -2.921 -20.062  1.00  0.00     0.238 A 
ATOM      4  O   UNL     1      27.921  -2.553 -20.976  1.00  0.00    -0.285 OA
ATOM      5  C   UNL     1      26.762  -2.039 -19.026  1.00  0.00     0.111 A 
ATOM      6  C   UNL     1      27.237  -0.709 -18.935  1.00  0.00     0.134 A 
ATOM      7  C   UNL     1      26.814   0.110 -17.878  1.00  0.00     0.093 A 
ATOM      8  C   UNL     1      25.924  -0.375 -16.913  1.00  0.00     0.123 A 
ATOM      9  C   UNL     1      25.453  -1.686 -16.999  1.00  0.00     0.094 A 
ATOM     10  C   UNL     1      25.864  -2.518 -18.044  1.00  0.00     0.146 A 
ATOM     11  O   UNL     1      25.404  -3.763 -18.098  1.00  0.00    -0.452 OA
ENDROOT
BRANCH   1  12
ATOM     12  C   UNL     1      25.168  -5.991 -18.993  1.00  0.00     0.025 A 
ATOM     13  C   UNL     1      25.878  -7.061 -18.419  1.00  0.00     0.016 A 
ATOM     14  C   UNL     1      25.306  -8.333 -18.352  1.00  0.00     0.051 A 
ATOM     15  C   UNL     1      24.013  -8.553 -18.845  1.00  0.00     0.157 A 
ATOM     16  C   UNL     1      23.865  -6.212 -19.466  1.00  0.00     0.062 A 
ATOM     17  C   UNL     1      23.290  -7.489 -19.401  1.00  0.00     0.158 A 
BRANCH  15  18
ATOM     18  O   UNL     1      23.439  -9.821 -18.783  1.00  0.00    -0.504 OA
ATOM     19  H   UNL     1      23.927 -10.641 -19.126  1.00  0.00     0.293 HD
ENDBRANCH  15  18
BRANCH  17  20
ATOM     20  O   UNL     1      22.001  -7.708 -19.884  1.00  0.00    -0.504 OA
ATOM     21  H   UNL     1      21.807  -7.748 -20.878  1.00  0.00     0.293 HD
ENDBRANCH  17  20
ENDBRANCH   1  12
BRANCH   2  22
ATOM     22  O   UNL     1      26.926  -5.102 -21.125  1.00  0.00    -0.502 OA
ATOM     23  H   UNL     1      26.236  -5.416 -21.796  1.00  0.00     0.293 HD
ENDBRANCH   2  22
BRANCH   6  24
ATOM     24  O   UNL     1      28.125  -0.197 -19.882  1.00  0.00    -0.507 OA
ATOM     25  H   UNL     1      28.436   0.767 -19.855  1.00  0.00     0.293 HD
ENDBRANCH   6  24
BRANCH   8  26
ATOM     26  O   UNL     1      25.503   0.439 -15.864  1.00  0.00    -0.508 OA
ATOM     27  H   UNL     1      24.624   0.940 -15.903  1.00  0.00     0.293 HD
ENDBRANCH   8  26
TORSDOF 6
ENDMDL
MODEL 5
REMARK VINA RESULT:    -4.178      2.160      3.719
REMARK INTER + INTRA:          -5.215
REMARK INTER:                  -4.934
REMARK INTRA:                  -0.281
REMARK UNBOUND:                -0.182
REMARK SMILES O=c1c(O)c(-c2ccc(O)c(O)c2)oc2cc(O)cc(O)c12
REMARK SMILES IDX 5 1 3 2 2 3 1 4 22 5 20 6 19 7 17 8 16 9 15 10 14 11 6 12
REMARK SMILES IDX 7 13 8 14 9 15 13 16 11 17 10 18 12 20 4 22 21 24 18 26
REMARK H PARENT 10 19 12 21 4 23 21 25 18 27
REMARK Flexibility Score: inf
ROOT
ATOM      1  C   UNL     1      24.481  -6.540 -20.177  1.00  0.00     0.180 A 
ATOM      2  C   UNL     1      24.905  -7.841 -20.511  1.00  0.00     0.208 A 
ATOM      3  C   UNL     1      23.938  -8.838 -20.716  1.00  0.00     0.238 A 
ATOM      4  O   UNL     1      24.306 -10.004 -21.026  1.00  0.00    -0.285 OA
ATOM      5  C   UNL     1      22.572  -8.525 -20.564  1.00  0.00     0.111 A 
ATOM      6  C   UNL     1      21.536  -9.471 -20.748  1.00  0.00     0.134 A 
ATOM      7  C   UNL     1      20.199  -9.084 -20.570  1.00  0.00     0.093 A 
ATOM      8  C   UNL     1      19.881  -7.770 -20.211  1.00  0.00     0.123 A 
ATOM      9  C   UNL     1      20.898  -6.833 -20.029  1.00  0.00     0.094 A 
ATOM     10  C   UNL     1      22.237  -7.199 -20.203  1.00  0.00     0.146 A 
ATOM     11  O   UNL     1      23.185  -6.285 -20.028  1.00  0.00    -0.452 OA
ENDROOT
BRANCH   1  12
ATOM     12  C   UNL     1      25.439  -5.431 -19.964  1.00  0.00     0.025 A 
ATOM     13  C   UNL     1      25.634  -4.434 -20.937  1.00  0.00     0.016 A 
ATOM     14  C   UNL     1      26.524  -3.383 -20.704  1.00  0.00     0.051 A 
ATOM     15  C   UNL     1      27.222  -3.305 -19.491  1.00  0.00     0.157 A 
ATOM     16  C   UNL     1      26.126  -5.336 -18.743  1.00  0.00     0.062 A 
ATOM     17  C   UNL     1      27.020  -4.282 -18.508  1.00  0.00     0.158 A 
BRANCH  15  18
ATOM     18  O   UNL     1      28.113  -2.260 -19.255  1.00  0.00    -0.504 OA
ATOM     19  H   UNL     1      28.395  -1.627 -19.995  1.00  0.00     0.293 HD
ENDBRANCH  15  18
BRANCH  17  20
ATOM     20  O   UNL     1      27.710  -4.197 -17.299  1.00  0.00    -0.504 OA
ATOM     21  H   UNL     1      27.431  -3.548 -16.574  1.00  0.00     0.293 HD
ENDBRANCH  17  20
ENDBRANCH   1  12
BRANCH   2  22
ATOM     22  O   UNL     1      26.267  -8.137 -20.606  1.00  0.00    -0.502 OA
ATOM     23  H   UNL     1      26.987  -7.467 -20.365  1.00  0.00     0.293 HD
ENDBRANCH   2  22
BRANCH   6  24
ATOM     24  O   UNL     1      21.822 -10.789 -21.106  1.00  0.00    -0.507 OA
ATOM     25  H   UNL     1      22.530 -11.331 -20.624  1.00  0.00     0.293 HD
ENDBRANCH   6  24
BRANCH   8  26
ATOM     26  O   UNL     1      18.554  -7.385 -20.033  1.00  0.00    -0.508 OA
ATOM     27  H   UNL     1      17.787  -7.955 -20.369  1.00  0.00     0.293 HD
ENDBRANCH   8  26
TORSDOF 6
ENDMDL
MODEL 6
REMARK VINA RESULT:    -4.143      1.529      2.080
REMARK INTER + INTRA:          -5.172
REMARK INTER:                  -5.160
REMARK INTRA:                  -0.012
REMARK UNBOUND:                -0.182
REMARK SMILES O=c1c(O)c(-c2ccc(O)c(O)c2)oc2cc(O)cc(O)c12
REMARK SMILES IDX 5 1 3 2 2 3 1 4 22 5 20 6 19 7 17 8 16 9 15 10 14 11 6 12
REMARK SMILES IDX 7 13 8 14 9 15 13 16 11 17 10 18 12 20 4 22 21 24 18 26
REMARK H PARENT 10 19 12 21 4 23 21 25 18 27
REMARK Flexibility Score: inf
ROOT
ATOM      1  C   UNL     1      26.474  -4.669 -18.987  1.00  0.00     0.180 A 
ATOM      2  C   UNL     1      25.420  -5.003 -19.859  1.00  0.00     0.208 A 
ATOM      3  C   UNL     1      25.079  -6.354 -20.026  1.00  0.00     0.238 A 
ATOM      4  O   UNL     1      24.130  -6.664 -20.796  1.00  0.00    -0.285 OA
ATOM      5  C   UNL     1      25.807  -7.347 -19.337  1.00  0.00     0.111 A 
ATOM      6  C   UNL     1      25.531  -8.730 -19.453  1.00  0.00     0.134 A 
ATOM      7  C   UNL     1      26.306  -9.656 -18.741  1.00  0.00     0.093 A 
ATOM      8  C   UNL     1      27.353  -9.226 -17.918  1.00  0.00     0.123 A 
ATOM      9  C   UNL     1      27.629  -7.863 -17.800  1.00  0.00     0.094 A 
ATOM     10  C   UNL     1      26.866  -6.924 -18.500  1.00  0.00     0.146 A 
ATOM     11  O   UNL     1      27.148  -5.633 -18.365  1.00  0.00    -0.452 OA
ENDROOT
BRANCH   1  12
ATOM     12  C   UNL     1      26.881  -3.266 -18.744  1.00  0.00     0.025 A 
ATOM     13  C   UNL     1      26.999  -2.753 -17.440  1.00  0.00     0.016 A 
ATOM     14  C   UNL     1      27.409  -1.434 -17.234  1.00  0.00     0.051 A 
ATOM     15  C   UNL     1      27.719  -0.612 -18.325  1.00  0.00     0.157 A 
ATOM     16  C   UNL     1      27.212  -2.444 -19.833  1.00  0.00     0.062 A 
ATOM     17  C   UNL     1      27.622  -1.119 -19.628  1.00  0.00     0.158 A 
BRANCH  15  18
ATOM     18  O   UNL     1      28.125   0.706 -18.125  1.00  0.00    -0.504 OA
ATOM     19  H   UNL     1      29.100   0.944 -17.985  1.00  0.00     0.293 HD
ENDBRANCH  15  18
BRANCH  17  20
ATOM     20  O   UNL     1      27.938  -0.302 -20.712  1.00  0.00    -0.504 OA
ATOM     21  H   UNL     1      28.153  -0.689 -21.623  1.00  0.00     0.293 HD
ENDBRANCH  17  20
ENDBRANCH   1  12
BRANCH   2  22
ATOM     22  O   UNL     1      24.747  -4.004 -20.568  1.00  0.00    -0.502 OA
ATOM     23  H   UNL     1      24.879  -3.862 -21.562  1.00  0.00     0.293 HD
ENDBRANCH   2  22
BRANCH   6  24
ATOM     24  O   UNL     1      24.494  -9.189 -20.266  1.00  0.00    -0.507 OA
ATOM     25  H   UNL     1      23.522  -9.094 -19.997  1.00  0.00     0.293 HD
ENDBRANCH   6  24
BRANCH   8  26
ATOM     26  O   UNL     1      28.125 -10.146 -17.212  1.00  0.00    -0.508 OA
ATOM     27  H   UNL     1      28.950 -10.568 -17.619  1.00  0.00     0.293 HD
ENDBRANCH   8  26
TORSDOF 6
ENDMDL
