MODEL 1
REMARK VINA RESULT:    -3.657      0.000      0.000
REMARK INTER + INTRA:          -5.405
REMARK INTER:                  -4.940
REMARK INTRA:                  -0.464
REMARK UNBOUND:                -0.464
REMARK SMILES CCCCCCCC(=O)[O-]
REMARK SMILES IDX 5 1 6 2 7 3 8 4 9 5 10 6 4 7 3 8 2 9 1 10
REMARK H PARENT
REMARK Flexibility Score: inf
ROOT
ATOM      1  C   UNL     1       4.092  12.510   6.741  1.00  0.00     0.000 C 
ENDROOT
BRANCH   1   2
ATOM      2  C   UNL     1       4.798  13.848   6.490  1.00  0.00     0.006 C 
BRANCH   2   3
ATOM      3  C   UNL     1       5.312  14.453   7.801  1.00  0.00     0.053 C 
BRANCH   3   4
ATOM      4  C   UNL     1       6.371  13.582   8.399  1.00  0.00     0.041 C 
ATOM      5  O   UNL     1       6.207  13.080   9.542  1.00  0.00    -0.550 OA
ATOM      6  O   UNL     1       7.561  13.366   7.716  1.00  0.00    -0.550 OA
ENDBRANCH   3   4
ENDBRANCH   2   3
ENDBRANCH   1   2
BRANCH   1   7
ATOM      7  C   UNL     1       4.861  11.351   6.089  1.00  0.00     0.000 C 
BRANCH   7   8
ATOM      8  C   UNL     1       5.265  10.266   7.098  1.00  0.00    -0.000 C 
BRANCH   8   9
ATOM      9  C   UNL     1       4.291  10.164   8.280  1.00  0.00    -0.003 C 
ATOM     10  C   UNL     1       4.147   8.719   8.749  1.00  0.00     0.004 C 
ENDBRANCH   8   9
ENDBRANCH   7   8
ENDBRANCH   1   7
TORSDOF 6
ENDMDL
MODEL 2
REMARK VINA RESULT:    -3.602      0.974      1.823
REMARK INTER + INTRA:          -5.330
REMARK INTER:                  -4.910
REMARK INTRA:                  -0.419
REMARK UNBOUND:                -0.464
REMARK SMILES CCCCCCCC(=O)[O-]
REMARK SMILES IDX 5 1 6 2 7 3 8 4 9 5 10 6 4 7 3 8 2 9 1 10
REMARK H PARENT
REMARK Flexibility Score: inf
ROOT
ATOM      1  C   UNL     1       4.868  11.235   6.232  1.00  0.00     0.000 C 
ENDROOT
BRANCH   1   2
ATOM      2  C   UNL     1       4.090  12.433   6.789  1.00  0.00     0.006 C 
BRANCH   2   3
ATOM      3  C   UNL     1       4.730  13.755   6.350  1.00  0.00     0.053 C 
BRANCH   3   4
ATOM      4  C   UNL     1       5.656  14.265   7.409  1.00  0.00     0.041 C 
ATOM      5  O   UNL     1       6.894  14.331   7.190  1.00  0.00    -0.550 OA
ATOM      6  O   UNL     1       5.158  14.621   8.656  1.00  0.00    -0.550 OA
ENDBRANCH   3   4
ENDBRANCH   2   3
ENDBRANCH   1   2
BRANCH   1   7
ATOM      7  C   UNL     1       5.492  10.409   7.367  1.00  0.00     0.000 C 
BRANCH   7   8
ATOM      8  C   UNL     1       4.873  10.722   8.738  1.00  0.00    -0.000 C 
BRANCH   8   9
ATOM      9  C   UNL     1       3.858   9.660   9.186  1.00  0.00    -0.003 C 
ATOM     10  C   UNL     1       4.297   8.264   8.754  1.00  0.00     0.004 C 
ENDBRANCH   8   9
ENDBRANCH   7   8
ENDBRANCH   1   7
TORSDOF 6
ENDMDL
MODEL 3
REMARK VINA RESULT:    -3.560      2.692      4.714
REMARK INTER + INTRA:          -5.274
REMARK INTER:                  -4.862
REMARK INTRA:                  -0.411
REMARK UNBOUND:                -0.464
REMARK SMILES CCCCCCCC(=O)[O-]
REMARK SMILES IDX 5 1 6 2 7 3 8 4 9 5 10 6 4 7 3 8 2 9 1 10
REMARK H PARENT
REMARK Flexibility Score: inf
ROOT
ATOM      1  C   UNL     1       5.190  10.236   6.893  1.00  0.00     0.000 C 
ENDROOT
BRANCH   1   2
ATOM      2  C   UNL     1       4.807  10.460   8.360  1.00  0.00     0.006 C 
BRANCH   2   3
ATOM      3  C   UNL     1       3.796   9.409   8.832  1.00  0.00     0.053 C 
BRANCH   3   4
ATOM      4  C   UNL     1       4.445   8.064   8.927  1.00  0.00     0.041 C 
ATOM      5  O   UNL     1       3.890   7.055   8.417  1.00  0.00    -0.550 OA
ATOM      6  O   UNL     1       5.638   7.916   9.622  1.00  0.00    -0.550 OA
ENDBRANCH   3   4
ENDBRANCH   2   3
ENDBRANCH   1   2
BRANCH   1   7
ATOM      7  C   UNL     1       5.011  11.524   6.075  1.00  0.00     0.000 C 
BRANCH   7   8
ATOM      8  C   UNL     1       4.024  12.506   6.724  1.00  0.00    -0.000 C 
BRANCH   8   9
ATOM      9  C   UNL     1       4.524  13.958   6.688  1.00  0.00    -0.003 C 
ATOM     10  C   UNL     1       5.924  14.071   7.284  1.00  0.00     0.004 C 
ENDBRANCH   8   9
ENDBRANCH   7   8
ENDBRANCH   1   7
TORSDOF 6
ENDMDL
MODEL 4
REMARK VINA RESULT:    -3.449      1.854      2.927
REMARK INTER + INTRA:          -5.124
REMARK INTER:                  -4.632
REMARK INTRA:                  -0.491
REMARK UNBOUND:                -0.464
REMARK SMILES CCCCCCCC(=O)[O-]
REMARK SMILES IDX 5 1 6 2 7 3 8 4 9 5 10 6 4 7 3 8 2 9 1 10
REMARK H PARENT
REMARK Flexibility Score: inf
ROOT
ATOM      1  C   UNL     1       5.174  11.307   6.354  1.00  0.00     0.000 C 
ENDROOT
BRANCH   1   2
ATOM      2  C   UNL     1       4.119  12.312   6.830  1.00  0.00     0.006 C 
BRANCH   2   3
ATOM      3  C   UNL     1       4.495  13.740   6.419  1.00  0.00     0.053 C 
BRANCH   3   4
ATOM      4  C   UNL     1       5.523  14.299   7.350  1.00  0.00     0.041 C 
ATOM      5  O   UNL     1       6.473  14.993   6.903  1.00  0.00    -0.550 OA
ATOM      6  O   UNL     1       5.460  14.013   8.708  1.00  0.00    -0.550 OA
ENDBRANCH   3   4
ENDBRANCH   2   3
ENDBRANCH   1   2
BRANCH   1   7
ATOM      7  C   UNL     1       5.584  10.360   7.492  1.00  0.00     0.000 C 
BRANCH   7   8
ATOM      8  C   UNL     1       7.096  10.381   7.764  1.00  0.00    -0.000 C 
BRANCH   8   9
ATOM      9  C   UNL     1       7.814  11.524   7.030  1.00  0.00    -0.003 C 
ATOM     10  C   UNL     1       8.952  10.991   6.165  1.00  0.00     0.004 C 
ENDBRANCH   8   9
ENDBRANCH   7   8
ENDBRANCH   1   7
TORSDOF 6
ENDMDL
MODEL 5
REMARK VINA RESULT:    -3.422      1.919      4.017
REMARK INTER + INTRA:          -5.087
REMARK INTER:                  -4.639
REMARK INTRA:                  -0.447
REMARK UNBOUND:                -0.464
REMARK SMILES CCCCCCCC(=O)[O-]
REMARK SMILES IDX 5 1 6 2 7 3 8 4 9 5 10 6 4 7 3 8 2 9 1 10
REMARK H PARENT
REMARK Flexibility Score: inf
ROOT
ATOM      1  C   UNL     1       4.582  13.898   6.362  1.00  0.00     0.000 C 
ENDROOT
BRANCH   1   2
ATOM      2  C   UNL     1       4.691  12.387   6.123  1.00  0.00     0.006 C 
BRANCH   2   3
ATOM      3  C   UNL     1       3.760  11.613   7.063  1.00  0.00     0.053 C 
BRANCH   3   4
ATOM      4  C   UNL     1       4.539  10.630   7.879  1.00  0.00     0.041 C 
ATOM      5  O   UNL     1       4.840   9.506   7.399  1.00  0.00    -0.550 OA
ATOM      6  O   UNL     1       4.891  10.937   9.187  1.00  0.00    -0.550 OA
ENDBRANCH   3   4
ENDBRANCH   2   3
ENDBRANCH   1   2
BRANCH   1   7
ATOM      7  C   UNL     1       5.424  14.325   7.573  1.00  0.00     0.000 C 
BRANCH   7   8
ATOM      8  C   UNL     1       6.733  15.021   7.169  1.00  0.00    -0.000 C 
BRANCH   8   9
ATOM      9  C   UNL     1       7.965  14.406   7.850  1.00  0.00    -0.003 C 
ATOM     10  C   UNL     1       7.776  12.910   8.078  1.00  0.00     0.004 C 
ENDBRANCH   8   9
ENDBRANCH   7   8
ENDBRANCH   1   7
TORSDOF 6
ENDMDL
MODEL 6
REMARK VINA RESULT:    -3.275     12.150     14.249
REMARK INTER + INTRA:          -4.889
REMARK INTER:                  -4.607
REMARK INTRA:                  -0.282
REMARK UNBOUND:                -0.464
REMARK SMILES CCCCCCCC(=O)[O-]
REMARK SMILES IDX 5 1 6 2 7 3 8 4 9 5 10 6 4 7 3 8 2 9 1 10
REMARK H PARENT
REMARK Flexibility Score: inf
ROOT
ATOM      1  C   UNL     1       7.521  -0.304   4.870  1.00  0.00     0.000 C 
ENDROOT
BRANCH   1   2
ATOM      2  C   UNL     1       6.978  -1.736   4.791  1.00  0.00     0.006 C 
BRANCH   2   3
ATOM      3  C   UNL     1       6.769  -2.323   6.191  1.00  0.00     0.053 C 
BRANCH   3   4
ATOM      4  C   UNL     1       6.888  -3.814   6.156  1.00  0.00     0.041 C 
ATOM      5  O   UNL     1       7.987  -4.356   5.867  1.00  0.00    -0.550 OA
ATOM      6  O   UNL     1       5.772  -4.607   6.394  1.00  0.00    -0.550 OA
ENDBRANCH   3   4
ENDBRANCH   2   3
ENDBRANCH   1   2
BRANCH   1   7
ATOM      7  C   UNL     1       7.744   0.119   6.330  1.00  0.00     0.000 C 
BRANCH   7   8
ATOM      8  C   UNL     1       8.328   1.535   6.453  1.00  0.00    -0.000 C 
BRANCH   8   9
ATOM      9  C   UNL     1       8.289   2.310   5.128  1.00  0.00    -0.003 C 
ATOM     10  C   UNL     1       7.428   3.563   5.250  1.00  0.00     0.004 C 
ENDBRANCH   8   9
ENDBRANCH   7   8
ENDBRANCH   1   7
TORSDOF 6
ENDMDL
MODEL 7
REMARK VINA RESULT:    -3.220      3.920      6.062
REMARK INTER + INTRA:          -4.814
REMARK INTER:                  -4.698
REMARK INTRA:                  -0.116
REMARK UNBOUND:                -0.464
REMARK SMILES CCCCCCCC(=O)[O-]
REMARK SMILES IDX 5 1 6 2 7 3 8 4 9 5 10 6 4 7 3 8 2 9 1 10
REMARK H PARENT
REMARK Flexibility Score: inf
ROOT
ATOM      1  C   UNL     1       3.825   9.539   8.723  1.00  0.00     0.000 C 
ENDROOT
BRANCH   1   2
ATOM      2  C   UNL     1       4.661   8.269   8.920  1.00  0.00     0.006 C 
BRANCH   2   3
ATOM      3  C   UNL     1       3.937   7.270   9.830  1.00  0.00     0.053 C 
BRANCH   3   4
ATOM      4  C   UNL     1       3.941   5.905   9.216  1.00  0.00     0.041 C 
ATOM      5  O   UNL     1       4.492   4.943   9.812  1.00  0.00    -0.550 OA
ATOM      6  O   UNL     1       3.378   5.706   7.962  1.00  0.00    -0.550 OA
ENDBRANCH   3   4
ENDBRANCH   2   3
ENDBRANCH   1   2
BRANCH   1   7
ATOM      7  C   UNL     1       4.658  10.649   8.064  1.00  0.00     0.000 C 
BRANCH   7   8
ATOM      8  C   UNL     1       3.821  11.550   7.143  1.00  0.00    -0.000 C 
BRANCH   8   9
ATOM      9  C   UNL     1       4.688  12.452   6.251  1.00  0.00    -0.003 C 
ATOM     10  C   UNL     1       4.593  13.910   6.690  1.00  0.00     0.004 C 
ENDBRANCH   8   9
ENDBRANCH   7   8
ENDBRANCH   1   7
TORSDOF 6
ENDMDL
MODEL 8
REMARK VINA RESULT:    -3.184      2.281      3.848
REMARK INTER + INTRA:          -4.766
REMARK INTER:                  -4.252
REMARK INTRA:                  -0.513
REMARK UNBOUND:                -0.464
REMARK SMILES CCCCCCCC(=O)[O-]
REMARK SMILES IDX 5 1 6 2 7 3 8 4 9 5 10 6 4 7 3 8 2 9 1 10
REMARK H PARENT
REMARK Flexibility Score: inf
ROOT
ATOM      1  C   UNL     1       6.456  14.929   7.241  1.00  0.00     0.000 C 
ENDROOT
BRANCH   1   2
ATOM      2  C   UNL     1       5.064  14.351   7.525  1.00  0.00     0.006 C 
BRANCH   2   3
ATOM      3  C   UNL     1       4.541  13.561   6.320  1.00  0.00     0.053 C 
BRANCH   3   4
ATOM      4  C   UNL     1       4.591  12.091   6.597  1.00  0.00     0.041 C 
ATOM      5  O   UNL     1       4.596  11.267   5.645  1.00  0.00    -0.550 OA
ATOM      6  O   UNL     1       4.583  11.630   7.907  1.00  0.00    -0.550 OA
ENDBRANCH   3   4
ENDBRANCH   2   3
ENDBRANCH   1   2
BRANCH   1   7
ATOM      7  C   UNL     1       7.508  14.311   8.173  1.00  0.00     0.000 C 
BRANCH   7   8
ATOM      8  C   UNL     1       8.570  13.501   7.414  1.00  0.00    -0.000 C 
BRANCH   8   9
ATOM      9  C   UNL     1       8.559  12.012   7.789  1.00  0.00    -0.003 C 
ATOM     10  C   UNL     1       8.121  11.152   6.607  1.00  0.00     0.004 C 
ENDBRANCH   8   9
ENDBRANCH   7   8
ENDBRANCH   1   7
TORSDOF 6
ENDMDL
MODEL 9
REMARK VINA RESULT:    -3.156      1.706      3.656
REMARK INTER + INTRA:          -4.727
REMARK INTER:                  -4.200
REMARK INTRA:                  -0.527
REMARK UNBOUND:                -0.464
REMARK SMILES CCCCCCCC(=O)[O-]
REMARK SMILES IDX 5 1 6 2 7 3 8 4 9 5 10 6 4 7 3 8 2 9 1 10
REMARK H PARENT
REMARK Flexibility Score: inf
ROOT
ATOM      1  C   UNL     1       4.433  10.499   7.856  1.00  0.00     0.000 C 
ENDROOT
BRANCH   1   2
ATOM      2  C   UNL     1       5.647  11.030   8.627  1.00  0.00     0.006 C 
BRANCH   2   3
ATOM      3  C   UNL     1       6.908  10.228   8.288  1.00  0.00     0.053 C 
BRANCH   3   4
ATOM      4  C   UNL     1       7.930  11.108   7.641  1.00  0.00     0.041 C 
ATOM      5  O   UNL     1       7.997  11.186   6.386  1.00  0.00    -0.550 OA
ATOM      6  O   UNL     1       8.842  11.806   8.423  1.00  0.00    -0.550 OA
ENDBRANCH   3   4
ENDBRANCH   2   3
ENDBRANCH   1   2
BRANCH   1   7
ATOM      7  C   UNL     1       3.732  11.630   7.089  1.00  0.00     0.000 C 
BRANCH   7   8
ATOM      8  C   UNL     1       4.698  12.435   6.206  1.00  0.00    -0.000 C 
BRANCH   8   9
ATOM      9  C   UNL     1       4.659  13.940   6.507  1.00  0.00    -0.003 C 
ATOM     10  C   UNL     1       5.965  14.406   7.144  1.00  0.00     0.004 C 
ENDBRANCH   8   9
ENDBRANCH   7   8
ENDBRANCH   1   7
TORSDOF 6
ENDMDL
