MODEL 1
REMARK VINA RESULT:    -3.445      0.000      0.000
REMARK INTER + INTRA:          -6.973
REMARK INTER:                  -5.459
REMARK INTRA:                  -1.514
REMARK UNBOUND:                -1.514
REMARK SMILES CCCCCCCCCCCC(=O)[O-]
REMARK SMILES IDX 7 1 8 2 9 3 10 4 11 5 12 6 13 7 14 8 6 9 5 10 4 11 3 12 2 13
REMARK SMILES IDX 1 14
REMARK H PARENT
REMARK Flexibility Score: inf
ROOT
ATOM      1  C   UNL     1      21.472  13.156 -17.608  1.00  0.00     0.000 C 
ENDROOT
BRANCH   1   2
ATOM      2  C   UNL     1      21.163  13.326 -16.113  1.00  0.00     0.000 C 
BRANCH   2   3
ATOM      3  C   UNL     1      19.656  13.522 -15.848  1.00  0.00     0.000 C 
BRANCH   3   4
ATOM      4  C   UNL     1      18.766  13.149 -17.047  1.00  0.00     0.006 C 
BRANCH   4   5
ATOM      5  C   UNL     1      17.899  11.913 -16.783  1.00  0.00     0.053 C 
BRANCH   5   6
ATOM      6  C   UNL     1      18.582  10.679 -17.283  1.00  0.00     0.041 C 
ATOM      7  O   UNL     1      18.365  10.263 -18.450  1.00  0.00    -0.550 OA
ATOM      8  O   UNL     1      19.498  10.016 -16.475  1.00  0.00    -0.550 OA
ENDBRANCH   5   6
ENDBRANCH   4   5
ENDBRANCH   3   4
ENDBRANCH   2   3
ENDBRANCH   1   2
BRANCH   1   9
ATOM      9  C   UNL     1      22.709  13.970 -18.012  1.00  0.00     0.000 C 
BRANCH   9  10
ATOM     10  C   UNL     1      22.808  15.263 -17.189  1.00  0.00    -0.000 C 
BRANCH  10  11
ATOM     11  C   UNL     1      22.150  16.463 -17.890  1.00  0.00    -0.000 C 
BRANCH  11  12
ATOM     12  C   UNL     1      20.842  16.899 -17.214  1.00  0.00    -0.000 C 
BRANCH  12  13
ATOM     13  C   UNL     1      19.632  16.562 -18.092  1.00  0.00    -0.003 C 
ATOM     14  C   UNL     1      20.017  16.508 -19.567  1.00  0.00     0.004 C 
ENDBRANCH  12  13
ENDBRANCH  11  12
ENDBRANCH  10  11
ENDBRANCH   9  10
ENDBRANCH   1   9
TORSDOF 10
ENDMDL
MODEL 2
REMARK VINA RESULT:    -3.427      2.571      5.641
REMARK INTER + INTRA:          -6.945
REMARK INTER:                  -6.114
REMARK INTRA:                  -0.830
REMARK UNBOUND:                -1.514
REMARK SMILES CCCCCCCCCCCC(=O)[O-]
REMARK SMILES IDX 7 1 8 2 9 3 10 4 11 5 12 6 13 7 14 8 6 9 5 10 4 11 3 12 2 13
REMARK SMILES IDX 1 14
REMARK H PARENT
REMARK Flexibility Score: inf
ROOT
ATOM      1  C   UNL     1      21.222  13.966 -16.415  1.00  0.00     0.000 C 
ENDROOT
BRANCH   1   2
ATOM      2  C   UNL     1      21.759  15.405 -16.371  1.00  0.00     0.000 C 
BRANCH   2   3
ATOM      3  C   UNL     1      20.681  16.441 -16.755  1.00  0.00     0.000 C 
BRANCH   3   4
ATOM      4  C   UNL     1      21.111  17.385 -17.892  1.00  0.00     0.006 C 
BRANCH   4   5
ATOM      5  C   UNL     1      21.312  16.659 -19.227  1.00  0.00     0.053 C 
BRANCH   5   6
ATOM      6  C   UNL     1      19.994  16.250 -19.802  1.00  0.00     0.041 C 
ATOM      7  O   UNL     1      19.687  15.033 -19.881  1.00  0.00    -0.550 OA
ATOM      8  O   UNL     1      19.081  17.218 -20.208  1.00  0.00    -0.550 OA
ENDBRANCH   5   6
ENDBRANCH   4   5
ENDBRANCH   3   4
ENDBRANCH   2   3
ENDBRANCH   1   2
BRANCH   1   9
ATOM      9  C   UNL     1      19.688  13.950 -16.426  1.00  0.00     0.000 C 
BRANCH   9  10
ATOM     10  C   UNL     1      19.149  12.614 -15.895  1.00  0.00    -0.000 C 
BRANCH  10  11
ATOM     11  C   UNL     1      17.999  12.057 -16.749  1.00  0.00    -0.000 C 
BRANCH  11  12
ATOM     12  C   UNL     1      18.385  10.773 -17.497  1.00  0.00    -0.000 C 
BRANCH  12  13
ATOM     13  C   UNL     1      19.548  10.060 -16.799  1.00  0.00    -0.003 C 
ATOM     14  C   UNL     1      19.174   8.627 -16.428  1.00  0.00     0.004 C 
ENDBRANCH  12  13
ENDBRANCH  11  12
ENDBRANCH  10  11
ENDBRANCH   9  10
ENDBRANCH   1   9
TORSDOF 10
ENDMDL
MODEL 3
REMARK VINA RESULT:    -3.366      1.196      2.134
REMARK INTER + INTRA:          -6.847
REMARK INTER:                  -5.422
REMARK INTRA:                  -1.425
REMARK UNBOUND:                -1.514
REMARK SMILES CCCCCCCCCCCC(=O)[O-]
REMARK SMILES IDX 7 1 8 2 9 3 10 4 11 5 12 6 13 7 14 8 6 9 5 10 4 11 3 12 2 13
REMARK SMILES IDX 1 14
REMARK H PARENT
REMARK Flexibility Score: inf
ROOT
ATOM      1  C   UNL     1      21.812  15.421 -16.364  1.00  0.00     0.000 C 
ENDROOT
BRANCH   1   2
ATOM      2  C   UNL     1      21.285  13.978 -16.362  1.00  0.00     0.000 C 
BRANCH   2   3
ATOM      3  C   UNL     1      19.819  13.894 -15.887  1.00  0.00     0.000 C 
BRANCH   3   4
ATOM      4  C   UNL     1      18.881  13.213 -16.900  1.00  0.00     0.006 C 
BRANCH   4   5
ATOM      5  C   UNL     1      18.414  11.827 -16.443  1.00  0.00     0.053 C 
BRANCH   5   6
ATOM      6  C   UNL     1      19.351  10.771 -16.937  1.00  0.00     0.041 C 
ATOM      7  O   UNL     1      19.354   9.629 -16.408  1.00  0.00    -0.550 OA
ATOM      8  O   UNL     1      20.188  11.032 -18.015  1.00  0.00    -0.550 OA
ENDBRANCH   5   6
ENDBRANCH   4   5
ENDBRANCH   3   4
ENDBRANCH   2   3
ENDBRANCH   1   2
BRANCH   1   9
ATOM      9  C   UNL     1      20.730  16.402 -16.833  1.00  0.00     0.000 C 
BRANCH   9  10
ATOM     10  C   UNL     1      21.270  17.334 -17.929  1.00  0.00    -0.000 C 
BRANCH  10  11
ATOM     11  C   UNL     1      21.068  16.765 -19.342  1.00  0.00    -0.000 C 
BRANCH  11  12
ATOM     12  C   UNL     1      19.847  15.840 -19.439  1.00  0.00    -0.000 C 
BRANCH  12  13
ATOM     13  C   UNL     1      20.214  14.515 -20.117  1.00  0.00    -0.003 C 
ATOM     14  C   UNL     1      21.714  14.249 -20.032  1.00  0.00     0.004 C 
ENDBRANCH  12  13
ENDBRANCH  11  12
ENDBRANCH  10  11
ENDBRANCH   9  10
ENDBRANCH   1   9
TORSDOF 10
ENDMDL
MODEL 4
REMARK VINA RESULT:    -3.360      1.285      1.977
REMARK INTER + INTRA:          -6.839
REMARK INTER:                  -5.970
REMARK INTRA:                  -0.868
REMARK UNBOUND:                -1.514
REMARK SMILES CCCCCCCCCCCC(=O)[O-]
REMARK SMILES IDX 7 1 8 2 9 3 10 4 11 5 12 6 13 7 14 8 6 9 5 10 4 11 3 12 2 13
REMARK SMILES IDX 1 14
REMARK H PARENT
REMARK Flexibility Score: inf
ROOT
ATOM      1  C   UNL     1      19.875  13.853 -15.677  1.00  0.00     0.000 C 
ENDROOT
BRANCH   1   2
ATOM      2  C   UNL     1      18.937  12.637 -15.706  1.00  0.00     0.000 C 
BRANCH   2   3
ATOM      3  C   UNL     1      18.340  12.396 -17.108  1.00  0.00     0.000 C 
BRANCH   3   4
ATOM      4  C   UNL     1      18.725  11.036 -17.717  1.00  0.00     0.006 C 
BRANCH   4   5
ATOM      5  C   UNL     1      19.186  10.020 -16.665  1.00  0.00     0.053 C 
BRANCH   5   6
ATOM      6  C   UNL     1      20.024   8.956 -17.299  1.00  0.00     0.041 C 
ATOM      7  O   UNL     1      20.720   9.218 -18.314  1.00  0.00    -0.550 OA
ATOM      8  O   UNL     1      20.074   7.685 -16.739  1.00  0.00    -0.550 OA
ENDBRANCH   5   6
ENDBRANCH   4   5
ENDBRANCH   3   4
ENDBRANCH   2   3
ENDBRANCH   1   2
BRANCH   1   9
ATOM      9  C   UNL     1      21.174  13.565 -16.440  1.00  0.00     0.000 C 
BRANCH   9  10
ATOM     10  C   UNL     1      21.933  14.866 -16.744  1.00  0.00    -0.000 C 
BRANCH  10  11
ATOM     11  C   UNL     1      21.146  16.121 -16.334  1.00  0.00    -0.000 C 
BRANCH  11  12
ATOM     12  C   UNL     1      20.906  17.080 -17.509  1.00  0.00    -0.000 C 
BRANCH  12  13
ATOM     13  C   UNL     1      19.779  16.570 -18.413  1.00  0.00    -0.003 C 
ATOM     14  C   UNL     1      20.242  16.453 -19.862  1.00  0.00     0.004 C 
ENDBRANCH  12  13
ENDBRANCH  11  12
ENDBRANCH  10  11
ENDBRANCH   9  10
ENDBRANCH   1   9
TORSDOF 10
ENDMDL
MODEL 5
REMARK VINA RESULT:    -3.313      2.502      3.918
REMARK INTER + INTRA:          -6.763
REMARK INTER:                  -6.117
REMARK INTRA:                  -0.647
REMARK UNBOUND:                -1.514
REMARK SMILES CCCCCCCCCCCC(=O)[O-]
REMARK SMILES IDX 7 1 8 2 9 3 10 4 11 5 12 6 13 7 14 8 6 9 5 10 4 11 3 12 2 13
REMARK SMILES IDX 1 14
REMARK H PARENT
REMARK Flexibility Score: inf
ROOT
ATOM      1  C   UNL     1      18.449  11.950 -17.463  1.00  0.00     0.000 C 
ENDROOT
BRANCH   1   2
ATOM      2  C   UNL     1      18.637  10.486 -17.889  1.00  0.00     0.000 C 
BRANCH   2   3
ATOM      3  C   UNL     1      19.830   9.820 -17.172  1.00  0.00     0.000 C 
BRANCH   3   4
ATOM      4  C   UNL     1      19.445   8.560 -16.376  1.00  0.00     0.006 C 
BRANCH   4   5
ATOM      5  C   UNL     1      18.793   7.480 -17.247  1.00  0.00     0.053 C 
BRANCH   5   6
ATOM      6  C   UNL     1      19.683   6.282 -17.346  1.00  0.00     0.041 C 
ATOM      7  O   UNL     1      20.916   6.423 -17.555  1.00  0.00    -0.550 OA
ATOM      8  O   UNL     1      19.159   5.008 -17.159  1.00  0.00    -0.550 OA
ENDBRANCH   5   6
ENDBRANCH   4   5
ENDBRANCH   3   4
ENDBRANCH   2   3
ENDBRANCH   1   2
BRANCH   1   9
ATOM      9  C   UNL     1      18.981  12.185 -16.044  1.00  0.00     0.000 C 
BRANCH   9  10
ATOM     10  C   UNL     1      19.659  13.558 -15.930  1.00  0.00    -0.000 C 
BRANCH  10  11
ATOM     11  C   UNL     1      21.073  13.572 -16.531  1.00  0.00    -0.000 C 
BRANCH  11  12
ATOM     12  C   UNL     1      21.730  14.959 -16.467  1.00  0.00    -0.000 C 
BRANCH  12  13
ATOM     13  C   UNL     1      20.672  16.062 -16.356  1.00  0.00    -0.003 C 
ATOM     14  C   UNL     1      20.573  16.865 -17.650  1.00  0.00     0.004 C 
ENDBRANCH  12  13
ENDBRANCH  11  12
ENDBRANCH  10  11
ENDBRANCH   9  10
ENDBRANCH   1   9
TORSDOF 10
ENDMDL
MODEL 6
REMARK VINA RESULT:    -3.301      3.544      5.503
REMARK INTER + INTRA:          -6.744
REMARK INTER:                  -5.553
REMARK INTRA:                  -1.191
REMARK UNBOUND:                -1.514
REMARK SMILES CCCCCCCCCCCC(=O)[O-]
REMARK SMILES IDX 7 1 8 2 9 3 10 4 11 5 12 6 13 7 14 8 6 9 5 10 4 11 3 12 2 13
REMARK SMILES IDX 1 14
REMARK H PARENT
REMARK Flexibility Score: inf
ROOT
ATOM      1  C   UNL     1      20.716  15.300 -16.008  1.00  0.00     0.000 C 
ENDROOT
BRANCH   1   2
ATOM      2  C   UNL     1      20.629  16.610 -16.806  1.00  0.00     0.000 C 
BRANCH   2   3
ATOM      3  C   UNL     1      19.682  16.492 -18.019  1.00  0.00     0.000 C 
BRANCH   3   4
ATOM      4  C   UNL     1      20.320  16.941 -19.345  1.00  0.00     0.006 C 
BRANCH   4   5
ATOM      5  C   UNL     1      19.517  16.498 -20.574  1.00  0.00     0.053 C 
BRANCH   5   6
ATOM      6  C   UNL     1      19.009  17.688 -21.323  1.00  0.00     0.041 C 
ATOM      7  O   UNL     1      17.840  18.109 -21.127  1.00  0.00    -0.550 OA
ATOM      8  O   UNL     1      19.845  18.365 -22.204  1.00  0.00    -0.550 OA
ENDBRANCH   5   6
ENDBRANCH   4   5
ENDBRANCH   3   4
ENDBRANCH   2   3
ENDBRANCH   1   2
BRANCH   1   9
ATOM      9  C   UNL     1      21.480  14.227 -16.794  1.00  0.00     0.000 C 
BRANCH   9  10
ATOM     10  C   UNL     1      20.995  12.819 -16.415  1.00  0.00    -0.000 C 
BRANCH  10  11
ATOM     11  C   UNL     1      19.581  12.822 -15.812  1.00  0.00    -0.000 C 
BRANCH  11  12
ATOM     12  C   UNL     1      18.543  12.164 -16.734  1.00  0.00    -0.000 C 
BRANCH  12  13
ATOM     13  C   UNL     1      17.970  13.180 -17.728  1.00  0.00    -0.003 C 
ATOM     14  C   UNL     1      18.596  13.014 -19.110  1.00  0.00     0.004 C 
ENDBRANCH  12  13
ENDBRANCH  11  12
ENDBRANCH  10  11
ENDBRANCH   9  10
ENDBRANCH   1   9
TORSDOF 10
ENDMDL
MODEL 7
REMARK VINA RESULT:    -3.281      1.475      2.710
REMARK INTER + INTRA:          -6.714
REMARK INTER:                  -5.785
REMARK INTRA:                  -0.928
REMARK UNBOUND:                -1.514
REMARK SMILES CCCCCCCCCCCC(=O)[O-]
REMARK SMILES IDX 7 1 8 2 9 3 10 4 11 5 12 6 13 7 14 8 6 9 5 10 4 11 3 12 2 13
REMARK SMILES IDX 1 14
REMARK H PARENT
REMARK Flexibility Score: inf
ROOT
ATOM      1  C   UNL     1      20.928  16.138 -16.349  1.00  0.00     0.000 C 
ENDROOT
BRANCH   1   2
ATOM      2  C   UNL     1      21.940  15.001 -16.558  1.00  0.00     0.000 C 
BRANCH   2   3
ATOM      3  C   UNL     1      21.291  13.609 -16.409  1.00  0.00     0.000 C 
BRANCH   3   4
ATOM      4  C   UNL     1      19.821  13.659 -15.956  1.00  0.00     0.006 C 
BRANCH   4   5
ATOM      5  C   UNL     1      18.843  13.232 -17.056  1.00  0.00     0.053 C 
BRANCH   5   6
ATOM      6  C   UNL     1      18.437  11.805 -16.868  1.00  0.00     0.041 C 
ATOM      7  O   UNL     1      17.360  11.524 -16.281  1.00  0.00    -0.550 OA
ATOM      8  O   UNL     1      19.225  10.783 -17.386  1.00  0.00    -0.550 OA
ENDBRANCH   5   6
ENDBRANCH   4   5
ENDBRANCH   3   4
ENDBRANCH   2   3
ENDBRANCH   1   2
BRANCH   1   9
ATOM      9  C   UNL     1      20.890  17.072 -17.564  1.00  0.00     0.000 C 
BRANCH   9  10
ATOM     10  C   UNL     1      19.822  16.620 -18.572  1.00  0.00    -0.000 C 
BRANCH  10  11
ATOM     11  C   UNL     1      20.427  15.943 -19.812  1.00  0.00    -0.000 C 
BRANCH  11  12
ATOM     12  C   UNL     1      19.822  16.461 -21.125  1.00  0.00    -0.000 C 
BRANCH  12  13
ATOM     13  C   UNL     1      18.849  17.616 -20.862  1.00  0.00    -0.003 C 
ATOM     14  C   UNL     1      19.043  18.742 -21.873  1.00  0.00     0.004 C 
ENDBRANCH  12  13
ENDBRANCH  11  12
ENDBRANCH  10  11
ENDBRANCH   9  10
ENDBRANCH   1   9
TORSDOF 10
ENDMDL
MODEL 8
REMARK VINA RESULT:    -3.281      2.950      6.360
REMARK INTER + INTRA:          -6.712
REMARK INTER:                  -5.561
REMARK INTRA:                  -1.152
REMARK UNBOUND:                -1.514
REMARK SMILES CCCCCCCCCCCC(=O)[O-]
REMARK SMILES IDX 7 1 8 2 9 3 10 4 11 5 12 6 13 7 14 8 6 9 5 10 4 11 3 12 2 13
REMARK SMILES IDX 1 14
REMARK H PARENT
REMARK Flexibility Score: inf
ROOT
ATOM      1  C   UNL     1      18.617  11.328 -18.826  1.00  0.00     0.000 C 
ENDROOT
BRANCH   1   2
ATOM      2  C   UNL     1      17.528  11.800 -17.850  1.00  0.00     0.000 C 
BRANCH   2   3
ATOM      3  C   UNL     1      17.958  11.641 -16.377  1.00  0.00     0.000 C 
BRANCH   3   4
ATOM      4  C   UNL     1      19.412  12.072 -16.109  1.00  0.00     0.006 C 
BRANCH   4   5
ATOM      5  C   UNL     1      19.511  13.436 -15.416  1.00  0.00     0.053 C 
BRANCH   5   6
ATOM      6  C   UNL     1      20.098  14.451 -16.345  1.00  0.00     0.041 C 
ATOM      7  O   UNL     1      21.251  14.909 -16.136  1.00  0.00    -0.550 OA
ATOM      8  O   UNL     1      19.391  14.856 -17.470  1.00  0.00    -0.550 OA
ENDBRANCH   5   6
ENDBRANCH   4   5
ENDBRANCH   3   4
ENDBRANCH   2   3
ENDBRANCH   1   2
BRANCH   1   9
ATOM      9  C   UNL     1      18.519   9.818 -19.074  1.00  0.00     0.000 C 
BRANCH   9  10
ATOM     10  C   UNL     1      19.903   9.157 -18.996  1.00  0.00    -0.000 C 
BRANCH  10  11
ATOM     11  C   UNL     1      20.359   8.906 -17.550  1.00  0.00    -0.000 C 
BRANCH  11  12
ATOM     12  C   UNL     1      19.381   8.021 -16.764  1.00  0.00    -0.000 C 
BRANCH  12  13
ATOM     13  C   UNL     1      19.344   6.601 -17.337  1.00  0.00    -0.003 C 
ATOM     14  C   UNL     1      17.913   6.159 -17.627  1.00  0.00     0.004 C 
ENDBRANCH  12  13
ENDBRANCH  11  12
ENDBRANCH  10  11
ENDBRANCH   9  10
ENDBRANCH   1   9
TORSDOF 10
ENDMDL
MODEL 9
REMARK VINA RESULT:    -3.262      1.774      3.144
REMARK INTER + INTRA:          -6.683
REMARK INTER:                  -5.439
REMARK INTRA:                  -1.245
REMARK UNBOUND:                -1.514
REMARK SMILES CCCCCCCCCCCC(=O)[O-]
REMARK SMILES IDX 7 1 8 2 9 3 10 4 11 5 12 6 13 7 14 8 6 9 5 10 4 11 3 12 2 13
REMARK SMILES IDX 1 14
REMARK H PARENT
REMARK Flexibility Score: inf
ROOT
ATOM      1  C   UNL     1      19.371  13.307 -15.626  1.00  0.00     0.000 C 
ENDROOT
BRANCH   1   2
ATOM      2  C   UNL     1      18.705  13.255 -17.010  1.00  0.00     0.000 C 
BRANCH   2   3
ATOM      3  C   UNL     1      18.087  11.873 -17.307  1.00  0.00     0.000 C 
BRANCH   3   4
ATOM      4  C   UNL     1      18.944  10.695 -16.811  1.00  0.00     0.006 C 
BRANCH   4   5
ATOM      5  C   UNL     1      19.218   9.655 -17.903  1.00  0.00     0.053 C 
BRANCH   5   6
ATOM      6  C   UNL     1      20.294   8.712 -17.469  1.00  0.00     0.041 C 
ATOM      7  O   UNL     1      21.408   8.708 -18.053  1.00  0.00    -0.550 OA
ATOM      8  O   UNL     1      20.083   7.868 -16.384  1.00  0.00    -0.550 OA
ENDBRANCH   5   6
ENDBRANCH   4   5
ENDBRANCH   3   4
ENDBRANCH   2   3
ENDBRANCH   1   2
BRANCH   1   9
ATOM      9  C   UNL     1      20.091  14.644 -15.411  1.00  0.00     0.000 C 
BRANCH   9  10
ATOM     10  C   UNL     1      20.658  15.182 -16.734  1.00  0.00    -0.000 C 
BRANCH  10  11
ATOM     11  C   UNL     1      22.192  15.284 -16.723  1.00  0.00    -0.000 C 
BRANCH  11  12
ATOM     12  C   UNL     1      22.854  14.352 -17.748  1.00  0.00    -0.000 C 
BRANCH  12  13
ATOM     13  C   UNL     1      22.539  12.884 -17.439  1.00  0.00    -0.003 C 
ATOM     14  C   UNL     1      21.918  12.186 -18.645  1.00  0.00     0.004 C 
ENDBRANCH  12  13
ENDBRANCH  11  12
ENDBRANCH  10  11
ENDBRANCH   9  10
ENDBRANCH   1   9
TORSDOF 10
ENDMDL
