MODEL 1
REMARK VINA RESULT:    -5.865      0.000      0.000
REMARK INTER + INTRA:          -8.757
REMARK INTER:                  -8.266
REMARK INTRA:                  -0.491
REMARK UNBOUND:                -0.491
REMARK SMILES CC(=O)OCC[C@@H](C)CCC=C(C)C
REMARK SMILES IDX 8 1 7 2 9 3 10 4 11 5 12 6 13 7 14 8 6 9 5 10 4 11 2 12 3 13
REMARK SMILES IDX 1 14
REMARK H PARENT
REMARK Flexibility Score: inf
ROOT
ATOM      1  C   UNL     1      26.237   8.829  32.087  1.00  0.00     0.008 C 
ATOM      2  C   UNL     1      27.161   7.776  32.724  1.00  0.00    -0.011 C 
ENDROOT
BRANCH   2   3
ATOM      3  C   UNL     1      26.979   6.386  32.066  1.00  0.00     0.007 C 
BRANCH   3   4
ATOM      4  C   UNL     1      27.993   5.328  32.533  1.00  0.00     0.027 C 
BRANCH   4   5
ATOM      5  C   UNL     1      28.317   4.373  31.410  1.00  0.00    -0.028 C 
ATOM      6  C   UNL     1      29.565   4.127  30.954  1.00  0.00    -0.080 C 
ATOM      7  C   UNL     1      29.733   3.177  29.797  1.00  0.00     0.039 C 
ATOM      8  C   UNL     1      30.786   4.760  31.581  1.00  0.00     0.039 C 
ENDBRANCH   4   5
ENDBRANCH   3   4
ENDBRANCH   2   3
BRANCH   2   9
ATOM      9  C   UNL     1      28.641   8.224  32.719  1.00  0.00     0.045 C 
BRANCH   9  10
ATOM     10  C   UNL     1      29.067   8.868  34.041  1.00  0.00     0.233 C 
BRANCH  10  11
ATOM     11  O   UNL     1      30.335   8.349  34.432  1.00  0.00    -0.466 OA
BRANCH  11  12
ATOM     12  C   UNL     1      31.125   8.952  35.414  1.00  0.00     0.302 C 
ATOM     13  O   UNL     1      30.846  10.101  35.852  1.00  0.00    -0.253 OA
ATOM     14  C   UNL     1      32.339   8.247  35.915  1.00  0.00     0.139 C 
ENDBRANCH  11  12
ENDBRANCH  10  11
ENDBRANCH   9  10
ENDBRANCH   2   9
TORSDOF 7
ENDMDL
MODEL 2
REMARK VINA RESULT:    -5.856      4.020      7.188
REMARK INTER + INTRA:          -8.744
REMARK INTER:                  -8.020
REMARK INTRA:                  -0.724
REMARK UNBOUND:                -0.491
REMARK SMILES CC(=O)OCC[C@@H](C)CCC=C(C)C
REMARK SMILES IDX 8 1 7 2 9 3 10 4 11 5 12 6 13 7 14 8 6 9 5 10 4 11 2 12 3 13
REMARK SMILES IDX 1 14
REMARK H PARENT
REMARK Flexibility Score: inf
ROOT
ATOM      1  C   UNL     1      30.619   5.308  31.647  1.00  0.00     0.008 C 
ATOM      2  C   UNL     1      29.702   4.110  31.344  1.00  0.00    -0.011 C 
ENDROOT
BRANCH   2   3
ATOM      3  C   UNL     1      28.206   4.499  31.440  1.00  0.00     0.007 C 
BRANCH   3   4
ATOM      4  C   UNL     1      27.850   5.343  32.676  1.00  0.00     0.027 C 
BRANCH   4   5
ATOM      5  C   UNL     1      27.027   6.543  32.278  1.00  0.00    -0.028 C 
ATOM      6  C   UNL     1      27.362   7.823  32.552  1.00  0.00    -0.080 C 
ATOM      7  C   UNL     1      26.420   8.920  32.126  1.00  0.00     0.039 C 
ATOM      8  C   UNL     1      28.654   8.181  33.251  1.00  0.00     0.039 C 
ENDBRANCH   4   5
ENDBRANCH   3   4
ENDBRANCH   2   3
BRANCH   2   9
ATOM      9  C   UNL     1      30.038   3.451  29.985  1.00  0.00     0.045 C 
BRANCH   9  10
ATOM     10  C   UNL     1      29.158   2.235  29.686  1.00  0.00     0.233 C 
BRANCH  10  11
ATOM     11  O   UNL     1      28.412   2.473  28.496  1.00  0.00    -0.466 OA
BRANCH  11  12
ATOM     12  C   UNL     1      27.099   2.025  28.327  1.00  0.00     0.302 C 
ATOM     13  O   UNL     1      26.832   1.104  27.509  1.00  0.00    -0.253 OA
ATOM     14  C   UNL     1      25.997   2.678  29.089  1.00  0.00     0.139 C 
ENDBRANCH  11  12
ENDBRANCH  10  11
ENDBRANCH   9  10
ENDBRANCH   2   9
TORSDOF 7
ENDMDL
MODEL 3
REMARK VINA RESULT:    -5.794      3.910      6.882
REMARK INTER + INTRA:          -8.655
REMARK INTER:                  -8.110
REMARK INTRA:                  -0.546
REMARK UNBOUND:                -0.491
REMARK SMILES CC(=O)OCC[C@@H](C)CCC=C(C)C
REMARK SMILES IDX 8 1 7 2 9 3 10 4 11 5 12 6 13 7 14 8 6 9 5 10 4 11 2 12 3 13
REMARK SMILES IDX 1 14
REMARK H PARENT
REMARK Flexibility Score: inf
ROOT
ATOM      1  C   UNL     1      30.466   5.588  31.719  1.00  0.00     0.008 C 
ATOM      2  C   UNL     1      29.486   4.408  31.850  1.00  0.00    -0.011 C 
ENDROOT
BRANCH   2   3
ATOM      3  C   UNL     1      28.014   4.874  31.725  1.00  0.00     0.007 C 
BRANCH   3   4
ATOM      4  C   UNL     1      27.591   5.921  32.768  1.00  0.00     0.027 C 
BRANCH   4   5
ATOM      5  C   UNL     1      26.913   7.092  32.099  1.00  0.00    -0.028 C 
ATOM      6  C   UNL     1      27.134   8.386  32.418  1.00  0.00    -0.080 C 
ATOM      7  C   UNL     1      26.352   9.449  31.689  1.00  0.00     0.039 C 
ATOM      8  C   UNL     1      28.148   8.792  33.463  1.00  0.00     0.039 C 
ENDBRANCH   4   5
ENDBRANCH   3   4
ENDBRANCH   2   3
BRANCH   2   9
ATOM      9  C   UNL     1      29.814   3.268  30.858  1.00  0.00     0.045 C 
BRANCH   9  10
ATOM     10  C   UNL     1      30.755   3.715  29.736  1.00  0.00     0.233 C 
BRANCH  10  11
ATOM     11  O   UNL     1      30.719   2.759  28.681  1.00  0.00    -0.466 OA
BRANCH  11  12
ATOM     12  C   UNL     1      29.524   2.303  28.117  1.00  0.00     0.302 C 
ATOM     13  O   UNL     1      29.149   1.111  28.278  1.00  0.00    -0.253 OA
ATOM     14  C   UNL     1      28.710   3.226  27.276  1.00  0.00     0.139 C 
ENDBRANCH  11  12
ENDBRANCH  10  11
ENDBRANCH   9  10
ENDBRANCH   2   9
TORSDOF 7
ENDMDL
MODEL 4
REMARK VINA RESULT:    -5.701      2.213      2.777
REMARK INTER + INTRA:          -8.525
REMARK INTER:                  -8.199
REMARK INTRA:                  -0.326
REMARK UNBOUND:                -0.491
REMARK SMILES CC(=O)OCC[C@@H](C)CCC=C(C)C
REMARK SMILES IDX 8 1 7 2 9 3 10 4 11 5 12 6 13 7 14 8 6 9 5 10 4 11 2 12 3 13
REMARK SMILES IDX 1 14
REMARK H PARENT
REMARK Flexibility Score: inf
ROOT
ATOM      1  C   UNL     1      26.867   9.910  31.971  1.00  0.00     0.008 C 
ATOM      2  C   UNL     1      27.149   8.922  33.118  1.00  0.00    -0.011 C 
ENDROOT
BRANCH   2   3
ATOM      3  C   UNL     1      26.845   7.463  32.700  1.00  0.00     0.007 C 
BRANCH   3   4
ATOM      4  C   UNL     1      28.087   6.558  32.616  1.00  0.00     0.027 C 
BRANCH   4   5
ATOM      5  C   UNL     1      27.726   5.217  32.023  1.00  0.00    -0.028 C 
ATOM      6  C   UNL     1      28.615   4.365  31.469  1.00  0.00    -0.080 C 
ATOM      7  C   UNL     1      28.102   3.076  30.880  1.00  0.00     0.039 C 
ATOM      8  C   UNL     1      30.097   4.659  31.440  1.00  0.00     0.039 C 
ENDBRANCH   4   5
ENDBRANCH   3   4
ENDBRANCH   2   3
BRANCH   2   9
ATOM      9  C   UNL     1      28.584   9.074  33.675  1.00  0.00     0.045 C 
BRANCH   9  10
ATOM     10  C   UNL     1      28.616   9.755  35.045  1.00  0.00     0.233 C 
BRANCH  10  11
ATOM     11  O   UNL     1      27.948  11.011  34.964  1.00  0.00    -0.466 OA
BRANCH  11  12
ATOM     12  C   UNL     1      28.054  11.986  35.959  1.00  0.00     0.302 C 
ATOM     13  O   UNL     1      28.799  11.808  36.960  1.00  0.00    -0.253 OA
ATOM     14  C   UNL     1      27.239  13.231  35.858  1.00  0.00     0.139 C 
ENDBRANCH  11  12
ENDBRANCH  10  11
ENDBRANCH   9  10
ENDBRANCH   2   9
TORSDOF 7
ENDMDL
MODEL 5
REMARK VINA RESULT:    -5.568      2.913      6.527
REMARK INTER + INTRA:          -8.338
REMARK INTER:                  -8.001
REMARK INTRA:                  -0.337
REMARK UNBOUND:                -0.491
REMARK SMILES CC(=O)OCC[C@@H](C)CCC=C(C)C
REMARK SMILES IDX 8 1 7 2 9 3 10 4 11 5 12 6 13 7 14 8 6 9 5 10 4 11 2 12 3 13
REMARK SMILES IDX 1 14
REMARK H PARENT
REMARK Flexibility Score: inf
ROOT
ATOM      1  C   UNL     1      26.552   8.990  32.117  1.00  0.00     0.008 C 
ATOM      2  C   UNL     1      27.692   8.102  32.647  1.00  0.00    -0.011 C 
ENDROOT
BRANCH   2   3
ATOM      3  C   UNL     1      28.495   8.812  33.765  1.00  0.00     0.007 C 
BRANCH   3   4
ATOM      4  C   UNL     1      27.880  10.140  34.240  1.00  0.00     0.027 C 
BRANCH   4   5
ATOM      5  C   UNL     1      28.532  10.597  35.522  1.00  0.00    -0.028 C 
ATOM      6  C   UNL     1      28.349  11.814  36.079  1.00  0.00    -0.080 C 
ATOM      7  C   UNL     1      29.099  12.146  37.343  1.00  0.00     0.039 C 
ATOM      8  C   UNL     1      27.406  12.834  35.483  1.00  0.00     0.039 C 
ENDBRANCH   4   5
ENDBRANCH   3   4
ENDBRANCH   2   3
BRANCH   2   9
ATOM      9  C   UNL     1      27.182   6.714  33.100  1.00  0.00     0.045 C 
BRANCH   9  10
ATOM     10  C   UNL     1      27.516   5.607  32.097  1.00  0.00     0.233 C 
BRANCH  10  11
ATOM     11  O   UNL     1      28.928   5.542  31.917  1.00  0.00    -0.466 OA
BRANCH  11  12
ATOM     12  C   UNL     1      29.563   4.443  31.334  1.00  0.00     0.302 C 
ATOM     13  O   UNL     1      28.927   3.653  30.585  1.00  0.00    -0.253 OA
ATOM     14  C   UNL     1      30.997   4.175  31.642  1.00  0.00     0.139 C 
ENDBRANCH  11  12
ENDBRANCH  10  11
ENDBRANCH   9  10
ENDBRANCH   2   9
TORSDOF 7
ENDMDL
MODEL 6
REMARK VINA RESULT:    -5.480      3.599      6.547
REMARK INTER + INTRA:          -8.214
REMARK INTER:                  -7.769
REMARK INTRA:                  -0.445
REMARK UNBOUND:                -0.491
REMARK SMILES CC(=O)OCC[C@@H](C)CCC=C(C)C
REMARK SMILES IDX 8 1 7 2 9 3 10 4 11 5 12 6 13 7 14 8 6 9 5 10 4 11 2 12 3 13
REMARK SMILES IDX 1 14
REMARK H PARENT
REMARK Flexibility Score: inf
ROOT
ATOM      1  C   UNL     1      28.005   4.251  32.069  1.00  0.00     0.008 C 
ATOM      2  C   UNL     1      28.943   5.401  31.661  1.00  0.00    -0.011 C 
ENDROOT
BRANCH   2   3
ATOM      3  C   UNL     1      28.725   6.655  32.542  1.00  0.00     0.007 C 
BRANCH   3   4
ATOM      4  C   UNL     1      27.251   6.946  32.874  1.00  0.00     0.027 C 
BRANCH   4   5
ATOM      5  C   UNL     1      26.723   8.061  32.005  1.00  0.00    -0.028 C 
ATOM      6  C   UNL     1      26.889   9.376  32.266  1.00  0.00    -0.080 C 
ATOM      7  C   UNL     1      26.270  10.378  31.326  1.00  0.00     0.039 C 
ATOM      8  C   UNL     1      27.688   9.863  33.453  1.00  0.00     0.039 C 
ENDBRANCH   4   5
ENDBRANCH   3   4
ENDBRANCH   2   3
BRANCH   2   9
ATOM      9  C   UNL     1      30.426   4.962  31.645  1.00  0.00     0.045 C 
BRANCH   9  10
ATOM     10  C   UNL     1      30.635   3.614  30.949  1.00  0.00     0.233 C 
BRANCH  10  11
ATOM     11  O   UNL     1      30.271   3.730  29.577  1.00  0.00    -0.466 OA
BRANCH  11  12
ATOM     12  C   UNL     1      29.386   2.845  28.954  1.00  0.00     0.302 C 
ATOM     13  O   UNL     1      28.943   1.838  29.569  1.00  0.00    -0.253 OA
ATOM     14  C   UNL     1      29.002   3.071  27.532  1.00  0.00     0.139 C 
ENDBRANCH  11  12
ENDBRANCH  10  11
ENDBRANCH   9  10
ENDBRANCH   2   9
TORSDOF 7
ENDMDL
MODEL 7
REMARK VINA RESULT:    -5.344      2.208      4.847
REMARK INTER + INTRA:          -8.022
REMARK INTER:                  -7.691
REMARK INTRA:                  -0.330
REMARK UNBOUND:                -0.491
REMARK SMILES CC(=O)OCC[C@@H](C)CCC=C(C)C
REMARK SMILES IDX 8 1 7 2 9 3 10 4 11 5 12 6 13 7 14 8 6 9 5 10 4 11 2 12 3 13
REMARK SMILES IDX 1 14
REMARK H PARENT
REMARK Flexibility Score: inf
ROOT
ATOM      1  C   UNL     1      28.503   3.017  29.711  1.00  0.00     0.008 C 
ATOM      2  C   UNL     1      28.846   4.120  30.728  1.00  0.00    -0.011 C 
ENDROOT
BRANCH   2   3
ATOM      3  C   UNL     1      27.702   4.329  31.750  1.00  0.00     0.007 C 
BRANCH   3   4
ATOM      4  C   UNL     1      27.877   5.562  32.653  1.00  0.00     0.027 C 
BRANCH   4   5
ATOM      5  C   UNL     1      27.031   6.708  32.154  1.00  0.00    -0.028 C 
ATOM      6  C   UNL     1      27.222   8.001  32.494  1.00  0.00    -0.080 C 
ATOM      7  C   UNL     1      26.272   9.036  31.949  1.00  0.00     0.039 C 
ATOM      8  C   UNL     1      28.365   8.436  33.383  1.00  0.00     0.039 C 
ENDBRANCH   4   5
ENDBRANCH   3   4
ENDBRANCH   2   3
BRANCH   2   9
ATOM      9  C   UNL     1      30.201   3.861  31.429  1.00  0.00     0.045 C 
BRANCH   9  10
ATOM     10  C   UNL     1      31.390   3.972  30.472  1.00  0.00     0.233 C 
BRANCH  10  11
ATOM     11  O   UNL     1      32.069   5.203  30.703  1.00  0.00    -0.466 OA
BRANCH  11  12
ATOM     12  C   UNL     1      31.817   6.004  31.820  1.00  0.00     0.302 C 
ATOM     13  O   UNL     1      30.902   6.871  31.798  1.00  0.00    -0.253 OA
ATOM     14  C   UNL     1      32.672   5.864  33.033  1.00  0.00     0.139 C 
ENDBRANCH  11  12
ENDBRANCH  10  11
ENDBRANCH   9  10
ENDBRANCH   2   9
TORSDOF 7
ENDMDL
MODEL 8
REMARK VINA RESULT:    -5.197      2.732      4.152
REMARK INTER + INTRA:          -7.815
REMARK INTER:                  -7.029
REMARK INTRA:                  -0.786
REMARK UNBOUND:                -0.491
REMARK SMILES CC(=O)OCC[C@@H](C)CCC=C(C)C
REMARK SMILES IDX 8 1 7 2 9 3 10 4 11 5 12 6 13 7 14 8 6 9 5 10 4 11 2 12 3 13
REMARK SMILES IDX 1 14
REMARK H PARENT
REMARK Flexibility Score: inf
ROOT
ATOM      1  C   UNL     1      30.104   6.749  32.461  1.00  0.00     0.008 C 
ATOM      2  C   UNL     1      29.451   5.614  31.653  1.00  0.00    -0.011 C 
ENDROOT
BRANCH   2   3
ATOM      3  C   UNL     1      30.335   4.343  31.638  1.00  0.00     0.007 C 
BRANCH   3   4
ATOM      4  C   UNL     1      29.654   3.105  31.029  1.00  0.00     0.027 C 
BRANCH   4   5
ATOM      5  C   UNL     1      29.671   3.179  29.522  1.00  0.00    -0.028 C 
ATOM      6  C   UNL     1      28.584   3.008  28.738  1.00  0.00    -0.080 C 
ATOM      7  C   UNL     1      28.761   3.070  27.242  1.00  0.00     0.039 C 
ATOM      8  C   UNL     1      27.207   2.778  29.316  1.00  0.00     0.039 C 
ENDBRANCH   4   5
ENDBRANCH   3   4
ENDBRANCH   2   3
BRANCH   2   9
ATOM      9  C   UNL     1      28.014   5.308  32.139  1.00  0.00     0.045 C 
BRANCH   9  10
ATOM     10  C   UNL     1      27.382   6.485  32.887  1.00  0.00     0.233 C 
BRANCH  10  11
ATOM     11  O   UNL     1      26.775   7.369  31.949  1.00  0.00    -0.466 OA
BRANCH  11  12
ATOM     12  C   UNL     1      26.840   8.759  32.074  1.00  0.00     0.302 C 
ATOM     13  O   UNL     1      26.317   9.510  31.207  1.00  0.00    -0.253 OA
ATOM     14  C   UNL     1      27.579   9.360  33.221  1.00  0.00     0.139 C 
ENDBRANCH  11  12
ENDBRANCH  10  11
ENDBRANCH   9  10
ENDBRANCH   2   9
TORSDOF 7
ENDMDL
MODEL 9
REMARK VINA RESULT:    -5.053      2.558      4.853
REMARK INTER + INTRA:          -7.612
REMARK INTER:                  -6.890
REMARK INTRA:                  -0.722
REMARK UNBOUND:                -0.491
REMARK SMILES CC(=O)OCC[C@@H](C)CCC=C(C)C
REMARK SMILES IDX 8 1 7 2 9 3 10 4 11 5 12 6 13 7 14 8 6 9 5 10 4 11 2 12 3 13
REMARK SMILES IDX 1 14
REMARK H PARENT
REMARK Flexibility Score: inf
ROOT
ATOM      1  C   UNL     1      31.312   4.065  30.120  1.00  0.00     0.008 C 
ATOM      2  C   UNL     1      29.915   3.760  30.689  1.00  0.00    -0.011 C 
ENDROOT
BRANCH   2   3
ATOM      3  C   UNL     1      29.826   2.314  31.235  1.00  0.00     0.007 C 
BRANCH   3   4
ATOM      4  C   UNL     1      29.063   1.339  30.322  1.00  0.00     0.027 C 
BRANCH   4   5
ATOM      5  C   UNL     1      27.640   1.801  30.125  1.00  0.00    -0.028 C 
ATOM      6  C   UNL     1      27.177   2.382  28.997  1.00  0.00    -0.080 C 
ATOM      7  C   UNL     1      25.738   2.830  28.958  1.00  0.00     0.039 C 
ATOM      8  C   UNL     1      28.050   2.577  27.778  1.00  0.00     0.039 C 
ENDBRANCH   4   5
ENDBRANCH   3   4
ENDBRANCH   2   3
BRANCH   2   9
ATOM      9  C   UNL     1      29.478   4.801  31.746  1.00  0.00     0.045 C 
BRANCH   9  10
ATOM     10  C   UNL     1      27.957   4.940  31.845  1.00  0.00     0.233 C 
BRANCH  10  11
ATOM     11  O   UNL     1      27.632   5.839  32.900  1.00  0.00    -0.466 OA
BRANCH  11  12
ATOM     12  C   UNL     1      27.691   7.228  32.752  1.00  0.00     0.302 C 
ATOM     13  O   UNL     1      28.682   7.881  33.177  1.00  0.00    -0.253 OA
ATOM     14  C   UNL     1      26.545   7.948  32.127  1.00  0.00     0.139 C 
ENDBRANCH  11  12
ENDBRANCH  10  11
ENDBRANCH   9  10
ENDBRANCH   2   9
TORSDOF 7
ENDMDL
