MODEL 1
REMARK VINA RESULT:    -3.291      0.000      0.000
REMARK INTER + INTRA:          -3.388
REMARK INTER:                  -3.388
REMARK INTRA:                   0.000
REMARK UNBOUND:                 0.000
REMARK SMILES C[C@@H]1CC[C@@H]2C(C)(C)[C@H]3C[C@@]12CC[C@@]3(C)O
REMARK SMILES IDX 1 1 2 2 3 3 4 4 5 5 11 6 12 7 13 8 14 9 9 10 10 11 6 12 7 13
REMARK SMILES IDX 8 14 15 15 16 16
REMARK H PARENT 16 17
REMARK Flexibility Score: inf
ROOT
ATOM      1  C   UNL     1     117.076 121.660 105.962  1.00  0.00     0.008 C 
ATOM      2  C   UNL     1     115.875 122.617 105.932  1.00  0.00    -0.008 C 
ATOM      3  C   UNL     1     116.277 124.112 106.144  1.00  0.00     0.004 C 
ATOM      4  C   UNL     1     115.121 124.780 106.941  1.00  0.00     0.005 C 
ATOM      5  C   UNL     1     114.045 123.717 106.863  1.00  0.00     0.001 C 
ATOM      6  C   UNL     1     114.797 122.404 107.020  1.00  0.00    -0.023 C 
ATOM      7  C   UNL     1     115.471 122.118 108.420  1.00  0.00     0.010 C 
ATOM      8  C   UNL     1     114.543 121.972 109.650  1.00  0.00     0.036 C 
ATOM      9  C   UNL     1     113.073 121.557 109.337  1.00  0.00     0.065 C 
ATOM     10  C   UNL     1     112.652 122.022 107.902  1.00  0.00     0.027 C 
ATOM     11  C   UNL     1     113.648 121.434 106.854  1.00  0.00     0.014 C 
ATOM     12  C   UNL     1     112.717 123.592 107.647  1.00  0.00    -0.026 C 
ATOM     13  C   UNL     1     111.512 123.974 106.743  1.00  0.00     0.012 C 
ATOM     14  C   UNL     1     112.666 124.563 108.852  1.00  0.00     0.012 C 
ATOM     15  C   UNL     1     112.918 120.020 109.480  1.00  0.00     0.042 C 
ENDROOT
BRANCH   9  16
ATOM     16  O   UNL     1     112.195 122.145 110.270  1.00  0.00    -0.390 OA
ATOM     17  H   UNL     1     111.931 123.040 109.930  1.00  0.00     0.211 HD
ENDBRANCH   9  16
TORSDOF 1
ENDMDL
MODEL 2
REMARK VINA RESULT:    -3.287      7.770     10.268
REMARK INTER + INTRA:          -3.383
REMARK INTER:                  -3.383
REMARK INTRA:                   0.000
REMARK UNBOUND:                 0.000
REMARK SMILES C[C@@H]1CC[C@@H]2C(C)(C)[C@H]3C[C@@]12CC[C@@]3(C)O
REMARK SMILES IDX 1 1 2 2 3 3 4 4 5 5 11 6 12 7 13 8 14 9 9 10 10 11 6 12 7 13
REMARK SMILES IDX 8 14 15 15 16 16
REMARK H PARENT 16 17
REMARK Flexibility Score: inf
ROOT
ATOM      1  C   UNL     1     110.353 116.995 105.835  1.00  0.00     0.008 C 
ATOM      2  C   UNL     1     109.397 115.793 105.824  1.00  0.00    -0.008 C 
ATOM      3  C   UNL     1     107.900 116.200 106.012  1.00  0.00     0.004 C 
ATOM      4  C   UNL     1     107.225 115.063 106.830  1.00  0.00     0.005 C 
ATOM      5  C   UNL     1     108.288 113.986 106.789  1.00  0.00     0.001 C 
ATOM      6  C   UNL     1     109.600 114.743 106.940  1.00  0.00    -0.023 C 
ATOM      7  C   UNL     1     109.872 115.451 108.326  1.00  0.00     0.010 C 
ATOM      8  C   UNL     1     110.006 114.553 109.580  1.00  0.00     0.036 C 
ATOM      9  C   UNL     1     110.424 113.075 109.307  1.00  0.00     0.065 C 
ATOM     10  C   UNL     1     109.974 112.619 107.878  1.00  0.00     0.027 C 
ATOM     11  C   UNL     1     110.572 113.590 106.812  1.00  0.00     0.014 C 
ATOM     12  C   UNL     1     108.406 112.678 107.606  1.00  0.00    -0.026 C 
ATOM     13  C   UNL     1     108.033 111.451 106.727  1.00  0.00     0.012 C 
ATOM     14  C   UNL     1     107.423 112.656 108.802  1.00  0.00     0.012 C 
ATOM     15  C   UNL     1     111.960 112.925 109.469  1.00  0.00     0.042 C 
ENDROOT
BRANCH   9  16
ATOM     16  O   UNL     1     109.827 112.220 110.255  1.00  0.00    -0.390 OA
ATOM     17  H   UNL     1     108.935 111.949 109.914  1.00  0.00     0.211 HD
ENDBRANCH   9  16
TORSDOF 1
ENDMDL
MODEL 3
REMARK VINA RESULT:    -3.283      7.733     10.188
REMARK INTER + INTRA:          -3.379
REMARK INTER:                  -3.379
REMARK INTRA:                   0.000
REMARK UNBOUND:                 0.000
REMARK SMILES C[C@@H]1CC[C@@H]2C(C)(C)[C@H]3C[C@@]12CC[C@@]3(C)O
REMARK SMILES IDX 1 1 2 2 3 3 4 4 5 5 11 6 12 7 13 8 14 9 9 10 10 11 6 12 7 13
REMARK SMILES IDX 8 14 15 15 16 16
REMARK H PARENT 16 17
REMARK Flexibility Score: inf
ROOT
ATOM      1  C   UNL     1     121.637 114.953 105.954  1.00  0.00     0.008 C 
ATOM      2  C   UNL     1     122.575 116.169 105.915  1.00  0.00    -0.008 C 
ATOM      3  C   UNL     1     124.079 115.787 106.096  1.00  0.00     0.004 C 
ATOM      4  C   UNL     1     124.745 116.948 106.889  1.00  0.00     0.005 C 
ATOM      5  C   UNL     1     123.665 118.008 106.839  1.00  0.00     0.001 C 
ATOM      6  C   UNL     1     122.366 117.235 107.015  1.00  0.00    -0.023 C 
ATOM      7  C   UNL     1     122.117 116.547 108.415  1.00  0.00     0.010 C 
ATOM      8  C   UNL     1     121.980 117.464 109.654  1.00  0.00     0.036 C 
ATOM      9  C   UNL     1     121.538 118.930 109.360  1.00  0.00     0.065 C 
ATOM     10  C   UNL     1     121.969 119.368 107.920  1.00  0.00     0.027 C 
ATOM     11  C   UNL     1     121.376 118.371 106.875  1.00  0.00     0.014 C 
ATOM     12  C   UNL     1     123.534 119.328 107.635  1.00  0.00    -0.026 C 
ATOM     13  C   UNL     1     123.882 120.546 106.732  1.00  0.00     0.012 C 
ATOM     14  C   UNL     1     124.528 119.385 108.821  1.00  0.00     0.012 C 
ATOM     15  C   UNL     1     120.001 119.061 109.533  1.00  0.00     0.042 C 
ENDROOT
BRANCH   9  16
ATOM     16  O   UNL     1     122.130 119.810 110.288  1.00  0.00    -0.390 OA
ATOM     17  H   UNL     1     121.434 120.442 110.608  1.00  0.00     0.211 HD
ENDBRANCH   9  16
TORSDOF 1
ENDMDL
MODEL 4
REMARK VINA RESULT:    -3.269     12.312     14.452
REMARK INTER + INTRA:          -3.365
REMARK INTER:                  -3.365
REMARK INTRA:                   0.000
REMARK UNBOUND:                 0.000
REMARK SMILES C[C@@H]1CC[C@@H]2C(C)(C)[C@H]3C[C@@]12CC[C@@]3(C)O
REMARK SMILES IDX 1 1 2 2 3 3 4 4 5 5 11 6 12 7 13 8 14 9 9 10 10 11 6 12 7 13
REMARK SMILES IDX 8 14 15 15 16 16
REMARK H PARENT 16 17
REMARK Flexibility Score: inf
ROOT
ATOM      1  C   UNL     1     115.040 110.405 105.813  1.00  0.00     0.008 C 
ATOM      2  C   UNL     1     116.252 109.462 105.795  1.00  0.00    -0.008 C 
ATOM      3  C   UNL     1     115.860 107.957 105.942  1.00  0.00     0.004 C 
ATOM      4  C   UNL     1     116.994 107.274 106.759  1.00  0.00     0.005 C 
ATOM      5  C   UNL     1     118.059 108.350 106.756  1.00  0.00     0.001 C 
ATOM      6  C   UNL     1     117.287 109.649 106.929  1.00  0.00    -0.023 C 
ATOM      7  C   UNL     1     116.558 109.880 108.312  1.00  0.00     0.010 C 
ATOM      8  C   UNL     1     117.439 109.994 109.580  1.00  0.00     0.036 C 
ATOM      9  C   UNL     1     118.915 110.435 109.336  1.00  0.00     0.065 C 
ATOM     10  C   UNL     1     119.394 110.024 107.903  1.00  0.00     0.027 C 
ATOM     11  C   UNL     1     118.430 110.637 106.838  1.00  0.00     0.014 C 
ATOM     12  C   UNL     1     119.356 108.463 107.593  1.00  0.00    -0.026 C 
ATOM     13  C   UNL     1     120.598 108.124 106.722  1.00  0.00     0.012 C 
ATOM     14  C   UNL     1     119.374 107.451 108.765  1.00  0.00     0.012 C 
ATOM     15  C   UNL     1     119.046 111.968 109.536  1.00  0.00     0.042 C 
ENDROOT
BRANCH   9  16
ATOM     16  O   UNL     1     119.765 109.825 110.280  1.00  0.00    -0.390 OA
ATOM     17  H   UNL     1     119.311 109.837 111.164  1.00  0.00     0.211 HD
ENDBRANCH   9  16
TORSDOF 1
ENDMDL
MODEL 5
REMARK VINA RESULT:    -3.167      9.259     11.482
REMARK INTER + INTRA:          -3.259
REMARK INTER:                  -3.259
REMARK INTRA:                   0.000
REMARK UNBOUND:                 0.000
REMARK SMILES C[C@@H]1CC[C@@H]2C(C)(C)[C@H]3C[C@@]12CC[C@@]3(C)O
REMARK SMILES IDX 1 1 2 2 3 3 4 4 5 5 11 6 12 7 13 8 14 9 9 10 10 11 6 12 7 13
REMARK SMILES IDX 8 14 15 15 16 16
REMARK H PARENT 16 17
REMARK Flexibility Score: inf
ROOT
ATOM      1  C   UNL     1     126.125 114.882 108.125  1.00  0.00     0.008 C 
ATOM      2  C   UNL     1     124.834 114.315 107.516  1.00  0.00    -0.008 C 
ATOM      3  C   UNL     1     124.953 114.032 105.984  1.00  0.00     0.004 C 
ATOM      4  C   UNL     1     123.561 114.337 105.361  1.00  0.00     0.005 C 
ATOM      5  C   UNL     1     122.699 114.478 106.599  1.00  0.00     0.001 C 
ATOM      6  C   UNL     1     123.582 115.219 107.593  1.00  0.00    -0.023 C 
ATOM      7  C   UNL     1     123.956 116.716 107.253  1.00  0.00     0.010 C 
ATOM      8  C   UNL     1     122.806 117.749 107.189  1.00  0.00     0.036 C 
ATOM      9  C   UNL     1     121.522 117.377 107.993  1.00  0.00     0.065 C 
ATOM     10  C   UNL     1     121.373 115.824 108.124  1.00  0.00     0.027 C 
ATOM     11  C   UNL     1     122.656 115.234 108.790  1.00  0.00     0.014 C 
ATOM     12  C   UNL     1     121.262 115.031 106.748  1.00  0.00    -0.026 C 
ATOM     13  C   UNL     1     120.249 113.869 106.953  1.00  0.00     0.012 C 
ATOM     14  C   UNL     1     120.797 115.776 105.473  1.00  0.00     0.012 C 
ATOM     15  C   UNL     1     121.568 118.041 109.395  1.00  0.00     0.042 C 
ENDROOT
BRANCH   9  16
ATOM     16  O   UNL     1     120.379 117.880 107.340  1.00  0.00    -0.390 OA
ATOM     17  H   UNL     1     119.748 117.128 107.190  1.00  0.00     0.211 HD
ENDBRANCH   9  16
TORSDOF 1
ENDMDL
MODEL 6
REMARK VINA RESULT:    -3.164      1.869      3.951
REMARK INTER + INTRA:          -3.257
REMARK INTER:                  -3.257
REMARK INTRA:                   0.000
REMARK UNBOUND:                 0.000
REMARK SMILES C[C@@H]1CC[C@@H]2C(C)(C)[C@H]3C[C@@]12CC[C@@]3(C)O
REMARK SMILES IDX 1 1 2 2 3 3 4 4 5 5 11 6 12 7 13 8 14 9 9 10 10 11 6 12 7 13
REMARK SMILES IDX 8 14 15 15 16 16
REMARK H PARENT 16 17
REMARK Flexibility Score: inf
ROOT
ATOM      1  C   UNL     1     117.132 126.125 108.123  1.00  0.00     0.008 C 
ATOM      2  C   UNL     1     117.690 124.828 107.519  1.00  0.00    -0.008 C 
ATOM      3  C   UNL     1     117.969 124.938 105.985  1.00  0.00     0.004 C 
ATOM      4  C   UNL     1     117.655 123.544 105.371  1.00  0.00     0.005 C 
ATOM      5  C   UNL     1     117.512 122.689 106.612  1.00  0.00     0.001 C 
ATOM      6  C   UNL     1     116.779 123.581 107.604  1.00  0.00    -0.023 C 
ATOM      7  C   UNL     1     115.284 123.962 107.267  1.00  0.00     0.010 C 
ATOM      8  C   UNL     1     114.243 122.817 107.211  1.00  0.00     0.036 C 
ATOM      9  C   UNL     1     114.611 121.535 108.020  1.00  0.00     0.065 C 
ATOM     10  C   UNL     1     116.164 121.378 108.148  1.00  0.00     0.027 C 
ATOM     11  C   UNL     1     116.763 122.661 108.805  1.00  0.00     0.014 C 
ATOM     12  C   UNL     1     116.952 121.256 106.770  1.00  0.00    -0.026 C 
ATOM     13  C   UNL     1     118.109 120.238 106.977  1.00  0.00     0.012 C 
ATOM     14  C   UNL     1     116.200 120.789 105.500  1.00  0.00     0.012 C 
ATOM     15  C   UNL     1     113.951 121.592 109.424  1.00  0.00     0.042 C 
ENDROOT
BRANCH   9  16
ATOM     16  O   UNL     1     114.100 120.392 107.374  1.00  0.00    -0.390 OA
ATOM     17  H   UNL     1     114.593 119.597 107.708  1.00  0.00     0.211 HD
ENDBRANCH   9  16
TORSDOF 1
ENDMDL
MODEL 7
REMARK VINA RESULT:    -3.148      6.256      8.760
REMARK INTER + INTRA:          -3.240
REMARK INTER:                  -3.240
REMARK INTRA:                   0.000
REMARK UNBOUND:                 0.000
REMARK SMILES C[C@@H]1CC[C@@H]2C(C)(C)[C@H]3C[C@@]12CC[C@@]3(C)O
REMARK SMILES IDX 1 1 2 2 3 3 4 4 5 5 11 6 12 7 13 8 14 9 9 10 10 11 6 12 7 13
REMARK SMILES IDX 8 14 15 15 16 16
REMARK H PARENT 16 17
REMARK Flexibility Score: inf
ROOT
ATOM      1  C   UNL     1     105.875 116.958 108.125  1.00  0.00     0.008 C 
ATOM      2  C   UNL     1     107.145 117.577 107.522  1.00  0.00    -0.008 C 
ATOM      3  C   UNL     1     107.018 117.867 105.992  1.00  0.00     0.004 C 
ATOM      4  C   UNL     1     108.421 117.619 105.370  1.00  0.00     0.005 C 
ATOM      5  C   UNL     1     109.286 117.501 106.608  1.00  0.00     0.001 C 
ATOM      6  C   UNL     1     108.430 116.720 107.594  1.00  0.00    -0.023 C 
ATOM      7  C   UNL     1     108.112 115.213 107.242  1.00  0.00     0.010 C 
ATOM      8  C   UNL     1     109.300 114.223 107.172  1.00  0.00     0.036 C 
ATOM      9  C   UNL     1     110.568 114.637 107.981  1.00  0.00     0.065 C 
ATOM     10  C   UNL     1     110.659 116.193 108.125  1.00  0.00     0.027 C 
ATOM     11  C   UNL     1     109.354 116.730 108.793  1.00  0.00     0.014 C 
ATOM     12  C   UNL     1     110.743 117.000 106.755  1.00  0.00    -0.026 C 
ATOM     13  C   UNL     1     111.711 118.198 106.971  1.00  0.00     0.012 C 
ATOM     14  C   UNL     1     111.237 116.283 105.475  1.00  0.00     0.012 C 
ATOM     15  C   UNL     1     110.545 113.961 109.378  1.00  0.00     0.042 C 
ENDROOT
BRANCH   9  16
ATOM     16  O   UNL     1     111.729 114.182 107.326  1.00  0.00    -0.390 OA
ATOM     17  H   UNL     1     111.471 113.846 106.428  1.00  0.00     0.211 HD
ENDBRANCH   9  16
TORSDOF 1
ENDMDL
MODEL 8
REMARK VINA RESULT:    -3.057     12.292     14.158
REMARK INTER + INTRA:          -3.146
REMARK INTER:                  -3.146
REMARK INTRA:                   0.000
REMARK UNBOUND:                 0.000
REMARK SMILES C[C@@H]1CC[C@@H]2C(C)(C)[C@H]3C[C@@]12CC[C@@]3(C)O
REMARK SMILES IDX 1 1 2 2 3 3 4 4 5 5 11 6 12 7 13 8 14 9 9 10 10 11 6 12 7 13
REMARK SMILES IDX 8 14 15 15 16 16
REMARK H PARENT 16 17
REMARK Flexibility Score: inf
ROOT
ATOM      1  C   UNL     1     120.120 107.039 105.591  1.00  0.00     0.008 C 
ATOM      2  C   UNL     1     120.259 108.191 106.598  1.00  0.00    -0.008 C 
ATOM      3  C   UNL     1     120.825 107.731 107.979  1.00  0.00     0.004 C 
ATOM      4  C   UNL     1     120.135 108.607 109.062  1.00  0.00     0.005 C 
ATOM      5  C   UNL     1     119.471 109.671 108.214  1.00  0.00     0.001 C 
ATOM      6  C   UNL     1     118.954 108.918 106.997  1.00  0.00    -0.023 C 
ATOM      7  C   UNL     1     117.789 107.877 107.231  1.00  0.00     0.010 C 
ATOM      8  C   UNL     1     116.427 108.420 107.730  1.00  0.00     0.036 C 
ATOM      9  C   UNL     1     116.148 109.923 107.419  1.00  0.00     0.065 C 
ATOM     10  C   UNL     1     117.486 110.729 107.299  1.00  0.00     0.027 C 
ATOM     11  C   UNL     1     118.388 110.076 106.205  1.00  0.00     0.014 C 
ATOM     12  C   UNL     1     118.404 110.724 108.599  1.00  0.00    -0.026 C 
ATOM     13  C   UNL     1     119.049 112.132 108.727  1.00  0.00     0.012 C 
ATOM     14  C   UNL     1     117.770 110.422 109.980  1.00  0.00     0.012 C 
ATOM     15  C   UNL     1     115.319 110.045 106.113  1.00  0.00     0.042 C 
ENDROOT
BRANCH   9  16
ATOM     16  O   UNL     1     115.376 110.495 108.449  1.00  0.00    -0.390 OA
ATOM     17  H   UNL     1     115.680 110.116 109.316  1.00  0.00     0.211 HD
ENDBRANCH   9  16
TORSDOF 1
ENDMDL
MODEL 9
REMARK VINA RESULT:    -3.047      1.548      3.862
REMARK INTER + INTRA:          -3.136
REMARK INTER:                  -3.136
REMARK INTRA:                   0.000
REMARK UNBOUND:                 0.000
REMARK SMILES C[C@@H]1CC[C@@H]2C(C)(C)[C@H]3C[C@@]12CC[C@@]3(C)O
REMARK SMILES IDX 1 1 2 2 3 3 4 4 5 5 11 6 12 7 13 8 14 9 9 10 10 11 6 12 7 13
REMARK SMILES IDX 8 14 15 15 16 16
REMARK H PARENT 16 17
REMARK Flexibility Score: inf
ROOT
ATOM      1  C   UNL     1     111.910 124.992 105.561  1.00  0.00     0.008 C 
ATOM      2  C   UNL     1     111.766 123.837 106.564  1.00  0.00    -0.008 C 
ATOM      3  C   UNL     1     111.183 124.290 107.941  1.00  0.00     0.004 C 
ATOM      4  C   UNL     1     111.867 123.414 109.029  1.00  0.00     0.005 C 
ATOM      5  C   UNL     1     112.545 122.356 108.184  1.00  0.00     0.001 C 
ATOM      6  C   UNL     1     113.070 123.115 106.975  1.00  0.00    -0.023 C 
ATOM      7  C   UNL     1     114.228 124.161 107.224  1.00  0.00     0.010 C 
ATOM      8  C   UNL     1     115.587 123.624 107.736  1.00  0.00     0.036 C 
ATOM      9  C   UNL     1     115.877 122.123 107.424  1.00  0.00     0.065 C 
ATOM     10  C   UNL     1     114.545 121.311 107.287  1.00  0.00     0.027 C 
ATOM     11  C   UNL     1     113.651 121.962 106.186  1.00  0.00     0.014 C 
ATOM     12  C   UNL     1     113.613 121.308 108.578  1.00  0.00    -0.026 C 
ATOM     13  C   UNL     1     112.973 119.895 108.695  1.00  0.00     0.012 C 
ATOM     14  C   UNL     1     114.230 121.608 109.966  1.00  0.00     0.012 C 
ATOM     15  C   UNL     1     116.721 122.009 106.127  1.00  0.00     0.042 C 
ENDROOT
BRANCH   9  16
ATOM     16  O   UNL     1     116.641 121.552 108.461  1.00  0.00    -0.390 OA
ATOM     17  H   UNL     1     117.037 122.287 108.999  1.00  0.00     0.211 HD
ENDBRANCH   9  16
TORSDOF 1
ENDMDL
