MODEL 1
REMARK VINA RESULT:    -4.064      0.000      0.000
REMARK INTER + INTRA:          -8.935
REMARK INTER:                  -7.152
REMARK INTRA:                  -1.783
REMARK UNBOUND:                -1.783
REMARK SMILES CCCCCCCCCCCCCCC(=O)[O-]
REMARK SMILES IDX 9 1 10 2 11 3 12 4 13 5 14 6 15 7 16 8 17 9 8 10 7 11 6 12
REMARK SMILES IDX 5 13 4 14 3 15 2 16 1 17
REMARK H PARENT
REMARK Flexibility Score: inf
ROOT
ATOM      1  C   UNL     1       2.581   8.381  -4.430  1.00  0.00     0.000 C 
ENDROOT
BRANCH   1   2
ATOM      2  C   UNL     1       1.730   9.196  -5.417  1.00  0.00     0.000 C 
BRANCH   2   3
ATOM      3  C   UNL     1       2.586  10.052  -6.366  1.00  0.00     0.000 C 
BRANCH   3   4
ATOM      4  C   UNL     1       2.183   9.882  -7.839  1.00  0.00     0.000 C 
BRANCH   4   5
ATOM      5  C   UNL     1       3.321   9.315  -8.705  1.00  0.00     0.006 C 
BRANCH   5   6
ATOM      6  C   UNL     1       3.606   7.840  -8.394  1.00  0.00     0.053 C 
BRANCH   6   7
ATOM      7  C   UNL     1       4.980   7.645  -7.829  1.00  0.00     0.041 C 
ATOM      8  O   UNL     1       5.131   7.385  -6.606  1.00  0.00    -0.550 OA
ATOM      9  O   UNL     1       6.091   7.716  -8.659  1.00  0.00    -0.550 OA
ENDBRANCH   6   7
ENDBRANCH   5   6
ENDBRANCH   4   5
ENDBRANCH   3   4
ENDBRANCH   2   3
ENDBRANCH   1   2
BRANCH   1  10
ATOM     10  C   UNL     1       2.295   6.871  -4.506  1.00  0.00     0.000 C 
BRANCH  10  11
ATOM     11  C   UNL     1       1.665   6.454  -5.847  1.00  0.00    -0.000 C 
BRANCH  11  12
ATOM     12  C   UNL     1       1.679   4.937  -6.130  1.00  0.00    -0.000 C 
BRANCH  12  13
ATOM     13  C   UNL     1       0.334   4.337  -6.580  1.00  0.00    -0.000 C 
BRANCH  13  14
ATOM     14  C   UNL     1       0.298   4.009  -8.082  1.00  0.00    -0.000 C 
BRANCH  14  15
ATOM     15  C   UNL     1       1.202   4.933  -8.919  1.00  0.00    -0.000 C 
BRANCH  15  16
ATOM     16  C   UNL     1       0.455   5.909  -9.846  1.00  0.00    -0.003 C 
ATOM     17  C   UNL     1       0.020   7.192  -9.140  1.00  0.00     0.004 C 
ENDBRANCH  15  16
ENDBRANCH  14  15
ENDBRANCH  13  14
ENDBRANCH  12  13
ENDBRANCH  11  12
ENDBRANCH  10  11
ENDBRANCH   1  10
TORSDOF 13
ENDMDL
MODEL 2
REMARK VINA RESULT:    -4.061      1.141      3.911
REMARK INTER + INTRA:          -8.931
REMARK INTER:                  -7.020
REMARK INTRA:                  -1.911
REMARK UNBOUND:                -1.783
REMARK SMILES CCCCCCCCCCCCCCC(=O)[O-]
REMARK SMILES IDX 9 1 10 2 11 3 12 4 13 5 14 6 15 7 16 8 17 9 8 10 7 11 6 12
REMARK SMILES IDX 5 13 4 14 3 15 2 16 1 17
REMARK H PARENT
REMARK Flexibility Score: inf
ROOT
ATOM      1  C   UNL     1       1.047   4.727  -8.875  1.00  0.00     0.000 C 
ENDROOT
BRANCH   1   2
ATOM      2  C   UNL     1       0.373   5.908  -9.593  1.00  0.00     0.000 C 
BRANCH   2   3
ATOM      3  C   UNL     1       1.390   6.932 -10.125  1.00  0.00     0.000 C 
BRANCH   3   4
ATOM      4  C   UNL     1       2.827   6.620  -9.682  1.00  0.00     0.000 C 
BRANCH   4   5
ATOM      5  C   UNL     1       3.602   7.877  -9.246  1.00  0.00     0.006 C 
BRANCH   5   6
ATOM      6  C   UNL     1       5.036   7.551  -8.811  1.00  0.00     0.053 C 
BRANCH   6   7
ATOM      7  C   UNL     1       5.410   8.263  -7.547  1.00  0.00     0.041 C 
ATOM      8  O   UNL     1       5.594   9.509  -7.552  1.00  0.00    -0.550 OA
ATOM      9  O   UNL     1       5.520   7.556  -6.356  1.00  0.00    -0.550 OA
ENDBRANCH   6   7
ENDBRANCH   5   6
ENDBRANCH   4   5
ENDBRANCH   3   4
ENDBRANCH   2   3
ENDBRANCH   1   2
BRANCH   1  10
ATOM     10  C   UNL     1       0.159   4.117  -7.776  1.00  0.00     0.000 C 
BRANCH  10  11
ATOM     11  C   UNL     1       0.403   4.752  -6.395  1.00  0.00    -0.000 C 
BRANCH  11  12
ATOM     12  C   UNL     1       1.861   5.179  -6.121  1.00  0.00    -0.000 C 
BRANCH  12  13
ATOM     13  C   UNL     1       2.104   6.698  -6.070  1.00  0.00    -0.000 C 
BRANCH  13  14
ATOM     14  C   UNL     1       0.838   7.517  -6.377  1.00  0.00    -0.000 C 
BRANCH  14  15
ATOM     15  C   UNL     1       1.152   8.955  -6.832  1.00  0.00    -0.000 C 
BRANCH  15  16
ATOM     16  C   UNL     1       1.489   9.939  -5.697  1.00  0.00    -0.003 C 
ATOM     17  C   UNL     1       2.951   9.865  -5.256  1.00  0.00     0.004 C 
ENDBRANCH  15  16
ENDBRANCH  14  15
ENDBRANCH  13  14
ENDBRANCH  12  13
ENDBRANCH  11  12
ENDBRANCH  10  11
ENDBRANCH   1  10
TORSDOF 13
ENDMDL
MODEL 3
REMARK VINA RESULT:    -3.984      2.112      4.545
REMARK INTER + INTRA:          -8.795
REMARK INTER:                  -6.896
REMARK INTRA:                  -1.899
REMARK UNBOUND:                -1.783
REMARK SMILES CCCCCCCCCCCCCCC(=O)[O-]
REMARK SMILES IDX 9 1 10 2 11 3 12 4 13 5 14 6 15 7 16 8 17 9 8 10 7 11 6 12
REMARK SMILES IDX 5 13 4 14 3 15 2 16 1 17
REMARK H PARENT
REMARK Flexibility Score: inf
ROOT
ATOM      1  C   UNL     1       0.036   6.899  -7.527  1.00  0.00     0.000 C 
ENDROOT
BRANCH   1   2
ATOM      2  C   UNL     1       0.425   8.100  -8.404  1.00  0.00     0.000 C 
BRANCH   2   3
ATOM      3  C   UNL     1       1.096   9.226  -7.599  1.00  0.00     0.000 C 
BRANCH   3   4
ATOM      4  C   UNL     1       1.198   8.899  -6.101  1.00  0.00     0.000 C 
BRANCH   4   5
ATOM      5  C   UNL     1       2.516   9.388  -5.474  1.00  0.00     0.006 C 
BRANCH   5   6
ATOM      6  C   UNL     1       3.399   8.226  -5.002  1.00  0.00     0.053 C 
BRANCH   6   7
ATOM      7  C   UNL     1       2.616   7.210  -4.228  1.00  0.00     0.041 C 
ATOM      8  O   UNL     1       2.255   7.455  -3.046  1.00  0.00    -0.550 OA
ATOM      9  O   UNL     1       2.254   6.008  -4.823  1.00  0.00    -0.550 OA
ENDBRANCH   6   7
ENDBRANCH   5   6
ENDBRANCH   4   5
ENDBRANCH   3   4
ENDBRANCH   2   3
ENDBRANCH   1   2
BRANCH   1  10
ATOM     10  C   UNL     1       0.609   5.571  -8.052  1.00  0.00     0.000 C 
BRANCH  10  11
ATOM     11  C   UNL     1       2.127   5.634  -8.294  1.00  0.00    -0.000 C 
BRANCH  11  12
ATOM     12  C   UNL     1       2.544   5.978  -9.740  1.00  0.00    -0.000 C 
BRANCH  12  13
ATOM     13  C   UNL     1       3.795   6.866  -9.872  1.00  0.00    -0.000 C 
BRANCH  13  14
ATOM     14  C   UNL     1       4.258   7.452  -8.526  1.00  0.00    -0.000 C 
BRANCH  14  15
ATOM     15  C   UNL     1       4.523   8.967  -8.594  1.00  0.00    -0.000 C 
BRANCH  15  16
ATOM     16  C   UNL     1       5.897   9.412  -8.059  1.00  0.00    -0.003 C 
ATOM     17  C   UNL     1       6.688   8.272  -7.420  1.00  0.00     0.004 C 
ENDBRANCH  15  16
ENDBRANCH  14  15
ENDBRANCH  13  14
ENDBRANCH  12  13
ENDBRANCH  11  12
ENDBRANCH  10  11
ENDBRANCH   1  10
TORSDOF 13
ENDMDL
MODEL 4
REMARK VINA RESULT:    -3.972      2.067      4.841
REMARK INTER + INTRA:          -8.775
REMARK INTER:                  -6.748
REMARK INTRA:                  -2.027
REMARK UNBOUND:                -1.783
REMARK SMILES CCCCCCCCCCCCCCC(=O)[O-]
REMARK SMILES IDX 9 1 10 2 11 3 12 4 13 5 14 6 15 7 16 8 17 9 8 10 7 11 6 12
REMARK SMILES IDX 5 13 4 14 3 15 2 16 1 17
REMARK H PARENT
REMARK Flexibility Score: inf
ROOT
ATOM      1  C   UNL     1       1.934   6.056  -5.868  1.00  0.00     0.000 C 
ENDROOT
BRANCH   1   2
ATOM      2  C   UNL     1       0.955   4.883  -6.034  1.00  0.00     0.000 C 
BRANCH   2   3
ATOM      3  C   UNL     1       0.757   4.484  -7.507  1.00  0.00     0.000 C 
BRANCH   3   4
ATOM      4  C   UNL     1       1.907   4.962  -8.406  1.00  0.00     0.000 C 
BRANCH   4   5
ATOM      5  C   UNL     1       1.411   5.625  -9.704  1.00  0.00     0.006 C 
BRANCH   5   6
ATOM      6  C   UNL     1       0.027   6.264  -9.535  1.00  0.00     0.053 C 
BRANCH   6   7
ATOM      7  C   UNL     1       0.122   7.675  -9.040  1.00  0.00     0.041 C 
ATOM      8  O   UNL     1      -0.089   7.936  -7.826  1.00  0.00    -0.550 OA
ATOM      9  O   UNL     1       0.478   8.697  -9.912  1.00  0.00    -0.550 OA
ENDBRANCH   6   7
ENDBRANCH   5   6
ENDBRANCH   4   5
ENDBRANCH   3   4
ENDBRANCH   2   3
ENDBRANCH   1   2
BRANCH   1  10
ATOM     10  C   UNL     1       2.236   6.373  -4.393  1.00  0.00     0.000 C 
BRANCH  10  11
ATOM     11  C   UNL     1       2.568   7.857  -4.160  1.00  0.00    -0.000 C 
BRANCH  11  12
ATOM     12  C   UNL     1       1.975   8.830  -5.201  1.00  0.00    -0.000 C 
BRANCH  12  13
ATOM     13  C   UNL     1       2.787  10.116  -5.439  1.00  0.00    -0.000 C 
BRANCH  13  14
ATOM     14  C   UNL     1       3.759  10.001  -6.626  1.00  0.00    -0.000 C 
BRANCH  14  15
ATOM     15  C   UNL     1       3.235   9.075  -7.740  1.00  0.00    -0.000 C 
BRANCH  15  16
ATOM     16  C   UNL     1       4.174   7.916  -8.120  1.00  0.00    -0.003 C 
ATOM     17  C   UNL     1       5.195   7.591  -7.030  1.00  0.00     0.004 C 
ENDBRANCH  15  16
ENDBRANCH  14  15
ENDBRANCH  13  14
ENDBRANCH  12  13
ENDBRANCH  11  12
ENDBRANCH  10  11
ENDBRANCH   1  10
TORSDOF 13
ENDMDL
MODEL 5
REMARK VINA RESULT:    -3.924     19.111     21.744
REMARK INTER + INTRA:          -8.690
REMARK INTER:                  -6.450
REMARK INTRA:                  -2.240
REMARK UNBOUND:                -1.783
REMARK SMILES CCCCCCCCCCCCCCC(=O)[O-]
REMARK SMILES IDX 9 1 10 2 11 3 12 4 13 5 14 6 15 7 16 8 17 9 8 10 7 11 6 12
REMARK SMILES IDX 5 13 4 14 3 15 2 16 1 17
REMARK H PARENT
REMARK Flexibility Score: inf
ROOT
ATOM      1  C   UNL     1      -4.303  -4.285   5.218  1.00  0.00     0.000 C 
ENDROOT
BRANCH   1   2
ATOM      2  C   UNL     1      -3.909  -5.373   6.230  1.00  0.00     0.000 C 
BRANCH   2   3
ATOM      3  C   UNL     1      -4.923  -6.530   6.277  1.00  0.00     0.000 C 
BRANCH   3   4
ATOM      4  C   UNL     1      -6.032  -6.384   5.224  1.00  0.00     0.000 C 
BRANCH   4   5
ATOM      5  C   UNL     1      -7.443  -6.413   5.838  1.00  0.00     0.006 C 
BRANCH   5   6
ATOM      6  C   UNL     1      -7.586  -7.502   6.909  1.00  0.00     0.053 C 
BRANCH   6   7
ATOM      7  C   UNL     1      -8.005  -8.813   6.318  1.00  0.00     0.041 C 
ATOM      8  O   UNL     1      -9.203  -8.999   5.975  1.00  0.00    -0.550 OA
ATOM      9  O   UNL     1      -7.067  -9.817   6.113  1.00  0.00    -0.550 OA
ENDBRANCH   6   7
ENDBRANCH   5   6
ENDBRANCH   4   5
ENDBRANCH   3   4
ENDBRANCH   2   3
ENDBRANCH   1   2
BRANCH   1  10
ATOM     10  C   UNL     1      -4.690  -2.959   5.895  1.00  0.00     0.000 C 
BRANCH  10  11
ATOM     11  C   UNL     1      -5.950  -3.083   6.769  1.00  0.00    -0.000 C 
BRANCH  11  12
ATOM     12  C   UNL     1      -5.763  -2.675   8.246  1.00  0.00    -0.000 C 
BRANCH  12  13
ATOM     13  C   UNL     1      -5.335  -3.810   9.194  1.00  0.00    -0.000 C 
BRANCH  13  14
ATOM     14  C   UNL     1      -6.412  -4.898   9.350  1.00  0.00    -0.000 C 
BRANCH  14  15
ATOM     15  C   UNL     1      -7.782  -4.329   9.763  1.00  0.00    -0.000 C 
BRANCH  15  16
ATOM     16  C   UNL     1      -8.963  -4.769   8.880  1.00  0.00    -0.003 C 
ATOM     17  C   UNL     1      -9.395  -3.696   7.881  1.00  0.00     0.004 C 
ENDBRANCH  15  16
ENDBRANCH  14  15
ENDBRANCH  13  14
ENDBRANCH  12  13
ENDBRANCH  11  12
ENDBRANCH  10  11
ENDBRANCH   1  10
TORSDOF 13
ENDMDL
MODEL 6
REMARK VINA RESULT:    -3.913     19.447     22.035
REMARK INTER + INTRA:          -8.670
REMARK INTER:                  -6.252
REMARK INTRA:                  -2.418
REMARK UNBOUND:                -1.783
REMARK SMILES CCCCCCCCCCCCCCC(=O)[O-]
REMARK SMILES IDX 9 1 10 2 11 3 12 4 13 5 14 6 15 7 16 8 17 9 8 10 7 11 6 12
REMARK SMILES IDX 5 13 4 14 3 15 2 16 1 17
REMARK H PARENT
REMARK Flexibility Score: inf
ROOT
ATOM      1  C   UNL     1      -7.067  -4.243   8.652  1.00  0.00     0.000 C 
ENDROOT
BRANCH   1   2
ATOM      2  C   UNL     1      -5.813  -4.534   9.492  1.00  0.00     0.000 C 
BRANCH   2   3
ATOM      3  C   UNL     1      -5.641  -6.033   9.795  1.00  0.00     0.000 C 
BRANCH   3   4
ATOM      4  C   UNL     1      -6.808  -6.879   9.262  1.00  0.00     0.000 C 
BRANCH   4   5
ATOM      5  C   UNL     1      -6.695  -8.363   9.655  1.00  0.00     0.006 C 
BRANCH   5   6
ATOM      6  C   UNL     1      -5.713  -9.126   8.757  1.00  0.00     0.053 C 
BRANCH   6   7
ATOM      7  C   UNL     1      -6.370  -9.614   7.502  1.00  0.00     0.041 C 
ATOM      8  O   UNL     1      -5.677  -9.866   6.481  1.00  0.00    -0.550 OA
ATOM      9  O   UNL     1      -7.742  -9.826   7.471  1.00  0.00    -0.550 OA
ENDBRANCH   6   7
ENDBRANCH   5   6
ENDBRANCH   4   5
ENDBRANCH   3   4
ENDBRANCH   2   3
ENDBRANCH   1   2
BRANCH   1  10
ATOM     10  C   UNL     1      -6.786  -3.288   7.479  1.00  0.00     0.000 C 
BRANCH  10  11
ATOM     11  C   UNL     1      -5.283  -3.055   7.249  1.00  0.00    -0.000 C 
BRANCH  11  12
ATOM     12  C   UNL     1      -4.859  -2.939   5.770  1.00  0.00    -0.000 C 
BRANCH  12  13
ATOM     13  C   UNL     1      -4.140  -4.171   5.191  1.00  0.00    -0.000 C 
BRANCH  13  14
ATOM     14  C   UNL     1      -3.834  -5.240   6.255  1.00  0.00    -0.000 C 
BRANCH  14  15
ATOM     15  C   UNL     1      -4.825  -6.419   6.221  1.00  0.00    -0.000 C 
BRANCH  15  16
ATOM     16  C   UNL     1      -5.911  -6.326   5.134  1.00  0.00    -0.003 C 
ATOM     17  C   UNL     1      -7.323  -6.532   5.680  1.00  0.00     0.004 C 
ENDBRANCH  15  16
ENDBRANCH  14  15
ENDBRANCH  13  14
ENDBRANCH  12  13
ENDBRANCH  11  12
ENDBRANCH  10  11
ENDBRANCH   1  10
TORSDOF 13
ENDMDL
MODEL 7
REMARK VINA RESULT:    -3.898     18.795     21.331
REMARK INTER + INTRA:          -8.643
REMARK INTER:                  -6.675
REMARK INTRA:                  -1.968
REMARK UNBOUND:                -1.783
REMARK SMILES CCCCCCCCCCCCCCC(=O)[O-]
REMARK SMILES IDX 9 1 10 2 11 3 12 4 13 5 14 6 15 7 16 8 17 9 8 10 7 11 6 12
REMARK SMILES IDX 5 13 4 14 3 15 2 16 1 17
REMARK H PARENT
REMARK Flexibility Score: inf
ROOT
ATOM      1  C   UNL     1      -6.907  -3.377   7.749  1.00  0.00     0.000 C 
ENDROOT
BRANCH   1   2
ATOM      2  C   UNL     1      -8.408  -3.619   7.521  1.00  0.00     0.000 C 
BRANCH   2   3
ATOM      3  C   UNL     1      -8.743  -5.109   7.336  1.00  0.00     0.000 C 
BRANCH   3   4
ATOM      4  C   UNL     1      -7.989  -5.740   6.155  1.00  0.00     0.000 C 
BRANCH   4   5
ATOM      5  C   UNL     1      -8.186  -7.264   6.070  1.00  0.00     0.006 C 
BRANCH   5   6
ATOM      6  C   UNL     1      -7.819  -7.970   7.382  1.00  0.00     0.053 C 
BRANCH   6   7
ATOM      7  C   UNL     1      -6.456  -8.589   7.319  1.00  0.00     0.041 C 
ATOM      8  O   UNL     1      -5.751  -8.675   8.358  1.00  0.00    -0.550 OA
ATOM      9  O   UNL     1      -5.980  -9.104   6.120  1.00  0.00    -0.550 OA
ENDBRANCH   6   7
ENDBRANCH   5   6
ENDBRANCH   4   5
ENDBRANCH   3   4
ENDBRANCH   2   3
ENDBRANCH   1   2
BRANCH   1  10
ATOM     10  C   UNL     1      -6.461  -3.721   9.181  1.00  0.00     0.000 C 
BRANCH  10  11
ATOM     11  C   UNL     1      -4.962  -4.057   9.271  1.00  0.00    -0.000 C 
BRANCH  11  12
ATOM     12  C   UNL     1      -4.549  -5.382   8.597  1.00  0.00    -0.000 C 
BRANCH  12  13
ATOM     13  C   UNL     1      -3.721  -5.235   7.307  1.00  0.00    -0.000 C 
BRANCH  13  14
ATOM     14  C   UNL     1      -4.395  -5.885   6.086  1.00  0.00    -0.000 C 
BRANCH  14  15
ATOM     15  C   UNL     1      -4.651  -4.887   4.943  1.00  0.00    -0.000 C 
BRANCH  15  16
ATOM     16  C   UNL     1      -3.704  -3.674   4.911  1.00  0.00    -0.003 C 
ATOM     17  C   UNL     1      -4.414  -2.352   5.201  1.00  0.00     0.004 C 
ENDBRANCH  15  16
ENDBRANCH  14  15
ENDBRANCH  13  14
ENDBRANCH  12  13
ENDBRANCH  11  12
ENDBRANCH  10  11
ENDBRANCH   1  10
TORSDOF 13
ENDMDL
MODEL 8
REMARK VINA RESULT:    -3.876      1.511      2.899
REMARK INTER + INTRA:          -8.605
REMARK INTER:                  -6.613
REMARK INTRA:                  -1.992
REMARK UNBOUND:                -1.783
REMARK SMILES CCCCCCCCCCCCCCC(=O)[O-]
REMARK SMILES IDX 9 1 10 2 11 3 12 4 13 5 14 6 15 7 16 8 17 9 8 10 7 11 6 12
REMARK SMILES IDX 5 13 4 14 3 15 2 16 1 17
REMARK H PARENT
REMARK Flexibility Score: inf
ROOT
ATOM      1  C   UNL     1       1.996   8.857  -5.040  1.00  0.00     0.000 C 
ENDROOT
BRANCH   1   2
ATOM      2  C   UNL     1       2.801   7.586  -5.356  1.00  0.00     0.000 C 
BRANCH   2   3
ATOM      3  C   UNL     1       4.137   7.893  -6.056  1.00  0.00     0.000 C 
BRANCH   3   4
ATOM      4  C   UNL     1       4.245   7.227  -7.436  1.00  0.00     0.000 C 
BRANCH   4   5
ATOM      5  C   UNL     1       4.900   8.140  -8.488  1.00  0.00     0.006 C 
BRANCH   5   6
ATOM      6  C   UNL     1       6.033   8.987  -7.895  1.00  0.00     0.053 C 
BRANCH   6   7
ATOM      7  C   UNL     1       7.349   8.273  -7.950  1.00  0.00     0.041 C 
ATOM      8  O   UNL     1       8.083   8.218  -6.928  1.00  0.00    -0.550 OA
ATOM      9  O   UNL     1       7.749   7.639  -9.120  1.00  0.00    -0.550 OA
ENDBRANCH   6   7
ENDBRANCH   5   6
ENDBRANCH   4   5
ENDBRANCH   3   4
ENDBRANCH   2   3
ENDBRANCH   1   2
BRANCH   1  10
ATOM     10  C   UNL     1       1.457   9.548  -6.304  1.00  0.00     0.000 C 
BRANCH  10  11
ATOM     11  C   UNL     1       0.773   8.565  -7.271  1.00  0.00    -0.000 C 
BRANCH  11  12
ATOM     12  C   UNL     1       1.141   8.751  -8.759  1.00  0.00    -0.000 C 
BRANCH  12  13
ATOM     13  C   UNL     1       1.147   7.463  -9.602  1.00  0.00    -0.000 C 
BRANCH  13  14
ATOM     14  C   UNL     1       0.174   6.395  -9.072  1.00  0.00    -0.000 C 
BRANCH  14  15
ATOM     15  C   UNL     1       0.851   5.032  -8.837  1.00  0.00    -0.000 C 
BRANCH  15  16
ATOM     16  C   UNL     1       1.440   4.832  -7.429  1.00  0.00    -0.003 C 
ATOM     17  C   UNL     1       0.387   4.459  -6.386  1.00  0.00     0.004 C 
ENDBRANCH  15  16
ENDBRANCH  14  15
ENDBRANCH  13  14
ENDBRANCH  12  13
ENDBRANCH  11  12
ENDBRANCH  10  11
ENDBRANCH   1  10
TORSDOF 13
ENDMDL
MODEL 9
REMARK VINA RESULT:    -3.852      1.743      5.199
REMARK INTER + INTRA:          -8.563
REMARK INTER:                  -6.695
REMARK INTRA:                  -1.868
REMARK UNBOUND:                -1.783
REMARK SMILES CCCCCCCCCCCCCCC(=O)[O-]
REMARK SMILES IDX 9 1 10 2 11 3 12 4 13 5 14 6 15 7 16 8 17 9 8 10 7 11 6 12
REMARK SMILES IDX 5 13 4 14 3 15 2 16 1 17
REMARK H PARENT
REMARK Flexibility Score: inf
ROOT
ATOM      1  C   UNL     1       0.062   6.214  -8.814  1.00  0.00     0.000 C 
ENDROOT
BRANCH   1   2
ATOM      2  C   UNL     1       0.943   5.022  -8.408  1.00  0.00     0.000 C 
BRANCH   2   3
ATOM      3  C   UNL     1       0.332   4.202  -7.258  1.00  0.00     0.000 C 
BRANCH   3   4
ATOM      4  C   UNL     1       0.666   4.784  -5.877  1.00  0.00     0.000 C 
BRANCH   4   5
ATOM      5  C   UNL     1       2.015   5.525  -5.854  1.00  0.00     0.006 C 
BRANCH   5   6
ATOM      6  C   UNL     1       1.844   7.032  -5.624  1.00  0.00     0.053 C 
BRANCH   6   7
ATOM      7  C   UNL     1       2.545   7.490  -4.383  1.00  0.00     0.041 C 
ATOM      8  O   UNL     1       2.370   6.879  -3.295  1.00  0.00    -0.550 OA
ATOM      9  O   UNL     1       3.420   8.568  -4.433  1.00  0.00    -0.550 OA
ENDBRANCH   6   7
ENDBRANCH   5   6
ENDBRANCH   4   5
ENDBRANCH   3   4
ENDBRANCH   2   3
ENDBRANCH   1   2
BRANCH   1  10
ATOM     10  C   UNL     1       0.532   6.882 -10.118  1.00  0.00     0.000 C 
BRANCH  10  11
ATOM     11  C   UNL     1       0.879   8.369  -9.932  1.00  0.00    -0.000 C 
BRANCH  11  12
ATOM     12  C   UNL     1       0.757   8.892  -8.485  1.00  0.00    -0.000 C 
BRANCH  12  13
ATOM     13  C   UNL     1       1.804   9.943  -8.073  1.00  0.00    -0.000 C 
BRANCH  13  14
ATOM     14  C   UNL     1       2.934  10.099  -9.105  1.00  0.00    -0.000 C 
BRANCH  14  15
ATOM     15  C   UNL     1       4.306   9.657  -8.562  1.00  0.00    -0.000 C 
BRANCH  15  16
ATOM     16  C   UNL     1       4.332   8.259  -7.918  1.00  0.00    -0.003 C 
ATOM     17  C   UNL     1       4.148   7.129  -8.930  1.00  0.00     0.004 C 
ENDBRANCH  15  16
ENDBRANCH  14  15
ENDBRANCH  13  14
ENDBRANCH  12  13
ENDBRANCH  11  12
ENDBRANCH  10  11
ENDBRANCH   1  10
TORSDOF 13
ENDMDL
