MODEL 1
REMARK VINA RESULT:    -5.192      0.000      0.000
REMARK INTER + INTRA:          -8.037
REMARK INTER:                  -7.621
REMARK INTRA:                  -0.416
REMARK UNBOUND:                -0.416
REMARK SMILES O=C([O-])CCCCCCCC(=O)[O-]
REMARK SMILES IDX 7 1 6 2 5 3 4 4 2 5 1 6 3 7 8 8 9 9 10 10 11 11 12 12 13 13
REMARK H PARENT
REMARK Flexibility Score: inf
ROOT
ATOM      1  C   UNL     1      23.714  58.969  34.878  1.00  0.00     0.000 C 
ENDROOT
BRANCH   1   2
ATOM      2  C   UNL     1      22.284  58.788  35.407  1.00  0.00     0.000 C 
BRANCH   2   3
ATOM      3  C   UNL     1      22.237  58.264  36.853  1.00  0.00     0.006 C 
BRANCH   3   4
ATOM      4  C   UNL     1      21.495  59.194  37.831  1.00  0.00     0.053 C 
BRANCH   4   5
ATOM      5  C   UNL     1      22.405  60.191  38.483  1.00  0.00     0.041 C 
ATOM      6  O   UNL     1      22.919  61.120  37.806  1.00  0.00    -0.550 OA
ATOM      7  O   UNL     1      22.657  60.115  39.846  1.00  0.00    -0.550 OA
ENDBRANCH   4   5
ENDBRANCH   3   4
ENDBRANCH   2   3
ENDBRANCH   1   2
BRANCH   1   8
ATOM      8  C   UNL     1      23.737  58.960  33.342  1.00  0.00     0.000 C 
BRANCH   8   9
ATOM      9  C   UNL     1      23.982  57.556  32.757  1.00  0.00     0.006 C 
BRANCH   9  10
ATOM     10  C   UNL     1      22.844  57.035  31.865  1.00  0.00     0.053 C 
BRANCH  10  11
ATOM     11  C   UNL     1      21.650  56.620  32.668  1.00  0.00     0.041 C 
ATOM     12  O   UNL     1      20.624  57.350  32.701  1.00  0.00    -0.550 OA
ATOM     13  O   UNL     1      21.682  55.442  33.403  1.00  0.00    -0.550 OA
ENDBRANCH  10  11
ENDBRANCH   9  10
ENDBRANCH   8   9
ENDBRANCH   1   8
TORSDOF 8
ENDMDL
MODEL 2
REMARK VINA RESULT:    -5.124      2.220      5.726
REMARK INTER + INTRA:          -7.937
REMARK INTER:                  -7.832
REMARK INTRA:                  -0.105
REMARK UNBOUND:                -0.416
REMARK SMILES O=C([O-])CCCCCCCC(=O)[O-]
REMARK SMILES IDX 7 1 6 2 5 3 4 4 2 5 1 6 3 7 8 8 9 9 10 10 11 11 12 12 13 13
REMARK H PARENT
REMARK Flexibility Score: inf
ROOT
ATOM      1  C   UNL     1      21.315  58.345  34.108  1.00  0.00     0.000 C 
ENDROOT
BRANCH   1   2
ATOM      2  C   UNL     1      21.773  57.190  33.207  1.00  0.00     0.000 C 
BRANCH   2   3
ATOM      3  C   UNL     1      22.961  57.564  32.303  1.00  0.00     0.006 C 
BRANCH   3   4
ATOM      4  C   UNL     1      24.279  57.791  33.064  1.00  0.00     0.053 C 
BRANCH   4   5
ATOM      5  C   UNL     1      24.805  59.186  32.908  1.00  0.00     0.041 C 
ATOM      6  O   UNL     1      24.723  60.007  33.859  1.00  0.00    -0.550 OA
ATOM      7  O   UNL     1      25.418  59.569  31.722  1.00  0.00    -0.550 OA
ENDBRANCH   4   5
ENDBRANCH   3   4
ENDBRANCH   2   3
ENDBRANCH   1   2
BRANCH   1   8
ATOM      8  C   UNL     1      22.112  58.367  35.421  1.00  0.00     0.000 C 
BRANCH   8   9
ATOM      9  C   UNL     1      21.276  58.850  36.621  1.00  0.00     0.006 C 
BRANCH   9  10
ATOM     10  C   UNL     1      22.034  58.859  37.958  1.00  0.00     0.053 C 
BRANCH  10  11
ATOM     11  C   UNL     1      22.537  60.226  38.306  1.00  0.00     0.041 C 
ATOM     12  O   UNL     1      23.081  60.945  37.427  1.00  0.00    -0.550 OA
ATOM     13  O   UNL     1      22.433  60.694  39.610  1.00  0.00    -0.550 OA
ENDBRANCH  10  11
ENDBRANCH   9  10
ENDBRANCH   8   9
ENDBRANCH   1   8
TORSDOF 8
ENDMDL
MODEL 3
REMARK VINA RESULT:    -5.027      2.630      5.368
REMARK INTER + INTRA:          -7.795
REMARK INTER:                  -7.313
REMARK INTRA:                  -0.482
REMARK UNBOUND:                -0.416
REMARK SMILES O=C([O-])CCCCCCCC(=O)[O-]
REMARK SMILES IDX 7 1 6 2 5 3 4 4 2 5 1 6 3 7 8 8 9 9 10 10 11 11 12 12 13 13
REMARK H PARENT
REMARK Flexibility Score: inf
ROOT
ATOM      1  C   UNL     1      21.557  58.500  34.332  1.00  0.00     0.000 C 
ENDROOT
BRANCH   1   2
ATOM      2  C   UNL     1      21.855  57.324  33.392  1.00  0.00     0.000 C 
BRANCH   2   3
ATOM      3  C   UNL     1      23.023  57.602  32.428  1.00  0.00     0.006 C 
BRANCH   3   4
ATOM      4  C   UNL     1      24.364  57.873  33.133  1.00  0.00     0.053 C 
BRANCH   4   5
ATOM      5  C   UNL     1      24.904  59.241  32.843  1.00  0.00     0.041 C 
ATOM      6  O   UNL     1      25.389  59.506  31.712  1.00  0.00    -0.550 OA
ATOM      7  O   UNL     1      24.839  60.234  33.812  1.00  0.00    -0.550 OA
ENDBRANCH   4   5
ENDBRANCH   3   4
ENDBRANCH   2   3
ENDBRANCH   1   2
BRANCH   1   8
ATOM      8  C   UNL     1      22.003  58.183  35.767  1.00  0.00     0.000 C 
BRANCH   8   9
ATOM      9  C   UNL     1      22.666  59.384  36.466  1.00  0.00     0.006 C 
BRANCH   9  10
ATOM     10  C   UNL     1      22.315  59.522  37.956  1.00  0.00     0.053 C 
BRANCH  10  11
ATOM     11  C   UNL     1      20.854  59.312  38.209  1.00  0.00     0.041 C 
ATOM     12  O   UNL     1      20.012  60.153  37.795  1.00  0.00    -0.550 OA
ATOM     13  O   UNL     1      20.424  58.204  38.927  1.00  0.00    -0.550 OA
ENDBRANCH  10  11
ENDBRANCH   9  10
ENDBRANCH   8   9
ENDBRANCH   1   8
TORSDOF 8
ENDMDL
MODEL 4
REMARK VINA RESULT:    -4.901      0.797      5.939
REMARK INTER + INTRA:          -7.610
REMARK INTER:                  -7.176
REMARK INTRA:                  -0.434
REMARK UNBOUND:                -0.416
REMARK SMILES O=C([O-])CCCCCCCC(=O)[O-]
REMARK SMILES IDX 7 1 6 2 5 3 4 4 2 5 1 6 3 7 8 8 9 9 10 10 11 11 12 12 13 13
REMARK H PARENT
REMARK Flexibility Score: inf
ROOT
ATOM      1  C   UNL     1      23.984  59.051  34.610  1.00  0.00     0.000 C 
ENDROOT
BRANCH   1   2
ATOM      2  C   UNL     1      23.681  58.880  33.115  1.00  0.00     0.000 C 
BRANCH   2   3
ATOM      3  C   UNL     1      23.885  57.438  32.618  1.00  0.00     0.006 C 
BRANCH   3   4
ATOM      4  C   UNL     1      22.691  56.875  31.827  1.00  0.00     0.053 C 
BRANCH   4   5
ATOM      5  C   UNL     1      21.586  56.388  32.715  1.00  0.00     0.041 C 
ATOM      6  O   UNL     1      21.643  55.240  33.230  1.00  0.00    -0.550 OA
ATOM      7  O   UNL     1      20.510  57.216  33.003  1.00  0.00    -0.550 OA
ENDBRANCH   4   5
ENDBRANCH   3   4
ENDBRANCH   2   3
ENDBRANCH   1   2
BRANCH   1   8
ATOM      8  C   UNL     1      23.111  58.115  35.459  1.00  0.00     0.000 C 
BRANCH   8   9
ATOM      9  C   UNL     1      22.212  58.874  36.453  1.00  0.00     0.006 C 
BRANCH   9  10
ATOM     10  C   UNL     1      22.930  59.987  37.232  1.00  0.00     0.053 C 
BRANCH  10  11
ATOM     11  C   UNL     1      22.366  60.160  38.609  1.00  0.00     0.041 C 
ATOM     12  O   UNL     1      23.010  60.799  39.482  1.00  0.00    -0.550 OA
ATOM     13  O   UNL     1      21.143  59.588  38.936  1.00  0.00    -0.550 OA
ENDBRANCH  10  11
ENDBRANCH   9  10
ENDBRANCH   8   9
ENDBRANCH   1   8
TORSDOF 8
ENDMDL
MODEL 5
REMARK VINA RESULT:    -4.853     12.807     14.663
REMARK INTER + INTRA:          -7.539
REMARK INTER:                  -7.066
REMARK INTRA:                  -0.473
REMARK UNBOUND:                -0.416
REMARK SMILES O=C([O-])CCCCCCCC(=O)[O-]
REMARK SMILES IDX 7 1 6 2 5 3 4 4 2 5 1 6 3 7 8 8 9 9 10 10 11 11 12 12 13 13
REMARK H PARENT
REMARK Flexibility Score: inf
ROOT
ATOM      1  C   UNL     1      35.031  56.332  27.552  1.00  0.00     0.000 C 
ENDROOT
BRANCH   1   2
ATOM      2  C   UNL     1      34.014  56.758  26.485  1.00  0.00     0.000 C 
BRANCH   2   3
ATOM      3  C   UNL     1      32.631  56.110  26.675  1.00  0.00     0.006 C 
BRANCH   3   4
ATOM      4  C   UNL     1      32.525  55.219  27.926  1.00  0.00     0.053 C 
BRANCH   4   5
ATOM      5  C   UNL     1      32.379  53.765  27.590  1.00  0.00     0.041 C 
ATOM      6  O   UNL     1      31.489  53.385  26.785  1.00  0.00    -0.550 OA
ATOM      7  O   UNL     1      33.249  52.833  28.141  1.00  0.00    -0.550 OA
ENDBRANCH   4   5
ENDBRANCH   3   4
ENDBRANCH   2   3
ENDBRANCH   1   2
BRANCH   1   8
ATOM      8  C   UNL     1      36.158  57.368  27.681  1.00  0.00     0.000 C 
BRANCH   8   9
ATOM      9  C   UNL     1      36.272  57.954  29.101  1.00  0.00     0.006 C 
BRANCH   9  10
ATOM     10  C   UNL     1      35.119  57.565  30.040  1.00  0.00     0.053 C 
BRANCH  10  11
ATOM     11  C   UNL     1      35.328  58.086  31.428  1.00  0.00     0.041 C 
ATOM     12  O   UNL     1      36.222  58.943  31.656  1.00  0.00    -0.550 OA
ATOM     13  O   UNL     1      34.555  57.602  32.476  1.00  0.00    -0.550 OA
ENDBRANCH  10  11
ENDBRANCH   9  10
ENDBRANCH   8   9
ENDBRANCH   1   8
TORSDOF 8
ENDMDL
MODEL 6
REMARK VINA RESULT:    -4.842      2.736      3.544
REMARK INTER + INTRA:          -7.523
REMARK INTER:                  -7.176
REMARK INTRA:                  -0.348
REMARK UNBOUND:                -0.416
REMARK SMILES O=C([O-])CCCCCCCC(=O)[O-]
REMARK SMILES IDX 7 1 6 2 5 3 4 4 2 5 1 6 3 7 8 8 9 9 10 10 11 11 12 12 13 13
REMARK H PARENT
REMARK Flexibility Score: inf
ROOT
ATOM      1  C   UNL     1      22.819  59.519  36.487  1.00  0.00     0.000 C 
ENDROOT
BRANCH   1   2
ATOM      2  C   UNL     1      22.368  59.540  37.954  1.00  0.00     0.000 C 
BRANCH   2   3
ATOM      3  C   UNL     1      21.307  58.474  38.276  1.00  0.00     0.006 C 
BRANCH   3   4
ATOM      4  C   UNL     1      20.123  59.000  39.107  1.00  0.00     0.053 C 
BRANCH   4   5
ATOM      5  C   UNL     1      20.014  58.334  40.446  1.00  0.00     0.041 C 
ATOM      6  O   UNL     1      19.970  59.025  41.497  1.00  0.00    -0.550 OA
ATOM      7  O   UNL     1      19.925  56.951  40.529  1.00  0.00    -0.550 OA
ENDBRANCH   4   5
ENDBRANCH   3   4
ENDBRANCH   2   3
ENDBRANCH   1   2
BRANCH   1   8
ATOM      8  C   UNL     1      22.054  58.450  35.692  1.00  0.00     0.000 C 
BRANCH   8   9
ATOM      9  C   UNL     1      22.331  58.518  34.179  1.00  0.00     0.006 C 
BRANCH   9  10
ATOM     10  C   UNL     1      23.714  57.994  33.765  1.00  0.00     0.053 C 
BRANCH  10  11
ATOM     11  C   UNL     1      24.526  59.043  33.069  1.00  0.00     0.041 C 
ATOM     12  O   UNL     1      24.946  58.846  31.898  1.00  0.00    -0.550 OA
ATOM     13  O   UNL     1      24.844  60.225  33.725  1.00  0.00    -0.550 OA
ENDBRANCH  10  11
ENDBRANCH   9  10
ENDBRANCH   8   9
ENDBRANCH   1   8
TORSDOF 8
ENDMDL
MODEL 7
REMARK VINA RESULT:    -4.815     12.704     13.648
REMARK INTER + INTRA:          -7.484
REMARK INTER:                  -6.999
REMARK INTRA:                  -0.485
REMARK UNBOUND:                -0.416
REMARK SMILES O=C([O-])CCCCCCCC(=O)[O-]
REMARK SMILES IDX 7 1 6 2 5 3 4 4 2 5 1 6 3 7 8 8 9 9 10 10 11 11 12 12 13 13
REMARK H PARENT
REMARK Flexibility Score: inf
ROOT
ATOM      1  C   UNL     1      35.277  56.629  27.650  1.00  0.00     0.000 C 
ENDROOT
BRANCH   1   2
ATOM      2  C   UNL     1      35.909  57.972  28.043  1.00  0.00     0.000 C 
BRANCH   2   3
ATOM      3  C   UNL     1      36.092  58.133  29.562  1.00  0.00     0.006 C 
BRANCH   3   4
ATOM      4  C   UNL     1      34.995  57.451  30.400  1.00  0.00     0.053 C 
BRANCH   4   5
ATOM      5  C   UNL     1      35.104  57.765  31.862  1.00  0.00     0.041 C 
ATOM      6  O   UNL     1      36.035  58.499  32.287  1.00  0.00    -0.550 OA
ATOM      7  O   UNL     1      34.155  57.277  32.750  1.00  0.00    -0.550 OA
ENDBRANCH   4   5
ENDBRANCH   3   4
ENDBRANCH   2   3
ENDBRANCH   1   2
BRANCH   1   8
ATOM      8  C   UNL     1      34.456  56.765  26.359  1.00  0.00     0.000 C 
BRANCH   8   9
ATOM      9  C   UNL     1      33.025  56.211  26.501  1.00  0.00     0.006 C 
BRANCH   9  10
ATOM     10  C   UNL     1      32.760  55.475  27.824  1.00  0.00     0.053 C 
BRANCH  10  11
ATOM     11  C   UNL     1      32.500  54.016  27.610  1.00  0.00     0.041 C 
ATOM     12  O   UNL     1      31.457  53.639  27.013  1.00  0.00    -0.550 OA
ATOM     13  O   UNL     1      33.394  53.071  28.097  1.00  0.00    -0.550 OA
ENDBRANCH  10  11
ENDBRANCH   9  10
ENDBRANCH   8   9
ENDBRANCH   1   8
TORSDOF 8
ENDMDL
MODEL 8
REMARK VINA RESULT:    -4.785      2.559      6.361
REMARK INTER + INTRA:          -7.440
REMARK INTER:                  -7.116
REMARK INTRA:                  -0.324
REMARK UNBOUND:                -0.416
REMARK SMILES O=C([O-])CCCCCCCC(=O)[O-]
REMARK SMILES IDX 7 1 6 2 5 3 4 4 2 5 1 6 3 7 8 8 9 9 10 10 11 11 12 12 13 13
REMARK H PARENT
REMARK Flexibility Score: inf
ROOT
ATOM      1  C   UNL     1      22.796  59.561  36.653  1.00  0.00     0.000 C 
ENDROOT
BRANCH   1   2
ATOM      2  C   UNL     1      21.855  58.761  35.741  1.00  0.00     0.000 C 
BRANCH   2   3
ATOM      3  C   UNL     1      22.545  58.242  34.467  1.00  0.00     0.006 C 
BRANCH   3   4
ATOM      4  C   UNL     1      23.928  58.866  34.207  1.00  0.00     0.053 C 
BRANCH   4   5
ATOM      5  C   UNL     1      24.356  58.748  32.775  1.00  0.00     0.041 C 
ATOM      6  O   UNL     1      25.180  59.565  32.288  1.00  0.00    -0.550 OA
ATOM      7  O   UNL     1      23.869  57.713  31.987  1.00  0.00    -0.550 OA
ENDBRANCH   4   5
ENDBRANCH   3   4
ENDBRANCH   2   3
ENDBRANCH   1   2
BRANCH   1   8
ATOM      8  C   UNL     1      22.284  59.567  38.101  1.00  0.00     0.000 C 
BRANCH   8   9
ATOM      9  C   UNL     1      21.207  58.495  38.359  1.00  0.00     0.006 C 
BRANCH   9  10
ATOM     10  C   UNL     1      20.038  58.972  39.234  1.00  0.00     0.053 C 
BRANCH  10  11
ATOM     11  C   UNL     1      20.088  58.377  40.608  1.00  0.00     0.041 C 
ATOM     12  O   UNL     1      20.272  57.140  40.757  1.00  0.00    -0.550 OA
ATOM     13  O   UNL     1      19.899  59.184  41.723  1.00  0.00    -0.550 OA
ENDBRANCH  10  11
ENDBRANCH   9  10
ENDBRANCH   8   9
ENDBRANCH   1   8
TORSDOF 8
ENDMDL
MODEL 9
REMARK VINA RESULT:    -4.640     11.361     13.783
REMARK INTER + INTRA:          -7.226
REMARK INTER:                  -6.852
REMARK INTRA:                  -0.375
REMARK UNBOUND:                -0.416
REMARK SMILES O=C([O-])CCCCCCCC(=O)[O-]
REMARK SMILES IDX 7 1 6 2 5 3 4 4 2 5 1 6 3 7 8 8 9 9 10 10 11 11 12 12 13 13
REMARK H PARENT
REMARK Flexibility Score: inf
ROOT
ATOM      1  C   UNL     1      35.127  57.067  30.002  1.00  0.00     0.000 C 
ENDROOT
BRANCH   1   2
ATOM      2  C   UNL     1      35.704  57.762  28.761  1.00  0.00     0.000 C 
BRANCH   2   3
ATOM      3  C   UNL     1      35.753  56.848  27.525  1.00  0.00     0.006 C 
BRANCH   3   4
ATOM      4  C   UNL     1      34.579  57.050  26.551  1.00  0.00     0.053 C 
BRANCH   4   5
ATOM      5  C   UNL     1      33.425  56.136  26.838  1.00  0.00     0.041 C 
ATOM      6  O   UNL     1      32.263  56.442  26.461  1.00  0.00    -0.550 OA
ATOM      7  O   UNL     1      33.640  54.930  27.491  1.00  0.00    -0.550 OA
ENDBRANCH   4   5
ENDBRANCH   3   4
ENDBRANCH   2   3
ENDBRANCH   1   2
BRANCH   1   8
ATOM      8  C   UNL     1      34.981  58.057  31.168  1.00  0.00     0.000 C 
BRANCH   8   9
ATOM      9  C   UNL     1      34.616  57.367  32.496  1.00  0.00     0.006 C 
BRANCH   9  10
ATOM     10  C   UNL     1      33.659  56.173  32.346  1.00  0.00     0.053 C 
BRANCH  10  11
ATOM     11  C   UNL     1      32.299  56.474  32.896  1.00  0.00     0.041 C 
ATOM     12  O   UNL     1      31.569  57.340  32.346  1.00  0.00    -0.550 OA
ATOM     13  O   UNL     1      31.850  55.819  34.036  1.00  0.00    -0.550 OA
ENDBRANCH  10  11
ENDBRANCH   9  10
ENDBRANCH   8   9
ENDBRANCH   1   8
TORSDOF 8
ENDMDL
