MODEL 1
REMARK VINA RESULT:    -4.498      0.000      0.000
REMARK INTER + INTRA:          -7.209
REMARK INTER:                  -6.470
REMARK INTRA:                  -0.739
REMARK UNBOUND:                -0.739
REMARK SMILES CC(C)=CCCC(C)=CCCC(C)=CCO
REMARK SMILES IDX 10 1 9 2 7 3 8 4 6 5 5 6 4 7 1 8 2 9 3 10 11 11 12 12 14 13
REMARK SMILES IDX 13 14 15 15 16 16
REMARK H PARENT 16 17
REMARK Flexibility Score: inf
ROOT
ATOM      1  C   UNL     1     -15.231  -5.901   3.174  1.00  0.00     0.032 C 
ENDROOT
BRANCH   1   2
ATOM      2  C   UNL     1     -14.351  -7.073   3.531  1.00  0.00    -0.028 C 
ATOM      3  C   UNL     1     -14.427  -7.761   4.693  1.00  0.00    -0.077 C 
ATOM      4  C   UNL     1     -15.392  -7.370   5.790  1.00  0.00     0.039 C 
BRANCH   3   5
ATOM      5  C   UNL     1     -13.510  -8.944   4.908  1.00  0.00     0.034 C 
BRANCH   5   6
ATOM      6  C   UNL     1     -14.025  -9.833   6.045  1.00  0.00     0.032 C 
BRANCH   6   7
ATOM      7  C   UNL     1     -14.313 -11.227   5.545  1.00  0.00    -0.028 C 
ATOM      8  C   UNL     1     -16.644 -10.658   4.825  1.00  0.00     0.039 C 
ATOM      9  C   UNL     1     -15.477 -11.606   4.971  1.00  0.00    -0.080 C 
ATOM     10  C   UNL     1     -15.607 -13.026   4.483  1.00  0.00     0.039 C 
ENDBRANCH   6   7
ENDBRANCH   5   6
ENDBRANCH   3   5
ENDBRANCH   1   2
BRANCH   1  11
ATOM     11  C   UNL     1     -14.386  -4.655   2.883  1.00  0.00     0.034 C 
BRANCH  11  12
ATOM     12  C   UNL     1     -14.969  -3.438   3.565  1.00  0.00    -0.075 C 
ATOM     13  C   UNL     1     -15.804  -2.630   2.875  1.00  0.00    -0.000 C 
ATOM     14  C   UNL     1     -14.608  -3.152   5.004  1.00  0.00     0.039 C 
BRANCH  13  15
ATOM     15  C   UNL     1     -16.433  -1.397   3.466  1.00  0.00     0.183 C 
BRANCH  15  16
ATOM     16  O   UNL     1     -15.463  -0.396   3.603  1.00  0.00    -0.392 OA
ATOM     17  H   UNL     1     -15.384  -0.221   4.577  1.00  0.00     0.210 HD
ENDBRANCH  15  16
ENDBRANCH  13  15
ENDBRANCH  11  12
ENDBRANCH   1  11
TORSDOF 8
ENDMDL
MODEL 2
REMARK VINA RESULT:    -4.463      1.675      2.477
REMARK INTER + INTRA:          -7.159
REMARK INTER:                  -6.264
REMARK INTRA:                  -0.895
REMARK UNBOUND:                -0.739
REMARK SMILES CC(C)=CCCC(C)=CCCC(C)=CCO
REMARK SMILES IDX 10 1 9 2 7 3 8 4 6 5 5 6 4 7 1 8 2 9 3 10 11 11 12 12 14 13
REMARK SMILES IDX 13 14 15 15 16 16
REMARK H PARENT 16 17
REMARK Flexibility Score: inf
ROOT
ATOM      1  C   UNL     1     -15.021  -5.504   4.024  1.00  0.00     0.032 C 
ENDROOT
BRANCH   1   2
ATOM      2  C   UNL     1     -14.530  -6.815   3.462  1.00  0.00    -0.028 C 
ATOM      3  C   UNL     1     -15.222  -7.977   3.515  1.00  0.00    -0.077 C 
ATOM      4  C   UNL     1     -16.560  -8.077   4.210  1.00  0.00     0.039 C 
BRANCH   3   5
ATOM      5  C   UNL     1     -14.630  -9.214   2.875  1.00  0.00     0.034 C 
BRANCH   5   6
ATOM      6  C   UNL     1     -14.119 -10.187   3.943  1.00  0.00     0.032 C 
BRANCH   6   7
ATOM      7  C   UNL     1     -12.866  -9.657   4.595  1.00  0.00    -0.028 C 
ATOM      8  C   UNL     1     -14.036  -9.063   6.728  1.00  0.00     0.039 C 
ATOM      9  C   UNL     1     -12.809  -9.171   5.855  1.00  0.00    -0.080 C 
ATOM     10  C   UNL     1     -11.476  -8.712   6.387  1.00  0.00     0.039 C 
ENDBRANCH   6   7
ENDBRANCH   5   6
ENDBRANCH   3   5
ENDBRANCH   1   2
BRANCH   1  11
ATOM     11  C   UNL     1     -14.647  -4.342   3.098  1.00  0.00     0.034 C 
BRANCH  11  12
ATOM     12  C   UNL     1     -15.241  -3.043   3.597  1.00  0.00    -0.075 C 
ATOM     13  C   UNL     1     -16.211  -2.438   2.875  1.00  0.00    -0.000 C 
ATOM     14  C   UNL     1     -14.740  -2.450   4.893  1.00  0.00     0.039 C 
BRANCH  13  15
ATOM     15  C   UNL     1     -16.862  -1.146   3.289  1.00  0.00     0.183 C 
BRANCH  15  16
ATOM     16  O   UNL     1     -18.003  -1.419   4.053  1.00  0.00    -0.392 OA
ATOM     17  H   UNL     1     -18.076  -0.679   4.711  1.00  0.00     0.210 HD
ENDBRANCH  15  16
ENDBRANCH  13  15
ENDBRANCH  11  12
ENDBRANCH   1  11
TORSDOF 8
ENDMDL
MODEL 3
REMARK VINA RESULT:    -4.354      3.377      7.702
REMARK INTER + INTRA:          -7.002
REMARK INTER:                  -6.031
REMARK INTRA:                  -0.971
REMARK UNBOUND:                -0.739
REMARK SMILES CC(C)=CCCC(C)=CCCC(C)=CCO
REMARK SMILES IDX 10 1 9 2 7 3 8 4 6 5 5 6 4 7 1 8 2 9 3 10 11 11 12 12 14 13
REMARK SMILES IDX 13 14 15 15 16 16
REMARK H PARENT 16 17
REMARK Flexibility Score: inf
ROOT
ATOM      1  C   UNL     1     -14.469  -8.560   5.896  1.00  0.00     0.032 C 
ENDROOT
BRANCH   1   2
ATOM      2  C   UNL     1     -14.421  -7.541   4.785  1.00  0.00    -0.028 C 
ATOM      3  C   UNL     1     -15.438  -7.298   3.926  1.00  0.00    -0.077 C 
ATOM      4  C   UNL     1     -16.727  -8.087   3.972  1.00  0.00     0.039 C 
BRANCH   3   5
ATOM      5  C   UNL     1     -15.273  -6.218   2.880  1.00  0.00     0.034 C 
BRANCH   5   6
ATOM      6  C   UNL     1     -14.678  -4.948   3.498  1.00  0.00     0.032 C 
BRANCH   6   7
ATOM      7  C   UNL     1     -15.331  -3.716   2.923  1.00  0.00    -0.028 C 
ATOM      8  C   UNL     1     -15.077  -2.398   5.037  1.00  0.00     0.039 C 
ATOM      9  C   UNL     1     -15.495  -2.554   3.595  1.00  0.00    -0.080 C 
ATOM     10  C   UNL     1     -16.131  -1.393   2.875  1.00  0.00     0.039 C 
ENDBRANCH   6   7
ENDBRANCH   5   6
ENDBRANCH   3   5
ENDBRANCH   1   2
BRANCH   1  11
ATOM     11  C   UNL     1     -13.538  -9.739   5.592  1.00  0.00     0.034 C 
BRANCH  11  12
ATOM     12  C   UNL     1     -14.229 -10.759   4.716  1.00  0.00    -0.075 C 
ATOM     13  C   UNL     1     -15.355 -11.360   5.162  1.00  0.00    -0.000 C 
ATOM     14  C   UNL     1     -13.651 -11.084   3.359  1.00  0.00     0.039 C 
BRANCH  13  15
ATOM     15  C   UNL     1     -16.113 -12.387   4.365  1.00  0.00     0.183 C 
BRANCH  15  16
ATOM     16  O   UNL     1     -17.113 -12.956   5.164  1.00  0.00    -0.392 OA
ATOM     17  H   UNL     1     -17.495 -13.705   4.635  1.00  0.00     0.210 HD
ENDBRANCH  15  16
ENDBRANCH  13  15
ENDBRANCH  11  12
ENDBRANCH   1  11
TORSDOF 8
ENDMDL
MODEL 4
REMARK VINA RESULT:    -4.256     15.642     18.476
REMARK INTER + INTRA:          -6.862
REMARK INTER:                  -6.160
REMARK INTRA:                  -0.702
REMARK UNBOUND:                -0.739
REMARK SMILES CC(C)=CCCC(C)=CCCC(C)=CCO
REMARK SMILES IDX 10 1 9 2 7 3 8 4 6 5 5 6 4 7 1 8 2 9 3 10 11 11 12 12 14 13
REMARK SMILES IDX 13 14 15 15 16 16
REMARK H PARENT 16 17
REMARK Flexibility Score: inf
ROOT
ATOM      1  C   UNL     1     -10.891 -14.020  18.078  1.00  0.00     0.032 C 
ENDROOT
BRANCH   1   2
ATOM      2  C   UNL     1      -9.451 -13.910  18.512  1.00  0.00    -0.028 C 
ATOM      3  C   UNL     1      -8.553 -13.053  17.973  1.00  0.00    -0.077 C 
ATOM      4  C   UNL     1      -8.910 -12.143  16.821  1.00  0.00     0.039 C 
BRANCH   3   5
ATOM      5  C   UNL     1      -7.146 -13.017  18.530  1.00  0.00     0.034 C 
BRANCH   5   6
ATOM      6  C   UNL     1      -7.152 -13.284  20.040  1.00  0.00     0.032 C 
BRANCH   6   7
ATOM      7  C   UNL     1      -6.999 -11.997  20.811  1.00  0.00    -0.028 C 
ATOM      8  C   UNL     1      -4.501 -12.150  20.884  1.00  0.00     0.039 C 
ATOM      9  C   UNL     1      -5.813 -11.462  21.176  1.00  0.00    -0.080 C 
ATOM     10  C   UNL     1      -5.815 -10.146  21.911  1.00  0.00     0.039 C 
ENDBRANCH   6   7
ENDBRANCH   5   6
ENDBRANCH   3   5
ENDBRANCH   1   2
BRANCH   1  11
ATOM     11  C   UNL     1     -11.614 -15.117  18.867  1.00  0.00     0.034 C 
BRANCH  11  12
ATOM     12  C   UNL     1     -12.475 -14.518  19.957  1.00  0.00    -0.075 C 
ATOM     13  C   UNL     1     -13.812 -14.433  19.772  1.00  0.00    -0.000 C 
ATOM     14  C   UNL     1     -11.824 -14.030  21.229  1.00  0.00     0.039 C 
BRANCH  13  15
ATOM     15  C   UNL     1     -14.750 -13.853  20.796  1.00  0.00     0.183 C 
BRANCH  15  16
ATOM     16  O   UNL     1     -15.046 -12.526  20.461  1.00  0.00    -0.392 OA
ATOM     17  H   UNL     1     -14.575 -12.346  19.607  1.00  0.00     0.210 HD
ENDBRANCH  15  16
ENDBRANCH  13  15
ENDBRANCH  11  12
ENDBRANCH   1  11
TORSDOF 8
ENDMDL
MODEL 5
REMARK VINA RESULT:    -4.218     15.859     18.324
REMARK INTER + INTRA:          -6.806
REMARK INTER:                  -5.946
REMARK INTRA:                  -0.860
REMARK UNBOUND:                -0.739
REMARK SMILES CC(C)=CCCC(C)=CCCC(C)=CCO
REMARK SMILES IDX 10 1 9 2 7 3 8 4 6 5 5 6 4 7 1 8 2 9 3 10 11 11 12 12 14 13
REMARK SMILES IDX 13 14 15 15 16 16
REMARK H PARENT 16 17
REMARK Flexibility Score: inf
ROOT
ATOM      1  C   UNL     1      -8.318 -12.341  19.978  1.00  0.00     0.032 C 
ENDROOT
BRANCH   1   2
ATOM      2  C   UNL     1      -9.309 -13.285  19.345  1.00  0.00    -0.028 C 
ATOM      3  C   UNL     1      -9.716 -13.217  18.056  1.00  0.00    -0.077 C 
ATOM      4  C   UNL     1      -9.241 -12.123  17.127  1.00  0.00     0.039 C 
BRANCH   3   5
ATOM      5  C   UNL     1     -10.687 -14.254  17.536  1.00  0.00     0.034 C 
BRANCH   5   6
ATOM      6  C   UNL     1     -11.229 -15.115  18.683  1.00  0.00     0.032 C 
BRANCH   6   7
ATOM      7  C   UNL     1     -12.630 -14.694  19.050  1.00  0.00    -0.028 C 
ATOM      8  C   UNL     1     -12.089 -14.447  21.483  1.00  0.00     0.039 C 
ATOM      9  C   UNL     1     -13.026 -14.367  20.301  1.00  0.00    -0.080 C 
ATOM     10  C   UNL     1     -14.452 -13.926  20.510  1.00  0.00     0.039 C 
ENDBRANCH   6   7
ENDBRANCH   5   6
ENDBRANCH   3   5
ENDBRANCH   1   2
BRANCH   1  11
ATOM     11  C   UNL     1      -6.888 -12.872  19.828  1.00  0.00     0.034 C 
BRANCH  11  12
ATOM     12  C   UNL     1      -5.933 -12.105  20.715  1.00  0.00    -0.075 C 
ATOM     13  C   UNL     1      -6.371 -10.998  21.357  1.00  0.00    -0.000 C 
ATOM     14  C   UNL     1      -4.512 -12.592  20.868  1.00  0.00     0.039 C 
BRANCH  13  15
ATOM     15  C   UNL     1      -5.498 -10.169  22.259  1.00  0.00     0.183 C 
BRANCH  15  16
ATOM     16  O   UNL     1      -5.648  -8.814  21.941  1.00  0.00    -0.392 OA
ATOM     17  H   UNL     1      -6.624  -8.657  21.860  1.00  0.00     0.210 HD
ENDBRANCH  15  16
ENDBRANCH  13  15
ENDBRANCH  11  12
ENDBRANCH   1  11
TORSDOF 8
ENDMDL
MODEL 6
REMARK VINA RESULT:    -4.188      3.879      7.137
REMARK INTER + INTRA:          -6.763
REMARK INTER:                  -5.790
REMARK INTRA:                  -0.972
REMARK UNBOUND:                -0.739
REMARK SMILES CC(C)=CCCC(C)=CCCC(C)=CCO
REMARK SMILES IDX 10 1 9 2 7 3 8 4 6 5 5 6 4 7 1 8 2 9 3 10 11 11 12 12 14 13
REMARK SMILES IDX 13 14 15 15 16 16
REMARK H PARENT 16 17
REMARK Flexibility Score: inf
ROOT
ATOM      1  C   UNL     1     -14.601  -9.695   6.525  1.00  0.00     0.032 C 
ENDROOT
BRANCH   1   2
ATOM      2  C   UNL     1     -13.872  -9.259   5.278  1.00  0.00    -0.028 C 
ATOM      3  C   UNL     1     -12.577  -8.867   5.247  1.00  0.00    -0.077 C 
ATOM      4  C   UNL     1     -11.740  -8.776   6.502  1.00  0.00     0.039 C 
BRANCH   3   5
ATOM      5  C   UNL     1     -11.956  -8.491   3.919  1.00  0.00     0.034 C 
BRANCH   5   6
ATOM      6  C   UNL     1     -13.039  -8.195   2.876  1.00  0.00     0.032 C 
BRANCH   6   7
ATOM      7  C   UNL     1     -13.419  -6.736   2.900  1.00  0.00    -0.028 C 
ATOM      8  C   UNL     1     -15.857  -7.211   3.221  1.00  0.00     0.039 C 
ATOM      9  C   UNL     1     -14.679  -6.278   3.079  1.00  0.00    -0.080 C 
ATOM     10  C   UNL     1     -14.901  -4.788   3.120  1.00  0.00     0.039 C 
ENDBRANCH   6   7
ENDBRANCH   5   6
ENDBRANCH   3   5
ENDBRANCH   1   2
BRANCH   1  11
ATOM     11  C   UNL     1     -16.077  -9.975   6.222  1.00  0.00     0.034 C 
BRANCH  11  12
ATOM     12  C   UNL     1     -16.215 -10.943   5.067  1.00  0.00    -0.075 C 
ATOM     13  C   UNL     1     -15.558 -12.124   5.112  1.00  0.00    -0.000 C 
ATOM     14  C   UNL     1     -17.085 -10.572   3.891  1.00  0.00     0.039 C 
BRANCH  13  15
ATOM     15  C   UNL     1     -15.632 -13.150   4.015  1.00  0.00     0.183 C 
BRANCH  15  16
ATOM     16  O   UNL     1     -15.416 -14.426   4.550  1.00  0.00    -0.392 OA
ATOM     17  H   UNL     1     -14.432 -14.528   4.630  1.00  0.00     0.210 HD
ENDBRANCH  15  16
ENDBRANCH  13  15
ENDBRANCH  11  12
ENDBRANCH   1  11
TORSDOF 8
ENDMDL
MODEL 7
REMARK VINA RESULT:    -4.094     16.054     18.146
REMARK INTER + INTRA:          -6.628
REMARK INTER:                  -5.615
REMARK INTRA:                  -1.013
REMARK UNBOUND:                -0.739
REMARK SMILES CC(C)=CCCC(C)=CCCC(C)=CCO
REMARK SMILES IDX 10 1 9 2 7 3 8 4 6 5 5 6 4 7 1 8 2 9 3 10 11 11 12 12 14 13
REMARK SMILES IDX 13 14 15 15 16 16
REMARK H PARENT 16 17
REMARK Flexibility Score: inf
ROOT
ATOM      1  C   UNL     1     -10.934 -14.160  17.533  1.00  0.00     0.032 C 
ENDROOT
BRANCH   1   2
ATOM      2  C   UNL     1      -9.596 -14.764  17.877  1.00  0.00    -0.028 C 
ATOM      3  C   UNL     1      -8.403 -14.195  17.589  1.00  0.00    -0.077 C 
ATOM      4  C   UNL     1      -8.303 -12.893  16.828  1.00  0.00     0.039 C 
BRANCH   3   5
ATOM      5  C   UNL     1      -7.132 -14.891  18.027  1.00  0.00     0.034 C 
BRANCH   5   6
ATOM      6  C   UNL     1      -7.020 -14.908  19.556  1.00  0.00     0.032 C 
BRANCH   6   7
ATOM      7  C   UNL     1      -6.388 -13.635  20.060  1.00  0.00    -0.028 C 
ATOM      8  C   UNL     1      -8.562 -12.686  20.864  1.00  0.00     0.039 C 
ATOM      9  C   UNL     1      -7.065 -12.638  20.673  1.00  0.00    -0.080 C 
ATOM     10  C   UNL     1      -6.291 -11.439  21.160  1.00  0.00     0.039 C 
ENDBRANCH   6   7
ENDBRANCH   5   6
ENDBRANCH   3   5
ENDBRANCH   1   2
BRANCH   1  11
ATOM     11  C   UNL     1     -12.076 -15.080  17.977  1.00  0.00     0.034 C 
BRANCH  11  12
ATOM     12  C   UNL     1     -12.622 -14.651  19.321  1.00  0.00    -0.075 C 
ATOM     13  C   UNL     1     -13.931 -14.330  19.431  1.00  0.00    -0.000 C 
ATOM     14  C   UNL     1     -11.696 -14.593  20.512  1.00  0.00     0.039 C 
BRANCH  13  15
ATOM     15  C   UNL     1     -14.566 -13.891  20.722  1.00  0.00     0.183 C 
BRANCH  15  16
ATOM     16  O   UNL     1     -15.960 -13.909  20.589  1.00  0.00    -0.392 OA
ATOM     17  H   UNL     1     -16.180 -13.219  19.910  1.00  0.00     0.210 HD
ENDBRANCH  15  16
ENDBRANCH  13  15
ENDBRANCH  11  12
ENDBRANCH   1  11
TORSDOF 8
ENDMDL
MODEL 8
REMARK VINA RESULT:    -4.075     15.554     18.174
REMARK INTER + INTRA:          -6.600
REMARK INTER:                  -5.487
REMARK INTRA:                  -1.114
REMARK UNBOUND:                -0.739
REMARK SMILES CC(C)=CCCC(C)=CCCC(C)=CCO
REMARK SMILES IDX 10 1 9 2 7 3 8 4 6 5 5 6 4 7 1 8 2 9 3 10 11 11 12 12 14 13
REMARK SMILES IDX 13 14 15 15 16 16
REMARK H PARENT 16 17
REMARK Flexibility Score: inf
ROOT
ATOM      1  C   UNL     1      -7.833 -13.243  20.682  1.00  0.00     0.032 C 
ENDROOT
BRANCH   1   2
ATOM      2  C   UNL     1      -9.260 -12.949  21.072  1.00  0.00    -0.028 C 
ATOM      3  C   UNL     1      -9.886 -13.486  22.144  1.00  0.00    -0.077 C 
ATOM      4  C   UNL     1      -9.209 -14.496  23.041  1.00  0.00     0.039 C 
BRANCH   3   5
ATOM      5  C   UNL     1     -11.311 -13.074  22.445  1.00  0.00     0.034 C 
BRANCH   5   6
ATOM      6  C   UNL     1     -12.266 -14.262  22.286  1.00  0.00     0.032 C 
BRANCH   6   7
ATOM      7  C   UNL     1     -12.413 -14.639  20.833  1.00  0.00    -0.028 C 
ATOM      8  C   UNL     1     -14.594 -13.436  20.576  1.00  0.00     0.039 C 
ATOM      9  C   UNL     1     -13.442 -14.255  20.045  1.00  0.00    -0.080 C 
ATOM     10  C   UNL     1     -13.434 -14.677  18.598  1.00  0.00     0.039 C 
ENDBRANCH   6   7
ENDBRANCH   5   6
ENDBRANCH   3   5
ENDBRANCH   1   2
BRANCH   1  11
ATOM     11  C   UNL     1      -7.771 -14.391  19.668  1.00  0.00     0.034 C 
BRANCH  11  12
ATOM     12  C   UNL     1      -8.315 -13.952  18.326  1.00  0.00    -0.075 C 
ATOM     13  C   UNL     1      -7.745 -12.903  17.692  1.00  0.00    -0.000 C 
ATOM     14  C   UNL     1      -9.481 -14.697  17.721  1.00  0.00     0.039 C 
BRANCH  13  15
ATOM     15  C   UNL     1      -8.215 -12.392  16.357  1.00  0.00     0.183 C 
BRANCH  15  16
ATOM     16  O   UNL     1      -9.151 -11.369  16.549  1.00  0.00    -0.392 OA
ATOM     17  H   UNL     1      -9.532 -11.173  15.653  1.00  0.00     0.210 HD
ENDBRANCH  15  16
ENDBRANCH  13  15
ENDBRANCH  11  12
ENDBRANCH   1  11
TORSDOF 8
ENDMDL
MODEL 9
REMARK VINA RESULT:    -4.032      4.223      7.185
REMARK INTER + INTRA:          -6.539
REMARK INTER:                  -5.148
REMARK INTRA:                  -1.392
REMARK UNBOUND:                -0.739
REMARK SMILES CC(C)=CCCC(C)=CCCC(C)=CCO
REMARK SMILES IDX 10 1 9 2 7 3 8 4 6 5 5 6 4 7 1 8 2 9 3 10 11 11 12 12 14 13
REMARK SMILES IDX 13 14 15 15 16 16
REMARK H PARENT 16 17
REMARK Flexibility Score: inf
ROOT
ATOM      1  C   UNL     1     -15.976 -10.160   5.899  1.00  0.00     0.032 C 
ENDROOT
BRANCH   1   2
ATOM      2  C   UNL     1     -15.538  -8.843   5.308  1.00  0.00    -0.028 C 
ATOM      3  C   UNL     1     -15.977  -8.352   4.127  1.00  0.00    -0.077 C 
ATOM      4  C   UNL     1     -16.930  -9.126   3.245  1.00  0.00     0.039 C 
BRANCH   3   5
ATOM      5  C   UNL     1     -15.487  -6.996   3.668  1.00  0.00     0.034 C 
BRANCH   5   6
ATOM      6  C   UNL     1     -13.956  -6.966   3.597  1.00  0.00     0.032 C 
BRANCH   6   7
ATOM      7  C   UNL     1     -13.425  -8.238   2.985  1.00  0.00    -0.028 C 
ATOM      8  C   UNL     1     -11.970  -8.766   4.955  1.00  0.00     0.039 C 
ATOM      9  C   UNL     1     -12.551  -9.071   3.594  1.00  0.00    -0.080 C 
ATOM     10  C   UNL     1     -12.138 -10.329   2.875  1.00  0.00     0.039 C 
ENDBRANCH   6   7
ENDBRANCH   5   6
ENDBRANCH   3   5
ENDBRANCH   1   2
BRANCH   1  11
ATOM     11  C   UNL     1     -15.002 -11.279   5.514  1.00  0.00     0.034 C 
BRANCH  11  12
ATOM     12  C   UNL     1     -15.647 -12.243   4.544  1.00  0.00    -0.075 C 
ATOM     13  C   UNL     1     -16.674 -13.016   4.963  1.00  0.00    -0.000 C 
ATOM     14  C   UNL     1     -15.133 -12.322   3.126  1.00  0.00     0.039 C 
BRANCH  13  15
ATOM     15  C   UNL     1     -17.379 -14.004   4.074  1.00  0.00     0.183 C 
BRANCH  15  16
ATOM     16  O   UNL     1     -18.637 -13.502   3.720  1.00  0.00    -0.392 OA
ATOM     17  H   UNL     1     -18.468 -12.762   3.080  1.00  0.00     0.210 HD
ENDBRANCH  15  16
ENDBRANCH  13  15
ENDBRANCH  11  12
ENDBRANCH   1  11
TORSDOF 8
ENDMDL
