MODEL 1
REMARK VINA RESULT:    -4.557      0.000      0.000
REMARK INTER + INTRA:         -10.431
REMARK INTER:                  -8.553
REMARK INTRA:                  -1.878
REMARK UNBOUND:                -1.878
REMARK SMILES O=C([O-])CCCCCCCCCCCCCCC(=O)[O-]
REMARK SMILES IDX 10 1 9 2 8 3 7 4 6 5 5 6 4 7 2 8 1 9 3 10 11 11 12 12 13 13
REMARK SMILES IDX 14 14 15 15 16 16 17 17 18 18 19 19 20 20
REMARK H PARENT
REMARK Flexibility Score: inf
ROOT
ATOM      1  C   UNL     1     -10.835   3.257  19.889  1.00  0.00     0.000 C 
ENDROOT
BRANCH   1   2
ATOM      2  C   UNL     1     -11.385   4.265  18.864  1.00  0.00     0.000 C 
BRANCH   2   3
ATOM      3  C   UNL     1     -12.685   3.784  18.199  1.00  0.00     0.000 C 
BRANCH   3   4
ATOM      4  C   UNL     1     -12.460   3.277  16.764  1.00  0.00     0.000 C 
BRANCH   4   5
ATOM      5  C   UNL     1     -11.145   3.792  16.156  1.00  0.00     0.000 C 
BRANCH   5   6
ATOM      6  C   UNL     1     -10.260   2.657  15.613  1.00  0.00     0.006 C 
BRANCH   6   7
ATOM      7  C   UNL     1     -10.983   1.303  15.622  1.00  0.00     0.053 C 
BRANCH   7   8
ATOM      8  C   UNL     1     -10.837   0.584  14.315  1.00  0.00     0.041 C 
ATOM      9  O   UNL     1     -11.855   0.140  13.721  1.00  0.00    -0.550 OA
ATOM     10  O   UNL     1      -9.577   0.379  13.770  1.00  0.00    -0.550 OA
ENDBRANCH   7   8
ENDBRANCH   6   7
ENDBRANCH   5   6
ENDBRANCH   4   5
ENDBRANCH   3   4
ENDBRANCH   2   3
ENDBRANCH   1   2
BRANCH   1  11
ATOM     11  C   UNL     1      -9.300   3.172  19.874  1.00  0.00     0.000 C 
BRANCH  11  12
ATOM     12  C   UNL     1      -8.779   2.070  18.936  1.00  0.00     0.000 C 
BRANCH  12  13
ATOM     13  C   UNL     1      -9.667   0.812  18.939  1.00  0.00     0.000 C 
BRANCH  13  14
ATOM     14  C   UNL     1      -8.949  -0.499  19.319  1.00  0.00     0.000 C 
BRANCH  14  15
ATOM     15  C   UNL     1      -9.598  -1.289  20.469  1.00  0.00     0.000 C 
BRANCH  15  16
ATOM     16  C   UNL     1      -9.046  -0.895  21.850  1.00  0.00     0.006 C 
BRANCH  16  17
ATOM     17  C   UNL     1      -9.929   0.144  22.552  1.00  0.00     0.053 C 
BRANCH  17  18
ATOM     18  C   UNL     1      -9.515   0.351  23.976  1.00  0.00     0.041 C 
ATOM     19  O   UNL     1      -9.598  -0.594  24.804  1.00  0.00    -0.550 OA
ATOM     20  O   UNL     1      -9.004   1.579  24.382  1.00  0.00    -0.550 OA
ENDBRANCH  17  18
ENDBRANCH  16  17
ENDBRANCH  15  16
ENDBRANCH  14  15
ENDBRANCH  13  14
ENDBRANCH  12  13
ENDBRANCH  11  12
ENDBRANCH   1  11
TORSDOF 15
ENDMDL
MODEL 2
REMARK VINA RESULT:    -4.485      1.087      7.166
REMARK INTER + INTRA:         -10.296
REMARK INTER:                  -8.182
REMARK INTRA:                  -2.114
REMARK UNBOUND:                -1.878
REMARK SMILES O=C([O-])CCCCCCCCCCCCCCC(=O)[O-]
REMARK SMILES IDX 10 1 9 2 8 3 7 4 6 5 5 6 4 7 2 8 1 9 3 10 11 11 12 12 13 13
REMARK SMILES IDX 14 14 15 15 16 16 17 17 18 18 19 19 20 20
REMARK H PARENT
REMARK Flexibility Score: inf
ROOT
ATOM      1  C   UNL     1      -8.476   2.846  18.659  1.00  0.00     0.000 C 
ENDROOT
BRANCH   1   2
ATOM      2  C   UNL     1      -9.455   2.510  19.799  1.00  0.00     0.000 C 
BRANCH   2   3
ATOM      3  C   UNL     1     -10.348   1.301  19.477  1.00  0.00     0.000 C 
BRANCH   3   4
ATOM      4  C   UNL     1      -9.565   0.147  18.825  1.00  0.00     0.000 C 
BRANCH   4   5
ATOM      5  C   UNL     1      -8.742  -0.657  19.845  1.00  0.00     0.000 C 
BRANCH   5   6
ATOM      6  C   UNL     1      -9.577  -1.108  21.056  1.00  0.00     0.006 C 
BRANCH   6   7
ATOM      7  C   UNL     1      -8.888  -0.783  22.388  1.00  0.00     0.053 C 
BRANCH   7   8
ATOM      8  C   UNL     1      -9.765   0.038  23.284  1.00  0.00     0.041 C 
ATOM      9  O   UNL     1     -10.879   0.455  22.869  1.00  0.00    -0.550 OA
ATOM     10  O   UNL     1      -9.341   0.365  24.565  1.00  0.00    -0.550 OA
ENDBRANCH   7   8
ENDBRANCH   6   7
ENDBRANCH   5   6
ENDBRANCH   4   5
ENDBRANCH   3   4
ENDBRANCH   2   3
ENDBRANCH   1   2
BRANCH   1  11
ATOM     11  C   UNL     1      -8.869   4.121  17.896  1.00  0.00     0.000 C 
BRANCH  11  12
ATOM     12  C   UNL     1     -10.172   4.747  18.422  1.00  0.00     0.000 C 
BRANCH  12  13
ATOM     13  C   UNL     1     -11.168   5.088  17.299  1.00  0.00     0.000 C 
BRANCH  13  14
ATOM     14  C   UNL     1     -11.296   4.025  16.188  1.00  0.00     0.000 C 
BRANCH  14  15
ATOM     15  C   UNL     1     -12.331   2.919  16.458  1.00  0.00     0.000 C 
BRANCH  15  16
ATOM     16  C   UNL     1     -11.776   1.507  16.201  1.00  0.00     0.006 C 
BRANCH  16  17
ATOM     17  C   UNL     1     -10.449   1.538  15.432  1.00  0.00     0.053 C 
BRANCH  17  18
ATOM     18  C   UNL     1     -10.483   0.641  14.233  1.00  0.00     0.041 C 
ATOM     19  O   UNL     1      -9.409   0.221  13.726  1.00  0.00    -0.550 OA
ATOM     20  O   UNL     1     -11.701   0.241  13.695  1.00  0.00    -0.550 OA
ENDBRANCH  17  18
ENDBRANCH  16  17
ENDBRANCH  15  16
ENDBRANCH  14  15
ENDBRANCH  13  14
ENDBRANCH  12  13
ENDBRANCH  11  12
ENDBRANCH   1  11
TORSDOF 15
ENDMDL
MODEL 3
REMARK VINA RESULT:    -4.406      2.368      3.417
REMARK INTER + INTRA:         -10.147
REMARK INTER:                  -8.529
REMARK INTRA:                  -1.618
REMARK UNBOUND:                -1.878
REMARK SMILES O=C([O-])CCCCCCCCCCCCCCC(=O)[O-]
REMARK SMILES IDX 10 1 9 2 8 3 7 4 6 5 5 6 4 7 2 8 1 9 3 10 11 11 12 12 13 13
REMARK SMILES IDX 14 14 15 15 16 16 17 17 18 18 19 19 20 20
REMARK H PARENT
REMARK Flexibility Score: inf
ROOT
ATOM      1  C   UNL     1      -9.308   1.035  19.120  1.00  0.00     0.000 C 
ENDROOT
BRANCH   1   2
ATOM      2  C   UNL     1     -10.810   1.167  18.808  1.00  0.00     0.000 C 
BRANCH   2   3
ATOM      3  C   UNL     1     -11.090   2.105  17.623  1.00  0.00     0.000 C 
BRANCH   3   4
ATOM      4  C   UNL     1      -9.804   2.718  17.040  1.00  0.00     0.000 C 
BRANCH   4   5
ATOM      5  C   UNL     1      -9.569   2.312  15.576  1.00  0.00     0.000 C 
BRANCH   5   6
ATOM      6  C   UNL     1      -9.838   0.818  15.325  1.00  0.00     0.006 C 
BRANCH   6   7
ATOM      7  C   UNL     1     -10.507   0.570  13.966  1.00  0.00     0.053 C 
BRANCH   7   8
ATOM      8  C   UNL     1     -11.933   0.136  14.116  1.00  0.00     0.041 C 
ATOM      9  O   UNL     1     -12.697   0.738  14.916  1.00  0.00    -0.550 OA
ATOM     10  O   UNL     1     -12.409  -0.952  13.396  1.00  0.00    -0.550 OA
ENDBRANCH   7   8
ENDBRANCH   6   7
ENDBRANCH   5   6
ENDBRANCH   4   5
ENDBRANCH   3   4
ENDBRANCH   2   3
ENDBRANCH   1   2
BRANCH   1  11
ATOM     11  C   UNL     1      -8.885  -0.416  19.399  1.00  0.00     0.000 C 
BRANCH  11  12
ATOM     12  C   UNL     1      -9.744  -1.083  20.487  1.00  0.00     0.000 C 
BRANCH  12  13
ATOM     13  C   UNL     1      -9.172  -0.887  21.903  1.00  0.00     0.000 C 
BRANCH  13  14
ATOM     14  C   UNL     1      -9.844   0.223  22.737  1.00  0.00     0.000 C 
BRANCH  14  15
ATOM     15  C   UNL     1     -11.332   0.463  22.427  1.00  0.00     0.000 C 
BRANCH  15  16
ATOM     16  C   UNL     1     -11.684   1.956  22.312  1.00  0.00     0.006 C 
BRANCH  16  17
ATOM     17  C   UNL     1     -13.191   2.184  22.139  1.00  0.00     0.053 C 
BRANCH  17  18
ATOM     18  C   UNL     1     -13.954   1.791  23.367  1.00  0.00     0.041 C 
ATOM     19  O   UNL     1     -13.638   2.267  24.489  1.00  0.00    -0.550 OA
ATOM     20  O   UNL     1     -15.038   0.925  23.267  1.00  0.00    -0.550 OA
ENDBRANCH  17  18
ENDBRANCH  16  17
ENDBRANCH  15  16
ENDBRANCH  14  15
ENDBRANCH  13  14
ENDBRANCH  12  13
ENDBRANCH  11  12
ENDBRANCH   1  11
TORSDOF 15
ENDMDL
MODEL 4
REMARK VINA RESULT:    -4.371      0.957      7.816
REMARK INTER + INTRA:         -10.082
REMARK INTER:                  -8.245
REMARK INTRA:                  -1.836
REMARK UNBOUND:                -1.878
REMARK SMILES O=C([O-])CCCCCCCCCCCCCCC(=O)[O-]
REMARK SMILES IDX 10 1 9 2 8 3 7 4 6 5 5 6 4 7 2 8 1 9 3 10 11 11 12 12 13 13
REMARK SMILES IDX 14 14 15 15 16 16 17 17 18 18 19 19 20 20
REMARK H PARENT
REMARK Flexibility Score: inf
ROOT
ATOM      1  C   UNL     1     -10.927   1.147  19.670  1.00  0.00     0.000 C 
ENDROOT
BRANCH   1   2
ATOM      2  C   UNL     1      -9.532   0.884  19.074  1.00  0.00     0.000 C 
BRANCH   2   3
ATOM      3  C   UNL     1      -8.959  -0.482  19.486  1.00  0.00     0.000 C 
BRANCH   3   4
ATOM      4  C   UNL     1      -9.660  -1.065  20.725  1.00  0.00     0.000 C 
BRANCH   4   5
ATOM      5  C   UNL     1      -8.821  -0.908  22.005  1.00  0.00     0.000 C 
BRANCH   5   6
ATOM      6  C   UNL     1      -9.624  -0.304  23.169  1.00  0.00     0.006 C 
BRANCH   6   7
ATOM      7  C   UNL     1      -9.462   1.220  23.256  1.00  0.00     0.053 C 
BRANCH   7   8
ATOM      8  C   UNL     1      -9.496   1.705  24.674  1.00  0.00     0.041 C 
ATOM      9  O   UNL     1      -9.201   2.899  24.941  1.00  0.00    -0.550 OA
ATOM     10  O   UNL     1      -9.825   0.830  25.701  1.00  0.00    -0.550 OA
ENDBRANCH   7   8
ENDBRANCH   6   7
ENDBRANCH   5   6
ENDBRANCH   4   5
ENDBRANCH   3   4
ENDBRANCH   2   3
ENDBRANCH   1   2
BRANCH   1  11
ATOM     11  C   UNL     1     -11.118   2.605  20.116  1.00  0.00     0.000 C 
BRANCH  11  12
ATOM     12  C   UNL     1     -11.949   3.426  19.116  1.00  0.00     0.000 C 
BRANCH  12  13
ATOM     13  C   UNL     1     -11.079   4.191  18.102  1.00  0.00     0.000 C 
BRANCH  13  14
ATOM     14  C   UNL     1     -11.317   3.825  16.622  1.00  0.00     0.000 C 
BRANCH  14  15
ATOM     15  C   UNL     1     -12.453   2.818  16.373  1.00  0.00     0.000 C 
BRANCH  15  16
ATOM     16  C   UNL     1     -11.937   1.394  16.100  1.00  0.00     0.006 C 
BRANCH  16  17
ATOM     17  C   UNL     1     -10.512   1.392  15.533  1.00  0.00     0.053 C 
BRANCH  17  18
ATOM     18  C   UNL     1     -10.426   0.620  14.252  1.00  0.00     0.041 C 
ATOM     19  O   UNL     1      -9.317   0.475  13.673  1.00  0.00    -0.550 OA
ATOM     20  O   UNL     1     -11.566   0.031  13.715  1.00  0.00    -0.550 OA
ENDBRANCH  17  18
ENDBRANCH  16  17
ENDBRANCH  15  16
ENDBRANCH  14  15
ENDBRANCH  13  14
ENDBRANCH  12  13
ENDBRANCH  11  12
ENDBRANCH   1  11
TORSDOF 15
ENDMDL
MODEL 5
REMARK VINA RESULT:    -4.319      1.405      7.332
REMARK INTER + INTRA:          -9.984
REMARK INTER:                  -8.279
REMARK INTRA:                  -1.705
REMARK UNBOUND:                -1.878
REMARK SMILES O=C([O-])CCCCCCCCCCCCCCC(=O)[O-]
REMARK SMILES IDX 10 1 9 2 8 3 7 4 6 5 5 6 4 7 2 8 1 9 3 10 11 11 12 12 13 13
REMARK SMILES IDX 14 14 15 15 16 16 17 17 18 18 19 19 20 20
REMARK H PARENT
REMARK Flexibility Score: inf
ROOT
ATOM      1  C   UNL     1      -8.885   1.902  18.624  1.00  0.00     0.000 C 
ENDROOT
BRANCH   1   2
ATOM      2  C   UNL     1      -9.497   0.490  18.577  1.00  0.00     0.000 C 
BRANCH   2   3
ATOM      3  C   UNL     1      -8.787  -0.495  19.519  1.00  0.00     0.000 C 
BRANCH   3   4
ATOM      4  C   UNL     1      -9.651  -0.877  20.733  1.00  0.00     0.000 C 
BRANCH   4   5
ATOM      5  C   UNL     1      -8.843  -0.925  22.040  1.00  0.00     0.000 C 
BRANCH   5   6
ATOM      6  C   UNL     1      -9.556  -0.214  23.203  1.00  0.00     0.006 C 
BRANCH   6   7
ATOM      7  C   UNL     1     -10.307   1.043  22.741  1.00  0.00     0.053 C 
BRANCH   7   8
ATOM      8  C   UNL     1     -11.788   0.908  22.927  1.00  0.00     0.041 C 
ATOM      9  O   UNL     1     -12.246   0.171  23.839  1.00  0.00    -0.550 OA
ATOM     10  O   UNL     1     -12.660   1.574  22.076  1.00  0.00    -0.550 OA
ENDBRANCH   7   8
ENDBRANCH   6   7
ENDBRANCH   5   6
ENDBRANCH   4   5
ENDBRANCH   3   4
ENDBRANCH   2   3
ENDBRANCH   1   2
BRANCH   1  11
ATOM     11  C   UNL     1      -9.481   2.770  19.745  1.00  0.00     0.000 C 
BRANCH  11  12
ATOM     12  C   UNL     1     -10.482   3.811  19.217  1.00  0.00     0.000 C 
BRANCH  12  13
ATOM     13  C   UNL     1     -11.883   3.222  18.969  1.00  0.00     0.000 C 
BRANCH  13  14
ATOM     14  C   UNL     1     -12.596   3.733  17.700  1.00  0.00     0.000 C 
BRANCH  14  15
ATOM     15  C   UNL     1     -11.803   3.567  16.392  1.00  0.00     0.000 C 
BRANCH  15  16
ATOM     16  C   UNL     1     -11.678   2.098  15.953  1.00  0.00     0.006 C 
BRANCH  16  17
ATOM     17  C   UNL     1     -10.362   1.824  15.214  1.00  0.00     0.053 C 
BRANCH  17  18
ATOM     18  C   UNL     1     -10.477   0.645  14.297  1.00  0.00     0.041 C 
ATOM     19  O   UNL     1      -9.443   0.028  13.928  1.00  0.00    -0.550 OA
ATOM     20  O   UNL     1     -11.728   0.207  13.877  1.00  0.00    -0.550 OA
ENDBRANCH  17  18
ENDBRANCH  16  17
ENDBRANCH  15  16
ENDBRANCH  14  15
ENDBRANCH  13  14
ENDBRANCH  12  13
ENDBRANCH  11  12
ENDBRANCH   1  11
TORSDOF 15
ENDMDL
MODEL 6
REMARK VINA RESULT:    -4.283      1.894      3.021
REMARK INTER + INTRA:          -9.917
REMARK INTER:                  -7.466
REMARK INTRA:                  -2.451
REMARK UNBOUND:                -1.878
REMARK SMILES O=C([O-])CCCCCCCCCCCCCCC(=O)[O-]
REMARK SMILES IDX 10 1 9 2 8 3 7 4 6 5 5 6 4 7 2 8 1 9 3 10 11 11 12 12 13 13
REMARK SMILES IDX 14 14 15 15 16 16 17 17 18 18 19 19 20 20
REMARK H PARENT
REMARK Flexibility Score: inf
ROOT
ATOM      1  C   UNL     1      -9.382   0.510  18.670  1.00  0.00     0.000 C 
ENDROOT
BRANCH   1   2
ATOM      2  C   UNL     1      -8.855   1.932  18.939  1.00  0.00     0.000 C 
BRANCH   2   3
ATOM      3  C   UNL     1      -9.901   3.018  18.638  1.00  0.00     0.000 C 
BRANCH   3   4
ATOM      4  C   UNL     1     -11.338   2.468  18.635  1.00  0.00     0.000 C 
BRANCH   4   5
ATOM      5  C   UNL     1     -12.286   3.301  17.757  1.00  0.00     0.000 C 
BRANCH   5   6
ATOM      6  C   UNL     1     -12.197   2.926  16.268  1.00  0.00     0.006 C 
BRANCH   6   7
ATOM      7  C   UNL     1     -12.046   1.412  16.059  1.00  0.00     0.053 C 
BRANCH   7   8
ATOM      8  C   UNL     1     -10.903   1.085  15.147  1.00  0.00     0.041 C 
ATOM      9  O   UNL     1      -9.771   1.602  15.342  1.00  0.00    -0.550 OA
ATOM     10  O   UNL     1     -11.096   0.234  14.067  1.00  0.00    -0.550 OA
ENDBRANCH   7   8
ENDBRANCH   6   7
ENDBRANCH   5   6
ENDBRANCH   4   5
ENDBRANCH   3   4
ENDBRANCH   2   3
ENDBRANCH   1   2
BRANCH   1  11
ATOM     11  C   UNL     1      -8.760  -0.540  19.605  1.00  0.00     0.000 C 
BRANCH  11  12
ATOM     12  C   UNL     1      -9.819  -1.333  20.389  1.00  0.00     0.000 C 
BRANCH  12  13
ATOM     13  C   UNL     1     -11.231  -0.733  20.262  1.00  0.00     0.000 C 
BRANCH  13  14
ATOM     14  C   UNL     1     -11.781  -0.067  21.541  1.00  0.00     0.000 C 
BRANCH  14  15
ATOM     15  C   UNL     1     -10.713   0.406  22.541  1.00  0.00     0.000 C 
BRANCH  15  16
ATOM     16  C   UNL     1     -10.255   1.853  22.286  1.00  0.00     0.006 C 
BRANCH  16  17
ATOM     17  C   UNL     1     -11.430   2.838  22.271  1.00  0.00     0.053 C 
BRANCH  17  18
ATOM     18  C   UNL     1     -12.086   2.938  23.614  1.00  0.00     0.041 C 
ATOM     19  O   UNL     1     -13.312   2.680  23.741  1.00  0.00    -0.550 OA
ATOM     20  O   UNL     1     -11.335   3.284  24.732  1.00  0.00    -0.550 OA
ENDBRANCH  17  18
ENDBRANCH  16  17
ENDBRANCH  15  16
ENDBRANCH  14  15
ENDBRANCH  13  14
ENDBRANCH  12  13
ENDBRANCH  11  12
ENDBRANCH   1  11
TORSDOF 15
ENDMDL
MODEL 7
REMARK VINA RESULT:    -4.262      2.273      6.862
REMARK INTER + INTRA:          -9.877
REMARK INTER:                  -7.957
REMARK INTRA:                  -1.920
REMARK UNBOUND:                -1.878
REMARK SMILES O=C([O-])CCCCCCCCCCCCCCC(=O)[O-]
REMARK SMILES IDX 10 1 9 2 8 3 7 4 6 5 5 6 4 7 2 8 1 9 3 10 11 11 12 12 13 13
REMARK SMILES IDX 14 14 15 15 16 16 17 17 18 18 19 19 20 20
REMARK H PARENT
REMARK Flexibility Score: inf
ROOT
ATOM      1  C   UNL     1      -9.325   0.726  18.590  1.00  0.00     0.000 C 
ENDROOT
BRANCH   1   2
ATOM      2  C   UNL     1      -8.798  -0.508  19.345  1.00  0.00     0.000 C 
BRANCH   2   3
ATOM      3  C   UNL     1      -9.903  -1.246  20.118  1.00  0.00     0.000 C 
BRANCH   3   4
ATOM      4  C   UNL     1     -11.240  -0.483  20.108  1.00  0.00     0.000 C 
BRANCH   4   5
ATOM      5  C   UNL     1     -11.753  -0.176  21.525  1.00  0.00     0.000 C 
BRANCH   5   6
ATOM      6  C   UNL     1     -11.481   1.277  21.951  1.00  0.00     0.006 C 
BRANCH   6   7
ATOM      7  C   UNL     1     -12.082   2.292  20.968  1.00  0.00     0.053 C 
BRANCH   7   8
ATOM      8  C   UNL     1     -13.226   3.046  21.573  1.00  0.00     0.041 C 
ATOM      9  O   UNL     1     -13.907   3.836  20.867  1.00  0.00    -0.550 OA
ATOM     10  O   UNL     1     -13.522   2.898  22.922  1.00  0.00    -0.550 OA
ENDBRANCH   7   8
ENDBRANCH   6   7
ENDBRANCH   5   6
ENDBRANCH   4   5
ENDBRANCH   3   4
ENDBRANCH   2   3
ENDBRANCH   1   2
BRANCH   1  11
ATOM     11  C   UNL     1      -8.923   2.049  19.262  1.00  0.00     0.000 C 
BRANCH  11  12
ATOM     12  C   UNL     1      -8.362   3.074  18.260  1.00  0.00     0.000 C 
BRANCH  12  13
ATOM     13  C   UNL     1      -9.455   3.713  17.384  1.00  0.00     0.000 C 
BRANCH  13  14
ATOM     14  C   UNL     1     -10.780   4.028  18.109  1.00  0.00     0.000 C 
BRANCH  14  15
ATOM     15  C   UNL     1     -12.026   3.347  17.518  1.00  0.00     0.000 C 
BRANCH  15  16
ATOM     16  C   UNL     1     -11.833   2.919  16.052  1.00  0.00     0.006 C 
BRANCH  16  17
ATOM     17  C   UNL     1     -12.044   1.413  15.856  1.00  0.00     0.053 C 
BRANCH  17  18
ATOM     18  C   UNL     1     -11.073   0.842  14.868  1.00  0.00     0.041 C 
ATOM     19  O   UNL     1     -11.473   0.050  13.974  1.00  0.00    -0.550 OA
ATOM     20  O   UNL     1      -9.734   1.211  14.914  1.00  0.00    -0.550 OA
ENDBRANCH  17  18
ENDBRANCH  16  17
ENDBRANCH  15  16
ENDBRANCH  14  15
ENDBRANCH  13  14
ENDBRANCH  12  13
ENDBRANCH  11  12
ENDBRANCH   1  11
TORSDOF 15
ENDMDL
MODEL 8
REMARK VINA RESULT:    -4.239      3.058      6.475
REMARK INTER + INTRA:          -9.835
REMARK INTER:                  -7.976
REMARK INTRA:                  -1.859
REMARK UNBOUND:                -1.878
REMARK SMILES O=C([O-])CCCCCCCCCCCCCCC(=O)[O-]
REMARK SMILES IDX 10 1 9 2 8 3 7 4 6 5 5 6 4 7 2 8 1 9 3 10 11 11 12 12 13 13
REMARK SMILES IDX 14 14 15 15 16 16 17 17 18 18 19 19 20 20
REMARK H PARENT
REMARK Flexibility Score: inf
ROOT
ATOM      1  C   UNL     1     -11.483   0.517  21.720  1.00  0.00     0.000 C 
ENDROOT
BRANCH   1   2
ATOM      2  C   UNL     1     -11.368   2.051  21.787  1.00  0.00     0.000 C 
BRANCH   2   3
ATOM      3  C   UNL     1      -9.916   2.542  21.672  1.00  0.00     0.000 C 
BRANCH   3   4
ATOM      4  C   UNL     1      -9.776   3.754  20.735  1.00  0.00     0.000 C 
BRANCH   4   5
ATOM      5  C   UNL     1      -8.323   4.244  20.617  1.00  0.00     0.000 C 
BRANCH   5   6
ATOM      6  C   UNL     1      -7.848   4.344  19.158  1.00  0.00     0.006 C 
BRANCH   6   7
ATOM      7  C   UNL     1      -6.608   3.479  18.891  1.00  0.00     0.053 C 
BRANCH   7   8
ATOM      8  C   UNL     1      -5.367   4.309  18.758  1.00  0.00     0.041 C 
ATOM      9  O   UNL     1      -5.341   5.484  19.209  1.00  0.00    -0.550 OA
ATOM     10  O   UNL     1      -4.252   3.794  18.111  1.00  0.00    -0.550 OA
ENDBRANCH   7   8
ENDBRANCH   6   7
ENDBRANCH   5   6
ENDBRANCH   4   5
ENDBRANCH   3   4
ENDBRANCH   2   3
ENDBRANCH   1   2
BRANCH   1  11
ATOM     11  C   UNL     1     -10.125  -0.172  21.510  1.00  0.00     0.000 C 
BRANCH  11  12
ATOM     12  C   UNL     1     -10.037  -0.906  20.161  1.00  0.00     0.000 C 
BRANCH  12  13
ATOM     13  C   UNL     1      -8.954  -0.324  19.234  1.00  0.00     0.000 C 
BRANCH  13  14
ATOM     14  C   UNL     1      -9.377   0.922  18.429  1.00  0.00     0.000 C 
BRANCH  14  15
ATOM     15  C   UNL     1     -10.877   1.010  18.101  1.00  0.00     0.000 C 
BRANCH  15  16
ATOM     16  C   UNL     1     -11.162   1.822  16.826  1.00  0.00     0.006 C 
BRANCH  16  17
ATOM     17  C   UNL     1     -12.193   1.136  15.921  1.00  0.00     0.053 C 
BRANCH  17  18
ATOM     18  C   UNL     1     -11.584   0.685  14.629  1.00  0.00     0.041 C 
ATOM     19  O   UNL     1     -10.367   0.908  14.392  1.00  0.00    -0.550 OA
ATOM     20  O   UNL     1     -12.351  -0.011  13.701  1.00  0.00    -0.550 OA
ENDBRANCH  17  18
ENDBRANCH  16  17
ENDBRANCH  15  16
ENDBRANCH  14  15
ENDBRANCH  13  14
ENDBRANCH  12  13
ENDBRANCH  11  12
ENDBRANCH   1  11
TORSDOF 15
ENDMDL
MODEL 9
REMARK VINA RESULT:    -4.144      1.956      6.529
REMARK INTER + INTRA:          -9.655
REMARK INTER:                  -7.556
REMARK INTRA:                  -2.099
REMARK UNBOUND:                -1.878
REMARK SMILES O=C([O-])CCCCCCCCCCCCCCC(=O)[O-]
REMARK SMILES IDX 10 1 9 2 8 3 7 4 6 5 5 6 4 7 2 8 1 9 3 10 11 11 12 12 13 13
REMARK SMILES IDX 14 14 15 15 16 16 17 17 18 18 19 19 20 20
REMARK H PARENT
REMARK Flexibility Score: inf
ROOT
ATOM      1  C   UNL     1      -9.188   6.234  17.773  1.00  0.00     0.000 C 
ENDROOT
BRANCH   1   2
ATOM      2  C   UNL     1      -8.477   4.909  17.441  1.00  0.00     0.000 C 
BRANCH   2   3
ATOM      3  C   UNL     1      -7.684   4.348  18.632  1.00  0.00     0.000 C 
BRANCH   3   4
ATOM      4  C   UNL     1      -7.970   2.856  18.880  1.00  0.00     0.000 C 
BRANCH   4   5
ATOM      5  C   UNL     1      -9.241   2.630  19.714  1.00  0.00     0.000 C 
BRANCH   5   6
ATOM      6  C   UNL     1     -10.011   1.367  19.291  1.00  0.00     0.006 C 
BRANCH   6   7
ATOM      7  C   UNL     1      -9.116   0.119  19.282  1.00  0.00     0.053 C 
BRANCH   7   8
ATOM      8  C   UNL     1      -9.484  -0.839  20.373  1.00  0.00     0.041 C 
ATOM      9  O   UNL     1      -9.938  -1.978  20.088  1.00  0.00    -0.550 OA
ATOM     10  O   UNL     1      -9.352  -0.463  21.704  1.00  0.00    -0.550 OA
ENDBRANCH   7   8
ENDBRANCH   6   7
ENDBRANCH   5   6
ENDBRANCH   4   5
ENDBRANCH   3   4
ENDBRANCH   2   3
ENDBRANCH   1   2
BRANCH   1  11
ATOM     11  C   UNL     1     -10.239   6.081  18.884  1.00  0.00     0.000 C 
BRANCH  11  12
ATOM     12  C   UNL     1     -11.674   6.009  18.335  1.00  0.00     0.000 C 
BRANCH  12  13
ATOM     13  C   UNL     1     -11.813   5.031  17.154  1.00  0.00     0.000 C 
BRANCH  13  14
ATOM     14  C   UNL     1     -12.387   3.645  17.511  1.00  0.00     0.000 C 
BRANCH  14  15
ATOM     15  C   UNL     1     -12.147   2.548  16.460  1.00  0.00     0.000 C 
BRANCH  15  16
ATOM     16  C   UNL     1     -10.877   2.788  15.626  1.00  0.00     0.006 C 
BRANCH  16  17
ATOM     17  C   UNL     1      -9.968   1.554  15.586  1.00  0.00     0.053 C 
BRANCH  17  18
ATOM     18  C   UNL     1     -10.177   0.752  14.338  1.00  0.00     0.041 C 
ATOM     19  O   UNL     1      -9.190   0.388  13.646  1.00  0.00    -0.550 OA
ATOM     20  O   UNL     1     -11.461   0.376  13.958  1.00  0.00    -0.550 OA
ENDBRANCH  17  18
ENDBRANCH  16  17
ENDBRANCH  15  16
ENDBRANCH  14  15
ENDBRANCH  13  14
ENDBRANCH  12  13
ENDBRANCH  11  12
ENDBRANCH   1  11
TORSDOF 15
ENDMDL
