MODEL 1
REMARK VINA RESULT:    10.558      0.000      0.000
REMARK INTER + INTRA:          11.393
REMARK INTER:                  11.484
REMARK INTRA:                  -0.091
REMARK UNBOUND:                -0.091
REMARK SMILES CC1(C)CC[C@]2(C(=O)[O-])CC[C@]3(C)C(=CC[C@@H]4[C@]5(C)CC[C@H](O)C(C)(C)[C@H]5CC[C@@]43C)[C@@H]2C1
REMARK SMILES IDX 6 1 5 2 10 3 32 4 4 5 11 6 14 7 33 8 2 9 12 10 15 11 1 12
REMARK SMILES IDX 3 13 13 14 30 15 16 16 17 17 29 18 31 19 18 20 28 21 27 22
REMARK SMILES IDX 20 23 19 24 24 25 21 26 22 27 25 28 26 29 7 30 8 31 9 32
REMARK SMILES IDX 23 33
REMARK H PARENT 23 34
REMARK Flexibility Score: inf
ROOT
ATOM      1  C   UNL     1       7.681  -8.384  20.820  1.00  0.00     0.017 C 
ATOM      2  C   UNL     1       6.700  -9.547  21.147  1.00  0.00     0.014 C 
ATOM      3  C   UNL     1       8.335  -7.835  22.125  1.00  0.00     0.014 C 
ATOM      4  C   UNL     1       6.947  -7.221  20.062  1.00  0.00     0.028 C 
ATOM      5  C   UNL     1       5.352  -9.101  21.737  1.00  0.00     0.007 C 
ATOM      6  C   UNL     1       9.294  -6.632  21.885  1.00  0.00     0.013 C 
ATOM      7  C   UNL     1       7.919  -6.039  19.896  1.00  0.00    -0.064 C 
ATOM      8  C   UNL     1       5.570  -6.834  20.654  1.00  0.00     0.015 C 
ATOM      9  C   UNL     1       4.626  -8.044  20.870  1.00  0.00    -0.035 C 
ATOM     10  C   UNL     1       8.640  -5.427  21.125  1.00  0.00    -0.006 C 
ATOM     11  C   UNL     1       8.528  -5.987  18.697  1.00  0.00    -0.027 C 
ATOM     12  C   UNL     1       3.370  -7.564  21.633  1.00  0.00     0.011 C 
ATOM     13  C   UNL     1       4.153  -8.645  19.524  1.00  0.00     0.011 C 
ATOM     14  C   UNL     1       7.596  -4.779  22.100  1.00  0.00     0.017 C 
ATOM     15  C   UNL     1       9.712  -4.271  20.676  1.00  0.00    -0.020 C 
ATOM     16  C   UNL     1      10.012  -5.868  18.636  1.00  0.00     0.032 C 
ATOM     17  C   UNL     1      10.492  -4.569  19.294  1.00  0.00     0.006 C 
ATOM     18  C   UNL     1      10.684  -3.938  21.881  1.00  0.00     0.008 C 
ATOM     19  C   UNL     1       8.924  -2.945  20.380  1.00  0.00     0.012 C 
ATOM     20  C   UNL     1      12.072  -4.407  19.351  1.00  0.00    -0.025 C 
ATOM     21  C   UNL     1      12.072  -4.618  21.927  1.00  0.00     0.005 C 
ATOM     22  C   UNL     1      12.574  -5.212  20.593  1.00  0.00     0.003 C 
ATOM     23  C   UNL     1      12.791  -4.921  18.049  1.00  0.00     0.010 C 
ATOM     24  C   UNL     1      12.400  -2.876  19.419  1.00  0.00     0.012 C 
ATOM     25  C   UNL     1      14.096  -5.643  20.560  1.00  0.00    -0.006 C 
ATOM     26  C   UNL     1      13.322  -6.356  18.148  1.00  0.00     0.033 C 
ATOM     27  C   UNL     1      14.373  -6.529  19.273  1.00  0.00     0.120 C 
ATOM     28  C   UNL     1      15.062  -4.426  20.549  1.00  0.00     0.014 C 
ATOM     29  C   UNL     1      14.431  -6.455  21.843  1.00  0.00     0.014 C 
ENDROOT
BRANCH   1  30
ATOM     30  C   UNL     1       8.772  -8.994  19.938  1.00  0.00     0.048 C 
ATOM     31  O   UNL     1       8.549  -9.243  18.722  1.00  0.00    -0.550 OA
ATOM     32  O   UNL     1       9.988  -9.393  20.485  1.00  0.00    -0.550 OA
ENDBRANCH   1  30
BRANCH  27  33
ATOM     33  O   UNL     1      14.440  -7.899  19.599  1.00  0.00    -0.393 OA
ATOM     34  H   UNL     1      14.721  -8.381  18.777  1.00  0.00     0.210 HD
ENDBRANCH  27  33
TORSDOF 2
ENDMDL
