MODEL 1
REMARK VINA RESULT:    53.481      0.000      0.000
REMARK INTER + INTRA:          83.425
REMARK INTER:                  84.746
REMARK INTRA:                  -1.322
REMARK UNBOUND:                -1.322
REMARK SMILES C[C@H]1O[C@H](O[C@@H]2[C@@H](Oc3cc(O)c4c(c3)O[C@H](c3ccc(O)cc3)CC4=O)O[C@@H](CO)[C@H](O)[C@H]2O)[C@@H](O)[C@H](O)[C@@H]1O
REMARK SMILES IDX 6 1 34 2 32 3 29 4 28 5 7 6 5 7 4 8 1 9 2 10 40 11 3 12
REMARK SMILES IDX 38 13 36 14 41 15 39 17 37 19 35 21 8 23 9 24 10 25 15 26
REMARK SMILES IDX 11 27 14 28 13 29 16 30 26 31 17 32 27 33 25 34 12 35 18 37
REMARK SMILES IDX 19 38 24 39 20 40 23 41 21 42 22 43 33 45 30 47 31 48
REMARK H PARENT 41 16 39 18 37 20 35 22 12 36 22 44 33 46 31 49
REMARK Flexibility Score: inf
ROOT
ATOM      1  C   UNL     1      35.292  27.350  44.088  1.00  0.00     0.221 C 
ATOM      2  C   UNL     1      36.323  27.459  42.938  1.00  0.00     0.181 C 
ATOM      3  C   UNL     1      35.670  27.753  41.562  1.00  0.00     0.177 C 
ATOM      4  C   UNL     1      34.394  28.640  41.671  1.00  0.00     0.179 C 
ATOM      5  O   UNL     1      34.372  29.330  42.906  1.00  0.00    -0.332 OA
ATOM      6  C   UNL     1      34.155  28.412  43.962  1.00  0.00     0.339 C 
ENDROOT
BRANCH   1   7
ATOM      7  O   UNL     1      34.752  26.037  44.057  1.00  0.00    -0.337 OA
BRANCH   7   8
ATOM      8  C   UNL     1      34.234  25.614  45.316  1.00  0.00     0.282 C 
ATOM      9  C   UNL     1      30.816  24.613  44.429  1.00  0.00     0.041 C 
ATOM     10  C   UNL     1      32.311  24.830  44.198  1.00  0.00     0.150 C 
ATOM     11  C   UNL     1      33.040  23.463  43.997  1.00  0.00     0.174 C 
ATOM     12  O   UNL     1      32.816  25.587  45.294  1.00  0.00    -0.344 OA
ATOM     13  C   UNL     1      33.804  23.087  45.272  1.00  0.00     0.179 C 
ATOM     14  C   UNL     1      34.796  24.211  45.665  1.00  0.00     0.202 C 
BRANCH  11  15
ATOM     15  O   UNL     1      33.942  23.539  42.921  1.00  0.00    -0.388 OA
ATOM     16  H   UNL     1      34.852  23.515  43.311  1.00  0.00     0.211 HD
ENDBRANCH  11  15
BRANCH  13  17
ATOM     17  O   UNL     1      34.490  21.878  45.065  1.00  0.00    -0.387 OA
ATOM     18  H   UNL     1      35.445  22.048  45.276  1.00  0.00     0.211 HD
ENDBRANCH  13  17
BRANCH  14  19
ATOM     19  O   UNL     1      35.054  24.139  47.045  1.00  0.00    -0.385 OA
ATOM     20  H   UNL     1      34.597  23.325  47.381  1.00  0.00     0.211 HD
ENDBRANCH  14  19
ENDBRANCH   7   8
ENDBRANCH   1   7
BRANCH   2  21
ATOM     21  O   UNL     1      37.262  28.460  43.244  1.00  0.00    -0.387 OA
ATOM     22  H   UNL     1      37.676  28.222  44.114  1.00  0.00     0.211 HD
ENDBRANCH   2  21
BRANCH   6  23
ATOM     23  O   UNL     1      33.952  29.103  45.203  1.00  0.00    -0.462 OA
BRANCH  23  24
ATOM     24  C   UNL     1      32.893  28.950  46.115  1.00  0.00     0.130 A 
ATOM     25  C   UNL     1      32.993  28.217  47.311  1.00  0.00     0.093 A 
ATOM     26  C   UNL     1      31.680  29.580  45.812  1.00  0.00     0.094 A 
ATOM     27  C   UNL     1      31.920  28.149  48.208  1.00  0.00     0.133 A 
ATOM     28  C   UNL     1      30.617  29.563  46.716  1.00  0.00     0.138 A 
ATOM     29  C   UNL     1      30.734  28.874  47.938  1.00  0.00     0.102 A 
ATOM     30  O   UNL     1      29.448  30.273  46.402  1.00  0.00    -0.484 OA
ATOM     31  C   UNL     1      29.611  29.004  48.896  1.00  0.00     0.174 C 
ATOM     32  C   UNL     1      28.407  30.552  47.347  1.00  0.00     0.211 C 
ATOM     33  O   UNL     1      29.775  28.832  50.133  1.00  0.00    -0.294 OA
ATOM     34  C   UNL     1      28.266  29.421  48.378  1.00  0.00     0.131 C 
BRANCH  27  35
ATOM     35  O   UNL     1      32.069  27.335  49.332  1.00  0.00    -0.507 OA
ATOM     36  H   UNL     1      31.293  26.950  49.852  1.00  0.00     0.293 HD
ENDBRANCH  27  35
BRANCH  32  37
ATOM     37  C   UNL     1      28.620  31.899  48.011  1.00  0.00    -0.007 A 
ATOM     38  C   UNL     1      28.448  33.078  47.257  1.00  0.00     0.011 A 
ATOM     39  C   UNL     1      28.960  32.012  49.375  1.00  0.00     0.011 A 
ATOM     40  C   UNL     1      28.659  34.335  47.839  1.00  0.00     0.046 A 
ATOM     41  C   UNL     1      29.176  33.269  49.949  1.00  0.00     0.046 A 
ATOM     42  C   UNL     1      29.034  34.435  49.181  1.00  0.00     0.115 A 
BRANCH  42  43
ATOM     43  O   UNL     1      29.269  35.691  49.741  1.00  0.00    -0.508 OA
ATOM     44  H   UNL     1      28.734  36.027  50.530  1.00  0.00     0.293 HD
ENDBRANCH  42  43
ENDBRANCH  32  37
ENDBRANCH  23  24
ENDBRANCH   6  23
BRANCH   3  45
ATOM     45  O   UNL     1      35.382  26.554  40.879  1.00  0.00    -0.387 OA
ATOM     46  H   UNL     1      35.725  25.805  41.431  1.00  0.00     0.211 HD
ENDBRANCH   3  45
BRANCH   4  47
ATOM     47  C   UNL     1      34.316  29.667  40.537  1.00  0.00     0.191 C 
BRANCH  47  48
ATOM     48  O   UNL     1      33.083  30.331  40.575  1.00  0.00    -0.394 OA
ATOM     49  H   UNL     1      33.267  31.270  40.314  1.00  0.00     0.210 HD
ENDBRANCH  47  48
ENDBRANCH   4  47
TORSDOF 14
ENDMDL
MODEL 2
REMARK VINA RESULT:    53.526      3.649     11.901
REMARK INTER + INTRA:          83.495
REMARK INTER:                  84.272
REMARK INTRA:                  -0.777
REMARK UNBOUND:                -1.322
REMARK SMILES C[C@H]1O[C@H](O[C@@H]2[C@@H](Oc3cc(O)c4c(c3)O[C@H](c3ccc(O)cc3)CC4=O)O[C@@H](CO)[C@H](O)[C@H]2O)[C@@H](O)[C@H](O)[C@@H]1O
REMARK SMILES IDX 6 1 34 2 32 3 29 4 28 5 7 6 5 7 4 8 1 9 2 10 40 11 3 12
REMARK SMILES IDX 38 13 36 14 41 15 39 17 37 19 35 21 8 23 9 24 10 25 15 26
REMARK SMILES IDX 11 27 14 28 13 29 16 30 26 31 17 32 27 33 25 34 12 35 18 37
REMARK SMILES IDX 19 38 24 39 20 40 23 41 21 42 22 43 33 45 30 47 31 48
REMARK H PARENT 41 16 39 18 37 20 35 22 12 36 22 44 33 46 31 49
REMARK Flexibility Score: inf
ROOT
ATOM      1  C   UNL     1      29.117  37.614  50.202  1.00  0.00     0.221 C 
ATOM      2  C   UNL     1      28.115  38.286  51.171  1.00  0.00     0.181 C 
ATOM      3  C   UNL     1      26.757  38.625  50.501  1.00  0.00     0.177 C 
ATOM      4  C   UNL     1      26.348  37.600  49.402  1.00  0.00     0.179 C 
ATOM      5  O   UNL     1      27.056  36.386  49.566  1.00  0.00    -0.332 OA
ATOM      6  C   UNL     1      28.423  36.584  49.256  1.00  0.00     0.339 C 
ENDROOT
BRANCH   1   7
ATOM      7  O   UNL     1      29.740  38.642  49.447  1.00  0.00    -0.337 OA
BRANCH   7   8
ATOM      8  C   UNL     1      31.120  38.813  49.762  1.00  0.00     0.282 C 
ATOM      9  C   UNL     1      32.739  37.856  46.611  1.00  0.00     0.041 C 
ATOM     10  C   UNL     1      31.629  38.426  47.492  1.00  0.00     0.150 C 
ATOM     11  C   UNL     1      31.459  39.959  47.239  1.00  0.00     0.174 C 
ATOM     12  O   UNL     1      31.938  38.105  48.845  1.00  0.00    -0.344 OA
ATOM     13  C   UNL     1      32.089  40.751  48.390  1.00  0.00     0.179 C 
ATOM     14  C   UNL     1      31.474  40.323  49.748  1.00  0.00     0.202 C 
BRANCH  11  15
ATOM     15  O   UNL     1      30.097  40.293  47.137  1.00  0.00    -0.388 OA
ATOM     16  H   UNL     1      30.022  41.253  47.373  1.00  0.00     0.211 HD
ENDBRANCH  11  15
BRANCH  13  17
ATOM     17  O   UNL     1      31.892  42.125  48.174  1.00  0.00    -0.387 OA
ATOM     18  H   UNL     1      32.630  42.599  48.637  1.00  0.00     0.211 HD
ENDBRANCH  13  17
BRANCH  14  19
ATOM     19  O   UNL     1      32.388  40.602  50.778  1.00  0.00    -0.385 OA
ATOM     20  H   UNL     1      32.249  41.549  51.039  1.00  0.00     0.211 HD
ENDBRANCH  14  19
ENDBRANCH   7   8
ENDBRANCH   1   7
BRANCH   2  21
ATOM     21  O   UNL     1      27.903  37.449  52.281  1.00  0.00    -0.387 OA
ATOM     22  H   UNL     1      27.409  36.651  51.961  1.00  0.00     0.211 HD
ENDBRANCH   2  21
BRANCH   6  23
ATOM     23  O   UNL     1      29.128  35.335  49.243  1.00  0.00    -0.462 OA
BRANCH  23  24
ATOM     24  C   UNL     1      28.676  34.091  48.766  1.00  0.00     0.130 A 
ATOM     25  C   UNL     1      27.725  33.949  47.740  1.00  0.00     0.093 A 
ATOM     26  C   UNL     1      29.222  32.939  49.343  1.00  0.00     0.094 A 
ATOM     27  C   UNL     1      27.358  32.684  47.267  1.00  0.00     0.133 A 
ATOM     28  C   UNL     1      28.903  31.672  48.852  1.00  0.00     0.138 A 
ATOM     29  C   UNL     1      27.991  31.529  47.789  1.00  0.00     0.102 A 
ATOM     30  O   UNL     1      29.533  30.550  49.412  1.00  0.00    -0.484 OA
ATOM     31  C   UNL     1      27.798  30.165  47.244  1.00  0.00     0.174 C 
ATOM     32  C   UNL     1      29.496  29.241  48.828  1.00  0.00     0.211 C 
ATOM     33  O   UNL     1      27.391  29.975  46.067  1.00  0.00    -0.294 OA
ATOM     34  C   UNL     1      28.166  28.988  48.099  1.00  0.00     0.131 C 
BRANCH  27  35
ATOM     35  O   UNL     1      26.349  32.622  46.304  1.00  0.00    -0.507 OA
ATOM     36  H   UNL     1      26.436  32.119  45.433  1.00  0.00     0.293 HD
ENDBRANCH  27  35
BRANCH  32  37
ATOM     37  C   UNL     1      30.690  29.015  47.921  1.00  0.00    -0.007 A 
ATOM     38  C   UNL     1      30.562  29.248  46.536  1.00  0.00     0.011 A 
ATOM     39  C   UNL     1      31.941  28.602  48.424  1.00  0.00     0.011 A 
ATOM     40  C   UNL     1      31.642  29.028  45.672  1.00  0.00     0.046 A 
ATOM     41  C   UNL     1      33.014  28.376  47.556  1.00  0.00     0.046 A 
ATOM     42  C   UNL     1      32.866  28.580  46.175  1.00  0.00     0.115 A 
BRANCH  42  43
ATOM     43  O   UNL     1      33.926  28.336  45.301  1.00  0.00    -0.508 OA
ATOM     44  H   UNL     1      33.788  28.298  44.300  1.00  0.00     0.293 HD
ENDBRANCH  42  43
ENDBRANCH  32  37
ENDBRANCH  23  24
ENDBRANCH   6  23
BRANCH   3  45
ATOM     45  O   UNL     1      26.771  39.933  49.977  1.00  0.00    -0.387 OA
ATOM     46  H   UNL     1      27.058  39.873  49.030  1.00  0.00     0.211 HD
ENDBRANCH   3  45
BRANCH   4  47
ATOM     47  C   UNL     1      24.846  37.297  49.436  1.00  0.00     0.191 C 
BRANCH  47  48
ATOM     48  O   UNL     1      24.545  36.485  50.537  1.00  0.00    -0.394 OA
ATOM     49  H   UNL     1      23.618  36.715  50.803  1.00  0.00     0.210 HD
ENDBRANCH  47  48
ENDBRANCH   4  47
TORSDOF 14
ENDMDL
MODEL 3
REMARK VINA RESULT:    54.967      1.476      4.567
REMARK INTER + INTRA:          85.779
REMARK INTER:                  86.070
REMARK INTRA:                  -0.291
REMARK UNBOUND:                -1.322
REMARK SMILES C[C@H]1O[C@H](O[C@@H]2[C@@H](Oc3cc(O)c4c(c3)O[C@H](c3ccc(O)cc3)CC4=O)O[C@@H](CO)[C@H](O)[C@H]2O)[C@@H](O)[C@H](O)[C@@H]1O
REMARK SMILES IDX 6 1 34 2 32 3 29 4 28 5 7 6 5 7 4 8 1 9 2 10 40 11 3 12
REMARK SMILES IDX 38 13 36 14 41 15 39 17 37 19 35 21 8 23 9 24 10 25 15 26
REMARK SMILES IDX 11 27 14 28 13 29 16 30 26 31 17 32 27 33 25 34 12 35 18 37
REMARK SMILES IDX 19 38 24 39 20 40 23 41 21 42 22 43 33 45 30 47 31 48
REMARK H PARENT 41 16 39 18 37 20 35 22 12 36 22 44 33 46 31 49
REMARK Flexibility Score: inf
ROOT
ATOM      1  C   UNL     1      34.214  26.211  44.336  1.00  0.00     0.221 C 
ATOM      2  C   UNL     1      34.126  24.670  44.451  1.00  0.00     0.181 C 
ATOM      3  C   UNL     1      34.942  24.103  45.643  1.00  0.00     0.177 C 
ATOM      4  C   UNL     1      34.977  25.064  46.868  1.00  0.00     0.179 C 
ATOM      5  O   UNL     1      33.923  26.004  46.794  1.00  0.00    -0.332 OA
ATOM      6  C   UNL     1      34.166  26.910  45.732  1.00  0.00     0.339 C 
ENDROOT
BRANCH   1   7
ATOM      7  O   UNL     1      35.425  26.524  43.666  1.00  0.00    -0.337 OA
BRANCH   7   8
ATOM      8  C   UNL     1      35.386  27.780  42.992  1.00  0.00     0.282 C 
ATOM      9  C   UNL     1      37.898  29.711  44.843  1.00  0.00     0.041 C 
ATOM     10  C   UNL     1      37.260  28.454  44.255  1.00  0.00     0.150 C 
ATOM     11  C   UNL     1      38.172  27.845  43.142  1.00  0.00     0.174 C 
ATOM     12  O   UNL     1      35.957  28.800  43.793  1.00  0.00    -0.344 OA
ATOM     13  C   UNL     1      37.599  28.173  41.759  1.00  0.00     0.179 C 
ATOM     14  C   UNL     1      36.138  27.669  41.640  1.00  0.00     0.202 C 
BRANCH  11  15
ATOM     15  O   UNL     1      38.261  26.449  43.288  1.00  0.00    -0.388 OA
ATOM     16  H   UNL     1      37.440  26.068  42.883  1.00  0.00     0.211 HD
ENDBRANCH  11  15
BRANCH  13  17
ATOM     17  O   UNL     1      38.403  27.584  40.768  1.00  0.00    -0.387 OA
ATOM     18  H   UNL     1      37.984  26.715  40.536  1.00  0.00     0.211 HD
ENDBRANCH  13  17
BRANCH  14  19
ATOM     19  O   UNL     1      35.465  28.425  40.665  1.00  0.00    -0.385 OA
ATOM     20  H   UNL     1      34.588  28.681  41.052  1.00  0.00     0.211 HD
ENDBRANCH  14  19
ENDBRANCH   7   8
ENDBRANCH   1   7
BRANCH   2  21
ATOM     21  O   UNL     1      32.779  24.284  44.567  1.00  0.00    -0.387 OA
ATOM     22  H   UNL     1      32.265  25.086  44.844  1.00  0.00     0.211 HD
ENDBRANCH   2  21
BRANCH   6  23
ATOM     23  O   UNL     1      33.207  27.977  45.744  1.00  0.00    -0.462 OA
BRANCH  23  24
ATOM     24  C   UNL     1      32.160  28.188  46.660  1.00  0.00     0.130 A 
ATOM     25  C   UNL     1      32.138  27.647  47.957  1.00  0.00     0.093 A 
ATOM     26  C   UNL     1      31.094  28.997  46.250  1.00  0.00     0.094 A 
ATOM     27  C   UNL     1      31.096  27.941  48.845  1.00  0.00     0.133 A 
ATOM     28  C   UNL     1      30.072  29.340  47.136  1.00  0.00     0.138 A 
ATOM     29  C   UNL     1      30.075  28.842  48.452  1.00  0.00     0.102 A 
ATOM     30  O   UNL     1      29.064  30.216  46.703  1.00  0.00    -0.484 OA
ATOM     31  C   UNL     1      29.026  29.348  49.368  1.00  0.00     0.174 C 
ATOM     32  C   UNL     1      28.125  30.846  47.583  1.00  0.00     0.211 C 
ATOM     33  O   UNL     1      29.181  29.342  50.618  1.00  0.00    -0.294 OA
ATOM     34  C   UNL     1      27.781  29.944  48.779  1.00  0.00     0.131 C 
BRANCH  27  35
ATOM     35  O   UNL     1      31.103  27.301  50.085  1.00  0.00    -0.507 OA
ATOM     36  H   UNL     1      30.534  26.496  50.304  1.00  0.00     0.293 HD
ENDBRANCH  27  35
BRANCH  32  37
ATOM     37  C   UNL     1      28.623  32.208  48.027  1.00  0.00    -0.007 A 
ATOM     38  C   UNL     1      29.147  32.364  49.327  1.00  0.00     0.011 A 
ATOM     39  C   UNL     1      28.603  33.326  47.167  1.00  0.00     0.011 A 
ATOM     40  C   UNL     1      29.594  33.615  49.771  1.00  0.00     0.046 A 
ATOM     41  C   UNL     1      29.045  34.574  47.618  1.00  0.00     0.046 A 
ATOM     42  C   UNL     1      29.534  34.725  48.925  1.00  0.00     0.115 A 
BRANCH  42  43
ATOM     43  O   UNL     1      29.956  35.971  49.388  1.00  0.00    -0.508 OA
ATOM     44  H   UNL     1      30.058  36.761  48.765  1.00  0.00     0.293 HD
ENDBRANCH  42  43
ENDBRANCH  32  37
ENDBRANCH  23  24
ENDBRANCH   6  23
BRANCH   3  45
ATOM     45  O   UNL     1      36.249  23.766  45.240  1.00  0.00    -0.387 OA
ATOM     46  H   UNL     1      36.688  24.597  44.923  1.00  0.00     0.211 HD
ENDBRANCH   3  45
BRANCH   4  47
ATOM     47  C   UNL     1      34.857  24.302  48.193  1.00  0.00     0.191 C 
BRANCH  47  48
ATOM     48  O   UNL     1      35.975  24.561  48.998  1.00  0.00    -0.394 OA
ATOM     49  H   UNL     1      35.872  25.493  49.320  1.00  0.00     0.210 HD
ENDBRANCH  47  48
ENDBRANCH   4  47
TORSDOF 14
ENDMDL
MODEL 4
REMARK VINA RESULT:    55.647      3.996      8.160
REMARK INTER + INTRA:          86.857
REMARK INTER:                  85.743
REMARK INTRA:                   1.114
REMARK UNBOUND:                -1.322
REMARK SMILES C[C@H]1O[C@H](O[C@@H]2[C@@H](Oc3cc(O)c4c(c3)O[C@H](c3ccc(O)cc3)CC4=O)O[C@@H](CO)[C@H](O)[C@H]2O)[C@@H](O)[C@H](O)[C@@H]1O
REMARK SMILES IDX 6 1 34 2 32 3 29 4 28 5 7 6 5 7 4 8 1 9 2 10 40 11 3 12
REMARK SMILES IDX 38 13 36 14 41 15 39 17 37 19 35 21 8 23 9 24 10 25 15 26
REMARK SMILES IDX 11 27 14 28 13 29 16 30 26 31 17 32 27 33 25 34 12 35 18 37
REMARK SMILES IDX 19 38 24 39 20 40 23 41 21 42 22 43 33 45 30 47 31 48
REMARK H PARENT 41 16 39 18 37 20 35 22 12 36 22 44 33 46 31 49
REMARK Flexibility Score: inf
ROOT
ATOM      1  C   UNL     1      28.977  31.925  47.556  1.00  0.00     0.221 C 
ATOM      2  C   UNL     1      27.841  32.183  46.538  1.00  0.00     0.181 C 
ATOM      3  C   UNL     1      26.745  31.085  46.560  1.00  0.00     0.177 C 
ATOM      4  C   UNL     1      26.520  30.478  47.977  1.00  0.00     0.179 C 
ATOM      5  O   UNL     1      27.024  31.345  48.975  1.00  0.00    -0.332 OA
ATOM      6  C   UNL     1      28.439  31.373  48.913  1.00  0.00     0.339 C 
ENDROOT
BRANCH   1   7
ATOM      7  O   UNL     1      29.881  31.002  46.967  1.00  0.00    -0.337 OA
BRANCH   7   8
ATOM      8  C   UNL     1      29.374  29.671  46.923  1.00  0.00     0.282 C 
ATOM      9  C   UNL     1      32.091  27.883  45.223  1.00  0.00     0.041 C 
ATOM     10  C   UNL     1      31.472  28.958  46.114  1.00  0.00     0.150 C 
ATOM     11  C   UNL     1      31.930  28.774  47.596  1.00  0.00     0.174 C 
ATOM     12  O   UNL     1      30.058  28.903  45.947  1.00  0.00    -0.344 OA
ATOM     13  C   UNL     1      30.797  28.151  48.420  1.00  0.00     0.179 C 
ATOM     14  C   UNL     1      29.513  29.014  48.322  1.00  0.00     0.202 C 
BRANCH  11  15
ATOM     15  O   UNL     1      32.287  30.012  48.159  1.00  0.00    -0.388 OA
ATOM     16  H   UNL     1      31.971  30.711  47.531  1.00  0.00     0.211 HD
ENDBRANCH  11  15
BRANCH  13  17
ATOM     17  O   UNL     1      31.206  28.030  49.759  1.00  0.00    -0.387 OA
ATOM     18  H   UNL     1      32.096  27.593  49.751  1.00  0.00     0.211 HD
ENDBRANCH  13  17
BRANCH  14  19
ATOM     19  O   UNL     1      28.392  28.206  48.576  1.00  0.00    -0.385 OA
ATOM     20  H   UNL     1      28.492  27.855  49.498  1.00  0.00     0.211 HD
ENDBRANCH  14  19
ENDBRANCH   7   8
ENDBRANCH   1   7
BRANCH   2  21
ATOM     21  O   UNL     1      27.262  33.440  46.789  1.00  0.00    -0.387 OA
ATOM     22  H   UNL     1      26.662  33.647  46.026  1.00  0.00     0.211 HD
ENDBRANCH   2  21
BRANCH   6  23
ATOM     23  O   UNL     1      28.982  32.103  50.022  1.00  0.00    -0.462 OA
BRANCH  23  24
ATOM     24  C   UNL     1      29.300  33.472  50.084  1.00  0.00     0.130 A 
ATOM     25  C   UNL     1      30.562  33.995  49.753  1.00  0.00     0.093 A 
ATOM     26  C   UNL     1      28.289  34.354  50.484  1.00  0.00     0.094 A 
ATOM     27  C   UNL     1      30.801  35.375  49.778  1.00  0.00     0.133 A 
ATOM     28  C   UNL     1      28.495  35.734  50.469  1.00  0.00     0.138 A 
ATOM     29  C   UNL     1      29.742  36.263  50.087  1.00  0.00     0.102 A 
ATOM     30  O   UNL     1      27.428  36.582  50.806  1.00  0.00    -0.484 OA
ATOM     31  C   UNL     1      29.844  37.737  49.978  1.00  0.00     0.174 C 
ATOM     32  C   UNL     1      27.431  37.996  50.572  1.00  0.00     0.211 C 
ATOM     33  O   UNL     1      30.709  38.287  49.245  1.00  0.00    -0.294 OA
ATOM     34  C   UNL     1      28.844  38.586  50.707  1.00  0.00     0.131 C 
BRANCH  27  35
ATOM     35  O   UNL     1      32.101  35.810  49.516  1.00  0.00    -0.507 OA
ATOM     36  H   UNL     1      32.369  36.783  49.480  1.00  0.00     0.293 HD
ENDBRANCH  27  35
BRANCH  32  37
ATOM     37  C   UNL     1      26.805  38.329  49.231  1.00  0.00    -0.007 A 
ATOM     38  C   UNL     1      26.680  37.319  48.255  1.00  0.00     0.011 A 
ATOM     39  C   UNL     1      26.315  39.619  48.936  1.00  0.00     0.011 A 
ATOM     40  C   UNL     1      26.125  37.603  47.001  1.00  0.00     0.046 A 
ATOM     41  C   UNL     1      25.769  39.898  47.680  1.00  0.00     0.046 A 
ATOM     42  C   UNL     1      25.679  38.893  46.704  1.00  0.00     0.115 A 
BRANCH  42  43
ATOM     43  O   UNL     1      25.156  39.170  45.441  1.00  0.00    -0.508 OA
ATOM     44  H   UNL     1      25.581  38.804  44.600  1.00  0.00     0.293 HD
ENDBRANCH  42  43
ENDBRANCH  32  37
ENDBRANCH  23  24
ENDBRANCH   6  23
BRANCH   3  45
ATOM     45  O   UNL     1      27.035  30.069  45.628  1.00  0.00    -0.387 OA
ATOM     46  H   UNL     1      26.177  29.778  45.225  1.00  0.00     0.211 HD
ENDBRANCH   3  45
BRANCH   4  47
ATOM     47  C   UNL     1      25.035  30.223  48.258  1.00  0.00     0.191 C 
BRANCH  47  48
ATOM     48  O   UNL     1      24.878  29.009  48.940  1.00  0.00    -0.394 OA
ATOM     49  H   UNL     1      25.261  29.149  49.844  1.00  0.00     0.210 HD
ENDBRANCH  47  48
ENDBRANCH   4  47
TORSDOF 14
ENDMDL
MODEL 5
REMARK VINA RESULT:    55.902      1.888      4.367
REMARK INTER + INTRA:          87.261
REMARK INTER:                  87.225
REMARK INTRA:                   0.036
REMARK UNBOUND:                -1.322
REMARK SMILES C[C@H]1O[C@H](O[C@@H]2[C@@H](Oc3cc(O)c4c(c3)O[C@H](c3ccc(O)cc3)CC4=O)O[C@@H](CO)[C@H](O)[C@H]2O)[C@@H](O)[C@H](O)[C@@H]1O
REMARK SMILES IDX 6 1 34 2 32 3 29 4 28 5 7 6 5 7 4 8 1 9 2 10 40 11 3 12
REMARK SMILES IDX 38 13 36 14 41 15 39 17 37 19 35 21 8 23 9 24 10 25 15 26
REMARK SMILES IDX 11 27 14 28 13 29 16 30 26 31 17 32 27 33 25 34 12 35 18 37
REMARK SMILES IDX 19 38 24 39 20 40 23 41 21 42 22 43 33 45 30 47 31 48
REMARK H PARENT 41 16 39 18 37 20 35 22 12 36 22 44 33 46 31 49
REMARK Flexibility Score: inf
ROOT
ATOM      1  C   UNL     1      35.178  28.039  44.075  1.00  0.00     0.221 C 
ATOM      2  C   UNL     1      35.616  26.906  43.116  1.00  0.00     0.181 C 
ATOM      3  C   UNL     1      35.794  25.540  43.830  1.00  0.00     0.177 C 
ATOM      4  C   UNL     1      34.803  25.339  45.015  1.00  0.00     0.179 C 
ATOM      5  O   UNL     1      33.702  26.219  44.897  1.00  0.00    -0.332 OA
ATOM      6  C   UNL     1      34.128  27.551  45.123  1.00  0.00     0.339 C 
ENDROOT
BRANCH   1   7
ATOM      7  O   UNL     1      36.342  28.524  44.728  1.00  0.00    -0.337 OA
BRANCH   7   8
ATOM      8  C   UNL     1      37.312  29.052  43.826  1.00  0.00     0.282 C 
ATOM      9  C   UNL     1      39.878  30.310  46.127  1.00  0.00     0.041 C 
ATOM     10  C   UNL     1      38.754  29.386  45.661  1.00  0.00     0.150 C 
ATOM     11  C   UNL     1      39.291  27.935  45.446  1.00  0.00     0.174 C 
ATOM     12  O   UNL     1      38.178  29.957  44.490  1.00  0.00    -0.344 OA
ATOM     13  C   UNL     1      39.460  27.657  43.948  1.00  0.00     0.179 C 
ATOM     14  C   UNL     1      38.124  27.890  43.196  1.00  0.00     0.202 C 
BRANCH  11  15
ATOM     15  O   UNL     1      38.401  26.994  45.995  1.00  0.00    -0.388 OA
ATOM     16  H   UNL     1      38.909  26.150  46.098  1.00  0.00     0.211 HD
ENDBRANCH  11  15
BRANCH  13  17
ATOM     17  O   UNL     1      39.901  26.335  43.765  1.00  0.00    -0.387 OA
ATOM     18  H   UNL     1      40.756  26.382  43.265  1.00  0.00     0.211 HD
ENDBRANCH  13  17
BRANCH  14  19
ATOM     19  O   UNL     1      38.396  28.183  41.849  1.00  0.00    -0.385 OA
ATOM     20  H   UNL     1      37.972  27.468  41.307  1.00  0.00     0.211 HD
ENDBRANCH  14  19
ENDBRANCH   7   8
ENDBRANCH   1   7
BRANCH   2  21
ATOM     21  O   UNL     1      34.678  26.782  42.077  1.00  0.00    -0.387 OA
ATOM     22  H   UNL     1      33.965  27.453  42.240  1.00  0.00     0.211 HD
ENDBRANCH   2  21
BRANCH   6  23
ATOM     23  O   UNL     1      33.004  28.441  45.183  1.00  0.00    -0.462 OA
BRANCH  23  24
ATOM     24  C   UNL     1      32.040  28.548  46.202  1.00  0.00     0.130 A 
ATOM     25  C   UNL     1      32.162  27.930  47.459  1.00  0.00     0.093 A 
ATOM     26  C   UNL     1      30.907  29.329  45.942  1.00  0.00     0.094 A 
ATOM     27  C   UNL     1      31.195  28.122  48.454  1.00  0.00     0.133 A 
ATOM     28  C   UNL     1      29.959  29.569  46.937  1.00  0.00     0.138 A 
ATOM     29  C   UNL     1      30.106  28.994  48.213  1.00  0.00     0.102 A 
ATOM     30  O   UNL     1      28.879  30.420  46.653  1.00  0.00    -0.484 OA
ATOM     31  C   UNL     1      29.126  29.395  49.250  1.00  0.00     0.174 C 
ATOM     32  C   UNL     1      28.001  30.953  47.653  1.00  0.00     0.211 C 
ATOM     33  O   UNL     1      29.397  29.323  50.479  1.00  0.00    -0.294 OA
ATOM     34  C   UNL     1      27.808  29.965  48.816  1.00  0.00     0.131 C 
BRANCH  27  35
ATOM     35  O   UNL     1      31.345  27.410  49.645  1.00  0.00    -0.507 OA
ATOM     36  H   UNL     1      30.763  26.627  49.907  1.00  0.00     0.293 HD
ENDBRANCH  27  35
BRANCH  32  37
ATOM     37  C   UNL     1      28.481  32.308  48.136  1.00  0.00    -0.007 A 
ATOM     38  C   UNL     1      28.968  32.441  49.452  1.00  0.00     0.011 A 
ATOM     39  C   UNL     1      28.481  33.441  47.296  1.00  0.00     0.011 A 
ATOM     40  C   UNL     1      29.398  33.685  49.931  1.00  0.00     0.046 A 
ATOM     41  C   UNL     1      28.905  34.682  47.782  1.00  0.00     0.046 A 
ATOM     42  C   UNL     1      29.357  34.811  49.104  1.00  0.00     0.115 A 
BRANCH  42  43
ATOM     43  O   UNL     1      29.761  36.050  49.602  1.00  0.00    -0.508 OA
ATOM     44  H   UNL     1      30.491  36.588  49.155  1.00  0.00     0.293 HD
ENDBRANCH  42  43
ENDBRANCH  32  37
ENDBRANCH  23  24
ENDBRANCH   6  23
BRANCH   3  45
ATOM     45  O   UNL     1      37.124  25.372  44.264  1.00  0.00    -0.387 OA
ATOM     46  H   UNL     1      37.127  24.660  44.954  1.00  0.00     0.211 HD
ENDBRANCH   3  45
BRANCH   4  47
ATOM     47  C   UNL     1      34.275  23.902  45.078  1.00  0.00     0.191 C 
BRANCH  47  48
ATOM     48  O   UNL     1      32.874  23.907  45.090  1.00  0.00    -0.394 OA
ATOM     49  H   UNL     1      32.607  24.323  45.949  1.00  0.00     0.210 HD
ENDBRANCH  47  48
ENDBRANCH   4  47
TORSDOF 14
ENDMDL
