MODEL 1
REMARK VINA RESULT:    -5.343      0.000      0.000
REMARK INTER + INTRA:          -7.262
REMARK INTER:                  -6.904
REMARK INTRA:                  -0.357
REMARK UNBOUND:                -0.357
REMARK SMILES CCO[C@@H]1O[C@H](CO)[C@H](O)[C@H](O)[C@@H]1O
REMARK SMILES IDX 4 1 13 2 11 3 9 4 6 5 5 6 3 7 2 8 1 9 14 10 12 12 7 14 8 15
REMARK SMILES IDX 10 17
REMARK H PARENT 14 11 12 13 8 16 10 18
REMARK Flexibility Score: inf
ROOT
ATOM      1  C   UNL     1      30.744 -37.850 -12.751  1.00  0.00     0.281 C 
ATOM      2  C   UNL     1      31.539 -36.535 -13.004  1.00  0.00     0.202 C 
ATOM      3  C   UNL     1      31.010 -35.785 -14.255  1.00  0.00     0.179 C 
ATOM      4  C   UNL     1      29.488 -36.010 -14.414  1.00  0.00     0.177 C 
ATOM      5  C   UNL     1      29.108 -37.531 -14.408  1.00  0.00     0.178 C 
ATOM      6  O   UNL     1      30.171 -38.356 -13.950  1.00  0.00    -0.341 OA
ENDROOT
BRANCH   1   7
ATOM      7  O   UNL     1      31.536 -38.825 -12.084  1.00  0.00    -0.350 OA
BRANCH   7   8
ATOM      8  C   UNL     1      31.784 -39.982 -12.869  1.00  0.00     0.160 C 
ATOM      9  C   UNL     1      32.121 -41.163 -11.965  1.00  0.00     0.035 C 
ENDBRANCH   7   8
ENDBRANCH   1   7
BRANCH   2  10
ATOM     10  O   UNL     1      32.916 -36.786 -13.128  1.00  0.00    -0.385 OA
ATOM     11  H   UNL     1      33.251 -37.008 -12.220  1.00  0.00     0.211 HD
ENDBRANCH   2  10
BRANCH   3  12
ATOM     12  O   UNL     1      31.714 -36.149 -15.421  1.00  0.00    -0.387 OA
ATOM     13  H   UNL     1      31.179 -36.824 -15.911  1.00  0.00     0.211 HD
ENDBRANCH   3  12
BRANCH   5  14
ATOM     14  C   UNL     1      28.665 -38.054 -15.783  1.00  0.00     0.191 C 
BRANCH  14  15
ATOM     15  O   UNL     1      27.317 -37.738 -15.996  1.00  0.00    -0.394 OA
ATOM     16  H   UNL     1      27.142 -36.912 -15.475  1.00  0.00     0.210 HD
ENDBRANCH  14  15
ENDBRANCH   5  14
BRANCH   4  17
ATOM     17  O   UNL     1      28.963 -35.303 -15.514  1.00  0.00    -0.387 OA
ATOM     18  H   UNL     1      28.828 -34.358 -15.242  1.00  0.00     0.211 HD
ENDBRANCH   4  17
TORSDOF 7
ENDMDL
MODEL 2
REMARK VINA RESULT:    -5.313     10.400     12.848
REMARK INTER + INTRA:          -7.223
REMARK INTER:                  -6.585
REMARK INTRA:                  -0.639
REMARK UNBOUND:                -0.357
REMARK SMILES CCO[C@@H]1O[C@H](CO)[C@H](O)[C@H](O)[C@@H]1O
REMARK SMILES IDX 4 1 13 2 11 3 9 4 6 5 5 6 3 7 2 8 1 9 14 10 12 12 7 14 8 15
REMARK SMILES IDX 10 17
REMARK H PARENT 14 11 12 13 8 16 10 18
REMARK Flexibility Score: inf
ROOT
ATOM      1  C   UNL     1      33.464 -39.401  -3.292  1.00  0.00     0.281 C 
ATOM      2  C   UNL     1      33.397 -39.184  -1.752  1.00  0.00     0.202 C 
ATOM      3  C   UNL     1      34.750 -39.521  -1.072  1.00  0.00     0.179 C 
ATOM      4  C   UNL     1      35.927 -39.186  -2.019  1.00  0.00     0.177 C 
ATOM      5  C   UNL     1      35.766 -39.857  -3.427  1.00  0.00     0.178 C 
ATOM      6  O   UNL     1      34.454 -40.359  -3.644  1.00  0.00    -0.341 OA
ENDROOT
BRANCH   1   7
ATOM      7  O   UNL     1      32.190 -39.725  -3.836  1.00  0.00    -0.350 OA
BRANCH   7   8
ATOM      8  C   UNL     1      32.252 -40.673  -4.891  1.00  0.00     0.160 C 
ATOM      9  C   UNL     1      31.149 -41.711  -4.725  1.00  0.00     0.035 C 
ENDBRANCH   7   8
ENDBRANCH   1   7
BRANCH   2  10
ATOM     10  O   UNL     1      32.358 -39.934  -1.175  1.00  0.00    -0.385 OA
ATOM     11  H   UNL     1      31.507 -39.489  -1.429  1.00  0.00     0.211 HD
ENDBRANCH   2  10
BRANCH   3  12
ATOM     12  O   UNL     1      34.799 -40.861  -0.637  1.00  0.00    -0.387 OA
ATOM     13  H   UNL     1      35.642 -40.995  -0.133  1.00  0.00     0.211 HD
ENDBRANCH   3  12
BRANCH   5  14
ATOM     14  C   UNL     1      36.757 -41.006  -3.671  1.00  0.00     0.191 C 
BRANCH  14  15
ATOM     15  O   UNL     1      36.416 -42.102  -2.867  1.00  0.00    -0.394 OA
ATOM     16  H   UNL     1      37.115 -42.157  -2.167  1.00  0.00     0.210 HD
ENDBRANCH  14  15
ENDBRANCH   5  14
BRANCH   4  17
ATOM     17  O   UNL     1      37.176 -39.433  -1.417  1.00  0.00    -0.387 OA
ATOM     18  H   UNL     1      37.793 -39.783  -2.110  1.00  0.00     0.211 HD
ENDBRANCH   4  17
TORSDOF 7
ENDMDL
MODEL 3
REMARK VINA RESULT:    -5.256     10.366     12.398
REMARK INTER + INTRA:          -7.149
REMARK INTER:                  -6.555
REMARK INTRA:                  -0.594
REMARK UNBOUND:                -0.357
REMARK SMILES CCO[C@@H]1O[C@H](CO)[C@H](O)[C@H](O)[C@@H]1O
REMARK SMILES IDX 4 1 13 2 11 3 9 4 6 5 5 6 3 7 2 8 1 9 14 10 12 12 7 14 8 15
REMARK SMILES IDX 10 17
REMARK H PARENT 14 11 12 13 8 16 10 18
REMARK Flexibility Score: inf
ROOT
ATOM      1  C   UNL     1      32.747 -36.921  -2.597  1.00  0.00     0.281 C 
ATOM      2  C   UNL     1      33.243 -37.548  -1.262  1.00  0.00     0.202 C 
ATOM      3  C   UNL     1      33.573 -39.054  -1.430  1.00  0.00     0.179 C 
ATOM      4  C   UNL     1      34.106 -39.333  -2.855  1.00  0.00     0.177 C 
ATOM      5  C   UNL     1      33.141 -38.791  -3.967  1.00  0.00     0.178 C 
ATOM      6  O   UNL     1      32.163 -37.898  -3.450  1.00  0.00    -0.341 OA
ENDROOT
BRANCH   1   7
ATOM      7  O   UNL     1      31.875 -35.820  -2.372  1.00  0.00    -0.350 OA
BRANCH   7   8
ATOM      8  C   UNL     1      32.536 -34.565  -2.387  1.00  0.00     0.160 C 
ATOM      9  C   UNL     1      31.539 -33.446  -2.107  1.00  0.00     0.035 C 
ENDBRANCH   7   8
ENDBRANCH   1   7
BRANCH   2  10
ATOM     10  O   UNL     1      32.307 -37.364  -0.230  1.00  0.00    -0.385 OA
ATOM     11  H   UNL     1      32.475 -38.075   0.442  1.00  0.00     0.211 HD
ENDBRANCH   2  10
BRANCH   3  12
ATOM     12  O   UNL     1      32.467 -39.872  -1.120  1.00  0.00    -0.387 OA
ATOM     13  H   UNL     1      32.655 -40.789  -1.444  1.00  0.00     0.211 HD
ENDBRANCH   3  12
BRANCH   5  14
ATOM     14  C   UNL     1      32.408 -39.902  -4.733  1.00  0.00     0.191 C 
BRANCH  14  15
ATOM     15  O   UNL     1      31.508 -40.550  -3.877  1.00  0.00    -0.394 OA
ATOM     16  H   UNL     1      31.317 -41.429  -4.294  1.00  0.00     0.210 HD
ENDBRANCH  14  15
ENDBRANCH   5  14
BRANCH   4  17
ATOM     17  O   UNL     1      34.463 -40.685  -3.030  1.00  0.00    -0.387 OA
ATOM     18  H   UNL     1      34.663 -40.832  -3.990  1.00  0.00     0.211 HD
ENDBRANCH   4  17
TORSDOF 7
ENDMDL
MODEL 4
REMARK VINA RESULT:    -5.100      2.237      2.793
REMARK INTER + INTRA:          -6.948
REMARK INTER:                  -6.247
REMARK INTRA:                  -0.701
REMARK UNBOUND:                -0.357
REMARK SMILES CCO[C@@H]1O[C@H](CO)[C@H](O)[C@H](O)[C@@H]1O
REMARK SMILES IDX 4 1 13 2 11 3 9 4 6 5 5 6 3 7 2 8 1 9 14 10 12 12 7 14 8 15
REMARK SMILES IDX 10 17
REMARK H PARENT 14 11 12 13 8 16 10 18
REMARK Flexibility Score: inf
ROOT
ATOM      1  C   UNL     1      28.984 -37.011 -13.560  1.00  0.00     0.281 C 
ATOM      2  C   UNL     1      29.415 -35.800 -14.439  1.00  0.00     0.202 C 
ATOM      3  C   UNL     1      29.906 -36.260 -15.837  1.00  0.00     0.179 C 
ATOM      4  C   UNL     1      29.138 -37.524 -16.288  1.00  0.00     0.177 C 
ATOM      5  C   UNL     1      29.190 -38.667 -15.215  1.00  0.00     0.178 C 
ATOM      6  O   UNL     1      29.648 -38.205 -13.951  1.00  0.00    -0.341 OA
ENDROOT
BRANCH   1   7
ATOM      7  O   UNL     1      29.145 -36.740 -12.173  1.00  0.00    -0.350 OA
BRANCH   7   8
ATOM      8  C   UNL     1      29.854 -37.756 -11.479  1.00  0.00     0.160 C 
ATOM      9  C   UNL     1      31.125 -37.179 -10.865  1.00  0.00     0.035 C 
ENDBRANCH   7   8
ENDBRANCH   1   7
BRANCH   2  10
ATOM     10  O   UNL     1      30.403 -35.031 -13.801  1.00  0.00    -0.385 OA
ATOM     11  H   UNL     1      31.032 -35.669 -13.373  1.00  0.00     0.211 HD
ENDBRANCH   2  10
BRANCH   3  12
ATOM     12  O   UNL     1      31.301 -36.464 -15.862  1.00  0.00    -0.387 OA
ATOM     13  H   UNL     1      31.498 -37.196 -16.499  1.00  0.00     0.211 HD
ENDBRANCH   3  12
BRANCH   5  14
ATOM     14  C   UNL     1      30.071 -39.854 -15.632  1.00  0.00     0.191 C 
BRANCH  14  15
ATOM     15  O   UNL     1      31.403 -39.434 -15.749  1.00  0.00    -0.394 OA
ATOM     16  H   UNL     1      31.929 -40.245 -15.970  1.00  0.00     0.210 HD
ENDBRANCH  14  15
ENDBRANCH   5  14
BRANCH   4  17
ATOM     17  O   UNL     1      29.523 -37.944 -17.577  1.00  0.00    -0.387 OA
ATOM     18  H   UNL     1      28.968 -38.726 -17.829  1.00  0.00     0.211 HD
ENDBRANCH   4  17
TORSDOF 7
ENDMDL
MODEL 5
REMARK VINA RESULT:    -5.001      1.832      3.648
REMARK INTER + INTRA:          -6.821
REMARK INTER:                  -6.190
REMARK INTRA:                  -0.631
REMARK UNBOUND:                -0.357
REMARK SMILES CCO[C@@H]1O[C@H](CO)[C@H](O)[C@H](O)[C@@H]1O
REMARK SMILES IDX 4 1 13 2 11 3 9 4 6 5 5 6 3 7 2 8 1 9 14 10 12 12 7 14 8 15
REMARK SMILES IDX 10 17
REMARK H PARENT 14 11 12 13 8 16 10 18
REMARK Flexibility Score: inf
ROOT
ATOM      1  C   UNL     1      29.919 -37.924 -15.221  1.00  0.00     0.281 C 
ATOM      2  C   UNL     1      30.575 -36.558 -15.578  1.00  0.00     0.202 C 
ATOM      3  C   UNL     1      31.046 -35.805 -14.306  1.00  0.00     0.179 C 
ATOM      4  C   UNL     1      31.499 -36.810 -13.221  1.00  0.00     0.177 C 
ATOM      5  C   UNL     1      30.404 -37.893 -12.921  1.00  0.00     0.178 C 
ATOM      6  O   UNL     1      29.379 -37.918 -13.905  1.00  0.00    -0.341 OA
ENDROOT
BRANCH   1   7
ATOM      7  O   UNL     1      28.956 -38.317 -16.191  1.00  0.00    -0.350 OA
BRANCH   7   8
ATOM      8  C   UNL     1      28.477 -39.640 -16.005  1.00  0.00     0.160 C 
ATOM      9  C   UNL     1      29.638 -40.627 -16.046  1.00  0.00     0.035 C 
ENDBRANCH   7   8
ENDBRANCH   1   7
BRANCH   2  10
ATOM     10  O   UNL     1      29.702 -35.752 -16.329  1.00  0.00    -0.385 OA
ATOM     11  H   UNL     1      30.233 -35.377 -17.080  1.00  0.00     0.211 HD
ENDBRANCH   2  10
BRANCH   3  12
ATOM     12  O   UNL     1      30.056 -34.927 -13.819  1.00  0.00    -0.387 OA
ATOM     13  H   UNL     1      29.190 -35.406 -13.811  1.00  0.00     0.211 HD
ENDBRANCH   3  12
BRANCH   5  14
ATOM     14  C   UNL     1      29.736 -37.720 -11.549  1.00  0.00     0.191 C 
BRANCH  14  15
ATOM     15  O   UNL     1      28.958 -36.555 -11.547  1.00  0.00    -0.394 OA
ATOM     16  H   UNL     1      28.029 -36.845 -11.357  1.00  0.00     0.210 HD
ENDBRANCH  14  15
ENDBRANCH   5  14
BRANCH   4  17
ATOM     17  O   UNL     1      31.980 -36.161 -12.067  1.00  0.00    -0.387 OA
ATOM     18  H   UNL     1      32.331 -35.273 -12.333  1.00  0.00     0.211 HD
ENDBRANCH   4  17
TORSDOF 7
ENDMDL
MODEL 6
REMARK VINA RESULT:    -4.937      1.888      2.762
REMARK INTER + INTRA:          -6.738
REMARK INTER:                  -6.150
REMARK INTRA:                  -0.588
REMARK UNBOUND:                -0.357
REMARK SMILES CCO[C@@H]1O[C@H](CO)[C@H](O)[C@H](O)[C@@H]1O
REMARK SMILES IDX 4 1 13 2 11 3 9 4 6 5 5 6 3 7 2 8 1 9 14 10 12 12 7 14 8 15
REMARK SMILES IDX 10 17
REMARK H PARENT 14 11 12 13 8 16 10 18
REMARK Flexibility Score: inf
ROOT
ATOM      1  C   UNL     1      30.161 -38.927 -14.720  1.00  0.00     0.281 C 
ATOM      2  C   UNL     1      30.948 -38.364 -13.501  1.00  0.00     0.202 C 
ATOM      3  C   UNL     1      30.941 -36.812 -13.490  1.00  0.00     0.179 C 
ATOM      4  C   UNL     1      29.619 -36.275 -14.085  1.00  0.00     0.177 C 
ATOM      5  C   UNL     1      29.317 -36.877 -15.502  1.00  0.00     0.178 C 
ATOM      6  O   UNL     1      30.133 -38.002 -15.800  1.00  0.00    -0.341 OA
ENDROOT
BRANCH   1   7
ATOM      7  O   UNL     1      30.649 -40.201 -15.121  1.00  0.00    -0.350 OA
BRANCH   7   8
ATOM      8  C   UNL     1      30.234 -40.580 -16.425  1.00  0.00     0.160 C 
ATOM      9  C   UNL     1      28.859 -41.236 -16.364  1.00  0.00     0.035 C 
ENDBRANCH   7   8
ENDBRANCH   1   7
BRANCH   2  10
ATOM     10  O   UNL     1      32.267 -38.849 -13.475  1.00  0.00    -0.385 OA
ATOM     11  H   UNL     1      32.740 -38.357 -12.753  1.00  0.00     0.211 HD
ENDBRANCH   2  10
BRANCH   3  12
ATOM     12  O   UNL     1      32.065 -36.278 -14.154  1.00  0.00    -0.387 OA
ATOM     13  H   UNL     1      32.853 -36.374 -13.561  1.00  0.00     0.211 HD
ENDBRANCH   3  12
BRANCH   5  14
ATOM     14  C   UNL     1      29.479 -35.862 -16.643  1.00  0.00     0.191 C 
BRANCH  14  15
ATOM     15  O   UNL     1      30.840 -35.629 -16.877  1.00  0.00    -0.394 OA
ATOM     16  H   UNL     1      31.114 -36.275 -17.577  1.00  0.00     0.210 HD
ENDBRANCH  14  15
ENDBRANCH   5  14
BRANCH   4  17
ATOM     17  O   UNL     1      29.556 -34.868 -14.047  1.00  0.00    -0.387 OA
ATOM     18  H   UNL     1      29.312 -34.542 -14.951  1.00  0.00     0.211 HD
ENDBRANCH   4  17
TORSDOF 7
ENDMDL
MODEL 7
REMARK VINA RESULT:    -4.922     10.061     11.490
REMARK INTER + INTRA:          -6.719
REMARK INTER:                  -6.088
REMARK INTRA:                  -0.630
REMARK UNBOUND:                -0.357
REMARK SMILES CCO[C@@H]1O[C@H](CO)[C@H](O)[C@H](O)[C@@H]1O
REMARK SMILES IDX 4 1 13 2 11 3 9 4 6 5 5 6 3 7 2 8 1 9 14 10 12 12 7 14 8 15
REMARK SMILES IDX 10 17
REMARK H PARENT 14 11 12 13 8 16 10 18
REMARK Flexibility Score: inf
ROOT
ATOM      1  C   UNL     1      35.571 -38.539  -4.356  1.00  0.00     0.281 C 
ATOM      2  C   UNL     1      34.894 -39.424  -5.443  1.00  0.00     0.202 C 
ATOM      3  C   UNL     1      33.420 -39.742  -5.078  1.00  0.00     0.179 C 
ATOM      4  C   UNL     1      32.792 -38.563  -4.300  1.00  0.00     0.177 C 
ATOM      5  C   UNL     1      33.652 -38.144  -3.057  1.00  0.00     0.178 C 
ATOM      6  O   UNL     1      34.957 -38.708  -3.085  1.00  0.00    -0.341 OA
ENDROOT
BRANCH   1   7
ATOM      7  O   UNL     1      36.977 -38.752  -4.302  1.00  0.00    -0.350 OA
BRANCH   7   8
ATOM      8  C   UNL     1      37.428 -39.220  -3.040  1.00  0.00     0.160 C 
ATOM      9  C   UNL     1      38.173 -40.539  -3.209  1.00  0.00     0.035 C 
ENDBRANCH   7   8
ENDBRANCH   1   7
BRANCH   2  10
ATOM     10  O   UNL     1      35.613 -40.612  -5.657  1.00  0.00    -0.385 OA
ATOM     11  H   UNL     1      35.895 -40.942  -4.763  1.00  0.00     0.211 HD
ENDBRANCH   2  10
BRANCH   3  12
ATOM     12  O   UNL     1      33.305 -40.954  -4.366  1.00  0.00    -0.387 OA
ATOM     13  H   UNL     1      32.350 -41.099  -4.149  1.00  0.00     0.211 HD
ENDBRANCH   3  12
BRANCH   5  14
ATOM     14  C   UNL     1      33.006 -38.518  -1.715  1.00  0.00     0.191 C 
BRANCH  14  15
ATOM     15  O   UNL     1      32.552 -39.842  -1.762  1.00  0.00    -0.394 OA
ATOM     16  H   UNL     1      31.999 -39.915  -2.581  1.00  0.00     0.210 HD
ENDBRANCH  14  15
ENDBRANCH   5  14
BRANCH   4  17
ATOM     17  O   UNL     1      31.436 -38.795  -3.993  1.00  0.00    -0.387 OA
ATOM     18  H   UNL     1      30.906 -38.023  -4.319  1.00  0.00     0.211 HD
ENDBRANCH   4  17
TORSDOF 7
ENDMDL
MODEL 8
REMARK VINA RESULT:    -4.905      2.982      4.081
REMARK INTER + INTRA:          -6.696
REMARK INTER:                  -6.312
REMARK INTRA:                  -0.384
REMARK UNBOUND:                -0.357
REMARK SMILES CCO[C@@H]1O[C@H](CO)[C@H](O)[C@H](O)[C@@H]1O
REMARK SMILES IDX 4 1 13 2 11 3 9 4 6 5 5 6 3 7 2 8 1 9 14 10 12 12 7 14 8 15
REMARK SMILES IDX 10 17
REMARK H PARENT 14 11 12 13 8 16 10 18
REMARK Flexibility Score: inf
ROOT
ATOM      1  C   UNL     1      29.533 -40.574 -16.593  1.00  0.00     0.281 C 
ATOM      2  C   UNL     1      30.584 -40.122 -15.538  1.00  0.00     0.202 C 
ATOM      3  C   UNL     1      30.321 -38.669 -15.062  1.00  0.00     0.179 C 
ATOM      4  C   UNL     1      28.805 -38.365 -15.069  1.00  0.00     0.177 C 
ATOM      5  C   UNL     1      28.141 -38.685 -16.454  1.00  0.00     0.178 C 
ATOM      6  O   UNL     1      28.982 -39.466 -17.293  1.00  0.00    -0.341 OA
ENDROOT
BRANCH   1   7
ATOM      7  O   UNL     1      30.061 -41.555 -17.477  1.00  0.00    -0.350 OA
BRANCH   7   8
ATOM      8  C   UNL     1      29.089 -42.483 -17.935  1.00  0.00     0.160 C 
ATOM      9  C   UNL     1      28.299 -43.037 -16.755  1.00  0.00     0.035 C 
ENDBRANCH   7   8
ENDBRANCH   1   7
BRANCH   2  10
ATOM     10  O   UNL     1      31.893 -40.247 -16.033  1.00  0.00    -0.385 OA
ATOM     11  H   UNL     1      32.442 -40.630 -15.300  1.00  0.00     0.211 HD
ENDBRANCH   2  10
BRANCH   3  12
ATOM     12  O   UNL     1      31.042 -37.728 -15.827  1.00  0.00    -0.387 OA
ATOM     13  H   UNL     1      30.611 -37.652 -16.715  1.00  0.00     0.211 HD
ENDBRANCH   3  12
BRANCH   5  14
ATOM     14  C   UNL     1      27.728 -37.429 -17.237  1.00  0.00     0.191 C 
BRANCH  14  15
ATOM     15  O   UNL     1      26.418 -37.070 -16.895  1.00  0.00    -0.394 OA
ATOM     16  H   UNL     1      26.152 -36.360 -17.535  1.00  0.00     0.210 HD
ENDBRANCH  14  15
ENDBRANCH   5  14
BRANCH   4  17
ATOM     17  O   UNL     1      28.523 -37.068 -14.597  1.00  0.00    -0.387 OA
ATOM     18  H   UNL     1      28.618 -37.068 -13.610  1.00  0.00     0.211 HD
ENDBRANCH   4  17
TORSDOF 7
ENDMDL
MODEL 9
REMARK VINA RESULT:    -4.885      2.212      3.095
REMARK INTER + INTRA:          -6.670
REMARK INTER:                  -6.383
REMARK INTRA:                  -0.287
REMARK UNBOUND:                -0.357
REMARK SMILES CCO[C@@H]1O[C@H](CO)[C@H](O)[C@H](O)[C@@H]1O
REMARK SMILES IDX 4 1 13 2 11 3 9 4 6 5 5 6 3 7 2 8 1 9 14 10 12 12 7 14 8 15
REMARK SMILES IDX 10 17
REMARK H PARENT 14 11 12 13 8 16 10 18
REMARK Flexibility Score: inf
ROOT
ATOM      1  C   UNL     1      29.610 -37.320 -14.506  1.00  0.00     0.281 C 
ATOM      2  C   UNL     1      30.036 -36.500 -15.758  1.00  0.00     0.202 C 
ATOM      3  C   UNL     1      29.697 -37.253 -17.071  1.00  0.00     0.179 C 
ATOM      4  C   UNL     1      28.415 -38.098 -16.892  1.00  0.00     0.177 C 
ATOM      5  C   UNL     1      28.498 -39.048 -15.646  1.00  0.00     0.178 C 
ATOM      6  O   UNL     1      29.574 -38.714 -14.779  1.00  0.00    -0.341 OA
ENDROOT
BRANCH   1   7
ATOM      7  O   UNL     1      30.421 -37.018 -13.376  1.00  0.00    -0.350 OA
BRANCH   7   8
ATOM      8  C   UNL     1      29.786 -37.294 -12.137  1.00  0.00     0.160 C 
ATOM      9  C   UNL     1      30.816 -37.299 -11.013  1.00  0.00     0.035 C 
ENDBRANCH   7   8
ENDBRANCH   1   7
BRANCH   2  10
ATOM     10  O   UNL     1      31.403 -36.175 -15.718  1.00  0.00    -0.385 OA
ATOM     11  H   UNL     1      31.815 -36.754 -15.024  1.00  0.00     0.211 HD
ENDBRANCH   2  10
BRANCH   3  12
ATOM     12  O   UNL     1      30.779 -38.039 -17.519  1.00  0.00    -0.387 OA
ATOM     13  H   UNL     1      30.418 -38.879 -17.900  1.00  0.00     0.211 HD
ENDBRANCH   3  12
BRANCH   5  14
ATOM     14  C   UNL     1      28.635 -40.532 -16.019  1.00  0.00     0.191 C 
BRANCH  14  15
ATOM     15  O   UNL     1      27.370 -41.134 -16.030  1.00  0.00    -0.394 OA
ATOM     16  H   UNL     1      27.209 -41.453 -15.105  1.00  0.00     0.210 HD
ENDBRANCH  14  15
ENDBRANCH   5  14
BRANCH   4  17
ATOM     17  O   UNL     1      28.048 -38.760 -18.081  1.00  0.00    -0.387 OA
ATOM     18  H   UNL     1      28.713 -39.475 -18.257  1.00  0.00     0.211 HD
ENDBRANCH   4  17
TORSDOF 7
ENDMDL
