MODEL 1
REMARK VINA RESULT:    -3.470      0.000      0.000
REMARK INTER + INTRA:          -4.310
REMARK INTER:                  -4.078
REMARK INTRA:                  -0.231
REMARK UNBOUND:                -0.231
REMARK SMILES [NH3+][C@@H](CO)C(=O)[O-]
REMARK SMILES IDX 3 1 2 2 1 3 5 7 6 8 7 9 4 10
REMARK H PARENT 1 4 1 5 1 6 4 11
REMARK Flexibility Score: inf
ROOT
ATOM      1  C   UNL     1    -118.920 -97.536  40.857  1.00  0.00     0.227 C 
ENDROOT
BRANCH   1   2
ATOM      2  C   UNL     1    -118.012 -98.523  41.614  1.00  0.00     0.253 C 
BRANCH   2   3
ATOM      3  N   UNL     1    -117.475 -97.904  42.830  1.00  0.00    -0.348 N 
ATOM      4  H   UNL     1    -117.894 -96.954  42.959  1.00  0.00     0.345 HD
ATOM      5  H   UNL     1    -116.438 -97.795  42.743  1.00  0.00     0.345 HD
ATOM      6  H   UNL     1    -117.687 -98.490  43.671  1.00  0.00     0.345 HD
ENDBRANCH   2   3
BRANCH   2   7
ATOM      7  C   UNL     1    -116.891 -99.002  40.728  1.00  0.00     0.102 C 
ATOM      8  O   UNL     1    -115.830 -99.460  41.231  1.00  0.00    -0.544 OA
ATOM      9  O   UNL     1    -117.018 -98.926  39.347  1.00  0.00    -0.544 OA
ENDBRANCH   2   7
ENDBRANCH   1   2
BRANCH   1  10
ATOM     10  O   UNL     1    -118.201 -96.396  40.467  1.00  0.00    -0.390 OA
ATOM     11  H   UNL     1    -118.546 -96.134  39.574  1.00  0.00     0.210 HD
ENDBRANCH   1  10
TORSDOF 4
ENDMDL
MODEL 2
REMARK VINA RESULT:    -3.087      1.787      2.002
REMARK INTER + INTRA:          -3.860
REMARK INTER:                  -3.838
REMARK INTRA:                  -0.022
REMARK UNBOUND:                -0.231
REMARK SMILES [NH3+][C@@H](CO)C(=O)[O-]
REMARK SMILES IDX 3 1 2 2 1 3 5 7 6 8 7 9 4 10
REMARK H PARENT 1 4 1 5 1 6 4 11
REMARK Flexibility Score: inf
ROOT
ATOM      1  C   UNL     1    -118.580 -97.486  40.834  1.00  0.00     0.227 C 
ENDROOT
BRANCH   1   2
ATOM      2  C   UNL     1    -117.538 -98.494  40.316  1.00  0.00     0.253 C 
BRANCH   2   3
ATOM      3  N   UNL     1    -118.198 -99.639  39.679  1.00  0.00    -0.348 N 
ATOM      4  H   UNL     1    -117.895-100.526  40.143  1.00  0.00     0.345 HD
ATOM      5  H   UNL     1    -117.925 -99.688  38.670  1.00  0.00     0.345 HD
ATOM      6  H   UNL     1    -119.239 -99.553  39.747  1.00  0.00     0.345 HD
ENDBRANCH   2   3
BRANCH   2   7
ATOM      7  C   UNL     1    -116.644 -98.959  41.436  1.00  0.00     0.102 C 
ATOM      8  O   UNL     1    -115.720 -99.787  41.216  1.00  0.00    -0.544 OA
ATOM      9  O   UNL     1    -116.845 -98.484  42.727  1.00  0.00    -0.544 OA
ENDBRANCH   2   7
ENDBRANCH   1   2
BRANCH   1  10
ATOM     10  O   UNL     1    -118.521 -96.289  40.104  1.00  0.00    -0.390 OA
ATOM     11  H   UNL     1    -117.588 -96.201  39.777  1.00  0.00     0.210 HD
ENDBRANCH   1  10
TORSDOF 4
ENDMDL
MODEL 3
REMARK VINA RESULT:    -3.082      2.011      3.115
REMARK INTER + INTRA:          -3.854
REMARK INTER:                  -3.501
REMARK INTRA:                  -0.353
REMARK UNBOUND:                -0.231
REMARK SMILES [NH3+][C@@H](CO)C(=O)[O-]
REMARK SMILES IDX 3 1 2 2 1 3 5 7 6 8 7 9 4 10
REMARK H PARENT 1 4 1 5 1 6 4 11
REMARK Flexibility Score: inf
ROOT
ATOM      1  C   UNL     1    -116.410 -99.044  41.454  1.00  0.00     0.227 C 
ENDROOT
BRANCH   1   2
ATOM      2  C   UNL     1    -117.642 -98.858  40.549  1.00  0.00     0.253 C 
BRANCH   2   3
ATOM      3  N   UNL     1    -117.253 -98.883  39.134  1.00  0.00    -0.348 N 
ATOM      4  H   UNL     1    -118.103 -98.996  38.535  1.00  0.00     0.345 HD
ATOM      5  H   UNL     1    -116.617 -99.695  38.957  1.00  0.00     0.345 HD
ATOM      6  H   UNL     1    -116.760 -97.999  38.869  1.00  0.00     0.345 HD
ENDBRANCH   2   3
BRANCH   2   7
ATOM      7  C   UNL     1    -118.354 -97.571  40.876  1.00  0.00     0.102 C 
ATOM      8  O   UNL     1    -118.314 -96.597  40.077  1.00  0.00    -0.544 OA
ATOM      9  O   UNL     1    -119.048 -97.448  42.073  1.00  0.00    -0.544 OA
ENDBRANCH   2   7
ENDBRANCH   1   2
BRANCH   1  10
ATOM     10  O   UNL     1    -116.108 -97.856  42.136  1.00  0.00    -0.390 OA
ATOM     11  H   UNL     1    -116.737 -97.800  42.902  1.00  0.00     0.210 HD
ENDBRANCH   1  10
TORSDOF 4
ENDMDL
MODEL 4
REMARK VINA RESULT:    -3.023      6.889      7.400
REMARK INTER + INTRA:          -3.784
REMARK INTER:                  -3.577
REMARK INTRA:                  -0.207
REMARK UNBOUND:                -0.231
REMARK SMILES [NH3+][C@@H](CO)C(=O)[O-]
REMARK SMILES IDX 3 1 2 2 1 3 5 7 6 8 7 9 4 10
REMARK H PARENT 1 4 1 5 1 6 4 11
REMARK Flexibility Score: inf
ROOT
ATOM      1  C   UNL     1    -119.000 -94.626  48.664  1.00  0.00     0.227 C 
ENDROOT
BRANCH   1   2
ATOM      2  C   UNL     1    -118.501 -96.074  48.505  1.00  0.00     0.253 C 
BRANCH   2   3
ATOM      3  N   UNL     1    -117.182 -96.238  49.125  1.00  0.00    -0.348 N 
ATOM      4  H   UNL     1    -117.217 -97.003  49.837  1.00  0.00     0.345 HD
ATOM      5  H   UNL     1    -116.907 -95.352  49.610  1.00  0.00     0.345 HD
ATOM      6  H   UNL     1    -116.459 -96.471  48.405  1.00  0.00     0.345 HD
ENDBRANCH   2   3
BRANCH   2   7
ATOM      7  C   UNL     1    -118.451 -96.463  47.050  1.00  0.00     0.102 C 
ATOM      8  O   UNL     1    -118.735 -95.625  46.154  1.00  0.00    -0.544 OA
ATOM      9  O   UNL     1    -118.104 -97.760  46.691  1.00  0.00    -0.544 OA
ENDBRANCH   2   7
ENDBRANCH   1   2
BRANCH   1  10
ATOM     10  O   UNL     1    -118.104 -93.723  48.072  1.00  0.00    -0.390 OA
ATOM     11  H   UNL     1    -117.497 -93.411  48.792  1.00  0.00     0.210 HD
ENDBRANCH   1  10
TORSDOF 4
ENDMDL
MODEL 5
REMARK VINA RESULT:    -2.963      1.112      2.633
REMARK INTER + INTRA:          -3.713
REMARK INTER:                  -3.489
REMARK INTRA:                  -0.225
REMARK UNBOUND:                -0.231
REMARK SMILES [NH3+][C@@H](CO)C(=O)[O-]
REMARK SMILES IDX 3 1 2 2 1 3 5 7 6 8 7 9 4 10
REMARK H PARENT 1 4 1 5 1 6 4 11
REMARK Flexibility Score: inf
ROOT
ATOM      1  C   UNL     1    -116.116 -98.574  42.076  1.00  0.00     0.227 C 
ENDROOT
BRANCH   1   2
ATOM      2  C   UNL     1    -117.623 -98.292  41.923  1.00  0.00     0.253 C 
BRANCH   2   3
ATOM      3  N   UNL     1    -118.413 -99.437  42.388  1.00  0.00    -0.348 N 
ATOM      4  H   UNL     1    -118.300-100.238  41.726  1.00  0.00     0.345 HD
ATOM      5  H   UNL     1    -119.427 -99.178  42.417  1.00  0.00     0.345 HD
ATOM      6  H   UNL     1    -118.110 -99.734  43.344  1.00  0.00     0.345 HD
ENDBRANCH   2   3
BRANCH   2   7
ATOM      7  C   UNL     1    -117.960 -97.966  40.492  1.00  0.00     0.102 C 
ATOM      8  O   UNL     1    -117.900 -98.856  39.602  1.00  0.00    -0.544 OA
ATOM      9  O   UNL     1    -118.327 -96.672  40.143  1.00  0.00    -0.544 OA
ENDBRANCH   2   7
ENDBRANCH   1   2
BRANCH   1  10
ATOM     10  O   UNL     1    -115.727 -99.653  41.269  1.00  0.00    -0.390 OA
ATOM     11  H   UNL     1    -116.335-100.406  41.489  1.00  0.00     0.210 HD
ENDBRANCH   1  10
TORSDOF 4
ENDMDL
MODEL 6
REMARK VINA RESULT:    -2.949      5.652      6.207
REMARK INTER + INTRA:          -3.698
REMARK INTER:                  -3.324
REMARK INTRA:                  -0.374
REMARK UNBOUND:                -0.231
REMARK SMILES [NH3+][C@@H](CO)C(=O)[O-]
REMARK SMILES IDX 3 1 2 2 1 3 5 7 6 8 7 9 4 10
REMARK H PARENT 1 4 1 5 1 6 4 11
REMARK Flexibility Score: inf
ROOT
ATOM      1  C   UNL     1    -116.548 -97.879  33.851  1.00  0.00     0.227 C 
ENDROOT
BRANCH   1   2
ATOM      2  C   UNL     1    -116.757 -99.131  34.724  1.00  0.00     0.253 C 
BRANCH   2   3
ATOM      3  N   UNL     1    -118.183 -99.341  34.995  1.00  0.00    -0.348 N 
ATOM      4  H   UNL     1    -118.347-100.333  35.283  1.00  0.00     0.345 HD
ATOM      5  H   UNL     1    -118.739 -99.156  34.127  1.00  0.00     0.345 HD
ATOM      6  H   UNL     1    -118.515 -98.702  35.754  1.00  0.00     0.345 HD
ENDBRANCH   2   3
BRANCH   2   7
ATOM      7  C   UNL     1    -115.987 -99.015  36.014  1.00  0.00     0.102 C 
ATOM      8  O   UNL     1    -116.564 -98.643  37.071  1.00  0.00    -0.544 OA
ATOM      9  O   UNL     1    -114.629 -99.306  36.039  1.00  0.00    -0.544 OA
ENDBRANCH   2   7
ENDBRANCH   1   2
BRANCH   1  10
ATOM     10  O   UNL     1    -115.632 -97.001  34.450  1.00  0.00    -0.390 OA
ATOM     11  H   UNL     1    -114.767 -97.131  33.982  1.00  0.00     0.210 HD
ENDBRANCH   1  10
TORSDOF 4
ENDMDL
MODEL 7
REMARK VINA RESULT:    -2.913      6.913      7.364
REMARK INTER + INTRA:          -3.655
REMARK INTER:                  -3.418
REMARK INTRA:                  -0.237
REMARK UNBOUND:                -0.231
REMARK SMILES [NH3+][C@@H](CO)C(=O)[O-]
REMARK SMILES IDX 3 1 2 2 1 3 5 7 6 8 7 9 4 10
REMARK H PARENT 1 4 1 5 1 6 4 11
REMARK Flexibility Score: inf
ROOT
ATOM      1  C   UNL     1    -116.390 -96.859  33.031  1.00  0.00     0.227 C 
ENDROOT
BRANCH   1   2
ATOM      2  C   UNL     1    -115.947 -98.293  33.378  1.00  0.00     0.253 C 
BRANCH   2   3
ATOM      3  N   UNL     1    -116.807 -99.275  32.709  1.00  0.00    -0.348 N 
ATOM      4  H   UNL     1    -117.744 -99.301  33.172  1.00  0.00     0.345 HD
ATOM      5  H   UNL     1    -116.380-100.228  32.783  1.00  0.00     0.345 HD
ATOM      6  H   UNL     1    -116.929 -99.035  31.697  1.00  0.00     0.345 HD
ENDBRANCH   2   3
BRANCH   2   7
ATOM      7  C   UNL     1    -115.964 -98.509  34.869  1.00  0.00     0.102 C 
ATOM      8  O   UNL     1    -114.918 -98.339  35.552  1.00  0.00    -0.544 OA
ATOM      9  O   UNL     1    -117.135 -98.912  35.498  1.00  0.00    -0.544 OA
ENDBRANCH   2   7
ENDBRANCH   1   2
BRANCH   1  10
ATOM     10  O   UNL     1    -115.742 -95.925  33.853  1.00  0.00    -0.390 OA
ATOM     11  H   UNL     1    -116.202 -95.057  33.714  1.00  0.00     0.210 HD
ENDBRANCH   1  10
TORSDOF 4
ENDMDL
MODEL 8
REMARK VINA RESULT:    -2.868      6.974      7.453
REMARK INTER + INTRA:          -3.602
REMARK INTER:                  -3.210
REMARK INTRA:                  -0.392
REMARK UNBOUND:                -0.231
REMARK SMILES [NH3+][C@@H](CO)C(=O)[O-]
REMARK SMILES IDX 3 1 2 2 1 3 5 7 6 8 7 9 4 10
REMARK H PARENT 1 4 1 5 1 6 4 11
REMARK Flexibility Score: inf
ROOT
ATOM      1  C   UNL     1    -116.562 -96.351  33.067  1.00  0.00     0.227 C 
ENDROOT
BRANCH   1   2
ATOM      2  C   UNL     1    -117.178 -97.757  33.188  1.00  0.00     0.253 C 
BRANCH   2   3
ATOM      3  N   UNL     1    -118.611 -97.670  33.490  1.00  0.00    -0.348 N 
ATOM      4  H   UNL     1    -118.807 -98.124  34.412  1.00  0.00     0.345 HD
ATOM      5  H   UNL     1    -119.159 -98.174  32.754  1.00  0.00     0.345 HD
ATOM      6  H   UNL     1    -118.924 -96.672  33.524  1.00  0.00     0.345 HD
ENDBRANCH   2   3
BRANCH   2   7
ATOM      7  C   UNL     1    -116.466 -98.562  34.243  1.00  0.00     0.102 C 
ATOM      8  O   UNL     1    -115.524 -99.339  33.929  1.00  0.00    -0.544 OA
ATOM      9  O   UNL     1    -116.855 -98.460  35.573  1.00  0.00    -0.544 OA
ENDBRANCH   2   7
ENDBRANCH   1   2
BRANCH   1  10
ATOM     10  O   UNL     1    -115.482 -96.202  33.949  1.00  0.00    -0.390 OA
ATOM     11  H   UNL     1    -115.797 -95.620  34.688  1.00  0.00     0.210 HD
ENDBRANCH   1  10
TORSDOF 4
ENDMDL
MODEL 9
REMARK VINA RESULT:    -2.826      6.381      7.090
REMARK INTER + INTRA:          -3.553
REMARK INTER:                  -3.321
REMARK INTRA:                  -0.232
REMARK UNBOUND:                -0.231
REMARK SMILES [NH3+][C@@H](CO)C(=O)[O-]
REMARK SMILES IDX 3 1 2 2 1 3 5 7 6 8 7 9 4 10
REMARK H PARENT 1 4 1 5 1 6 4 11
REMARK Flexibility Score: inf
ROOT
ATOM      1  C   UNL     1    -118.195 -96.775  49.016  1.00  0.00     0.227 C 
ENDROOT
BRANCH   1   2
ATOM      2  C   UNL     1    -118.736 -97.257  47.657  1.00  0.00     0.253 C 
BRANCH   2   3
ATOM      3  N   UNL     1    -118.147 -98.551  47.296  1.00  0.00    -0.348 N 
ATOM      4  H   UNL     1    -118.903 -99.222  47.026  1.00  0.00     0.345 HD
ATOM      5  H   UNL     1    -117.635 -98.949  48.119  1.00  0.00     0.345 HD
ATOM      6  H   UNL     1    -117.478 -98.446  46.498  1.00  0.00     0.345 HD
ENDBRANCH   2   3
BRANCH   2   7
ATOM      7  C   UNL     1    -118.464 -96.237  46.583  1.00  0.00     0.102 C 
ATOM      8  O   UNL     1    -118.420 -96.580  45.371  1.00  0.00    -0.544 OA
ATOM      9  O   UNL     1    -118.246 -94.909  46.928  1.00  0.00    -0.544 OA
ENDBRANCH   2   7
ENDBRANCH   1   2
BRANCH   1  10
ATOM     10  O   UNL     1    -116.852 -96.384  48.907  1.00  0.00    -0.390 OA
ATOM     11  H   UNL     1    -116.689 -96.194  47.947  1.00  0.00     0.210 HD
ENDBRANCH   1  10
TORSDOF 4
ENDMDL
