MODEL 1
REMARK VINA RESULT:    -5.722      0.000      0.000
REMARK INTER + INTRA:          -7.303
REMARK INTER:                  -6.893
REMARK INTRA:                  -0.410
REMARK UNBOUND:                -0.410
REMARK SMILES O=c1c(O)c(-c2ccc(O)cc2O)oc2cc(O)cc(O)c12
REMARK SMILES IDX 5 1 3 2 2 3 1 4 22 5 20 6 19 7 17 8 16 9 15 10 14 11 6 12
REMARK SMILES IDX 8 13 7 14 9 15 11 16 12 17 10 18 13 20 4 22 21 24 18 26
REMARK H PARENT 10 19 13 21 4 23 21 25 18 27
REMARK Flexibility Score: inf
ROOT
ATOM      1  C   UNL     1      17.061  -6.925 -32.368  1.00  0.00     0.184 A 
ATOM      2  C   UNL     1      15.885  -6.964 -33.133  1.00  0.00     0.208 A 
ATOM      3  C   UNL     1      14.708  -7.453 -32.546  1.00  0.00     0.238 A 
ATOM      4  O   UNL     1      13.669  -7.537 -33.251  1.00  0.00    -0.285 OA
ATOM      5  C   UNL     1      14.720  -7.881 -31.195  1.00  0.00     0.111 A 
ATOM      6  C   UNL     1      13.577  -8.357 -30.486  1.00  0.00     0.134 A 
ATOM      7  C   UNL     1      13.732  -8.875 -29.194  1.00  0.00     0.093 A 
ATOM      8  C   UNL     1      14.979  -8.873 -28.562  1.00  0.00     0.123 A 
ATOM      9  C   UNL     1      16.089  -8.357 -29.224  1.00  0.00     0.094 A 
ATOM     10  C   UNL     1      15.973  -7.866 -30.527  1.00  0.00     0.146 A 
ATOM     11  O   UNL     1      17.059  -7.394 -31.126  1.00  0.00    -0.451 OA
ENDROOT
BRANCH   1  12
ATOM     12  C   UNL     1      18.330  -6.407 -32.921  1.00  0.00     0.063 A 
ATOM     13  C   UNL     1      20.483  -6.858 -33.957  1.00  0.00     0.047 A 
ATOM     14  C   UNL     1      19.271  -7.314 -33.432  1.00  0.00     0.020 A 
ATOM     15  C   UNL     1      20.776  -5.488 -33.964  1.00  0.00     0.119 A 
ATOM     16  C   UNL     1      19.854  -4.580 -33.435  1.00  0.00     0.093 A 
ATOM     17  C   UNL     1      18.638  -5.030 -32.901  1.00  0.00     0.130 A 
BRANCH  15  18
ATOM     18  O   UNL     1      21.979  -5.023 -34.489  1.00  0.00    -0.508 OA
ATOM     19  H   UNL     1      22.173  -4.032 -34.572  1.00  0.00     0.293 HD
ENDBRANCH  15  18
BRANCH  17  20
ATOM     20  O   UNL     1      17.749  -4.117 -32.334  1.00  0.00    -0.507 OA
ATOM     21  H   UNL     1      16.768  -4.334 -32.213  1.00  0.00     0.293 HD
ENDBRANCH  17  20
ENDBRANCH   1  12
BRANCH   2  22
ATOM     22  O   UNL     1      15.906  -6.553 -34.469  1.00  0.00    -0.502 OA
ATOM     23  H   UNL     1      15.975  -5.579 -34.736  1.00  0.00     0.293 HD
ENDBRANCH   2  22
BRANCH   6  24
ATOM     24  O   UNL     1      12.274  -8.317 -30.989  1.00  0.00    -0.507 OA
ATOM     25  H   UNL     1      11.438  -8.396 -30.429  1.00  0.00     0.293 HD
ENDBRANCH   6  24
BRANCH   8  26
ATOM     26  O   UNL     1      15.121  -9.377 -27.271  1.00  0.00    -0.508 OA
ATOM     27  H   UNL     1      16.033  -9.582 -26.880  1.00  0.00     0.293 HD
ENDBRANCH   8  26
TORSDOF 6
ENDMDL
MODEL 2
REMARK VINA RESULT:    -5.600      2.097      6.550
REMARK INTER + INTRA:          -7.155
REMARK INTER:                  -6.905
REMARK INTRA:                  -0.250
REMARK UNBOUND:                -0.410
REMARK SMILES O=c1c(O)c(-c2ccc(O)cc2O)oc2cc(O)cc(O)c12
REMARK SMILES IDX 5 1 3 2 2 3 1 4 22 5 20 6 19 7 17 8 16 9 15 10 14 11 6 12
REMARK SMILES IDX 8 13 7 14 9 15 11 16 12 17 10 18 13 20 4 22 21 24 18 26
REMARK H PARENT 10 19 13 21 4 23 21 25 18 27
REMARK Flexibility Score: inf
ROOT
ATOM      1  C   UNL     1      15.697  -7.292 -29.998  1.00  0.00     0.184 A 
ATOM      2  C   UNL     1      14.979  -6.086 -30.003  1.00  0.00     0.208 A 
ATOM      3  C   UNL     1      15.148  -5.198 -31.077  1.00  0.00     0.238 A 
ATOM      4  O   UNL     1      14.544  -4.094 -31.050  1.00  0.00    -0.285 OA
ATOM      5  C   UNL     1      16.021  -5.538 -32.140  1.00  0.00     0.111 A 
ATOM      6  C   UNL     1      16.239  -4.732 -33.297  1.00  0.00     0.134 A 
ATOM      7  C   UNL     1      17.222  -5.105 -34.222  1.00  0.00     0.093 A 
ATOM      8  C   UNL     1      17.949  -6.288 -34.065  1.00  0.00     0.123 A 
ATOM      9  C   UNL     1      17.702  -7.110 -32.969  1.00  0.00     0.094 A 
ATOM     10  C   UNL     1      16.753  -6.747 -32.010  1.00  0.00     0.146 A 
ATOM     11  O   UNL     1      16.557  -7.554 -30.974  1.00  0.00    -0.451 OA
ENDROOT
BRANCH   1  12
ATOM     12  C   UNL     1      15.552  -8.278 -28.906  1.00  0.00     0.063 A 
ATOM     13  C   UNL     1      16.578  -9.552 -27.107  1.00  0.00     0.047 A 
ATOM     14  C   UNL     1      16.679  -8.620 -28.144  1.00  0.00     0.020 A 
ATOM     15  C   UNL     1      15.350 -10.166 -26.831  1.00  0.00     0.119 A 
ATOM     16  C   UNL     1      14.227  -9.848 -27.601  1.00  0.00     0.093 A 
ATOM     17  C   UNL     1      14.322  -8.918 -28.646  1.00  0.00     0.130 A 
BRANCH  15  18
ATOM     18  O   UNL     1      15.238 -11.093 -25.798  1.00  0.00    -0.508 OA
ATOM     19  H   UNL     1      14.438 -11.099 -25.175  1.00  0.00     0.293 HD
ENDBRANCH  15  18
BRANCH  17  20
ATOM     20  O   UNL     1      13.205  -8.648 -29.437  1.00  0.00    -0.507 OA
ATOM     21  H   UNL     1      12.366  -9.212 -29.383  1.00  0.00     0.293 HD
ENDBRANCH  17  20
ENDBRANCH   1  12
BRANCH   2  22
ATOM     22  O   UNL     1      14.138  -5.768 -28.932  1.00  0.00    -0.502 OA
ATOM     23  H   UNL     1      13.842  -4.819 -28.737  1.00  0.00     0.293 HD
ENDBRANCH   2  22
BRANCH   6  24
ATOM     24  O   UNL     1      15.504  -3.582 -33.597  1.00  0.00    -0.507 OA
ATOM     25  H   UNL     1      14.516  -3.468 -33.422  1.00  0.00     0.293 HD
ENDBRANCH   6  24
BRANCH   8  26
ATOM     26  O   UNL     1      18.914  -6.659 -34.999  1.00  0.00    -0.508 OA
ATOM     27  H   UNL     1      19.774  -7.115 -34.718  1.00  0.00     0.293 HD
ENDBRANCH   8  26
TORSDOF 6
ENDMDL
MODEL 3
REMARK VINA RESULT:    -5.393      1.607      6.332
REMARK INTER + INTRA:          -6.906
REMARK INTER:                  -6.480
REMARK INTRA:                  -0.426
REMARK UNBOUND:                -0.410
REMARK SMILES O=c1c(O)c(-c2ccc(O)cc2O)oc2cc(O)cc(O)c12
REMARK SMILES IDX 5 1 3 2 2 3 1 4 22 5 20 6 19 7 17 8 16 9 15 10 14 11 6 12
REMARK SMILES IDX 8 13 7 14 9 15 11 16 12 17 10 18 13 20 4 22 21 24 18 26
REMARK H PARENT 10 19 13 21 4 23 21 25 18 27
REMARK Flexibility Score: inf
ROOT
ATOM      1  C   UNL     1      16.041  -7.138 -32.268  1.00  0.00     0.184 A 
ATOM      2  C   UNL     1      15.388  -6.731 -33.442  1.00  0.00     0.208 A 
ATOM      3  C   UNL     1      16.157  -6.413 -34.573  1.00  0.00     0.238 A 
ATOM      4  O   UNL     1      15.571  -5.997 -35.606  1.00  0.00    -0.285 OA
ATOM      5  C   UNL     1      17.569  -6.523 -34.517  1.00  0.00     0.111 A 
ATOM      6  C   UNL     1      18.445  -6.265 -35.614  1.00  0.00     0.134 A 
ATOM      7  C   UNL     1      19.830  -6.280 -35.409  1.00  0.00     0.093 A 
ATOM      8  C   UNL     1      20.371  -6.607 -34.163  1.00  0.00     0.123 A 
ATOM      9  C   UNL     1      19.524  -6.918 -33.102  1.00  0.00     0.094 A 
ATOM     10  C   UNL     1      18.137  -6.876 -33.266  1.00  0.00     0.146 A 
ATOM     11  O   UNL     1      17.367  -7.169 -32.225  1.00  0.00    -0.451 OA
ENDROOT
BRANCH   1  12
ATOM     12  C   UNL     1      15.290  -7.503 -31.049  1.00  0.00     0.063 A 
ATOM     13  C   UNL     1      13.943  -9.133 -29.848  1.00  0.00     0.047 A 
ATOM     14  C   UNL     1      14.665  -8.758 -30.984  1.00  0.00     0.020 A 
ATOM     15  C   UNL     1      13.824  -8.251 -28.768  1.00  0.00     0.119 A 
ATOM     16  C   UNL     1      14.423  -6.989 -28.833  1.00  0.00     0.093 A 
ATOM     17  C   UNL     1      15.145  -6.603 -29.972  1.00  0.00     0.130 A 
BRANCH  15  18
ATOM     18  O   UNL     1      13.109  -8.616 -27.629  1.00  0.00    -0.508 OA
ATOM     19  H   UNL     1      12.152  -8.942 -27.686  1.00  0.00     0.293 HD
ENDBRANCH  15  18
BRANCH  17  20
ATOM     20  O   UNL     1      15.696  -5.324 -30.043  1.00  0.00    -0.507 OA
ATOM     21  H   UNL     1      16.579  -5.150 -30.507  1.00  0.00     0.293 HD
ENDBRANCH  17  20
ENDBRANCH   1  12
BRANCH   2  22
ATOM     22  O   UNL     1      13.995  -6.614 -33.464  1.00  0.00    -0.502 OA
ATOM     23  H   UNL     1      13.448  -6.491 -32.621  1.00  0.00     0.293 HD
ENDBRANCH   2  22
BRANCH   6  24
ATOM     24  O   UNL     1      18.010  -6.019 -36.919  1.00  0.00    -0.507 OA
ATOM     25  H   UNL     1      18.607  -5.726 -37.679  1.00  0.00     0.293 HD
ENDBRANCH   6  24
BRANCH   8  26
ATOM     26  O   UNL     1      21.751  -6.634 -33.972  1.00  0.00    -0.508 OA
ATOM     27  H   UNL     1      22.257  -7.508 -33.884  1.00  0.00     0.293 HD
ENDBRANCH   8  26
TORSDOF 6
ENDMDL
MODEL 4
REMARK VINA RESULT:    -5.331      4.802      7.807
REMARK INTER + INTRA:          -6.831
REMARK INTER:                  -6.561
REMARK INTRA:                  -0.271
REMARK UNBOUND:                -0.410
REMARK SMILES O=c1c(O)c(-c2ccc(O)cc2O)oc2cc(O)cc(O)c12
REMARK SMILES IDX 5 1 3 2 2 3 1 4 22 5 20 6 19 7 17 8 16 9 15 10 14 11 6 12
REMARK SMILES IDX 8 13 7 14 9 15 11 16 12 17 10 18 13 20 4 22 21 24 18 26
REMARK H PARENT 10 19 13 21 4 23 21 25 18 27
REMARK Flexibility Score: inf
ROOT
ATOM      1  C   UNL     1      23.132  -4.950 -35.265  1.00  0.00     0.184 A 
ATOM      2  C   UNL     1      22.896  -5.082 -33.888  1.00  0.00     0.208 A 
ATOM      3  C   UNL     1      21.744  -5.760 -33.458  1.00  0.00     0.238 A 
ATOM      4  O   UNL     1      21.509  -5.829 -32.223  1.00  0.00    -0.285 OA
ATOM      5  C   UNL     1      20.854  -6.311 -34.412  1.00  0.00     0.111 A 
ATOM      6  C   UNL     1      19.678  -7.052 -34.089  1.00  0.00     0.134 A 
ATOM      7  C   UNL     1      18.803  -7.439 -35.112  1.00  0.00     0.093 A 
ATOM      8  C   UNL     1      19.095  -7.167 -36.452  1.00  0.00     0.123 A 
ATOM      9  C   UNL     1      20.270  -6.496 -36.781  1.00  0.00     0.094 A 
ATOM     10  C   UNL     1      21.145  -6.066 -35.780  1.00  0.00     0.146 A 
ATOM     11  O   UNL     1      22.248  -5.419 -36.137  1.00  0.00    -0.451 OA
ENDROOT
BRANCH   1  12
ATOM     12  C   UNL     1      24.333  -4.263 -35.785  1.00  0.00     0.063 A 
ATOM     13  C   UNL     1      25.698  -2.253 -35.881  1.00  0.00     0.047 A 
ATOM     14  C   UNL     1      24.575  -2.934 -35.405  1.00  0.00     0.020 A 
ATOM     15  C   UNL     1      26.587  -2.889 -36.756  1.00  0.00     0.119 A 
ATOM     16  C   UNL     1      26.342  -4.206 -37.158  1.00  0.00     0.093 A 
ATOM     17  C   UNL     1      25.213  -4.894 -36.689  1.00  0.00     0.130 A 
BRANCH  15  18
ATOM     18  O   UNL     1      27.712  -2.222 -37.234  1.00  0.00    -0.508 OA
ATOM     19  H   UNL     1      28.582  -2.210 -36.715  1.00  0.00     0.293 HD
ENDBRANCH  15  18
BRANCH  17  20
ATOM     20  O   UNL     1      24.956  -6.190 -37.136  1.00  0.00    -0.507 OA
ATOM     21  H   UNL     1      24.915  -6.414 -38.123  1.00  0.00     0.293 HD
ENDBRANCH  17  20
ENDBRANCH   1  12
BRANCH   2  22
ATOM     22  O   UNL     1      23.781  -4.513 -32.969  1.00  0.00    -0.502 OA
ATOM     23  H   UNL     1      24.737  -4.279 -33.209  1.00  0.00     0.293 HD
ENDBRANCH   2  22
BRANCH   6  24
ATOM     24  O   UNL     1      19.340  -7.456 -32.794  1.00  0.00    -0.507 OA
ATOM     25  H   UNL     1      19.222  -8.415 -32.503  1.00  0.00     0.293 HD
ENDBRANCH   6  24
BRANCH   8  26
ATOM     26  O   UNL     1      18.226  -7.569 -37.464  1.00  0.00    -0.508 OA
ATOM     27  H   UNL     1      18.519  -7.595 -38.434  1.00  0.00     0.293 HD
ENDBRANCH   8  26
TORSDOF 6
ENDMDL
MODEL 5
REMARK VINA RESULT:    -5.321      1.499      6.512
REMARK INTER + INTRA:          -6.819
REMARK INTER:                  -6.526
REMARK INTRA:                  -0.293
REMARK UNBOUND:                -0.410
REMARK SMILES O=c1c(O)c(-c2ccc(O)cc2O)oc2cc(O)cc(O)c12
REMARK SMILES IDX 5 1 3 2 2 3 1 4 22 5 20 6 19 7 17 8 16 9 15 10 14 11 6 12
REMARK SMILES IDX 8 13 7 14 9 15 11 16 12 17 10 18 13 20 4 22 21 24 18 26
REMARK H PARENT 10 19 13 21 4 23 21 25 18 27
REMARK Flexibility Score: inf
ROOT
ATOM      1  C   UNL     1      16.029  -6.910 -31.932  1.00  0.00     0.184 A 
ATOM      2  C   UNL     1      15.408  -6.008 -32.810  1.00  0.00     0.208 A 
ATOM      3  C   UNL     1      16.160  -5.449 -33.855  1.00  0.00     0.238 A 
ATOM      4  O   UNL     1      15.613  -4.600 -34.606  1.00  0.00    -0.285 OA
ATOM      5  C   UNL     1      17.520  -5.813 -34.016  1.00  0.00     0.111 A 
ATOM      6  C   UNL     1      18.366  -5.339 -35.063  1.00  0.00     0.134 A 
ATOM      7  C   UNL     1      19.728  -5.664 -35.050  1.00  0.00     0.093 A 
ATOM      8  C   UNL     1      20.260  -6.499 -34.064  1.00  0.00     0.123 A 
ATOM      9  C   UNL     1      19.430  -7.014 -33.072  1.00  0.00     0.094 A 
ATOM     10  C   UNL     1      18.074  -6.678 -33.038  1.00  0.00     0.146 A 
ATOM     11  O   UNL     1      17.321  -7.182 -32.067  1.00  0.00    -0.451 OA
ENDROOT
BRANCH   1  12
ATOM     12  C   UNL     1      15.290  -7.547 -30.822  1.00  0.00     0.063 A 
ATOM     13  C   UNL     1      14.998  -7.858 -28.427  1.00  0.00     0.047 A 
ATOM     14  C   UNL     1      15.673  -7.268 -29.500  1.00  0.00     0.020 A 
ATOM     15  C   UNL     1      13.942  -8.746 -28.663  1.00  0.00     0.119 A 
ATOM     16  C   UNL     1      13.569  -9.047 -29.977  1.00  0.00     0.093 A 
ATOM     17  C   UNL     1      14.245  -8.464 -31.059  1.00  0.00     0.130 A 
BRANCH  15  18
ATOM     18  O   UNL     1      13.261  -9.336 -27.601  1.00  0.00    -0.508 OA
ATOM     19  H   UNL     1      13.492 -10.266 -27.275  1.00  0.00     0.293 HD
ENDBRANCH  15  18
BRANCH  17  20
ATOM     20  O   UNL     1      13.894  -8.812 -32.363  1.00  0.00    -0.507 OA
ATOM     21  H   UNL     1      14.346  -8.392 -33.166  1.00  0.00     0.293 HD
ENDBRANCH  17  20
ENDBRANCH   1  12
BRANCH   2  22
ATOM     22  O   UNL     1      14.070  -5.653 -32.616  1.00  0.00    -0.502 OA
ATOM     23  H   UNL     1      13.638  -4.877 -33.103  1.00  0.00     0.293 HD
ENDBRANCH   2  22
BRANCH   6  24
ATOM     24  O   UNL     1      17.917  -4.577 -36.145  1.00  0.00    -0.507 OA
ATOM     25  H   UNL     1      18.324  -4.593 -37.069  1.00  0.00     0.293 HD
ENDBRANCH   6  24
BRANCH   8  26
ATOM     26  O   UNL     1      21.614  -6.829 -34.067  1.00  0.00    -0.508 OA
ATOM     27  H   UNL     1      22.314  -6.193 -34.432  1.00  0.00     0.293 HD
ENDBRANCH   8  26
TORSDOF 6
ENDMDL
MODEL 6
REMARK VINA RESULT:    -5.175      2.268      7.010
REMARK INTER + INTRA:          -6.644
REMARK INTER:                  -6.238
REMARK INTRA:                  -0.406
REMARK UNBOUND:                -0.410
REMARK SMILES O=c1c(O)c(-c2ccc(O)cc2O)oc2cc(O)cc(O)c12
REMARK SMILES IDX 5 1 3 2 2 3 1 4 22 5 20 6 19 7 17 8 16 9 15 10 14 11 6 12
REMARK SMILES IDX 8 13 7 14 9 15 11 16 12 17 10 18 13 20 4 22 21 24 18 26
REMARK H PARENT 10 19 13 21 4 23 21 25 18 27
REMARK Flexibility Score: inf
ROOT
ATOM      1  C   UNL     1      18.477  -6.047 -33.319  1.00  0.00     0.184 A 
ATOM      2  C   UNL     1      18.482  -6.582 -34.616  1.00  0.00     0.208 A 
ATOM      3  C   UNL     1      19.682  -6.589 -35.345  1.00  0.00     0.238 A 
ATOM      4  O   UNL     1      19.669  -7.020 -36.527  1.00  0.00    -0.285 OA
ATOM      5  C   UNL     1      20.865  -6.076 -34.757  1.00  0.00     0.111 A 
ATOM      6  C   UNL     1      22.145  -6.069 -35.388  1.00  0.00     0.134 A 
ATOM      7  C   UNL     1      23.217  -5.418 -34.766  1.00  0.00     0.093 A 
ATOM      8  C   UNL     1      23.071  -4.832 -33.506  1.00  0.00     0.123 A 
ATOM      9  C   UNL     1      21.841  -4.884 -32.857  1.00  0.00     0.094 A 
ATOM     10  C   UNL     1      20.743  -5.495 -33.468  1.00  0.00     0.146 A 
ATOM     11  O   UNL     1      19.585  -5.513 -32.819  1.00  0.00    -0.451 OA
ENDROOT
BRANCH   1  12
ATOM     12  C   UNL     1      17.252  -6.024 -32.493  1.00  0.00     0.063 A 
ATOM     13  C   UNL     1      15.767  -7.172 -30.947  1.00  0.00     0.047 A 
ATOM     14  C   UNL     1      16.921  -7.158 -31.735  1.00  0.00     0.020 A 
ATOM     15  C   UNL     1      14.921  -6.056 -30.918  1.00  0.00     0.119 A 
ATOM     16  C   UNL     1      15.231  -4.931 -31.688  1.00  0.00     0.093 A 
ATOM     17  C   UNL     1      16.384  -4.911 -32.486  1.00  0.00     0.130 A 
BRANCH  15  18
ATOM     18  O   UNL     1      13.771  -6.058 -30.133  1.00  0.00    -0.508 OA
ATOM     19  H   UNL     1      13.682  -5.459 -29.321  1.00  0.00     0.293 HD
ENDBRANCH  15  18
BRANCH  17  20
ATOM     20  O   UNL     1      16.655  -3.801 -33.286  1.00  0.00    -0.507 OA
ATOM     21  H   UNL     1      16.414  -2.862 -32.992  1.00  0.00     0.293 HD
ENDBRANCH  17  20
ENDBRANCH   1  12
BRANCH   2  22
ATOM     22  O   UNL     1      17.297  -7.065 -35.178  1.00  0.00    -0.502 OA
ATOM     23  H   UNL     1      16.407  -7.016 -34.696  1.00  0.00     0.293 HD
ENDBRANCH   2  22
BRANCH   6  24
ATOM     24  O   UNL     1      22.420  -6.705 -36.602  1.00  0.00    -0.507 OA
ATOM     25  H   UNL     1      22.866  -6.265 -37.393  1.00  0.00     0.293 HD
ENDBRANCH   6  24
BRANCH   8  26
ATOM     26  O   UNL     1      24.148  -4.200 -32.887  1.00  0.00    -0.508 OA
ATOM     27  H   UNL     1      25.090  -4.568 -32.957  1.00  0.00     0.293 HD
ENDBRANCH   8  26
TORSDOF 6
ENDMDL
MODEL 7
REMARK VINA RESULT:    -5.175      1.555      2.130
REMARK INTER + INTRA:          -6.644
REMARK INTER:                  -6.225
REMARK INTRA:                  -0.418
REMARK UNBOUND:                -0.410
REMARK SMILES O=c1c(O)c(-c2ccc(O)cc2O)oc2cc(O)cc(O)c12
REMARK SMILES IDX 5 1 3 2 2 3 1 4 22 5 20 6 19 7 17 8 16 9 15 10 14 11 6 12
REMARK SMILES IDX 8 13 7 14 9 15 11 16 12 17 10 18 13 20 4 22 21 24 18 26
REMARK H PARENT 10 19 13 21 4 23 21 25 18 27
REMARK Flexibility Score: inf
ROOT
ATOM      1  C   UNL     1      16.098  -7.265 -31.469  1.00  0.00     0.184 A 
ATOM      2  C   UNL     1      14.779  -7.683 -31.707  1.00  0.00     0.208 A 
ATOM      3  C   UNL     1      14.111  -8.422 -30.718  1.00  0.00     0.238 A 
ATOM      4  O   UNL     1      12.948  -8.840 -30.957  1.00  0.00    -0.285 OA
ATOM      5  C   UNL     1      14.766  -8.717 -29.497  1.00  0.00     0.111 A 
ATOM      6  C   UNL     1      14.171  -9.424 -28.409  1.00  0.00     0.134 A 
ATOM      7  C   UNL     1      14.954  -9.772 -27.302  1.00  0.00     0.093 A 
ATOM      8  C   UNL     1      16.294  -9.382 -27.215  1.00  0.00     0.123 A 
ATOM      9  C   UNL     1      16.867  -8.642 -28.245  1.00  0.00     0.094 A 
ATOM     10  C   UNL     1      16.121  -8.310 -29.379  1.00  0.00     0.146 A 
ATOM     11  O   UNL     1      16.709  -7.613 -30.343  1.00  0.00    -0.451 OA
ENDROOT
BRANCH   1  12
ATOM     12  C   UNL     1      16.852  -6.471 -32.462  1.00  0.00     0.063 A 
ATOM     13  C   UNL     1      18.397  -6.417 -34.338  1.00  0.00     0.047 A 
ATOM     14  C   UNL     1      17.667  -7.138 -33.389  1.00  0.00     0.020 A 
ATOM     15  C   UNL     1      18.333  -5.018 -34.361  1.00  0.00     0.119 A 
ATOM     16  C   UNL     1      17.541  -4.345 -33.425  1.00  0.00     0.093 A 
ATOM     17  C   UNL     1      16.810  -5.061 -32.466  1.00  0.00     0.130 A 
BRANCH  15  18
ATOM     18  O   UNL     1      19.053  -4.290 -35.305  1.00  0.00    -0.508 OA
ATOM     19  H   UNL     1      18.591  -3.797 -36.059  1.00  0.00     0.293 HD
ENDBRANCH  15  18
BRANCH  17  20
ATOM     20  O   UNL     1      16.063  -4.374 -31.509  1.00  0.00    -0.507 OA
ATOM     21  H   UNL     1      15.053  -4.436 -31.478  1.00  0.00     0.293 HD
ENDBRANCH  17  20
ENDBRANCH   1  12
BRANCH   2  22
ATOM     22  O   UNL     1      14.163  -7.394 -32.928  1.00  0.00    -0.502 OA
ATOM     23  H   UNL     1      14.691  -7.210 -33.772  1.00  0.00     0.293 HD
ENDBRANCH   2  22
BRANCH   6  24
ATOM     24  O   UNL     1      12.821  -9.779 -28.354  1.00  0.00    -0.507 OA
ATOM     25  H   UNL     1      12.079  -9.173 -28.036  1.00  0.00     0.293 HD
ENDBRANCH   6  24
BRANCH   8  26
ATOM     26  O   UNL     1      17.062  -9.720 -26.102  1.00  0.00    -0.508 OA
ATOM     27  H   UNL     1      17.636  -9.034 -25.626  1.00  0.00     0.293 HD
ENDBRANCH   8  26
TORSDOF 6
ENDMDL
MODEL 8
REMARK VINA RESULT:    -5.122      4.478      5.969
REMARK INTER + INTRA:          -6.580
REMARK INTER:                  -6.160
REMARK INTRA:                  -0.420
REMARK UNBOUND:                -0.410
REMARK SMILES O=c1c(O)c(-c2ccc(O)cc2O)oc2cc(O)cc(O)c12
REMARK SMILES IDX 5 1 3 2 2 3 1 4 22 5 20 6 19 7 17 8 16 9 15 10 14 11 6 12
REMARK SMILES IDX 8 13 7 14 9 15 11 16 12 17 10 18 13 20 4 22 21 24 18 26
REMARK H PARENT 10 19 13 21 4 23 21 25 18 27
REMARK Flexibility Score: inf
ROOT
ATOM      1  C   UNL     1      13.298  -7.802 -31.817  1.00  0.00     0.184 A 
ATOM      2  C   UNL     1      13.078  -6.487 -31.379  1.00  0.00     0.208 A 
ATOM      3  C   UNL     1      13.709  -6.047 -30.205  1.00  0.00     0.238 A 
ATOM      4  O   UNL     1      13.467  -4.885 -29.788  1.00  0.00    -0.285 OA
ATOM      5  C   UNL     1      14.565  -6.924 -29.494  1.00  0.00     0.111 A 
ATOM      6  C   UNL     1      15.287  -6.573 -28.315  1.00  0.00     0.134 A 
ATOM      7  C   UNL     1      16.000  -7.558 -27.623  1.00  0.00     0.093 A 
ATOM      8  C   UNL     1      16.072  -8.869 -28.104  1.00  0.00     0.123 A 
ATOM      9  C   UNL     1      15.418  -9.208 -29.286  1.00  0.00     0.094 A 
ATOM     10  C   UNL     1      14.668  -8.254 -29.979  1.00  0.00     0.146 A 
ATOM     11  O   UNL     1      14.052  -8.623 -31.096  1.00  0.00    -0.451 OA
ENDROOT
BRANCH   1  12
ATOM     12  C   UNL     1      12.678  -8.323 -33.054  1.00  0.00     0.063 A 
ATOM     13  C   UNL     1      12.582  -8.335 -35.484  1.00  0.00     0.047 A 
ATOM     14  C   UNL     1      13.149  -7.867 -34.295  1.00  0.00     0.020 A 
ATOM     15  C   UNL     1      11.526  -9.254 -35.445  1.00  0.00     0.119 A 
ATOM     16  C   UNL     1      11.035  -9.695 -34.212  1.00  0.00     0.093 A 
ATOM     17  C   UNL     1      11.595  -9.226 -33.015  1.00  0.00     0.130 A 
BRANCH  15  18
ATOM     18  O   UNL     1      10.956  -9.730 -36.623  1.00  0.00    -0.508 OA
ATOM     19  H   UNL     1      11.524 -10.112 -37.370  1.00  0.00     0.293 HD
ENDBRANCH  15  18
BRANCH  17  20
ATOM     20  O   UNL     1      11.063  -9.638 -31.793  1.00  0.00    -0.507 OA
ATOM     21  H   UNL     1      10.079  -9.536 -31.579  1.00  0.00     0.293 HD
ENDBRANCH  17  20
ENDBRANCH   1  12
BRANCH   2  22
ATOM     22  O   UNL     1      12.215  -5.648 -32.090  1.00  0.00    -0.502 OA
ATOM     23  H   UNL     1      12.005  -5.790 -33.071  1.00  0.00     0.293 HD
ENDBRANCH   2  22
BRANCH   6  24
ATOM     24  O   UNL     1      15.358  -5.274 -27.801  1.00  0.00    -0.507 OA
ATOM     25  H   UNL     1      14.567  -4.660 -27.680  1.00  0.00     0.293 HD
ENDBRANCH   6  24
BRANCH   8  26
ATOM     26  O   UNL     1      16.797  -9.840 -27.417  1.00  0.00    -0.508 OA
ATOM     27  H   UNL     1      17.692  -9.630 -26.991  1.00  0.00     0.293 HD
ENDBRANCH   8  26
TORSDOF 6
ENDMDL
MODEL 9
REMARK VINA RESULT:    -5.093      1.408      2.199
REMARK INTER + INTRA:          -6.544
REMARK INTER:                  -6.118
REMARK INTRA:                  -0.426
REMARK UNBOUND:                -0.410
REMARK SMILES O=c1c(O)c(-c2ccc(O)cc2O)oc2cc(O)cc(O)c12
REMARK SMILES IDX 5 1 3 2 2 3 1 4 22 5 20 6 19 7 17 8 16 9 15 10 14 11 6 12
REMARK SMILES IDX 8 13 7 14 9 15 11 16 12 17 10 18 13 20 4 22 21 24 18 26
REMARK H PARENT 10 19 13 21 4 23 21 25 18 27
REMARK Flexibility Score: inf
ROOT
ATOM      1  C   UNL     1      17.931  -6.231 -32.903  1.00  0.00     0.184 A 
ATOM      2  C   UNL     1      17.084  -6.209 -34.022  1.00  0.00     0.208 A 
ATOM      3  C   UNL     1      15.783  -6.720 -33.900  1.00  0.00     0.238 A 
ATOM      4  O   UNL     1      15.046  -6.748 -34.920  1.00  0.00    -0.285 OA
ATOM      5  C   UNL     1      15.341  -7.231 -32.654  1.00  0.00     0.111 A 
ATOM      6  C   UNL     1      14.031  -7.738 -32.406  1.00  0.00     0.134 A 
ATOM      7  C   UNL     1      13.744  -8.337 -31.173  1.00  0.00     0.093 A 
ATOM      8  C   UNL     1      14.703  -8.389 -30.157  1.00  0.00     0.123 A 
ATOM      9  C   UNL     1      15.966  -7.844 -30.370  1.00  0.00     0.094 A 
ATOM     10  C   UNL     1      16.293  -7.272 -31.602  1.00  0.00     0.146 A 
ATOM     11  O   UNL     1      17.513  -6.775 -31.767  1.00  0.00    -0.451 OA
ENDROOT
BRANCH   1  12
ATOM     12  C   UNL     1      19.307  -5.693 -32.959  1.00  0.00     0.063 A 
ATOM     13  C   UNL     1      20.781  -3.759 -33.002  1.00  0.00     0.047 A 
ATOM     14  C   UNL     1      19.494  -4.302 -32.945  1.00  0.00     0.020 A 
ATOM     15  C   UNL     1      21.896  -4.602 -33.089  1.00  0.00     0.119 A 
ATOM     16  C   UNL     1      21.717  -5.988 -33.127  1.00  0.00     0.093 A 
ATOM     17  C   UNL     1      20.428  -6.540 -33.076  1.00  0.00     0.130 A 
BRANCH  15  18
ATOM     18  O   UNL     1      23.183  -4.073 -33.142  1.00  0.00    -0.508 OA
ATOM     19  H   UNL     1      23.458  -3.288 -32.563  1.00  0.00     0.293 HD
ENDBRANCH  15  18
BRANCH  17  20
ATOM     20  O   UNL     1      20.262  -7.922 -33.164  1.00  0.00    -0.507 OA
ATOM     21  H   UNL     1      20.742  -8.472 -33.866  1.00  0.00     0.293 HD
ENDBRANCH  17  20
ENDBRANCH   1  12
BRANCH   2  22
ATOM     22  O   UNL     1      17.552  -5.716 -35.243  1.00  0.00    -0.502 OA
ATOM     23  H   UNL     1      17.190  -4.867 -35.661  1.00  0.00     0.293 HD
ENDBRANCH   2  22
BRANCH   6  24
ATOM     24  O   UNL     1      12.975  -7.652 -33.318  1.00  0.00    -0.507 OA
ATOM     25  H   UNL     1      12.064  -8.066 -33.183  1.00  0.00     0.293 HD
ENDBRANCH   6  24
BRANCH   8  26
ATOM     26  O   UNL     1      14.404  -8.973 -28.928  1.00  0.00    -0.508 OA
ATOM     27  H   UNL     1      15.115  -9.105 -28.217  1.00  0.00     0.293 HD
ENDBRANCH   8  26
TORSDOF 6
ENDMDL
