MODEL 1
REMARK VINA RESULT:    -6.528      0.000      0.000
REMARK INTER + INTRA:          -8.067
REMARK INTER:                  -8.055
REMARK INTRA:                  -0.012
REMARK UNBOUND:                -0.012
REMARK SMILES COc1cc(-c2oc3cc(O)cc(O)c3c(=O)c2O)ccc1O
REMARK SMILES IDX 6 1 18 2 16 3 17 4 15 5 13 6 12 7 10 8 9 9 8 10 7 11 5 12
REMARK SMILES IDX 3 13 22 14 4 15 21 16 20 17 2 18 1 19 23 20 19 22 14 24
REMARK SMILES IDX 11 26
REMARK H PARENT 23 21 19 23 14 25 11 27
REMARK Flexibility Score: inf
ROOT
ATOM      1  C   UNL     1      27.451  -2.324  35.510  1.00  0.00     0.180 A 
ATOM      2  C   UNL     1      27.368  -1.919  36.855  1.00  0.00     0.208 A 
ATOM      3  C   UNL     1      26.387  -0.986  37.225  1.00  0.00     0.238 A 
ATOM      4  O   UNL     1      26.282  -0.668  38.438  1.00  0.00    -0.285 OA
ATOM      5  C   UNL     1      25.513  -0.456  36.246  1.00  0.00     0.111 A 
ATOM      6  C   UNL     1      24.508   0.525  36.501  1.00  0.00     0.134 A 
ATOM      7  C   UNL     1      23.615   0.880  35.484  1.00  0.00     0.093 A 
ATOM      8  C   UNL     1      23.730   0.337  34.202  1.00  0.00     0.123 A 
ATOM      9  C   UNL     1      24.745  -0.576  33.926  1.00  0.00     0.094 A 
ATOM     10  C   UNL     1      25.629  -0.978  34.931  1.00  0.00     0.146 A 
ATOM     11  O   UNL     1      26.575  -1.858  34.629  1.00  0.00    -0.452 OA
ENDROOT
BRANCH   1  12
ATOM     12  C   UNL     1      28.475  -3.286  35.040  1.00  0.00     0.025 A 
ATOM     13  C   UNL     1      30.805  -4.026  35.013  1.00  0.00     0.161 A 
ATOM     14  C   UNL     1      30.440  -5.122  34.220  1.00  0.00     0.157 A 
ATOM     15  C   UNL     1      29.815  -3.113  35.427  1.00  0.00     0.062 A 
ATOM     16  C   UNL     1      29.103  -5.308  33.849  1.00  0.00     0.051 A 
ATOM     17  C   UNL     1      28.125  -4.401  34.261  1.00  0.00     0.016 A 
BRANCH  13  18
ATOM     18  O   UNL     1      32.155  -3.878  35.370  1.00  0.00    -0.493 OA
ATOM     19  C   UNL     1      32.931  -2.711  35.121  1.00  0.00     0.278 C 
ENDBRANCH  13  18
BRANCH  14  20
ATOM     20  O   UNL     1      31.416  -6.028  33.806  1.00  0.00    -0.504 OA
ATOM     21  H   UNL     1      31.176  -6.964  33.500  1.00  0.00     0.293 HD
ENDBRANCH  14  20
ENDBRANCH   1  12
BRANCH   2  22
ATOM     22  O   UNL     1      28.227  -2.471  37.809  1.00  0.00    -0.502 OA
ATOM     23  H   UNL     1      29.000  -3.077  37.558  1.00  0.00     0.293 HD
ENDBRANCH   2  22
BRANCH   6  24
ATOM     24  O   UNL     1      24.365   1.196  37.720  1.00  0.00    -0.507 OA
ATOM     25  H   UNL     1      23.900   2.083  37.836  1.00  0.00     0.293 HD
ENDBRANCH   6  24
BRANCH   8  26
ATOM     26  O   UNL     1      22.846   0.708  33.190  1.00  0.00    -0.508 OA
ATOM     27  H   UNL     1      21.941   1.111  33.399  1.00  0.00     0.293 HD
ENDBRANCH   8  26
TORSDOF 6
ENDMDL
MODEL 2
REMARK VINA RESULT:    -6.050      3.624      7.494
REMARK INTER + INTRA:          -7.477
REMARK INTER:                  -7.119
REMARK INTRA:                  -0.358
REMARK UNBOUND:                -0.012
REMARK SMILES COc1cc(-c2oc3cc(O)cc(O)c3c(=O)c2O)ccc1O
REMARK SMILES IDX 6 1 18 2 16 3 17 4 15 5 13 6 12 7 10 8 9 9 8 10 7 11 5 12
REMARK SMILES IDX 3 13 22 14 4 15 21 16 20 17 2 18 1 19 23 20 19 22 14 24
REMARK SMILES IDX 11 26
REMARK H PARENT 23 21 19 23 14 25 11 27
REMARK Flexibility Score: inf
ROOT
ATOM      1  C   UNL     1      25.737   1.417  37.540  1.00  0.00     0.180 A 
ATOM      2  C   UNL     1      26.931   0.999  36.926  1.00  0.00     0.208 A 
ATOM      3  C   UNL     1      26.885  -0.041  35.984  1.00  0.00     0.238 A 
ATOM      4  O   UNL     1      27.948  -0.373  35.399  1.00  0.00    -0.285 OA
ATOM      5  C   UNL     1      25.650  -0.662  35.679  1.00  0.00     0.111 A 
ATOM      6  C   UNL     1      25.492  -1.751  34.771  1.00  0.00     0.134 A 
ATOM      7  C   UNL     1      24.206  -2.199  34.447  1.00  0.00     0.093 A 
ATOM      8  C   UNL     1      23.076  -1.641  35.048  1.00  0.00     0.123 A 
ATOM      9  C   UNL     1      23.223  -0.619  35.982  1.00  0.00     0.094 A 
ATOM     10  C   UNL     1      24.491  -0.124  36.298  1.00  0.00     0.146 A 
ATOM     11  O   UNL     1      24.586   0.859  37.184  1.00  0.00    -0.452 OA
ENDROOT
BRANCH   1  12
ATOM     12  C   UNL     1      25.709   2.490  38.560  1.00  0.00     0.025 A 
ATOM     13  C   UNL     1      25.646   3.146  40.916  1.00  0.00     0.161 A 
ATOM     14  C   UNL     1      25.717   4.493  40.534  1.00  0.00     0.157 A 
ATOM     15  C   UNL     1      25.650   2.146  39.922  1.00  0.00     0.062 A 
ATOM     16  C   UNL     1      25.796   4.837  39.179  1.00  0.00     0.051 A 
ATOM     17  C   UNL     1      25.799   3.843  38.199  1.00  0.00     0.016 A 
BRANCH  13  18
ATOM     18  O   UNL     1      25.575   2.840  42.284  1.00  0.00    -0.493 OA
ATOM     19  C   UNL     1      24.474   2.190  42.909  1.00  0.00     0.278 C 
ENDBRANCH  13  18
BRANCH  14  20
ATOM     20  O   UNL     1      25.712   5.487  41.513  1.00  0.00    -0.504 OA
ATOM     21  H   UNL     1      24.885   5.682  42.065  1.00  0.00     0.293 HD
ENDBRANCH  14  20
ENDBRANCH   1  12
BRANCH   2  22
ATOM     22  O   UNL     1      28.136   1.640  37.226  1.00  0.00    -0.502 OA
ATOM     23  H   UNL     1      28.220   2.649  37.261  1.00  0.00     0.293 HD
ENDBRANCH   2  22
BRANCH   6  24
ATOM     24  O   UNL     1      26.560  -2.439  34.185  1.00  0.00    -0.507 OA
ATOM     25  H   UNL     1      26.468  -3.128  33.455  1.00  0.00     0.293 HD
ENDBRANCH   6  24
BRANCH   8  26
ATOM     26  O   UNL     1      21.800  -2.106  34.732  1.00  0.00    -0.508 OA
ATOM     27  H   UNL     1      21.552  -3.082  34.834  1.00  0.00     0.293 HD
ENDBRANCH   8  26
TORSDOF 6
ENDMDL
MODEL 3
REMARK VINA RESULT:    -6.012      2.242      3.625
REMARK INTER + INTRA:          -7.430
REMARK INTER:                  -7.222
REMARK INTRA:                  -0.208
REMARK UNBOUND:                -0.012
REMARK SMILES COc1cc(-c2oc3cc(O)cc(O)c3c(=O)c2O)ccc1O
REMARK SMILES IDX 6 1 18 2 16 3 17 4 15 5 13 6 12 7 10 8 9 9 8 10 7 11 5 12
REMARK SMILES IDX 3 13 22 14 4 15 21 16 20 17 2 18 1 19 23 20 19 22 14 24
REMARK SMILES IDX 11 26
REMARK H PARENT 23 21 19 23 14 25 11 27
REMARK Flexibility Score: inf
ROOT
ATOM      1  C   UNL     1      25.502  -1.225  34.581  1.00  0.00     0.180 A 
ATOM      2  C   UNL     1      24.188  -1.671  34.809  1.00  0.00     0.208 A 
ATOM      3  C   UNL     1      23.115  -0.855  34.416  1.00  0.00     0.238 A 
ATOM      4  O   UNL     1      21.942  -1.283  34.572  1.00  0.00    -0.285 OA
ATOM      5  C   UNL     1      23.368   0.403  33.817  1.00  0.00     0.111 A 
ATOM      6  C   UNL     1      22.358   1.328  33.416  1.00  0.00     0.134 A 
ATOM      7  C   UNL     1      22.719   2.484  32.715  1.00  0.00     0.093 A 
ATOM      8  C   UNL     1      24.060   2.780  32.456  1.00  0.00     0.123 A 
ATOM      9  C   UNL     1      25.057   1.914  32.896  1.00  0.00     0.094 A 
ATOM     10  C   UNL     1      24.725   0.733  33.566  1.00  0.00     0.146 A 
ATOM     11  O   UNL     1      25.706  -0.071  33.958  1.00  0.00    -0.452 OA
ENDROOT
BRANCH   1  12
ATOM     12  C   UNL     1      26.684  -2.018  34.990  1.00  0.00     0.025 A 
ATOM     13  C   UNL     1      28.247  -3.844  34.535  1.00  0.00     0.161 A 
ATOM     14  C   UNL     1      28.960  -3.512  35.695  1.00  0.00     0.157 A 
ATOM     15  C   UNL     1      27.111  -3.087  34.183  1.00  0.00     0.062 A 
ATOM     16  C   UNL     1      28.549  -2.435  36.490  1.00  0.00     0.051 A 
ATOM     17  C   UNL     1      27.424  -1.689  36.137  1.00  0.00     0.016 A 
BRANCH  13  18
ATOM     18  O   UNL     1      28.695  -4.925  33.760  1.00  0.00    -0.493 OA
ATOM     19  C   UNL     1      29.846  -4.895  32.923  1.00  0.00     0.278 C 
ENDBRANCH  13  18
BRANCH  14  20
ATOM     20  O   UNL     1      30.084  -4.258  36.049  1.00  0.00    -0.504 OA
ATOM     21  H   UNL     1      30.000  -5.178  36.467  1.00  0.00     0.293 HD
ENDBRANCH  14  20
ENDBRANCH   1  12
BRANCH   2  22
ATOM     22  O   UNL     1      23.961  -2.925  35.381  1.00  0.00    -0.502 OA
ATOM     23  H   UNL     1      24.685  -3.630  35.449  1.00  0.00     0.293 HD
ENDBRANCH   2  22
BRANCH   6  24
ATOM     24  O   UNL     1      20.998   1.172  33.706  1.00  0.00    -0.507 OA
ATOM     25  H   UNL     1      20.630   0.904  34.604  1.00  0.00     0.293 HD
ENDBRANCH   6  24
BRANCH   8  26
ATOM     26  O   UNL     1      24.412   3.942  31.772  1.00  0.00    -0.508 OA
ATOM     27  H   UNL     1      24.011   4.167  30.869  1.00  0.00     0.293 HD
ENDBRANCH   8  26
TORSDOF 6
ENDMDL
MODEL 4
REMARK VINA RESULT:    -5.732      4.861      8.631
REMARK INTER + INTRA:          -7.084
REMARK INTER:                  -6.676
REMARK INTRA:                  -0.408
REMARK UNBOUND:                -0.012
REMARK SMILES COc1cc(-c2oc3cc(O)cc(O)c3c(=O)c2O)ccc1O
REMARK SMILES IDX 6 1 18 2 16 3 17 4 15 5 13 6 12 7 10 8 9 9 8 10 7 11 5 12
REMARK SMILES IDX 3 13 22 14 4 15 21 16 20 17 2 18 1 19 23 20 19 22 14 24
REMARK SMILES IDX 11 26
REMARK H PARENT 23 21 19 23 14 25 11 27
REMARK Flexibility Score: inf
ROOT
ATOM      1  C   UNL     1      23.560   2.511  38.147  1.00  0.00     0.180 A 
ATOM      2  C   UNL     1      22.454   3.020  37.442  1.00  0.00     0.208 A 
ATOM      3  C   UNL     1      21.956   2.301  36.345  1.00  0.00     0.238 A 
ATOM      4  O   UNL     1      20.934   2.734  35.752  1.00  0.00    -0.285 OA
ATOM      5  C   UNL     1      22.579   1.091  35.953  1.00  0.00     0.111 A 
ATOM      6  C   UNL     1      22.183   0.301  34.833  1.00  0.00     0.134 A 
ATOM      7  C   UNL     1      22.787  -0.944  34.618  1.00  0.00     0.093 A 
ATOM      8  C   UNL     1      23.817  -1.397  35.446  1.00  0.00     0.123 A 
ATOM      9  C   UNL     1      24.251  -0.607  36.506  1.00  0.00     0.094 A 
ATOM     10  C   UNL     1      23.643   0.624  36.768  1.00  0.00     0.146 A 
ATOM     11  O   UNL     1      24.080   1.341  37.796  1.00  0.00    -0.452 OA
ENDROOT
BRANCH   1  12
ATOM     12  C   UNL     1      24.156   3.225  39.300  1.00  0.00     0.025 A 
ATOM     13  C   UNL     1      24.322   3.533  41.720  1.00  0.00     0.161 A 
ATOM     14  C   UNL     1      25.307   4.511  41.520  1.00  0.00     0.157 A 
ATOM     15  C   UNL     1      23.754   2.887  40.604  1.00  0.00     0.062 A 
ATOM     16  C   UNL     1      25.723   4.835  40.223  1.00  0.00     0.051 A 
ATOM     17  C   UNL     1      25.157   4.192  39.121  1.00  0.00     0.016 A 
BRANCH  13  18
ATOM     18  O   UNL     1      23.937   3.231  43.035  1.00  0.00    -0.493 OA
ATOM     19  C   UNL     1      23.968   1.926  43.605  1.00  0.00     0.278 C 
ENDBRANCH  13  18
BRANCH  14  20
ATOM     20  O   UNL     1      25.871   5.155  42.621  1.00  0.00    -0.504 OA
ATOM     21  H   UNL     1      25.380   5.221  43.505  1.00  0.00     0.293 HD
ENDBRANCH  14  20
ENDBRANCH   1  12
BRANCH   2  22
ATOM     22  O   UNL     1      21.842   4.205  37.859  1.00  0.00    -0.502 OA
ATOM     23  H   UNL     1      21.406   4.849  37.209  1.00  0.00     0.293 HD
ENDBRANCH   2  22
BRANCH   6  24
ATOM     24  O   UNL     1      21.229   0.703  33.892  1.00  0.00    -0.507 OA
ATOM     25  H   UNL     1      21.418   1.300  33.103  1.00  0.00     0.293 HD
ENDBRANCH   6  24
BRANCH   8  26
ATOM     26  O   UNL     1      24.424  -2.631  35.214  1.00  0.00    -0.508 OA
ATOM     27  H   UNL     1      25.305  -2.703  34.721  1.00  0.00     0.293 HD
ENDBRANCH   8  26
TORSDOF 6
ENDMDL
MODEL 5
REMARK VINA RESULT:    -5.687      1.734      7.555
REMARK INTER + INTRA:          -7.029
REMARK INTER:                  -6.886
REMARK INTRA:                  -0.142
REMARK UNBOUND:                -0.012
REMARK SMILES COc1cc(-c2oc3cc(O)cc(O)c3c(=O)c2O)ccc1O
REMARK SMILES IDX 6 1 18 2 16 3 17 4 15 5 13 6 12 7 10 8 9 9 8 10 7 11 5 12
REMARK SMILES IDX 3 13 22 14 4 15 21 16 20 17 2 18 1 19 23 20 19 22 14 24
REMARK SMILES IDX 11 26
REMARK H PARENT 23 21 19 23 14 25 11 27
REMARK Flexibility Score: inf
ROOT
ATOM      1  C   UNL     1      28.959  -2.911  34.927  1.00  0.00     0.180 A 
ATOM      2  C   UNL     1      28.918  -4.159  34.280  1.00  0.00     0.208 A 
ATOM      3  C   UNL     1      30.090  -4.659  33.691  1.00  0.00     0.238 A 
ATOM      4  O   UNL     1      30.061  -5.800  33.161  1.00  0.00    -0.285 OA
ATOM      5  C   UNL     1      31.284  -3.899  33.740  1.00  0.00     0.111 A 
ATOM      6  C   UNL     1      32.519  -4.290  33.143  1.00  0.00     0.134 A 
ATOM      7  C   UNL     1      33.668  -3.523  33.367  1.00  0.00     0.093 A 
ATOM      8  C   UNL     1      33.613  -2.344  34.114  1.00  0.00     0.123 A 
ATOM      9  C   UNL     1      32.399  -1.922  34.651  1.00  0.00     0.094 A 
ATOM     10  C   UNL     1      31.243  -2.685  34.475  1.00  0.00     0.146 A 
ATOM     11  O   UNL     1      30.109  -2.253  35.013  1.00  0.00    -0.452 OA
ENDROOT
BRANCH   1  12
ATOM     12  C   UNL     1      27.759  -2.307  35.550  1.00  0.00     0.025 A 
ATOM     13  C   UNL     1      25.456  -1.511  35.334  1.00  0.00     0.161 A 
ATOM     14  C   UNL     1      25.437  -1.219  36.705  1.00  0.00     0.157 A 
ATOM     15  C   UNL     1      26.621  -2.063  34.762  1.00  0.00     0.062 A 
ATOM     16  C   UNL     1      26.562  -1.479  37.495  1.00  0.00     0.051 A 
ATOM     17  C   UNL     1      27.713  -2.025  36.925  1.00  0.00     0.016 A 
BRANCH  13  18
ATOM     18  O   UNL     1      24.306  -1.243  34.575  1.00  0.00    -0.493 OA
ATOM     19  C   UNL     1      24.053  -0.015  33.901  1.00  0.00     0.278 C 
ENDBRANCH  13  18
BRANCH  14  20
ATOM     20  O   UNL     1      24.288  -0.671  37.275  1.00  0.00    -0.504 OA
ATOM     21  H   UNL     1      23.598  -1.251  37.739  1.00  0.00     0.293 HD
ENDBRANCH  14  20
ENDBRANCH   1  12
BRANCH   2  22
ATOM     22  O   UNL     1      27.735  -4.901  34.262  1.00  0.00    -0.502 OA
ATOM     23  H   UNL     1      26.876  -4.546  33.858  1.00  0.00     0.293 HD
ENDBRANCH   2  22
BRANCH   6  24
ATOM     24  O   UNL     1      32.663  -5.401  32.304  1.00  0.00    -0.507 OA
ATOM     25  H   UNL     1      32.795  -5.352  31.306  1.00  0.00     0.293 HD
ENDBRANCH   6  24
BRANCH   8  26
ATOM     26  O   UNL     1      34.759  -1.577  34.318  1.00  0.00    -0.508 OA
ATOM     27  H   UNL     1      35.066  -1.321  35.249  1.00  0.00     0.293 HD
ENDBRANCH   8  26
TORSDOF 6
ENDMDL
MODEL 6
REMARK VINA RESULT:    -5.662      1.493      3.305
REMARK INTER + INTRA:          -6.998
REMARK INTER:                  -7.025
REMARK INTRA:                   0.027
REMARK UNBOUND:                -0.012
REMARK SMILES COc1cc(-c2oc3cc(O)cc(O)c3c(=O)c2O)ccc1O
REMARK SMILES IDX 6 1 18 2 16 3 17 4 15 5 13 6 12 7 10 8 9 9 8 10 7 11 5 12
REMARK SMILES IDX 3 13 22 14 4 15 21 16 20 17 2 18 1 19 23 20 19 22 14 24
REMARK SMILES IDX 11 26
REMARK H PARENT 23 21 19 23 14 25 11 27
REMARK Flexibility Score: inf
ROOT
ATOM      1  C   UNL     1      27.735  -2.585  35.110  1.00  0.00     0.180 A 
ATOM      2  C   UNL     1      26.592  -2.694  34.297  1.00  0.00     0.208 A 
ATOM      3  C   UNL     1      25.468  -1.908  34.593  1.00  0.00     0.238 A 
ATOM      4  O   UNL     1      24.469  -1.970  33.830  1.00  0.00    -0.285 OA
ATOM      5  C   UNL     1      25.492  -1.035  35.707  1.00  0.00     0.111 A 
ATOM      6  C   UNL     1      24.396  -0.221  36.124  1.00  0.00     0.134 A 
ATOM      7  C   UNL     1      24.576   0.701  37.161  1.00  0.00     0.093 A 
ATOM      8  C   UNL     1      25.794   0.794  37.840  1.00  0.00     0.123 A 
ATOM      9  C   UNL     1      26.851  -0.038  37.480  1.00  0.00     0.094 A 
ATOM     10  C   UNL     1      26.714  -0.943  36.425  1.00  0.00     0.146 A 
ATOM     11  O   UNL     1      27.749  -1.709  36.107  1.00  0.00    -0.452 OA
ENDROOT
BRANCH   1  12
ATOM     12  C   UNL     1      28.950  -3.399  34.875  1.00  0.00     0.025 A 
ATOM     13  C   UNL     1      29.957  -5.567  34.362  1.00  0.00     0.161 A 
ATOM     14  C   UNL     1      31.225  -4.970  34.362  1.00  0.00     0.157 A 
ATOM     15  C   UNL     1      28.820  -4.773  34.613  1.00  0.00     0.062 A 
ATOM     16  C   UNL     1      31.355  -3.597  34.602  1.00  0.00     0.051 A 
ATOM     17  C   UNL     1      30.226  -2.815  34.850  1.00  0.00     0.016 A 
BRANCH  13  18
ATOM     18  O   UNL     1      29.866  -6.945  34.109  1.00  0.00    -0.493 OA
ATOM     19  C   UNL     1      28.886  -7.806  34.679  1.00  0.00     0.278 C 
ENDBRANCH  13  18
BRANCH  14  20
ATOM     20  O   UNL     1      32.354  -5.751  34.116  1.00  0.00    -0.504 OA
ATOM     21  H   UNL     1      32.527  -6.609  34.627  1.00  0.00     0.293 HD
ENDBRANCH  14  20
ENDBRANCH   1  12
BRANCH   2  22
ATOM     22  O   UNL     1      26.598  -3.546  33.189  1.00  0.00    -0.502 OA
ATOM     23  H   UNL     1      25.961  -4.330  33.103  1.00  0.00     0.293 HD
ENDBRANCH   2  22
BRANCH   6  24
ATOM     24  O   UNL     1      23.112  -0.301  35.574  1.00  0.00    -0.507 OA
ATOM     25  H   UNL     1      22.300   0.165  35.944  1.00  0.00     0.293 HD
ENDBRANCH   6  24
BRANCH   8  26
ATOM     26  O   UNL     1      25.959   1.704  38.883  1.00  0.00    -0.508 OA
ATOM     27  H   UNL     1      26.581   2.498  38.798  1.00  0.00     0.293 HD
ENDBRANCH   8  26
TORSDOF 6
ENDMDL
MODEL 7
REMARK VINA RESULT:    -5.641      4.873      9.112
REMARK INTER + INTRA:          -6.972
REMARK INTER:                  -6.585
REMARK INTRA:                  -0.387
REMARK UNBOUND:                -0.012
REMARK SMILES COc1cc(-c2oc3cc(O)cc(O)c3c(=O)c2O)ccc1O
REMARK SMILES IDX 6 1 18 2 16 3 17 4 15 5 13 6 12 7 10 8 9 9 8 10 7 11 5 12
REMARK SMILES IDX 3 13 22 14 4 15 21 16 20 17 2 18 1 19 23 20 19 22 14 24
REMARK SMILES IDX 11 26
REMARK H PARENT 23 21 19 23 14 25 11 27
REMARK Flexibility Score: inf
ROOT
ATOM      1  C   UNL     1      25.582   2.485  39.833  1.00  0.00     0.180 A 
ATOM      2  C   UNL     1      26.937   2.844  39.710  1.00  0.00     0.208 A 
ATOM      3  C   UNL     1      27.630   2.495  38.540  1.00  0.00     0.238 A 
ATOM      4  O   UNL     1      28.825   2.866  38.413  1.00  0.00    -0.285 OA
ATOM      5  C   UNL     1      26.967   1.778  37.515  1.00  0.00     0.111 A 
ATOM      6  C   UNL     1      27.581   1.339  36.305  1.00  0.00     0.134 A 
ATOM      7  C   UNL     1      26.797   0.753  35.304  1.00  0.00     0.093 A 
ATOM      8  C   UNL     1      25.431   0.532  35.497  1.00  0.00     0.123 A 
ATOM      9  C   UNL     1      24.833   0.903  36.699  1.00  0.00     0.094 A 
ATOM     10  C   UNL     1      25.583   1.523  37.702  1.00  0.00     0.146 A 
ATOM     11  O   UNL     1      24.972   1.871  38.827  1.00  0.00    -0.452 OA
ENDROOT
BRANCH   1  12
ATOM     12  C   UNL     1      24.793   2.796  41.047  1.00  0.00     0.025 A 
ATOM     13  C   UNL     1      23.107   4.176  42.159  1.00  0.00     0.161 A 
ATOM     14  C   UNL     1      23.228   3.383  43.309  1.00  0.00     0.157 A 
ATOM     15  C   UNL     1      23.889   3.872  41.026  1.00  0.00     0.062 A 
ATOM     16  C   UNL     1      24.113   2.299  43.325  1.00  0.00     0.051 A 
ATOM     17  C   UNL     1      24.885   2.002  42.201  1.00  0.00     0.016 A 
BRANCH  13  18
ATOM     18  O   UNL     1      22.204   5.250  42.178  1.00  0.00    -0.493 OA
ATOM     19  C   UNL     1      21.135   5.421  41.253  1.00  0.00     0.278 C 
ENDBRANCH  13  18
BRANCH  14  20
ATOM     20  O   UNL     1      22.458   3.680  44.433  1.00  0.00    -0.504 OA
ATOM     21  H   UNL     1      22.845   4.187  45.222  1.00  0.00     0.293 HD
ENDBRANCH  14  20
ENDBRANCH   1  12
BRANCH   2  22
ATOM     22  O   UNL     1      27.566   3.570  40.725  1.00  0.00    -0.502 OA
ATOM     23  H   UNL     1      28.065   4.433  40.546  1.00  0.00     0.293 HD
ENDBRANCH   2  22
BRANCH   6  24
ATOM     24  O   UNL     1      28.954   1.429  36.049  1.00  0.00    -0.507 OA
ATOM     25  H   UNL     1      29.418   2.248  35.689  1.00  0.00     0.293 HD
ENDBRANCH   6  24
BRANCH   8  26
ATOM     26  O   UNL     1      24.660  -0.067  34.502  1.00  0.00    -0.508 OA
ATOM     27  H   UNL     1      24.650   0.289  33.554  1.00  0.00     0.293 HD
ENDBRANCH   8  26
TORSDOF 6
ENDMDL
MODEL 8
REMARK VINA RESULT:    -5.570      3.646      7.686
REMARK INTER + INTRA:          -6.884
REMARK INTER:                  -6.487
REMARK INTRA:                  -0.397
REMARK UNBOUND:                -0.012
REMARK SMILES COc1cc(-c2oc3cc(O)cc(O)c3c(=O)c2O)ccc1O
REMARK SMILES IDX 6 1 18 2 16 3 17 4 15 5 13 6 12 7 10 8 9 9 8 10 7 11 5 12
REMARK SMILES IDX 3 13 22 14 4 15 21 16 20 17 2 18 1 19 23 20 19 22 14 24
REMARK SMILES IDX 11 26
REMARK H PARENT 23 21 19 23 14 25 11 27
REMARK Flexibility Score: inf
ROOT
ATOM      1  C   UNL     1      25.701   1.398  37.582  1.00  0.00     0.180 A 
ATOM      2  C   UNL     1      26.891   0.973  36.965  1.00  0.00     0.208 A 
ATOM      3  C   UNL     1      26.835  -0.063  36.020  1.00  0.00     0.238 A 
ATOM      4  O   UNL     1      27.895  -0.402  35.431  1.00  0.00    -0.285 OA
ATOM      5  C   UNL     1      25.595  -0.674  35.715  1.00  0.00     0.111 A 
ATOM      6  C   UNL     1      25.427  -1.759  34.803  1.00  0.00     0.134 A 
ATOM      7  C   UNL     1      24.137  -2.196  34.480  1.00  0.00     0.093 A 
ATOM      8  C   UNL     1      23.012  -1.631  35.086  1.00  0.00     0.123 A 
ATOM      9  C   UNL     1      23.168  -0.613  36.022  1.00  0.00     0.094 A 
ATOM     10  C   UNL     1      24.441  -0.129  36.337  1.00  0.00     0.146 A 
ATOM     11  O   UNL     1      24.545   0.850  37.227  1.00  0.00    -0.452 OA
ENDROOT
BRANCH   1  12
ATOM     12  C   UNL     1      25.683   2.468  38.606  1.00  0.00     0.025 A 
ATOM     13  C   UNL     1      25.234   4.797  39.201  1.00  0.00     0.161 A 
ATOM     14  C   UNL     1      25.575   4.515  40.531  1.00  0.00     0.157 A 
ATOM     15  C   UNL     1      25.283   3.765  38.243  1.00  0.00     0.062 A 
ATOM     16  C   UNL     1      25.955   3.219  40.900  1.00  0.00     0.051 A 
ATOM     17  C   UNL     1      26.002   2.201  39.947  1.00  0.00     0.016 A 
BRANCH  13  18
ATOM     18  O   UNL     1      24.851   6.107  38.872  1.00  0.00    -0.493 OA
ATOM     19  C   UNL     1      23.538   6.487  38.473  1.00  0.00     0.278 C 
ENDBRANCH  13  18
BRANCH  14  20
ATOM     20  O   UNL     1      25.530   5.533  41.484  1.00  0.00    -0.504 OA
ATOM     21  H   UNL     1      26.116   5.511  42.311  1.00  0.00     0.293 HD
ENDBRANCH  14  20
ENDBRANCH   1  12
BRANCH   2  22
ATOM     22  O   UNL     1      28.101   1.604  37.265  1.00  0.00    -0.502 OA
ATOM     23  H   UNL     1      28.455   2.385  36.724  1.00  0.00     0.293 HD
ENDBRANCH   2  22
BRANCH   6  24
ATOM     24  O   UNL     1      26.489  -2.453  34.214  1.00  0.00    -0.507 OA
ATOM     25  H   UNL     1      27.300  -2.019  33.803  1.00  0.00     0.293 HD
ENDBRANCH   6  24
BRANCH   8  26
ATOM     26  O   UNL     1      21.732  -2.085  34.771  1.00  0.00    -0.508 OA
ATOM     27  H   UNL     1      21.561  -3.049  34.511  1.00  0.00     0.293 HD
ENDBRANCH   8  26
TORSDOF 6
ENDMDL
MODEL 9
REMARK VINA RESULT:    -5.487      4.059      7.231
REMARK INTER + INTRA:          -6.782
REMARK INTER:                  -6.401
REMARK INTRA:                  -0.381
REMARK UNBOUND:                -0.012
REMARK SMILES COc1cc(-c2oc3cc(O)cc(O)c3c(=O)c2O)ccc1O
REMARK SMILES IDX 6 1 18 2 16 3 17 4 15 5 13 6 12 7 10 8 9 9 8 10 7 11 5 12
REMARK SMILES IDX 3 13 22 14 4 15 21 16 20 17 2 18 1 19 23 20 19 22 14 24
REMARK SMILES IDX 11 26
REMARK H PARENT 23 21 19 23 14 25 11 27
REMARK Flexibility Score: inf
ROOT
ATOM      1  C   UNL     1      23.518   2.163  37.680  1.00  0.00     0.180 A 
ATOM      2  C   UNL     1      23.557   3.432  37.074  1.00  0.00     0.208 A 
ATOM      3  C   UNL     1      23.416   4.575  37.877  1.00  0.00     0.238 A 
ATOM      4  O   UNL     1      23.507   5.708  37.337  1.00  0.00    -0.285 OA
ATOM      5  C   UNL     1      23.220   4.436  39.272  1.00  0.00     0.111 A 
ATOM      6  C   UNL     1      23.025   5.524  40.176  1.00  0.00     0.134 A 
ATOM      7  C   UNL     1      22.972   5.277  41.553  1.00  0.00     0.093 A 
ATOM      8  C   UNL     1      23.042   3.975  42.054  1.00  0.00     0.123 A 
ATOM      9  C   UNL     1      23.171   2.901  41.177  1.00  0.00     0.094 A 
ATOM     10  C   UNL     1      23.264   3.119  39.800  1.00  0.00     0.146 A 
ATOM     11  O   UNL     1      23.398   2.069  38.999  1.00  0.00    -0.452 OA
ENDROOT
BRANCH   1  12
ATOM     12  C   UNL     1      23.635   0.912  36.897  1.00  0.00     0.025 A 
ATOM     13  C   UNL     1      24.987  -0.994  36.174  1.00  0.00     0.161 A 
ATOM     14  C   UNL     1      23.883  -1.500  35.473  1.00  0.00     0.157 A 
ATOM     15  C   UNL     1      24.854   0.212  36.891  1.00  0.00     0.062 A 
ATOM     16  C   UNL     1      22.663  -0.815  35.493  1.00  0.00     0.051 A 
ATOM     17  C   UNL     1      22.536   0.378  36.205  1.00  0.00     0.016 A 
BRANCH  13  18
ATOM     18  O   UNL     1      26.192  -1.713  36.136  1.00  0.00    -0.493 OA
ATOM     19  C   UNL     1      27.485  -1.118  36.138  1.00  0.00     0.278 C 
ENDBRANCH  13  18
BRANCH  14  20
ATOM     20  O   UNL     1      24.009  -2.692  34.759  1.00  0.00    -0.504 OA
ATOM     21  H   UNL     1      24.863  -3.238  34.786  1.00  0.00     0.293 HD
ENDBRANCH  14  20
ENDBRANCH   1  12
BRANCH   2  22
ATOM     22  O   UNL     1      23.774   3.546  35.699  1.00  0.00    -0.502 OA
ATOM     23  H   UNL     1      24.146   4.388  35.275  1.00  0.00     0.293 HD
ENDBRANCH   2  22
BRANCH   6  24
ATOM     24  O   UNL     1      22.852   6.852  39.772  1.00  0.00    -0.507 OA
ATOM     25  H   UNL     1      21.959   7.291  39.614  1.00  0.00     0.293 HD
ENDBRANCH   6  24
BRANCH   8  26
ATOM     26  O   UNL     1      22.971   3.737  43.426  1.00  0.00    -0.508 OA
ATOM     27  H   UNL     1      23.782   3.839  44.023  1.00  0.00     0.293 HD
ENDBRANCH   8  26
TORSDOF 6
ENDMDL
