MODEL 1
REMARK VINA RESULT:    -1.880      0.000      0.000
REMARK INTER + INTRA:          -5.492
REMARK INTER:                  -4.079
REMARK INTRA:                  -1.413
REMARK UNBOUND:                -1.413
REMARK SMILES CCCCCCCCCCCCCCCCCCCCCC(=O)[O-]
REMARK SMILES IDX 12 1 11 2 10 3 9 4 8 5 7 6 6 7 5 8 4 9 3 10 2 11 1 12 13 13
REMARK SMILES IDX 14 14 15 15 16 16 17 17 18 18 19 19 20 20 21 21 22 22 23 23
REMARK SMILES IDX 24 24
REMARK H PARENT
REMARK Flexibility Score: inf
ROOT
ATOM      1  C   UNL     1      13.341  42.123   4.347  1.00  0.00     0.000 C 
ENDROOT
BRANCH   1   2
ATOM      2  C   UNL     1      13.813  42.554   2.936  1.00  0.00     0.000 C 
BRANCH   2   3
ATOM      3  C   UNL     1      12.669  42.813   1.944  1.00  0.00     0.000 C 
BRANCH   3   4
ATOM      4  C   UNL     1      13.175  43.242   0.554  1.00  0.00    -0.000 C 
BRANCH   4   5
ATOM      5  C   UNL     1      12.057  43.818  -0.333  1.00  0.00    -0.000 C 
BRANCH   5   6
ATOM      6  C   UNL     1      12.412  45.132  -1.057  1.00  0.00    -0.000 C 
BRANCH   6   7
ATOM      7  C   UNL     1      13.420  46.033  -0.315  1.00  0.00    -0.000 C 
BRANCH   7   8
ATOM      8  C   UNL     1      14.636  46.472  -1.157  1.00  0.00    -0.000 C 
BRANCH   8   9
ATOM      9  C   UNL     1      15.692  47.294  -0.392  1.00  0.00    -0.000 C 
BRANCH   9  10
ATOM     10  C   UNL     1      17.020  46.558  -0.122  1.00  0.00    -0.000 C 
BRANCH  10  11
ATOM     11  C   UNL     1      16.912  45.021  -0.106  1.00  0.00    -0.003 C 
ATOM     12  C   UNL     1      16.611  44.459   1.283  1.00  0.00     0.004 C 
ENDBRANCH  10  11
ENDBRANCH   9  10
ENDBRANCH   8   9
ENDBRANCH   7   8
ENDBRANCH   6   7
ENDBRANCH   5   6
ENDBRANCH   4   5
ENDBRANCH   3   4
ENDBRANCH   2   3
ENDBRANCH   1   2
BRANCH   1  13
ATOM     13  C   UNL     1      14.355  42.436   5.461  1.00  0.00     0.000 C 
BRANCH  13  14
ATOM     14  C   UNL     1      14.849  41.202   6.239  1.00  0.00     0.000 C 
BRANCH  14  15
ATOM     15  C   UNL     1      15.910  41.532   7.314  1.00  0.00     0.000 C 
BRANCH  15  16
ATOM     16  C   UNL     1      17.080  40.533   7.322  1.00  0.00     0.000 C 
BRANCH  16  17
ATOM     17  C   UNL     1      16.681  39.168   7.925  1.00  0.00     0.000 C 
BRANCH  17  18
ATOM     18  C   UNL     1      15.893  39.279   9.246  1.00  0.00     0.000 C 
BRANCH  18  19
ATOM     19  C   UNL     1      14.432  38.806   9.169  1.00  0.00     0.000 C 
BRANCH  19  20
ATOM     20  C   UNL     1      14.098  37.731  10.215  1.00  0.00     0.006 C 
BRANCH  20  21
ATOM     21  C   UNL     1      15.131  37.729  11.347  1.00  0.00     0.053 C 
BRANCH  21  22
ATOM     22  C   UNL     1      14.641  38.525  12.518  1.00  0.00     0.041 C 
ATOM     23  O   UNL     1      15.449  39.204  13.209  1.00  0.00    -0.550 OA
ATOM     24  O   UNL     1      13.292  38.510  12.852  1.00  0.00    -0.550 OA
ENDBRANCH  21  22
ENDBRANCH  20  21
ENDBRANCH  19  20
ENDBRANCH  18  19
ENDBRANCH  17  18
ENDBRANCH  16  17
ENDBRANCH  15  16
ENDBRANCH  14  15
ENDBRANCH  13  14
ENDBRANCH   1  13
TORSDOF 20
ENDMDL
MODEL 2
REMARK VINA RESULT:    -1.634      1.130      2.249
REMARK INTER + INTRA:          -4.957
REMARK INTER:                  -4.049
REMARK INTRA:                  -0.908
REMARK UNBOUND:                -1.413
REMARK SMILES CCCCCCCCCCCCCCCCCCCCCC(=O)[O-]
REMARK SMILES IDX 12 1 11 2 10 3 9 4 8 5 7 6 6 7 5 8 4 9 3 10 2 11 1 12 13 13
REMARK SMILES IDX 14 14 15 15 16 16 17 17 18 18 19 19 20 20 21 21 22 22 23 23
REMARK SMILES IDX 24 24
REMARK H PARENT
REMARK Flexibility Score: inf
ROOT
ATOM      1  C   UNL     1      14.132  41.735   5.709  1.00  0.00     0.000 C 
ENDROOT
BRANCH   1   2
ATOM      2  C   UNL     1      14.040  42.504   4.368  1.00  0.00     0.000 C 
BRANCH   2   3
ATOM      3  C   UNL     1      12.893  42.041   3.457  1.00  0.00     0.000 C 
BRANCH   3   4
ATOM      4  C   UNL     1      13.235  42.169   1.961  1.00  0.00    -0.000 C 
BRANCH   4   5
ATOM      5  C   UNL     1      12.635  43.433   1.320  1.00  0.00    -0.000 C 
BRANCH   5   6
ATOM      6  C   UNL     1      12.588  43.423  -0.221  1.00  0.00    -0.000 C 
BRANCH   6   7
ATOM      7  C   UNL     1      12.256  44.782  -0.871  1.00  0.00    -0.000 C 
BRANCH   7   8
ATOM      8  C   UNL     1      13.240  45.919  -0.531  1.00  0.00    -0.000 C 
BRANCH   8   9
ATOM      9  C   UNL     1      14.689  45.464  -0.261  1.00  0.00    -0.000 C 
BRANCH   9  10
ATOM     10  C   UNL     1      15.780  46.428  -0.773  1.00  0.00    -0.000 C 
BRANCH  10  11
ATOM     11  C   UNL     1      15.250  47.764  -1.325  1.00  0.00    -0.003 C 
ATOM     12  C   UNL     1      15.310  47.845  -2.851  1.00  0.00     0.004 C 
ENDBRANCH  10  11
ENDBRANCH   9  10
ENDBRANCH   8   9
ENDBRANCH   7   8
ENDBRANCH   6   7
ENDBRANCH   5   6
ENDBRANCH   4   5
ENDBRANCH   3   4
ENDBRANCH   2   3
ENDBRANCH   1   2
BRANCH   1  13
ATOM     13  C   UNL     1      15.126  42.352   6.709  1.00  0.00     0.000 C 
BRANCH  13  14
ATOM     14  C   UNL     1      16.176  41.365   7.254  1.00  0.00     0.000 C 
BRANCH  14  15
ATOM     15  C   UNL     1      15.888  39.891   6.886  1.00  0.00     0.000 C 
BRANCH  15  16
ATOM     16  C   UNL     1      16.178  38.921   8.044  1.00  0.00     0.000 C 
BRANCH  16  17
ATOM     17  C   UNL     1      15.348  39.247   9.305  1.00  0.00     0.000 C 
BRANCH  17  18
ATOM     18  C   UNL     1      14.134  38.319   9.506  1.00  0.00     0.000 C 
BRANCH  18  19
ATOM     19  C   UNL     1      14.046  37.660  10.893  1.00  0.00     0.000 C 
BRANCH  19  20
ATOM     20  C   UNL     1      15.119  38.174  11.866  1.00  0.00     0.006 C 
BRANCH  20  21
ATOM     21  C   UNL     1      14.699  37.937  13.320  1.00  0.00     0.053 C 
BRANCH  21  22
ATOM     22  C   UNL     1      13.788  39.026  13.797  1.00  0.00     0.041 C 
ATOM     23  O   UNL     1      12.548  38.821  13.898  1.00  0.00    -0.550 OA
ATOM     24  O   UNL     1      14.309  40.273  14.125  1.00  0.00    -0.550 OA
ENDBRANCH  21  22
ENDBRANCH  20  21
ENDBRANCH  19  20
ENDBRANCH  18  19
ENDBRANCH  17  18
ENDBRANCH  16  17
ENDBRANCH  15  16
ENDBRANCH  14  15
ENDBRANCH  13  14
ENDBRANCH   1  13
TORSDOF 20
ENDMDL
MODEL 3
REMARK VINA RESULT:    -1.619      1.677      2.949
REMARK INTER + INTRA:          -4.926
REMARK INTER:                  -3.631
REMARK INTRA:                  -1.295
REMARK UNBOUND:                -1.413
REMARK SMILES CCCCCCCCCCCCCCCCCCCCCC(=O)[O-]
REMARK SMILES IDX 12 1 11 2 10 3 9 4 8 5 7 6 6 7 5 8 4 9 3 10 2 11 1 12 13 13
REMARK SMILES IDX 14 14 15 15 16 16 17 17 18 18 19 19 20 20 21 21 22 22 23 23
REMARK SMILES IDX 24 24
REMARK H PARENT
REMARK Flexibility Score: inf
ROOT
ATOM      1  C   UNL     1      15.206  41.574   6.304  1.00  0.00     0.000 C 
ENDROOT
BRANCH   1   2
ATOM      2  C   UNL     1      13.876  41.742   5.528  1.00  0.00     0.000 C 
BRANCH   2   3
ATOM      3  C   UNL     1      14.022  42.479   4.188  1.00  0.00     0.000 C 
BRANCH   3   4
ATOM      4  C   UNL     1      12.925  42.093   3.177  1.00  0.00    -0.000 C 
BRANCH   4   5
ATOM      5  C   UNL     1      13.315  42.418   1.725  1.00  0.00    -0.000 C 
BRANCH   5   6
ATOM      6  C   UNL     1      12.527  43.576   1.082  1.00  0.00    -0.000 C 
BRANCH   6   7
ATOM      7  C   UNL     1      12.370  43.486  -0.450  1.00  0.00    -0.000 C 
BRANCH   7   8
ATOM      8  C   UNL     1      12.152  44.839  -1.158  1.00  0.00    -0.000 C 
BRANCH   8   9
ATOM      9  C   UNL     1      12.910  46.028  -0.533  1.00  0.00    -0.000 C 
BRANCH   9  10
ATOM     10  C   UNL     1      14.368  46.193  -1.008  1.00  0.00    -0.000 C 
BRANCH  10  11
ATOM     11  C   UNL     1      15.422  45.561  -0.079  1.00  0.00    -0.003 C 
ATOM     12  C   UNL     1      16.855  45.791  -0.559  1.00  0.00     0.004 C 
ENDBRANCH  10  11
ENDBRANCH   9  10
ENDBRANCH   8   9
ENDBRANCH   7   8
ENDBRANCH   6   7
ENDBRANCH   5   6
ENDBRANCH   4   5
ENDBRANCH   3   4
ENDBRANCH   2   3
ENDBRANCH   1   2
BRANCH   1  13
ATOM     13  C   UNL     1      15.347  40.210   7.002  1.00  0.00     0.000 C 
BRANCH  13  14
ATOM     14  C   UNL     1      15.228  40.264   8.537  1.00  0.00     0.000 C 
BRANCH  14  15
ATOM     15  C   UNL     1      16.583  40.458   9.255  1.00  0.00     0.000 C 
BRANCH  15  16
ATOM     16  C   UNL     1      16.750  41.871   9.840  1.00  0.00     0.000 C 
BRANCH  16  17
ATOM     17  C   UNL     1      16.808  41.864  11.383  1.00  0.00     0.000 C 
BRANCH  17  18
ATOM     18  C   UNL     1      16.924  40.452  11.994  1.00  0.00     0.000 C 
BRANCH  18  19
ATOM     19  C   UNL     1      16.046  40.210  13.234  1.00  0.00     0.000 C 
BRANCH  19  20
ATOM     20  C   UNL     1      15.652  38.735  13.406  1.00  0.00     0.006 C 
BRANCH  20  21
ATOM     21  C   UNL     1      14.452  38.383  12.519  1.00  0.00     0.053 C 
BRANCH  21  22
ATOM     22  C   UNL     1      14.876  37.533  11.360  1.00  0.00     0.041 C 
ATOM     23  O   UNL     1      14.203  37.530  10.294  1.00  0.00    -0.550 OA
ATOM     24  O   UNL     1      16.012  36.738  11.462  1.00  0.00    -0.550 OA
ENDBRANCH  21  22
ENDBRANCH  20  21
ENDBRANCH  19  20
ENDBRANCH  18  19
ENDBRANCH  17  18
ENDBRANCH  16  17
ENDBRANCH  15  16
ENDBRANCH  14  15
ENDBRANCH  13  14
ENDBRANCH   1  13
TORSDOF 20
ENDMDL
MODEL 4
REMARK VINA RESULT:    -1.601      5.331     12.149
REMARK INTER + INTRA:          -4.885
REMARK INTER:                  -3.582
REMARK INTRA:                  -1.303
REMARK UNBOUND:                -1.413
REMARK SMILES CCCCCCCCCCCCCCCCCCCCCC(=O)[O-]
REMARK SMILES IDX 12 1 11 2 10 3 9 4 8 5 7 6 6 7 5 8 4 9 3 10 2 11 1 12 13 13
REMARK SMILES IDX 14 14 15 15 16 16 17 17 18 18 19 19 20 20 21 21 22 22 23 23
REMARK SMILES IDX 24 24
REMARK H PARENT
REMARK Flexibility Score: inf
ROOT
ATOM      1  C   UNL     1      13.801  41.752   5.115  1.00  0.00     0.000 C 
ENDROOT
BRANCH   1   2
ATOM      2  C   UNL     1      15.029  42.019   6.020  1.00  0.00     0.000 C 
BRANCH   2   3
ATOM      3  C   UNL     1      15.357  40.871   6.988  1.00  0.00     0.000 C 
BRANCH   3   4
ATOM      4  C   UNL     1      15.255  41.293   8.465  1.00  0.00    -0.000 C 
BRANCH   4   5
ATOM      5  C   UNL     1      16.199  40.492   9.378  1.00  0.00    -0.000 C 
BRANCH   5   6
ATOM      6  C   UNL     1      15.971  38.968   9.376  1.00  0.00    -0.000 C 
BRANCH   6   7
ATOM      7  C   UNL     1      14.524  38.526   9.677  1.00  0.00    -0.000 C 
BRANCH   7   8
ATOM      8  C   UNL     1      14.401  37.353  10.671  1.00  0.00    -0.000 C 
BRANCH   8   9
ATOM      9  C   UNL     1      15.540  37.257  11.706  1.00  0.00    -0.000 C 
BRANCH   9  10
ATOM     10  C   UNL     1      15.176  37.748  13.123  1.00  0.00    -0.000 C 
BRANCH  10  11
ATOM     11  C   UNL     1      15.116  39.279  13.276  1.00  0.00    -0.003 C 
ATOM     12  C   UNL     1      16.476  39.952  13.088  1.00  0.00     0.004 C 
ENDBRANCH  10  11
ENDBRANCH   9  10
ENDBRANCH   8   9
ENDBRANCH   7   8
ENDBRANCH   6   7
ENDBRANCH   5   6
ENDBRANCH   4   5
ENDBRANCH   3   4
ENDBRANCH   2   3
ENDBRANCH   1   2
BRANCH   1  13
ATOM     13  C   UNL     1      13.713  42.690   3.898  1.00  0.00     0.000 C 
BRANCH  13  14
ATOM     14  C   UNL     1      12.846  42.155   2.743  1.00  0.00     0.000 C 
BRANCH  14  15
ATOM     15  C   UNL     1      13.395  42.510   1.342  1.00  0.00     0.000 C 
BRANCH  15  16
ATOM     16  C   UNL     1      12.578  43.609   0.643  1.00  0.00     0.000 C 
BRANCH  16  17
ATOM     17  C   UNL     1      13.440  44.837   0.276  1.00  0.00     0.000 C 
BRANCH  17  18
ATOM     18  C   UNL     1      14.958  44.577   0.357  1.00  0.00     0.000 C 
BRANCH  18  19
ATOM     19  C   UNL     1      15.829  45.844   0.412  1.00  0.00     0.000 C 
BRANCH  19  20
ATOM     20  C   UNL     1      16.746  45.990  -0.812  1.00  0.00     0.006 C 
BRANCH  20  21
ATOM     21  C   UNL     1      16.740  47.432  -1.332  1.00  0.00     0.053 C 
BRANCH  21  22
ATOM     22  C   UNL     1      15.571  47.668  -2.238  1.00  0.00     0.041 C 
ATOM     23  O   UNL     1      15.750  47.870  -3.470  1.00  0.00    -0.550 OA
ATOM     24  O   UNL     1      14.281  47.673  -1.720  1.00  0.00    -0.550 OA
ENDBRANCH  21  22
ENDBRANCH  20  21
ENDBRANCH  19  20
ENDBRANCH  18  19
ENDBRANCH  17  18
ENDBRANCH  16  17
ENDBRANCH  15  16
ENDBRANCH  14  15
ENDBRANCH  13  14
ENDBRANCH   1  13
TORSDOF 20
ENDMDL
MODEL 5
REMARK VINA RESULT:    -1.492      1.901      3.213
REMARK INTER + INTRA:          -4.649
REMARK INTER:                  -3.622
REMARK INTRA:                  -1.027
REMARK UNBOUND:                -1.413
REMARK SMILES CCCCCCCCCCCCCCCCCCCCCC(=O)[O-]
REMARK SMILES IDX 12 1 11 2 10 3 9 4 8 5 7 6 6 7 5 8 4 9 3 10 2 11 1 12 13 13
REMARK SMILES IDX 14 14 15 15 16 16 17 17 18 18 19 19 20 20 21 21 22 22 23 23
REMARK SMILES IDX 24 24
REMARK H PARENT
REMARK Flexibility Score: inf
ROOT
ATOM      1  C   UNL     1      14.248  41.515   5.981  1.00  0.00     0.000 C 
ENDROOT
BRANCH   1   2
ATOM      2  C   UNL     1      14.389  42.464   4.766  1.00  0.00     0.000 C 
BRANCH   2   3
ATOM      3  C   UNL     1      13.288  42.294   3.707  1.00  0.00     0.000 C 
BRANCH   3   4
ATOM      4  C   UNL     1      13.722  42.794   2.316  1.00  0.00    -0.000 C 
BRANCH   4   5
ATOM      5  C   UNL     1      12.552  42.864   1.319  1.00  0.00    -0.000 C 
BRANCH   5   6
ATOM      6  C   UNL     1      12.936  43.316  -0.104  1.00  0.00    -0.000 C 
BRANCH   6   7
ATOM      7  C   UNL     1      12.141  44.524  -0.641  1.00  0.00    -0.000 C 
BRANCH   7   8
ATOM      8  C   UNL     1      12.890  45.870  -0.575  1.00  0.00    -0.000 C 
BRANCH   8   9
ATOM      9  C   UNL     1      14.362  45.773  -0.126  1.00  0.00    -0.000 C 
BRANCH   9  10
ATOM     10  C   UNL     1      15.342  46.670  -0.911  1.00  0.00    -0.000 C 
BRANCH  10  11
ATOM     11  C   UNL     1      14.670  47.713  -1.823  1.00  0.00    -0.003 C 
ATOM     12  C   UNL     1      15.482  48.015  -3.082  1.00  0.00     0.004 C 
ENDBRANCH  10  11
ENDBRANCH   9  10
ENDBRANCH   8   9
ENDBRANCH   7   8
ENDBRANCH   6   7
ENDBRANCH   5   6
ENDBRANCH   4   5
ENDBRANCH   3   4
ENDBRANCH   2   3
ENDBRANCH   1   2
BRANCH   1  13
ATOM     13  C   UNL     1      15.531  41.392   6.823  1.00  0.00     0.000 C 
BRANCH  13  14
ATOM     14  C   UNL     1      15.300  40.931   8.274  1.00  0.00     0.000 C 
BRANCH  14  15
ATOM     15  C   UNL     1      15.416  39.401   8.462  1.00  0.00     0.000 C 
BRANCH  15  16
ATOM     16  C   UNL     1      14.176  38.789   9.137  1.00  0.00     0.000 C 
BRANCH  16  17
ATOM     17  C   UNL     1      14.549  37.752  10.219  1.00  0.00     0.000 C 
BRANCH  17  18
ATOM     18  C   UNL     1      14.563  38.327  11.650  1.00  0.00     0.000 C 
BRANCH  18  19
ATOM     19  C   UNL     1      15.880  39.007  12.062  1.00  0.00     0.000 C 
BRANCH  19  20
ATOM     20  C   UNL     1      15.694  40.030  13.193  1.00  0.00     0.006 C 
BRANCH  20  21
ATOM     21  C   UNL     1      16.835  41.054  13.198  1.00  0.00     0.053 C 
BRANCH  21  22
ATOM     22  C   UNL     1      16.363  42.382  12.693  1.00  0.00     0.041 C 
ATOM     23  O   UNL     1      15.508  43.044  13.343  1.00  0.00    -0.550 OA
ATOM     24  O   UNL     1      16.862  42.888  11.498  1.00  0.00    -0.550 OA
ENDBRANCH  21  22
ENDBRANCH  20  21
ENDBRANCH  19  20
ENDBRANCH  18  19
ENDBRANCH  17  18
ENDBRANCH  16  17
ENDBRANCH  15  16
ENDBRANCH  14  15
ENDBRANCH  13  14
ENDBRANCH   1  13
TORSDOF 20
ENDMDL
MODEL 6
REMARK VINA RESULT:    -1.402      4.393     11.288
REMARK INTER + INTRA:          -4.453
REMARK INTER:                  -3.331
REMARK INTRA:                  -1.123
REMARK UNBOUND:                -1.413
REMARK SMILES CCCCCCCCCCCCCCCCCCCCCC(=O)[O-]
REMARK SMILES IDX 12 1 11 2 10 3 9 4 8 5 7 6 6 7 5 8 4 9 3 10 2 11 1 12 13 13
REMARK SMILES IDX 14 14 15 15 16 16 17 17 18 18 19 19 20 20 21 21 22 22 23 23
REMARK SMILES IDX 24 24
REMARK H PARENT
REMARK Flexibility Score: inf
ROOT
ATOM      1  C   UNL     1      13.342  42.129   3.996  1.00  0.00     0.000 C 
ENDROOT
BRANCH   1   2
ATOM      2  C   UNL     1      14.437  42.419   5.052  1.00  0.00     0.000 C 
BRANCH   2   3
ATOM      3  C   UNL     1      14.442  41.439   6.235  1.00  0.00     0.000 C 
BRANCH   3   4
ATOM      4  C   UNL     1      15.615  41.684   7.203  1.00  0.00    -0.000 C 
BRANCH   4   5
ATOM      5  C   UNL     1      16.733  40.636   7.060  1.00  0.00    -0.000 C 
BRANCH   5   6
ATOM      6  C   UNL     1      16.654  39.460   8.053  1.00  0.00    -0.000 C 
BRANCH   6   7
ATOM      7  C   UNL     1      15.607  39.623   9.174  1.00  0.00    -0.000 C 
BRANCH   7   8
ATOM      8  C   UNL     1      14.390  38.684   9.063  1.00  0.00    -0.000 C 
BRANCH   8   9
ATOM      9  C   UNL     1      14.012  37.952  10.366  1.00  0.00    -0.000 C 
BRANCH   9  10
ATOM     10  C   UNL     1      15.208  37.439  11.195  1.00  0.00    -0.000 C 
BRANCH  10  11
ATOM     11  C   UNL     1      15.059  37.620  12.717  1.00  0.00    -0.003 C 
ATOM     12  C   UNL     1      13.944  38.595  13.096  1.00  0.00     0.004 C 
ENDBRANCH  10  11
ENDBRANCH   9  10
ENDBRANCH   8   9
ENDBRANCH   7   8
ENDBRANCH   6   7
ENDBRANCH   5   6
ENDBRANCH   4   5
ENDBRANCH   3   4
ENDBRANCH   2   3
ENDBRANCH   1   2
BRANCH   1  13
ATOM     13  C   UNL     1      13.648  42.721   2.608  1.00  0.00     0.000 C 
BRANCH  13  14
ATOM     14  C   UNL     1      14.909  43.604   2.557  1.00  0.00     0.000 C 
BRANCH  14  15
ATOM     15  C   UNL     1      15.342  43.980   1.120  1.00  0.00     0.000 C 
BRANCH  15  16
ATOM     16  C   UNL     1      16.790  44.492   1.050  1.00  0.00     0.000 C 
BRANCH  16  17
ATOM     17  C   UNL     1      16.985  45.550  -0.058  1.00  0.00     0.000 C 
BRANCH  17  18
ATOM     18  C   UNL     1      15.835  46.574  -0.147  1.00  0.00     0.000 C 
BRANCH  18  19
ATOM     19  C   UNL     1      14.945  46.439  -1.394  1.00  0.00     0.000 C 
BRANCH  19  20
ATOM     20  C   UNL     1      13.449  46.587  -1.077  1.00  0.00     0.006 C 
BRANCH  20  21
ATOM     21  C   UNL     1      12.993  45.518  -0.077  1.00  0.00     0.053 C 
BRANCH  21  22
ATOM     22  C   UNL     1      12.121  44.500  -0.744  1.00  0.00     0.041 C 
ATOM     23  O   UNL     1      11.113  44.862  -1.409  1.00  0.00    -0.550 OA
ATOM     24  O   UNL     1      12.417  43.146  -0.624  1.00  0.00    -0.550 OA
ENDBRANCH  21  22
ENDBRANCH  20  21
ENDBRANCH  19  20
ENDBRANCH  18  19
ENDBRANCH  17  18
ENDBRANCH  16  17
ENDBRANCH  15  16
ENDBRANCH  14  15
ENDBRANCH  13  14
ENDBRANCH   1  13
TORSDOF 20
ENDMDL
MODEL 7
REMARK VINA RESULT:    -1.351      5.087     12.009
REMARK INTER + INTRA:          -4.344
REMARK INTER:                  -3.063
REMARK INTRA:                  -1.281
REMARK UNBOUND:                -1.413
REMARK SMILES CCCCCCCCCCCCCCCCCCCCCC(=O)[O-]
REMARK SMILES IDX 12 1 11 2 10 3 9 4 8 5 7 6 6 7 5 8 4 9 3 10 2 11 1 12 13 13
REMARK SMILES IDX 14 14 15 15 16 16 17 17 18 18 19 19 20 20 21 21 22 22 23 23
REMARK SMILES IDX 24 24
REMARK H PARENT
REMARK Flexibility Score: inf
ROOT
ATOM      1  C   UNL     1      15.648  40.630   6.982  1.00  0.00     0.000 C 
ENDROOT
BRANCH   1   2
ATOM      2  C   UNL     1      16.701  40.962   8.068  1.00  0.00     0.000 C 
BRANCH   2   3
ATOM      3  C   UNL     1      16.104  41.230   9.459  1.00  0.00     0.000 C 
BRANCH   3   4
ATOM      4  C   UNL     1      16.625  42.536  10.086  1.00  0.00    -0.000 C 
BRANCH   4   5
ATOM      5  C   UNL     1      16.909  42.400  11.592  1.00  0.00    -0.000 C 
BRANCH   5   6
ATOM      6  C   UNL     1      16.989  40.951  12.112  1.00  0.00    -0.000 C 
BRANCH   6   7
ATOM      7  C   UNL     1      16.001  40.611  13.246  1.00  0.00    -0.000 C 
BRANCH   7   8
ATOM      8  C   UNL     1      16.345  39.335  14.041  1.00  0.00    -0.000 C 
BRANCH   8   9
ATOM      9  C   UNL     1      16.041  38.012  13.309  1.00  0.00    -0.000 C 
BRANCH   9  10
ATOM     10  C   UNL     1      14.814  38.051  12.375  1.00  0.00    -0.000 C 
BRANCH  10  11
ATOM     11  C   UNL     1      15.068  37.507  10.958  1.00  0.00    -0.003 C 
ATOM     12  C   UNL     1      14.203  38.184   9.894  1.00  0.00     0.004 C 
ENDBRANCH  10  11
ENDBRANCH   9  10
ENDBRANCH   8   9
ENDBRANCH   7   8
ENDBRANCH   6   7
ENDBRANCH   5   6
ENDBRANCH   4   5
ENDBRANCH   3   4
ENDBRANCH   2   3
ENDBRANCH   1   2
BRANCH   1  13
ATOM     13  C   UNL     1      14.935  41.870   6.412  1.00  0.00     0.000 C 
BRANCH  13  14
ATOM     14  C   UNL     1      13.829  41.553   5.388  1.00  0.00     0.000 C 
BRANCH  14  15
ATOM     15  C   UNL     1      13.664  42.641   4.302  1.00  0.00     0.000 C 
BRANCH  15  16
ATOM     16  C   UNL     1      13.019  42.103   3.013  1.00  0.00     0.000 C 
BRANCH  16  17
ATOM     17  C   UNL     1      13.648  42.715   1.742  1.00  0.00     0.000 C 
BRANCH  17  18
ATOM     18  C   UNL     1      12.648  42.905   0.584  1.00  0.00     0.000 C 
BRANCH  18  19
ATOM     19  C   UNL     1      12.385  44.368   0.190  1.00  0.00     0.000 C 
BRANCH  19  20
ATOM     20  C   UNL     1      13.676  45.189   0.050  1.00  0.00     0.006 C 
BRANCH  20  21
ATOM     21  C   UNL     1      13.481  46.354  -0.927  1.00  0.00     0.053 C 
BRANCH  21  22
ATOM     22  C   UNL     1      14.785  47.032  -1.216  1.00  0.00     0.041 C 
ATOM     23  O   UNL     1      14.818  48.070  -1.932  1.00  0.00    -0.550 OA
ATOM     24  O   UNL     1      15.967  46.513  -0.700  1.00  0.00    -0.550 OA
ENDBRANCH  21  22
ENDBRANCH  20  21
ENDBRANCH  19  20
ENDBRANCH  18  19
ENDBRANCH  17  18
ENDBRANCH  16  17
ENDBRANCH  15  16
ENDBRANCH  14  15
ENDBRANCH  13  14
ENDBRANCH   1  13
TORSDOF 20
ENDMDL
MODEL 8
REMARK VINA RESULT:    -1.338      2.156      5.199
REMARK INTER + INTRA:          -4.314
REMARK INTER:                  -3.056
REMARK INTRA:                  -1.258
REMARK UNBOUND:                -1.413
REMARK SMILES CCCCCCCCCCCCCCCCCCCCCC(=O)[O-]
REMARK SMILES IDX 12 1 11 2 10 3 9 4 8 5 7 6 6 7 5 8 4 9 3 10 2 11 1 12 13 13
REMARK SMILES IDX 14 14 15 15 16 16 17 17 18 18 19 19 20 20 21 21 22 22 23 23
REMARK SMILES IDX 24 24
REMARK H PARENT
REMARK Flexibility Score: inf
ROOT
ATOM      1  C   UNL     1      14.175  38.448   7.690  1.00  0.00     0.000 C 
ENDROOT
BRANCH   1   2
ATOM      2  C   UNL     1      15.096  39.291   6.773  1.00  0.00     0.000 C 
BRANCH   2   3
ATOM      3  C   UNL     1      15.276  40.746   7.232  1.00  0.00     0.000 C 
BRANCH   3   4
ATOM      4  C   UNL     1      15.371  41.732   6.053  1.00  0.00    -0.000 C 
BRANCH   4   5
ATOM      5  C   UNL     1      13.997  42.069   5.447  1.00  0.00    -0.000 C 
BRANCH   5   6
ATOM      6  C   UNL     1      14.033  42.573   3.991  1.00  0.00    -0.000 C 
BRANCH   6   7
ATOM      7  C   UNL     1      12.771  42.260   3.162  1.00  0.00    -0.000 C 
BRANCH   7   8
ATOM      8  C   UNL     1      13.017  42.090   1.650  1.00  0.00    -0.000 C 
BRANCH   8   9
ATOM      9  C   UNL     1      13.018  43.402   0.840  1.00  0.00    -0.000 C 
BRANCH   9  10
ATOM     10  C   UNL     1      14.355  44.171   0.846  1.00  0.00    -0.000 C 
BRANCH  10  11
ATOM     11  C   UNL     1      14.328  45.512   0.089  1.00  0.00    -0.003 C 
ATOM     12  C   UNL     1      13.002  45.766  -0.628  1.00  0.00     0.004 C 
ENDBRANCH  10  11
ENDBRANCH   9  10
ENDBRANCH   8   9
ENDBRANCH   7   8
ENDBRANCH   6   7
ENDBRANCH   5   6
ENDBRANCH   4   5
ENDBRANCH   3   4
ENDBRANCH   2   3
ENDBRANCH   1   2
BRANCH   1  13
ATOM     13  C   UNL     1      14.135  38.941   9.148  1.00  0.00     0.000 C 
BRANCH  13  14
ATOM     14  C   UNL     1      15.356  38.533   9.992  1.00  0.00     0.000 C 
BRANCH  14  15
ATOM     15  C   UNL     1      14.999  37.647  11.208  1.00  0.00     0.000 C 
BRANCH  15  16
ATOM     16  C   UNL     1      13.901  38.263  12.091  1.00  0.00     0.000 C 
BRANCH  16  17
ATOM     17  C   UNL     1      14.472  38.910  13.372  1.00  0.00     0.000 C 
BRANCH  17  18
ATOM     18  C   UNL     1      15.644  38.123  13.995  1.00  0.00     0.000 C 
BRANCH  18  19
ATOM     19  C   UNL     1      16.960  38.910  14.113  1.00  0.00     0.000 C 
BRANCH  19  20
ATOM     20  C   UNL     1      16.974  40.180  13.249  1.00  0.00     0.006 C 
BRANCH  20  21
ATOM     21  C   UNL     1      16.961  41.438  14.125  1.00  0.00     0.053 C 
BRANCH  21  22
ATOM     22  C   UNL     1      16.495  42.628  13.343  1.00  0.00     0.041 C 
ATOM     23  O   UNL     1      16.514  42.609  12.082  1.00  0.00    -0.550 OA
ATOM     24  O   UNL     1      16.047  43.764  14.009  1.00  0.00    -0.550 OA
ENDBRANCH  21  22
ENDBRANCH  20  21
ENDBRANCH  19  20
ENDBRANCH  18  19
ENDBRANCH  17  18
ENDBRANCH  16  17
ENDBRANCH  15  16
ENDBRANCH  14  15
ENDBRANCH  13  14
ENDBRANCH   1  13
TORSDOF 20
ENDMDL
MODEL 9
REMARK VINA RESULT:    -1.289      1.313      2.413
REMARK INTER + INTRA:          -4.209
REMARK INTER:                  -3.147
REMARK INTRA:                  -1.062
REMARK UNBOUND:                -1.413
REMARK SMILES CCCCCCCCCCCCCCCCCCCCCC(=O)[O-]
REMARK SMILES IDX 12 1 11 2 10 3 9 4 8 5 7 6 6 7 5 8 4 9 3 10 2 11 1 12 13 13
REMARK SMILES IDX 14 14 15 15 16 16 17 17 18 18 19 19 20 20 21 21 22 22 23 23
REMARK SMILES IDX 24 24
REMARK H PARENT
REMARK Flexibility Score: inf
ROOT
ATOM      1  C   UNL     1      12.958  41.953   2.753  1.00  0.00     0.000 C 
ENDROOT
BRANCH   1   2
ATOM      2  C   UNL     1      13.499  43.086   1.845  1.00  0.00     0.000 C 
BRANCH   2   3
ATOM      3  C   UNL     1      13.005  43.014   0.392  1.00  0.00     0.000 C 
BRANCH   3   4
ATOM      4  C   UNL     1      12.434  44.354  -0.107  1.00  0.00    -0.000 C 
BRANCH   4   5
ATOM      5  C   UNL     1      13.503  45.249  -0.760  1.00  0.00    -0.000 C 
BRANCH   5   6
ATOM      6  C   UNL     1      14.597  45.762   0.197  1.00  0.00    -0.000 C 
BRANCH   6   7
ATOM      7  C   UNL     1      15.968  45.072   0.050  1.00  0.00    -0.000 C 
BRANCH   7   8
ATOM      8  C   UNL     1      17.125  46.012  -0.345  1.00  0.00    -0.000 C 
BRANCH   8   9
ATOM      9  C   UNL     1      16.754  47.508  -0.407  1.00  0.00    -0.000 C 
BRANCH   9  10
ATOM     10  C   UNL     1      16.764  48.123  -1.822  1.00  0.00    -0.000 C 
BRANCH  10  11
ATOM     11  C   UNL     1      15.397  48.125  -2.531  1.00  0.00    -0.003 C 
ATOM     12  C   UNL     1      15.515  48.097  -4.055  1.00  0.00     0.004 C 
ENDBRANCH  10  11
ENDBRANCH   9  10
ENDBRANCH   8   9
ENDBRANCH   7   8
ENDBRANCH   6   7
ENDBRANCH   5   6
ENDBRANCH   4   5
ENDBRANCH   3   4
ENDBRANCH   2   3
ENDBRANCH   1   2
BRANCH   1  13
ATOM     13  C   UNL     1      13.064  42.262   4.257  1.00  0.00     0.000 C 
BRANCH  13  14
ATOM     14  C   UNL     1      14.224  41.546   4.975  1.00  0.00     0.000 C 
BRANCH  14  15
ATOM     15  C   UNL     1      14.524  42.114   6.381  1.00  0.00     0.000 C 
BRANCH  15  16
ATOM     16  C   UNL     1      15.562  41.280   7.151  1.00  0.00     0.000 C 
BRANCH  16  17
ATOM     17  C   UNL     1      15.316  39.762   7.009  1.00  0.00     0.000 C 
BRANCH  17  18
ATOM     18  C   UNL     1      14.494  39.155   8.164  1.00  0.00     0.000 C 
BRANCH  18  19
ATOM     19  C   UNL     1      15.015  39.489   9.572  1.00  0.00     0.000 C 
BRANCH  19  20
ATOM     20  C   UNL     1      16.273  38.690   9.947  1.00  0.00     0.006 C 
BRANCH  20  21
ATOM     21  C   UNL     1      15.959  37.651  11.030  1.00  0.00     0.053 C 
BRANCH  21  22
ATOM     22  C   UNL     1      15.543  38.317  12.305  1.00  0.00     0.041 C 
ATOM     23  O   UNL     1      14.637  37.812  13.021  1.00  0.00    -0.550 OA
ATOM     24  O   UNL     1      16.152  39.504  12.699  1.00  0.00    -0.550 OA
ENDBRANCH  21  22
ENDBRANCH  20  21
ENDBRANCH  19  20
ENDBRANCH  18  19
ENDBRANCH  17  18
ENDBRANCH  16  17
ENDBRANCH  15  16
ENDBRANCH  14  15
ENDBRANCH  13  14
ENDBRANCH   1  13
TORSDOF 20
ENDMDL
