MODEL 1
REMARK VINA RESULT:    -5.853      0.000      0.000
REMARK INTER + INTRA:          -6.810
REMARK INTER:                  -6.708
REMARK INTRA:                  -0.102
REMARK UNBOUND:                -0.102
REMARK SMILES COc1cc(C(=O)[O-])ccc1O
REMARK SMILES IDX 5 1 9 2 4 3 10 4 3 5 11 6 6 7 7 8 8 9 2 10 1 11 12 12
REMARK H PARENT 12 13
REMARK Flexibility Score: inf
ROOT
ATOM      1  C   UNL     1      10.975  55.380   6.918  1.00  0.00     0.001 A 
ATOM      2  C   UNL     1       9.682  54.909   6.636  1.00  0.00     0.014 A 
ATOM      3  C   UNL     1      11.910  55.477   5.872  1.00  0.00     0.060 A 
ATOM      4  C   UNL     1       9.331  54.544   5.335  1.00  0.00     0.051 A 
ATOM      5  C   UNL     1      11.561  55.109   4.556  1.00  0.00     0.161 A 
ATOM      6  C   UNL     1      10.261  54.641   4.296  1.00  0.00     0.157 A 
ENDROOT
BRANCH   1   7
ATOM      7  C   UNL     1      11.351  55.767   8.296  1.00  0.00     0.072 C 
ATOM      8  O   UNL     1      10.470  56.122   9.125  1.00  0.00    -0.545 OA
ATOM      9  O   UNL     1      12.681  55.746   8.696  1.00  0.00    -0.545 OA
ENDBRANCH   1   7
BRANCH   5  10
ATOM     10  O   UNL     1      12.473  55.196   3.493  1.00  0.00    -0.493 OA
ATOM     11  C   UNL     1      12.861  56.410   2.856  1.00  0.00     0.278 C 
ENDBRANCH   5  10
BRANCH   6  12
ATOM     12  O   UNL     1       9.873  54.267   3.009  1.00  0.00    -0.504 OA
ATOM     13  H   UNL     1       8.903  54.106   2.764  1.00  0.00     0.293 HD
ENDBRANCH   6  12
TORSDOF 3
ENDMDL
MODEL 2
REMARK VINA RESULT:    -5.674      1.561      2.192
REMARK INTER + INTRA:          -6.605
REMARK INTER:                  -6.504
REMARK INTRA:                  -0.101
REMARK UNBOUND:                -0.102
REMARK SMILES COc1cc(C(=O)[O-])ccc1O
REMARK SMILES IDX 5 1 9 2 4 3 10 4 3 5 11 6 6 7 7 8 8 9 2 10 1 11 12 12
REMARK H PARENT 12 13
REMARK Flexibility Score: inf
ROOT
ATOM      1  C   UNL     1      11.988  55.805   6.897  1.00  0.00     0.001 A 
ATOM      2  C   UNL     1      10.882  55.603   7.739  1.00  0.00     0.014 A 
ATOM      3  C   UNL     1      11.868  55.507   5.528  1.00  0.00     0.060 A 
ATOM      4  C   UNL     1       9.681  55.112   7.223  1.00  0.00     0.051 A 
ATOM      5  C   UNL     1      10.658  55.011   5.001  1.00  0.00     0.161 A 
ATOM      6  C   UNL     1       9.563  54.815   5.862  1.00  0.00     0.157 A 
ENDROOT
BRANCH   1   7
ATOM      7  C   UNL     1      13.262  56.325   7.440  1.00  0.00     0.072 C 
ATOM      8  O   UNL     1      14.087  56.913   6.691  1.00  0.00    -0.545 OA
ATOM      9  O   UNL     1      13.569  56.172   8.787  1.00  0.00    -0.545 OA
ENDBRANCH   1   7
BRANCH   5  10
ATOM     10  O   UNL     1      10.510  54.704   3.640  1.00  0.00    -0.493 OA
ATOM     11  C   UNL     1      10.183  55.651   2.627  1.00  0.00     0.278 C 
ENDBRANCH   5  10
BRANCH   6  12
ATOM     12  O   UNL     1       8.347  54.327   5.384  1.00  0.00    -0.504 OA
ATOM     13  H   UNL     1       8.281  53.789   4.528  1.00  0.00     0.293 HD
ENDBRANCH   6  12
TORSDOF 3
ENDMDL
MODEL 3
REMARK VINA RESULT:    -5.453      9.175     11.566
REMARK INTER + INTRA:          -6.352
REMARK INTER:                  -6.252
REMARK INTRA:                  -0.101
REMARK UNBOUND:                -0.102
REMARK SMILES COc1cc(C(=O)[O-])ccc1O
REMARK SMILES IDX 5 1 9 2 4 3 10 4 3 5 11 6 6 7 7 8 8 9 2 10 1 11 12 12
REMARK H PARENT 12 13
REMARK Flexibility Score: inf
ROOT
ATOM      1  C   UNL     1      11.953  49.360  -4.056  1.00  0.00     0.001 A 
ATOM      2  C   UNL     1      12.092  49.535  -5.442  1.00  0.00     0.014 A 
ATOM      3  C   UNL     1      12.512  50.315  -3.187  1.00  0.00     0.060 A 
ATOM      4  C   UNL     1      12.774  50.641  -5.950  1.00  0.00     0.051 A 
ATOM      5  C   UNL     1      13.203  51.434  -3.694  1.00  0.00     0.161 A 
ATOM      6  C   UNL     1      13.330  51.590  -5.087  1.00  0.00     0.157 A 
ENDROOT
BRANCH   1   7
ATOM      7  C   UNL     1      11.230  48.189  -3.514  1.00  0.00     0.072 C 
ATOM      8  O   UNL     1      10.572  47.431  -4.277  1.00  0.00    -0.545 OA
ATOM      9  O   UNL     1      11.266  47.905  -2.154  1.00  0.00    -0.545 OA
ENDBRANCH   1   7
BRANCH   5  10
ATOM     10  O   UNL     1      13.771  52.402  -2.852  1.00  0.00    -0.493 OA
ATOM     11  C   UNL     1      13.072  53.523  -2.320  1.00  0.00     0.278 C 
ENDBRANCH   5  10
BRANCH   6  12
ATOM     12  O   UNL     1      14.005  52.682  -5.632  1.00  0.00    -0.504 OA
ATOM     13  H   UNL     1      14.346  53.446  -5.060  1.00  0.00     0.293 HD
ENDBRANCH   6  12
TORSDOF 3
ENDMDL
MODEL 4
REMARK VINA RESULT:    -5.448      1.445      3.923
REMARK INTER + INTRA:          -6.346
REMARK INTER:                  -6.268
REMARK INTRA:                  -0.078
REMARK UNBOUND:                -0.102
REMARK SMILES COc1cc(C(=O)[O-])ccc1O
REMARK SMILES IDX 5 1 9 2 4 3 10 4 3 5 11 6 6 7 7 8 8 9 2 10 1 11 12 12
REMARK H PARENT 12 13
REMARK Flexibility Score: inf
ROOT
ATOM      1  C   UNL     1      10.192  55.309   5.213  1.00  0.00     0.001 A 
ATOM      2  C   UNL     1       9.875  55.087   6.563  1.00  0.00     0.014 A 
ATOM      3  C   UNL     1      11.494  55.718   4.875  1.00  0.00     0.060 A 
ATOM      4  C   UNL     1      10.840  55.270   7.555  1.00  0.00     0.051 A 
ATOM      5  C   UNL     1      12.473  55.905   5.872  1.00  0.00     0.161 A 
ATOM      6  C   UNL     1      12.134  55.677   7.219  1.00  0.00     0.157 A 
ENDROOT
BRANCH   1   7
ATOM      7  C   UNL     1       9.171  55.116   4.159  1.00  0.00     0.072 C 
ATOM      8  O   UNL     1       9.504  54.730   3.007  1.00  0.00    -0.545 OA
ATOM      9  O   UNL     1       7.828  55.357   4.425  1.00  0.00    -0.545 OA
ENDBRANCH   1   7
BRANCH   5  10
ATOM     10  O   UNL     1      13.780  56.313   5.565  1.00  0.00    -0.493 OA
ATOM     11  C   UNL     1      14.287  56.475   4.243  1.00  0.00     0.278 C 
ENDBRANCH   5  10
BRANCH   6  12
ATOM     12  O   UNL     1      13.071  55.850   8.237  1.00  0.00    -0.504 OA
ATOM     13  H   UNL     1      13.289  56.761   8.621  1.00  0.00     0.293 HD
ENDBRANCH   6  12
TORSDOF 3
ENDMDL
MODEL 5
REMARK VINA RESULT:    -5.393      1.715      2.215
REMARK INTER + INTRA:          -6.283
REMARK INTER:                  -6.180
REMARK INTRA:                  -0.104
REMARK UNBOUND:                -0.102
REMARK SMILES COc1cc(C(=O)[O-])ccc1O
REMARK SMILES IDX 5 1 9 2 4 3 10 4 3 5 11 6 6 7 7 8 8 9 2 10 1 11 12 12
REMARK H PARENT 12 13
REMARK Flexibility Score: inf
ROOT
ATOM      1  C   UNL     1      10.674  55.405   5.230  1.00  0.00     0.001 A 
ATOM      2  C   UNL     1       9.468  55.543   4.524  1.00  0.00     0.014 A 
ATOM      3  C   UNL     1      11.889  55.440   4.522  1.00  0.00     0.060 A 
ATOM      4  C   UNL     1       9.475  55.712   3.139  1.00  0.00     0.051 A 
ATOM      5  C   UNL     1      11.902  55.610   3.122  1.00  0.00     0.161 A 
ATOM      6  C   UNL     1      10.683  55.746   2.435  1.00  0.00     0.157 A 
ENDROOT
BRANCH   1   7
ATOM      7  C   UNL     1      10.670  55.225   6.699  1.00  0.00     0.072 C 
ATOM      8  O   UNL     1      11.747  55.263   7.353  1.00  0.00    -0.545 OA
ATOM      9  O   UNL     1       9.478  55.012   7.380  1.00  0.00    -0.545 OA
ENDBRANCH   1   7
BRANCH   5  10
ATOM     10  O   UNL     1      13.099  55.649   2.390  1.00  0.00    -0.493 OA
ATOM     11  C   UNL     1      13.836  54.501   1.981  1.00  0.00     0.278 C 
ENDBRANCH   5  10
BRANCH   6  12
ATOM     12  O   UNL     1      10.650  55.917   1.051  1.00  0.00    -0.504 OA
ATOM     13  H   UNL     1      10.599  55.133   0.412  1.00  0.00     0.293 HD
ENDBRANCH   6  12
TORSDOF 3
ENDMDL
MODEL 6
REMARK VINA RESULT:    -5.378      1.083      2.689
REMARK INTER + INTRA:          -6.266
REMARK INTER:                  -6.197
REMARK INTRA:                  -0.069
REMARK UNBOUND:                -0.102
REMARK SMILES COc1cc(C(=O)[O-])ccc1O
REMARK SMILES IDX 5 1 9 2 4 3 10 4 3 5 11 6 6 7 7 8 8 9 2 10 1 11 12 12
REMARK H PARENT 12 13
REMARK Flexibility Score: inf
ROOT
ATOM      1  C   UNL     1      11.520  55.622   6.764  1.00  0.00     0.001 A 
ATOM      2  C   UNL     1      12.476  55.695   5.738  1.00  0.00     0.014 A 
ATOM      3  C   UNL     1      10.205  55.236   6.446  1.00  0.00     0.060 A 
ATOM      4  C   UNL     1      12.127  55.388   4.422  1.00  0.00     0.051 A 
ATOM      5  C   UNL     1       9.846  54.925   5.119  1.00  0.00     0.161 A 
ATOM      6  C   UNL     1      10.820  55.004   4.107  1.00  0.00     0.157 A 
ENDROOT
BRANCH   1   7
ATOM      7  C   UNL     1      11.888  55.947   8.160  1.00  0.00     0.072 C 
ATOM      8  O   UNL     1      13.097  56.067   8.493  1.00  0.00    -0.545 OA
ATOM      9  O   UNL     1      10.904  56.125   9.125  1.00  0.00    -0.545 OA
ENDBRANCH   1   7
BRANCH   5  10
ATOM     10  O   UNL     1       8.542  54.537   4.773  1.00  0.00    -0.493 OA
ATOM     11  C   UNL     1       7.535  55.423   4.293  1.00  0.00     0.278 C 
ENDBRANCH   5  10
BRANCH   6  12
ATOM     12  O   UNL     1      10.508  54.705   2.781  1.00  0.00    -0.504 OA
ATOM     13  H   UNL     1      10.717  53.804   2.368  1.00  0.00     0.293 HD
ENDBRANCH   6  12
TORSDOF 3
ENDMDL
MODEL 7
REMARK VINA RESULT:    -5.302     10.494     11.956
REMARK INTER + INTRA:          -6.178
REMARK INTER:                  -6.079
REMARK INTRA:                  -0.099
REMARK UNBOUND:                -0.102
REMARK SMILES COc1cc(C(=O)[O-])ccc1O
REMARK SMILES IDX 5 1 9 2 4 3 10 4 3 5 11 6 6 7 7 8 8 9 2 10 1 11 12 12
REMARK H PARENT 12 13
REMARK Flexibility Score: inf
ROOT
ATOM      1  C   UNL     1      12.735  50.565  -4.669  1.00  0.00     0.001 A 
ATOM      2  C   UNL     1      12.539  50.346  -6.042  1.00  0.00     0.014 A 
ATOM      3  C   UNL     1      13.329  51.768  -4.246  1.00  0.00     0.060 A 
ATOM      4  C   UNL     1      12.928  51.310  -6.974  1.00  0.00     0.051 A 
ATOM      5  C   UNL     1      13.725  52.745  -5.183  1.00  0.00     0.161 A 
ATOM      6  C   UNL     1      13.519  52.505  -6.554  1.00  0.00     0.157 A 
ENDROOT
BRANCH   1   7
ATOM      7  C   UNL     1      12.324  49.546  -3.678  1.00  0.00     0.072 C 
ATOM      8  O   UNL     1      12.856  49.510  -2.536  1.00  0.00    -0.545 OA
ATOM      9  O   UNL     1      11.343  48.613  -3.991  1.00  0.00    -0.545 OA
ENDBRANCH   1   7
BRANCH   5  10
ATOM     10  O   UNL     1      14.320  53.954  -4.791  1.00  0.00    -0.493 OA
ATOM     11  C   UNL     1      13.649  54.995  -4.085  1.00  0.00     0.278 C 
ENDBRANCH   5  10
BRANCH   6  12
ATOM     12  O   UNL     1      13.894  53.444  -7.515  1.00  0.00    -0.504 OA
ATOM     13  H   UNL     1      13.223  53.872  -8.141  1.00  0.00     0.293 HD
ENDBRANCH   6  12
TORSDOF 3
ENDMDL
MODEL 8
REMARK VINA RESULT:    -5.277      1.800      4.399
REMARK INTER + INTRA:          -6.150
REMARK INTER:                  -6.068
REMARK INTRA:                  -0.082
REMARK UNBOUND:                -0.102
REMARK SMILES COc1cc(C(=O)[O-])ccc1O
REMARK SMILES IDX 5 1 9 2 4 3 10 4 3 5 11 6 6 7 7 8 8 9 2 10 1 11 12 12
REMARK H PARENT 12 13
REMARK Flexibility Score: inf
ROOT
ATOM      1  C   UNL     1      11.622  55.404   4.120  1.00  0.00     0.001 A 
ATOM      2  C   UNL     1      12.076  55.402   5.449  1.00  0.00     0.014 A 
ATOM      3  C   UNL     1      10.247  55.255   3.867  1.00  0.00     0.060 A 
ATOM      4  C   UNL     1      11.174  55.253   6.504  1.00  0.00     0.051 A 
ATOM      5  C   UNL     1       9.331  55.104   4.928  1.00  0.00     0.161 A 
ATOM      6  C   UNL     1       9.807  55.104   6.252  1.00  0.00     0.157 A 
ENDROOT
BRANCH   1   7
ATOM      7  C   UNL     1      12.576  55.561   3.000  1.00  0.00     0.072 C 
ATOM      8  O   UNL     1      12.694  56.668   2.408  1.00  0.00    -0.545 OA
ATOM      9  O   UNL     1      13.358  54.490   2.584  1.00  0.00    -0.545 OA
ENDBRANCH   1   7
BRANCH   5  10
ATOM     10  O   UNL     1       7.954  54.953   4.706  1.00  0.00    -0.493 OA
ATOM     11  C   UNL     1       7.174  55.788   3.855  1.00  0.00     0.278 C 
ENDBRANCH   5  10
BRANCH   6  12
ATOM     12  O   UNL     1       8.936  54.959   7.331  1.00  0.00    -0.504 OA
ATOM     13  H   UNL     1       9.222  55.148   8.285  1.00  0.00     0.293 HD
ENDBRANCH   6  12
TORSDOF 3
ENDMDL
MODEL 9
REMARK VINA RESULT:    -5.234      1.351      4.340
REMARK INTER + INTRA:          -6.101
REMARK INTER:                  -6.021
REMARK INTRA:                  -0.080
REMARK UNBOUND:                -0.102
REMARK SMILES COc1cc(C(=O)[O-])ccc1O
REMARK SMILES IDX 5 1 9 2 4 3 10 4 3 5 11 6 6 7 7 8 8 9 2 10 1 11 12 12
REMARK H PARENT 12 13
REMARK Flexibility Score: inf
ROOT
ATOM      1  C   UNL     1      11.181  54.988   3.983  1.00  0.00     0.001 A 
ATOM      2  C   UNL     1       9.805  54.712   4.032  1.00  0.00     0.014 A 
ATOM      3  C   UNL     1      11.858  55.302   5.175  1.00  0.00     0.060 A 
ATOM      4  C   UNL     1       9.120  54.747   5.247  1.00  0.00     0.051 A 
ATOM      5  C   UNL     1      11.172  55.340   6.405  1.00  0.00     0.161 A 
ATOM      6  C   UNL     1       9.793  55.059   6.432  1.00  0.00     0.157 A 
ENDROOT
BRANCH   1   7
ATOM      7  C   UNL     1      11.911  54.952   2.696  1.00  0.00     0.072 C 
ATOM      8  O   UNL     1      13.152  54.734   2.668  1.00  0.00    -0.545 OA
ATOM      9  O   UNL     1      11.237  55.156   1.497  1.00  0.00    -0.545 OA
ENDBRANCH   1   7
BRANCH   5  10
ATOM     10  O   UNL     1      11.821  55.649   7.610  1.00  0.00    -0.493 OA
ATOM     11  C   UNL     1      13.055  56.355   7.707  1.00  0.00     0.278 C 
ENDBRANCH   5  10
BRANCH   6  12
ATOM     12  O   UNL     1       9.075  55.085   7.627  1.00  0.00    -0.504 OA
ATOM     13  H   UNL     1       9.090  55.885   8.248  1.00  0.00     0.293 HD
ENDBRANCH   6  12
TORSDOF 3
ENDMDL
