MODEL 1
REMARK VINA RESULT:    -4.570      0.000      0.000
REMARK INTER + INTRA:          -5.306
REMARK INTER:                  -5.104
REMARK INTRA:                  -0.202
REMARK UNBOUND:                -0.202
REMARK SMILES CC(C)c1ccc(C(=O)[O-])cc1
REMARK SMILES IDX 7 1 6 2 11 3 5 4 12 5 4 6 8 7 9 8 10 9 2 10 1 11 3 12
REMARK H PARENT
REMARK Flexibility Score: inf
ROOT
ATOM      1  C   UNL     1      29.721  59.133 -11.678  1.00  0.00    -0.003 A 
ATOM      2  C   UNL     1      29.560  58.241 -12.751  1.00  0.00     0.010 A 
ATOM      3  C   UNL     1      31.018  59.525 -11.308  1.00  0.00     0.010 A 
ATOM      4  C   UNL     1      30.673  57.751 -13.440  1.00  0.00     0.004 A 
ATOM      5  C   UNL     1      32.132  59.035 -11.997  1.00  0.00     0.004 A 
ATOM      6  C   UNL     1      31.971  58.142 -13.071  1.00  0.00    -0.045 A 
ENDROOT
BRANCH   1   7
ATOM      7  C   UNL     1      28.540  59.650 -10.952  1.00  0.00     0.071 C 
ATOM      8  O   UNL     1      28.423  60.880 -10.712  1.00  0.00    -0.545 OA
ATOM      9  O   UNL     1      27.542  58.782 -10.522  1.00  0.00    -0.545 OA
ENDBRANCH   1   7
BRANCH   6  10
ATOM     10  C   UNL     1      33.170  57.602 -13.828  1.00  0.00     0.013 C 
ATOM     11  C   UNL     1      33.901  58.722 -14.578  1.00  0.00     0.012 C 
ATOM     12  C   UNL     1      34.125  56.853 -12.889  1.00  0.00     0.012 C 
ENDBRANCH   6  10
TORSDOF 2
ENDMDL
MODEL 2
REMARK VINA RESULT:    -4.546      0.065      1.399
REMARK INTER + INTRA:          -5.279
REMARK INTER:                  -5.074
REMARK INTRA:                  -0.206
REMARK UNBOUND:                -0.202
REMARK SMILES CC(C)c1ccc(C(=O)[O-])cc1
REMARK SMILES IDX 7 1 6 2 11 3 5 4 12 5 4 6 8 7 9 8 10 9 2 10 1 11 3 12
REMARK H PARENT
REMARK Flexibility Score: inf
ROOT
ATOM      1  C   UNL     1      29.708  59.151 -11.641  1.00  0.00    -0.003 A 
ATOM      2  C   UNL     1      31.013  59.500 -11.256  1.00  0.00     0.010 A 
ATOM      3  C   UNL     1      29.529  58.284 -12.731  1.00  0.00     0.010 A 
ATOM      4  C   UNL     1      32.116  58.993 -11.948  1.00  0.00     0.004 A 
ATOM      5  C   UNL     1      30.632  57.776 -13.423  1.00  0.00     0.004 A 
ATOM      6  C   UNL     1      31.939  58.126 -13.039  1.00  0.00    -0.045 A 
ENDROOT
BRANCH   1   7
ATOM      7  C   UNL     1      28.542  59.690 -10.906  1.00  0.00     0.071 C 
ATOM      8  O   UNL     1      28.473  60.915 -10.622  1.00  0.00    -0.545 OA
ATOM      9  O   UNL     1      27.505  58.850 -10.515  1.00  0.00    -0.545 OA
ENDBRANCH   1   7
BRANCH   6  10
ATOM     10  C   UNL     1      33.146  57.582 -13.781  1.00  0.00     0.013 C 
ATOM     11  C   UNL     1      33.872  58.694 -14.547  1.00  0.00     0.012 C 
ATOM     12  C   UNL     1      34.101  56.857 -12.824  1.00  0.00     0.012 C 
ENDBRANCH   6  10
TORSDOF 2
ENDMDL
MODEL 3
REMARK VINA RESULT:    -4.508      2.923      5.167
REMARK INTER + INTRA:          -5.238
REMARK INTER:                  -5.035
REMARK INTRA:                  -0.203
REMARK UNBOUND:                -0.202
REMARK SMILES CC(C)c1ccc(C(=O)[O-])cc1
REMARK SMILES IDX 7 1 6 2 11 3 5 4 12 5 4 6 8 7 9 8 10 9 2 10 1 11 3 12
REMARK H PARENT
REMARK Flexibility Score: inf
ROOT
ATOM      1  C   UNL     1      31.840  58.506 -12.977  1.00  0.00    -0.003 A 
ATOM      2  C   UNL     1      32.099  59.336 -11.874  1.00  0.00     0.010 A 
ATOM      3  C   UNL     1      30.516  58.118 -13.242  1.00  0.00     0.010 A 
ATOM      4  C   UNL     1      31.054  59.770 -11.052  1.00  0.00     0.004 A 
ATOM      5  C   UNL     1      29.472  58.551 -12.420  1.00  0.00     0.004 A 
ATOM      6  C   UNL     1      29.730  59.382 -11.315  1.00  0.00    -0.045 A 
ENDROOT
BRANCH   1   7
ATOM      7  C   UNL     1      32.948  58.049 -13.845  1.00  0.00     0.071 C 
ATOM      8  O   UNL     1      33.321  58.742 -14.828  1.00  0.00    -0.545 OA
ATOM      9  O   UNL     1      33.596  56.845 -13.587  1.00  0.00    -0.545 OA
ENDBRANCH   1   7
BRANCH   6  10
ATOM     10  C   UNL     1      28.606  59.861 -10.415  1.00  0.00     0.013 C 
ATOM     11  C   UNL     1      28.232  61.316 -10.723  1.00  0.00     0.012 C 
ATOM     12  C   UNL     1      27.382  58.942 -10.523  1.00  0.00     0.012 C 
ENDBRANCH   6  10
TORSDOF 2
ENDMDL
MODEL 4
REMARK VINA RESULT:    -4.127      1.240      2.295
REMARK INTER + INTRA:          -4.812
REMARK INTER:                  -4.598
REMARK INTRA:                  -0.214
REMARK UNBOUND:                -0.202
REMARK SMILES CC(C)c1ccc(C(=O)[O-])cc1
REMARK SMILES IDX 7 1 6 2 11 3 5 4 12 5 4 6 8 7 9 8 10 9 2 10 1 11 3 12
REMARK H PARENT
REMARK Flexibility Score: inf
ROOT
ATOM      1  C   UNL     1      29.804  60.244 -10.690  1.00  0.00    -0.003 A 
ATOM      2  C   UNL     1      31.203  60.326 -10.584  1.00  0.00     0.010 A 
ATOM      3  C   UNL     1      29.243  59.370 -11.636  1.00  0.00     0.010 A 
ATOM      4  C   UNL     1      32.023  59.550 -11.409  1.00  0.00     0.004 A 
ATOM      5  C   UNL     1      30.064  58.595 -12.461  1.00  0.00     0.004 A 
ATOM      6  C   UNL     1      31.464  58.677 -12.356  1.00  0.00    -0.045 A 
ENDROOT
BRANCH   1   7
ATOM      7  C   UNL     1      28.939  61.066  -9.815  1.00  0.00     0.071 C 
ATOM      8  O   UNL     1      29.441  61.799  -8.923  1.00  0.00    -0.545 OA
ATOM      9  O   UNL     1      27.556  61.039  -9.966  1.00  0.00    -0.545 OA
ENDBRANCH   1   7
BRANCH   6  10
ATOM     10  C   UNL     1      32.367  57.841 -13.244  1.00  0.00     0.013 C 
ATOM     11  C   UNL     1      31.574  56.741 -13.959  1.00  0.00     0.012 C 
ATOM     12  C   UNL     1      33.121  58.720 -14.249  1.00  0.00     0.012 C 
ENDBRANCH   6  10
TORSDOF 2
ENDMDL
MODEL 5
REMARK VINA RESULT:    -4.084      1.320      1.961
REMARK INTER + INTRA:          -4.764
REMARK INTER:                  -4.551
REMARK INTRA:                  -0.213
REMARK UNBOUND:                -0.202
REMARK SMILES CC(C)c1ccc(C(=O)[O-])cc1
REMARK SMILES IDX 7 1 6 2 11 3 5 4 12 5 4 6 8 7 9 8 10 9 2 10 1 11 3 12
REMARK H PARENT
REMARK Flexibility Score: inf
ROOT
ATOM      1  C   UNL     1      30.203  60.031 -10.631  1.00  0.00    -0.003 A 
ATOM      2  C   UNL     1      29.638  59.582 -11.836  1.00  0.00     0.010 A 
ATOM      3  C   UNL     1      31.521  59.658 -10.316  1.00  0.00     0.010 A 
ATOM      4  C   UNL     1      30.375  58.775 -12.708  1.00  0.00     0.004 A 
ATOM      5  C   UNL     1      32.257  58.851 -11.188  1.00  0.00     0.004 A 
ATOM      6  C   UNL     1      31.692  58.400 -12.394  1.00  0.00    -0.045 A 
ENDROOT
BRANCH   1   7
ATOM      7  C   UNL     1      29.420  60.886  -9.711  1.00  0.00     0.071 C 
ATOM      8  O   UNL     1      28.221  61.172  -9.966  1.00  0.00    -0.545 OA
ATOM      9  O   UNL     1      30.000  61.387  -8.550  1.00  0.00    -0.545 OA
ENDBRANCH   1   7
BRANCH   6  10
ATOM     10  C   UNL     1      32.480  57.524 -13.350  1.00  0.00     0.013 C 
ATOM     11  C   UNL     1      31.554  56.586 -14.133  1.00  0.00     0.012 C 
ATOM     12  C   UNL     1      33.336  58.372 -14.299  1.00  0.00     0.012 C 
ENDBRANCH   6  10
TORSDOF 2
ENDMDL
MODEL 6
REMARK VINA RESULT:    -4.006     15.568     18.021
REMARK INTER + INTRA:          -4.677
REMARK INTER:                  -4.461
REMARK INTRA:                  -0.215
REMARK UNBOUND:                -0.202
REMARK SMILES CC(C)c1ccc(C(=O)[O-])cc1
REMARK SMILES IDX 7 1 6 2 11 3 5 4 12 5 4 6 8 7 9 8 10 9 2 10 1 11 3 12
REMARK H PARENT
REMARK Flexibility Score: inf
ROOT
ATOM      1  C   UNL     1      15.332  61.150  -1.931  1.00  0.00    -0.003 A 
ATOM      2  C   UNL     1      16.240  62.094  -2.437  1.00  0.00     0.010 A 
ATOM      3  C   UNL     1      14.770  60.207  -2.808  1.00  0.00     0.010 A 
ATOM      4  C   UNL     1      16.580  62.095  -3.794  1.00  0.00     0.004 A 
ATOM      5  C   UNL     1      15.110  60.208  -4.164  1.00  0.00     0.004 A 
ATOM      6  C   UNL     1      16.019  61.153  -4.672  1.00  0.00    -0.045 A 
ENDROOT
BRANCH   1   7
ATOM      7  C   UNL     1      14.975  61.151  -0.495  1.00  0.00     0.071 C 
ATOM      8  O   UNL     1      13.927  60.579  -0.094  1.00  0.00    -0.545 OA
ATOM      9  O   UNL     1      15.792  61.787   0.433  1.00  0.00    -0.545 OA
ENDBRANCH   1   7
BRANCH   6  10
ATOM     10  C   UNL     1      16.397  61.166  -6.141  1.00  0.00     0.013 C 
ATOM     11  C   UNL     1      17.899  60.917  -6.328  1.00  0.00     0.012 C 
ATOM     12  C   UNL     1      15.566  60.150  -6.935  1.00  0.00     0.012 C 
ENDBRANCH   6  10
TORSDOF 2
ENDMDL
MODEL 7
REMARK VINA RESULT:    -4.000      2.961      4.918
REMARK INTER + INTRA:          -4.670
REMARK INTER:                  -4.454
REMARK INTRA:                  -0.217
REMARK UNBOUND:                -0.202
REMARK SMILES CC(C)c1ccc(C(=O)[O-])cc1
REMARK SMILES IDX 7 1 6 2 11 3 5 4 12 5 4 6 8 7 9 8 10 9 2 10 1 11 3 12
REMARK H PARENT
REMARK Flexibility Score: inf
ROOT
ATOM      1  C   UNL     1      31.559  58.377 -12.708  1.00  0.00    -0.003 A 
ATOM      2  C   UNL     1      30.264  58.868 -12.945  1.00  0.00     0.010 A 
ATOM      3  C   UNL     1      32.196  58.695 -11.497  1.00  0.00     0.010 A 
ATOM      4  C   UNL     1      29.621  59.662 -11.991  1.00  0.00     0.004 A 
ATOM      5  C   UNL     1      31.552  59.488 -10.542  1.00  0.00     0.004 A 
ATOM      6  C   UNL     1      30.257  59.981 -10.780  1.00  0.00    -0.045 A 
ENDROOT
BRANCH   1   7
ATOM      7  C   UNL     1      32.237  57.538 -13.720  1.00  0.00     0.071 C 
ATOM      8  O   UNL     1      33.455  57.710 -13.985  1.00  0.00    -0.545 OA
ATOM      9  O   UNL     1      31.536  56.544 -14.396  1.00  0.00    -0.545 OA
ENDBRANCH   1   7
BRANCH   6  10
ATOM     10  C   UNL     1      29.546  60.842  -9.753  1.00  0.00     0.013 C 
ATOM     11  C   UNL     1      30.506  61.860  -9.125  1.00  0.00     0.012 C 
ATOM     12  C   UNL     1      28.326  61.541 -10.367  1.00  0.00     0.012 C 
ENDBRANCH   6  10
TORSDOF 2
ENDMDL
MODEL 8
REMARK VINA RESULT:    -3.907     18.352     19.212
REMARK INTER + INTRA:          -4.566
REMARK INTER:                  -4.347
REMARK INTRA:                  -0.219
REMARK UNBOUND:                -0.202
REMARK SMILES CC(C)c1ccc(C(=O)[O-])cc1
REMARK SMILES IDX 7 1 6 2 11 3 5 4 12 5 4 6 8 7 9 8 10 9 2 10 1 11 3 12
REMARK H PARENT
REMARK Flexibility Score: inf
ROOT
ATOM      1  C   UNL     1      32.719  46.252   2.238  1.00  0.00    -0.003 A 
ATOM      2  C   UNL     1      33.942  45.987   1.600  1.00  0.00     0.010 A 
ATOM      3  C   UNL     1      31.567  45.571   1.811  1.00  0.00     0.010 A 
ATOM      4  C   UNL     1      34.011  45.060   0.556  1.00  0.00     0.004 A 
ATOM      5  C   UNL     1      31.636  44.644   0.767  1.00  0.00     0.004 A 
ATOM      6  C   UNL     1      32.860  44.379   0.127  1.00  0.00    -0.045 A 
ENDROOT
BRANCH   1   7
ATOM      7  C   UNL     1      32.649  47.234   3.343  1.00  0.00     0.071 C 
ATOM      8  O   UNL     1      31.547  47.734   3.688  1.00  0.00    -0.545 OA
ATOM      9  O   UNL     1      33.804  47.620   4.016  1.00  0.00    -0.545 OA
ENDBRANCH   1   7
BRANCH   6  10
ATOM     10  C   UNL     1      32.950  43.375  -1.007  1.00  0.00     0.013 C 
ATOM     11  C   UNL     1      31.556  42.933  -1.467  1.00  0.00     0.012 C 
ATOM     12  C   UNL     1      33.765  43.937  -2.179  1.00  0.00     0.012 C 
ENDBRANCH   6  10
TORSDOF 2
ENDMDL
MODEL 9
REMARK VINA RESULT:    -3.896     10.903     12.042
REMARK INTER + INTRA:          -4.554
REMARK INTER:                  -4.344
REMARK INTRA:                  -0.210
REMARK UNBOUND:                -0.202
REMARK SMILES CC(C)c1ccc(C(=O)[O-])cc1
REMARK SMILES IDX 7 1 6 2 11 3 5 4 12 5 4 6 8 7 9 8 10 9 2 10 1 11 3 12
REMARK H PARENT
REMARK Flexibility Score: inf
ROOT
ATOM      1  C   UNL     1      32.720  58.654   0.437  1.00  0.00    -0.003 A 
ATOM      2  C   UNL     1      33.174  57.922  -0.673  1.00  0.00     0.010 A 
ATOM      3  C   UNL     1      32.239  59.959   0.240  1.00  0.00     0.010 A 
ATOM      4  C   UNL     1      33.149  58.485  -1.953  1.00  0.00     0.004 A 
ATOM      5  C   UNL     1      32.215  60.522  -1.039  1.00  0.00     0.004 A 
ATOM      6  C   UNL     1      32.670  59.790  -2.150  1.00  0.00    -0.045 A 
ENDROOT
BRANCH   1   7
ATOM      7  C   UNL     1      32.747  58.055   1.789  1.00  0.00     0.071 C 
ATOM      8  O   UNL     1      31.800  57.328   2.188  1.00  0.00    -0.545 OA
ATOM      9  O   UNL     1      33.821  58.288   2.641  1.00  0.00    -0.545 OA
ENDBRANCH   1   7
BRANCH   6  10
ATOM     10  C   UNL     1      32.649  60.388  -3.545  1.00  0.00     0.013 C 
ATOM     11  C   UNL     1      33.088  59.360  -4.594  1.00  0.00     0.012 C 
ATOM     12  C   UNL     1      31.266  60.961  -3.879  1.00  0.00     0.012 C 
ENDBRANCH   6  10
TORSDOF 2
ENDMDL
