MODEL 1
REMARK VINA RESULT:    23.112      0.000      0.000
REMARK INTER + INTRA:          28.016
REMARK INTER:                  28.516
REMARK INTRA:                  -0.500
REMARK UNBOUND:                -0.500
REMARK SMILES CC(C)=CCC[C@@H](C)c1ccc(C)cc1
REMARK SMILES IDX 6 1 7 2 8 3 9 4 13 5 12 6 11 7 14 8 10 9 15 10 5 11 4 12
REMARK SMILES IDX 2 13 1 14 3 15
REMARK H PARENT
REMARK Flexibility Score: inf
ROOT
ATOM      1  C   UNL     1      94.828 119.493 110.187  1.00  0.00     0.012 C 
ENDROOT
BRANCH   1   2
ATOM      2  C   UNL     1      94.056 118.209 110.580  1.00  0.00     0.016 C 
ATOM      3  C   UNL     1      94.604 116.950 109.891  1.00  0.00     0.013 C 
BRANCH   2   4
ATOM      4  C   UNL     1      94.064 118.032 112.088  1.00  0.00    -0.045 A 
ATOM      5  C   UNL     1      94.067 117.580 116.383  1.00  0.00     0.044 C 
ATOM      6  C   UNL     1      94.060 117.708 114.889  1.00  0.00    -0.051 A 
ATOM      7  C   UNL     1      92.877 118.037 114.212  1.00  0.00     0.004 A 
ATOM      8  C   UNL     1      95.252 117.567 114.162  1.00  0.00     0.004 A 
ATOM      9  C   UNL     1      92.878 118.192 112.824  1.00  0.00     0.004 A 
ATOM     10  C   UNL     1      95.254 117.722 112.774  1.00  0.00     0.004 A 
ENDBRANCH   2   4
ENDBRANCH   1   2
BRANCH   1  11
ATOM     11  C   UNL     1      94.592 120.677 111.144  1.00  0.00     0.028 C 
BRANCH  11  12
ATOM     12  C   UNL     1      95.709 121.694 111.098  1.00  0.00    -0.028 C 
ATOM     13  C   UNL     1      95.654 122.879 111.740  1.00  0.00    -0.080 C 
ATOM     14  C   UNL     1      96.827 123.819 111.628  1.00  0.00     0.039 C 
ATOM     15  C   UNL     1      94.451 123.279 112.562  1.00  0.00     0.039 C 
ENDBRANCH  11  12
ENDBRANCH   1  11
TORSDOF 4
ENDMDL
MODEL 2
REMARK VINA RESULT:    23.326      0.138      1.258
REMARK INTER + INTRA:          28.281
REMARK INTER:                  28.824
REMARK INTRA:                  -0.544
REMARK UNBOUND:                -0.500
REMARK SMILES CC(C)=CCC[C@@H](C)c1ccc(C)cc1
REMARK SMILES IDX 6 1 7 2 8 3 9 4 13 5 12 6 11 7 14 8 10 9 15 10 5 11 4 12
REMARK SMILES IDX 2 13 1 14 3 15
REMARK H PARENT
REMARK Flexibility Score: inf
ROOT
ATOM      1  C   UNL     1      94.717 119.523 110.098  1.00  0.00     0.012 C 
ENDROOT
BRANCH   1   2
ATOM      2  C   UNL     1      94.027 118.207 110.536  1.00  0.00     0.016 C 
ATOM      3  C   UNL     1      94.649 116.962 109.886  1.00  0.00     0.013 C 
BRANCH   2   4
ATOM      4  C   UNL     1      94.050 118.080 112.049  1.00  0.00    -0.045 A 
ATOM      5  C   UNL     1      94.137 117.667 116.348  1.00  0.00     0.044 C 
ATOM      6  C   UNL     1      94.113 117.840 114.858  1.00  0.00    -0.051 A 
ATOM      7  C   UNL     1      95.281 117.657 114.105  1.00  0.00     0.004 A 
ATOM      8  C   UNL     1      92.906 118.117 114.199  1.00  0.00     0.004 A 
ATOM      9  C   UNL     1      95.252 117.782 112.714  1.00  0.00     0.004 A 
ATOM     10  C   UNL     1      92.875 118.241 112.808  1.00  0.00     0.004 A 
ENDBRANCH   2   4
ENDBRANCH   1   2
BRANCH   1  11
ATOM     11  C   UNL     1      94.414 120.719 111.020  1.00  0.00     0.028 C 
BRANCH  11  12
ATOM     12  C   UNL     1      95.541 121.727 111.054  1.00  0.00    -0.028 C 
ATOM     13  C   UNL     1      95.507 122.844 111.809  1.00  0.00    -0.080 C 
ATOM     14  C   UNL     1      96.687 123.780 111.770  1.00  0.00     0.039 C 
ATOM     15  C   UNL     1      94.321 123.173 112.685  1.00  0.00     0.039 C 
ENDBRANCH  11  12
ENDBRANCH   1  11
TORSDOF 4
ENDMDL
MODEL 3
REMARK VINA RESULT:    24.390      2.706      4.925
REMARK INTER + INTRA:          29.593
REMARK INTER:                  27.967
REMARK INTRA:                   1.626
REMARK UNBOUND:                -0.500
REMARK SMILES CC(C)=CCC[C@@H](C)c1ccc(C)cc1
REMARK SMILES IDX 6 1 7 2 8 3 9 4 13 5 12 6 11 7 14 8 10 9 15 10 5 11 4 12
REMARK SMILES IDX 2 13 1 14 3 15
REMARK H PARENT
REMARK Flexibility Score: inf
ROOT
ATOM      1  C   UNL     1      93.539 118.455 114.079  1.00  0.00     0.012 C 
ENDROOT
BRANCH   1   2
ATOM      2  C   UNL     1      94.914 117.742 114.098  1.00  0.00     0.016 C 
ATOM      3  C   UNL     1      95.458 117.458 112.690  1.00  0.00     0.013 C 
BRANCH   2   4
ATOM      4  C   UNL     1      95.917 118.557 114.896  1.00  0.00    -0.045 A 
ATOM      5  C   UNL     1      98.775 120.832 117.202  1.00  0.00     0.044 C 
ATOM      6  C   UNL     1      97.792 120.055 116.376  1.00  0.00    -0.051 A 
ATOM      7  C   UNL     1      98.141 118.803 115.853  1.00  0.00     0.004 A 
ATOM      8  C   UNL     1      96.492 120.545 116.180  1.00  0.00     0.004 A 
ATOM      9  C   UNL     1      97.214 118.063 115.114  1.00  0.00     0.004 A 
ATOM     10  C   UNL     1      95.564 119.806 115.442  1.00  0.00     0.004 A 
ENDBRANCH   2   4
ENDBRANCH   1   2
BRANCH   1  11
ATOM     11  C   UNL     1      92.932 118.595 112.670  1.00  0.00     0.028 C 
BRANCH  11  12
ATOM     12  C   UNL     1      93.063 117.331 111.851  1.00  0.00    -0.028 C 
ATOM     13  C   UNL     1      93.591 117.309 110.610  1.00  0.00    -0.080 C 
ATOM     14  C   UNL     1      93.677 115.991 109.883  1.00  0.00     0.039 C 
ATOM     15  C   UNL     1      94.092 118.566 109.940  1.00  0.00     0.039 C 
ENDBRANCH  11  12
ENDBRANCH   1  11
TORSDOF 4
ENDMDL
MODEL 4
REMARK VINA RESULT:    24.838      2.468      3.921
REMARK INTER + INTRA:          30.146
REMARK INTER:                  30.094
REMARK INTRA:                   0.052
REMARK UNBOUND:                -0.500
REMARK SMILES CC(C)=CCC[C@@H](C)c1ccc(C)cc1
REMARK SMILES IDX 6 1 7 2 8 3 9 4 13 5 12 6 11 7 14 8 10 9 15 10 5 11 4 12
REMARK SMILES IDX 2 13 1 14 3 15
REMARK H PARENT
REMARK Flexibility Score: inf
ROOT
ATOM      1  C   UNL     1      93.119 119.627 111.910  1.00  0.00     0.012 C 
ENDROOT
BRANCH   1   2
ATOM      2  C   UNL     1      93.138 118.473 112.942  1.00  0.00     0.016 C 
ATOM      3  C   UNL     1      92.878 117.100 112.306  1.00  0.00     0.013 C 
BRANCH   2   4
ATOM      4  C   UNL     1      94.457 118.464 113.696  1.00  0.00    -0.045 A 
ATOM      5  C   UNL     1      98.185 118.401 115.875  1.00  0.00     0.044 C 
ATOM      6  C   UNL     1      96.905 118.428 115.093  1.00  0.00    -0.051 A 
ATOM      7  C   UNL     1      96.373 117.243 114.566  1.00  0.00     0.004 A 
ATOM      8  C   UNL     1      96.195 119.627 114.942  1.00  0.00     0.004 A 
ATOM      9  C   UNL     1      95.163 117.261 113.869  1.00  0.00     0.004 A 
ATOM     10  C   UNL     1      94.985 119.647 114.245  1.00  0.00     0.004 A 
ENDBRANCH   2   4
ENDBRANCH   1   2
BRANCH   1  11
ATOM     11  C   UNL     1      93.416 119.175 110.467  1.00  0.00     0.028 C 
BRANCH  11  12
ATOM     12  C   UNL     1      94.856 118.756 110.273  1.00  0.00    -0.028 C 
ATOM     13  C   UNL     1      95.228 117.478 110.059  1.00  0.00    -0.080 C 
ATOM     14  C   UNL     1      96.693 117.172 109.875  1.00  0.00     0.039 C 
ATOM     15  C   UNL     1      94.218 116.358 109.999  1.00  0.00     0.039 C 
ENDBRANCH  11  12
ENDBRANCH   1  11
TORSDOF 4
ENDMDL
