MODEL 1
REMARK VINA RESULT:    -3.046      0.000      0.000
REMARK INTER + INTRA:          -3.313
REMARK INTER:                  -3.313
REMARK INTRA:                   0.000
REMARK UNBOUND:                 0.000
REMARK SMILES [NH3+]CC(=O)[O-]
REMARK SMILES IDX 2 1 1 2 3 6 4 7 5 8
REMARK H PARENT 1 3 1 4 1 5
REMARK Flexibility Score: inf
ROOT
ATOM      1  C   UNL     1     -12.645 -32.663  -5.722  1.00  0.00     0.312 C 
ENDROOT
BRANCH   1   2
ATOM      2  N   UNL     1     -11.752 -31.912  -6.602  1.00  0.00    -0.353 N 
ATOM      3  H   UNL     1     -12.015 -30.900  -6.601  1.00  0.00     0.344 HD
ATOM      4  H   UNL     1     -10.761 -32.020  -6.283  1.00  0.00     0.344 HD
ATOM      5  H   UNL     1     -11.837 -32.284  -7.574  1.00  0.00     0.344 HD
ENDBRANCH   1   2
BRANCH   1   6
ATOM      6  C   UNL     1     -13.912 -33.022  -6.436  1.00  0.00     0.096 C 
ATOM      7  O   UNL     1     -14.111 -34.206  -6.815  1.00  0.00    -0.544 OA
ATOM      8  O   UNL     1     -14.849 -32.039  -6.727  1.00  0.00    -0.544 OA
ENDBRANCH   1   6
TORSDOF 2
ENDMDL
MODEL 2
REMARK VINA RESULT:    -3.027      1.953      2.323
REMARK INTER + INTRA:          -3.293
REMARK INTER:                  -3.293
REMARK INTRA:                   0.000
REMARK UNBOUND:                 0.000
REMARK SMILES [NH3+]CC(=O)[O-]
REMARK SMILES IDX 2 1 1 2 3 6 4 7 5 8
REMARK H PARENT 1 3 1 4 1 5
REMARK Flexibility Score: inf
ROOT
ATOM      1  C   UNL     1     -13.921 -34.166  -6.903  1.00  0.00     0.312 C 
ENDROOT
BRANCH   1   2
ATOM      2  N   UNL     1     -13.038 -34.954  -6.046  1.00  0.00    -0.353 N 
ATOM      3  H   UNL     1     -12.089 -35.030  -6.482  1.00  0.00     0.344 HD
ATOM      4  H   UNL     1     -12.959 -34.506  -5.103  1.00  0.00     0.344 HD
ATOM      5  H   UNL     1     -13.436 -35.913  -5.933  1.00  0.00     0.344 HD
ENDBRANCH   1   2
BRANCH   1   6
ATOM      6  C   UNL     1     -13.942 -32.733  -6.466  1.00  0.00     0.096 C 
ATOM      7  O   UNL     1     -14.931 -32.003  -6.738  1.00  0.00    -0.544 OA
ATOM      8  O   UNL     1     -12.847 -32.191  -5.805  1.00  0.00    -0.544 OA
ENDBRANCH   1   6
TORSDOF 2
ENDMDL
MODEL 3
REMARK VINA RESULT:    -3.002      2.169      2.216
REMARK INTER + INTRA:          -3.265
REMARK INTER:                  -3.265
REMARK INTRA:                   0.000
REMARK UNBOUND:                 0.000
REMARK SMILES [NH3+]CC(=O)[O-]
REMARK SMILES IDX 2 1 1 2 3 6 4 7 5 8
REMARK H PARENT 1 3 1 4 1 5
REMARK Flexibility Score: inf
ROOT
ATOM      1  C   UNL     1     -12.689 -32.836  -5.735  1.00  0.00     0.312 C 
ENDROOT
BRANCH   1   2
ATOM      2  N   UNL     1     -12.875 -34.278  -5.886  1.00  0.00    -0.353 N 
ATOM      3  H   UNL     1     -13.605 -34.617  -5.217  1.00  0.00     0.344 HD
ATOM      4  H   UNL     1     -13.161 -34.502  -6.867  1.00  0.00     0.344 HD
ATOM      5  H   UNL     1     -11.973 -34.763  -5.677  1.00  0.00     0.344 HD
ENDBRANCH   1   2
BRANCH   1   6
ATOM      6  C   UNL     1     -12.628 -32.168  -7.074  1.00  0.00     0.096 C 
ATOM      7  O   UNL     1     -11.521 -32.007  -7.652  1.00  0.00    -0.544 OA
ATOM      8  O   UNL     1     -13.788 -31.677  -7.660  1.00  0.00    -0.544 OA
ENDBRANCH   1   6
TORSDOF 2
ENDMDL
MODEL 4
REMARK VINA RESULT:    -2.994      1.541      1.552
REMARK INTER + INTRA:          -3.257
REMARK INTER:                  -3.257
REMARK INTRA:                   0.000
REMARK UNBOUND:                 0.000
REMARK SMILES [NH3+]CC(=O)[O-]
REMARK SMILES IDX 2 1 1 2 3 6 4 7 5 8
REMARK H PARENT 1 3 1 4 1 5
REMARK Flexibility Score: inf
ROOT
ATOM      1  C   UNL     1     -11.991 -33.080  -7.663  1.00  0.00     0.312 C 
ENDROOT
BRANCH   1   2
ATOM      2  N   UNL     1     -11.260 -31.920  -7.157  1.00  0.00    -0.353 N 
ATOM      3  H   UNL     1     -11.637 -31.638  -6.222  1.00  0.00     0.344 HD
ATOM      4  H   UNL     1     -10.242 -32.145  -7.074  1.00  0.00     0.344 HD
ATOM      5  H   UNL     1     -11.378 -31.124  -7.824  1.00  0.00     0.344 HD
ENDBRANCH   1   2
BRANCH   1   6
ATOM      6  C   UNL     1     -12.838 -33.683  -6.585  1.00  0.00     0.096 C 
ATOM      7  O   UNL     1     -13.010 -34.930  -6.538  1.00  0.00    -0.544 OA
ATOM      8  O   UNL     1     -13.479 -32.865  -5.664  1.00  0.00    -0.544 OA
ENDBRANCH   1   6
TORSDOF 2
ENDMDL
MODEL 5
REMARK VINA RESULT:    -2.971      2.523      2.731
REMARK INTER + INTRA:          -3.231
REMARK INTER:                  -3.231
REMARK INTRA:                   0.000
REMARK UNBOUND:                 0.000
REMARK SMILES [NH3+]CC(=O)[O-]
REMARK SMILES IDX 2 1 1 2 3 6 4 7 5 8
REMARK H PARENT 1 3 1 4 1 5
REMARK Flexibility Score: inf
ROOT
ATOM      1  C   UNL     1     -14.023 -32.045  -7.506  1.00  0.00     0.312 C 
ENDROOT
BRANCH   1   2
ATOM      2  N   UNL     1     -15.020 -31.711  -6.491  1.00  0.00    -0.353 N 
ATOM      3  H   UNL     1     -15.734 -31.059  -6.891  1.00  0.00     0.344 HD
ATOM      4  H   UNL     1     -15.488 -32.582  -6.148  1.00  0.00     0.344 HD
ATOM      5  H   UNL     1     -14.546 -31.242  -5.687  1.00  0.00     0.344 HD
ENDBRANCH   1   2
BRANCH   1   6
ATOM      6  C   UNL     1     -12.668 -32.202  -6.886  1.00  0.00     0.096 C 
ATOM      7  O   UNL     1     -11.632 -31.970  -7.562  1.00  0.00    -0.544 OA
ATOM      8  O   UNL     1     -12.551 -32.655  -5.578  1.00  0.00    -0.544 OA
ENDBRANCH   1   6
TORSDOF 2
ENDMDL
MODEL 6
REMARK VINA RESULT:    -2.961      2.058      2.350
REMARK INTER + INTRA:          -3.220
REMARK INTER:                  -3.220
REMARK INTRA:                   0.000
REMARK UNBOUND:                 0.000
REMARK SMILES [NH3+]CC(=O)[O-]
REMARK SMILES IDX 2 1 1 2 3 6 4 7 5 8
REMARK H PARENT 1 3 1 4 1 5
REMARK Flexibility Score: inf
ROOT
ATOM      1  C   UNL     1     -13.385 -32.739  -5.698  1.00  0.00     0.312 C 
ENDROOT
BRANCH   1   2
ATOM      2  N   UNL     1     -14.450 -31.972  -6.340  1.00  0.00    -0.353 N 
ATOM      3  H   UNL     1     -15.205 -31.757  -5.648  1.00  0.00     0.344 HD
ATOM      4  H   UNL     1     -14.065 -31.081  -6.731  1.00  0.00     0.344 HD
ATOM      5  H   UNL     1     -14.856 -32.536  -7.120  1.00  0.00     0.344 HD
ENDBRANCH   1   2
BRANCH   1   6
ATOM      6  C   UNL     1     -12.767 -33.699  -6.667  1.00  0.00     0.096 C 
ATOM      7  O   UNL     1     -11.913 -33.296  -7.500  1.00  0.00    -0.544 OA
ATOM      8  O   UNL     1     -13.171 -35.028  -6.683  1.00  0.00    -0.544 OA
ENDBRANCH   1   6
TORSDOF 2
ENDMDL
MODEL 7
REMARK VINA RESULT:    -2.715     10.166     10.332
REMARK INTER + INTRA:          -2.953
REMARK INTER:                  -2.953
REMARK INTRA:                   0.000
REMARK UNBOUND:                 0.000
REMARK SMILES [NH3+]CC(=O)[O-]
REMARK SMILES IDX 2 1 1 2 3 6 4 7 5 8
REMARK H PARENT 1 3 1 4 1 5
REMARK Flexibility Score: inf
ROOT
ATOM      1  C   UNL     1     -14.395 -23.262  -2.214  1.00  0.00     0.312 C 
ENDROOT
BRANCH   1   2
ATOM      2  N   UNL     1     -13.912 -22.254  -3.156  1.00  0.00    -0.353 N 
ATOM      3  H   UNL     1     -13.966 -22.621  -4.134  1.00  0.00     0.344 HD
ATOM      4  H   UNL     1     -14.486 -21.382  -3.074  1.00  0.00     0.344 HD
ATOM      5  H   UNL     1     -12.917 -22.026  -2.933  1.00  0.00     0.344 HD
ENDBRANCH   1   2
BRANCH   1   6
ATOM      6  C   UNL     1     -13.259 -24.089  -1.696  1.00  0.00     0.096 C 
ATOM      7  O   UNL     1     -12.135 -24.045  -2.261  1.00  0.00    -0.544 OA
ATOM      8  O   UNL     1     -13.457 -24.946  -0.620  1.00  0.00    -0.544 OA
ENDBRANCH   1   6
TORSDOF 2
ENDMDL
MODEL 8
REMARK VINA RESULT:    -2.679     10.396     10.452
REMARK INTER + INTRA:          -2.914
REMARK INTER:                  -2.914
REMARK INTRA:                   0.000
REMARK UNBOUND:                 0.000
REMARK SMILES [NH3+]CC(=O)[O-]
REMARK SMILES IDX 2 1 1 2 3 6 4 7 5 8
REMARK H PARENT 1 3 1 4 1 5
REMARK Flexibility Score: inf
ROOT
ATOM      1  C   UNL     1     -17.306 -37.832   1.854  1.00  0.00     0.312 C 
ENDROOT
BRANCH   1   2
ATOM      2  N   UNL     1     -18.758 -37.965   1.751  1.00  0.00    -0.353 N 
ATOM      3  H   UNL     1     -19.059 -38.899   2.113  1.00  0.00     0.344 HD
ATOM      4  H   UNL     1     -19.227 -37.206   2.297  1.00  0.00     0.344 HD
ATOM      5  H   UNL     1     -19.039 -37.883   0.748  1.00  0.00     0.344 HD
ENDBRANCH   1   2
BRANCH   1   6
ATOM      6  C   UNL     1     -16.924 -36.412   2.138  1.00  0.00     0.096 C 
ATOM      7  O   UNL     1     -15.746 -36.131   2.486  1.00  0.00    -0.544 OA
ATOM      8  O   UNL     1     -17.880 -35.407   2.069  1.00  0.00    -0.544 OA
ENDBRANCH   1   6
TORSDOF 2
ENDMDL
MODEL 9
REMARK VINA RESULT:    -2.656     10.645     10.774
REMARK INTER + INTRA:          -2.889
REMARK INTER:                  -2.889
REMARK INTRA:                   0.000
REMARK UNBOUND:                 0.000
REMARK SMILES [NH3+]CC(=O)[O-]
REMARK SMILES IDX 2 1 1 2 3 6 4 7 5 8
REMARK H PARENT 1 3 1 4 1 5
REMARK Flexibility Score: inf
ROOT
ATOM      1  C   UNL     1      -3.060 -33.420  -2.392  1.00  0.00     0.312 C 
ENDROOT
BRANCH   1   2
ATOM      2  N   UNL     1      -2.585 -34.668  -2.985  1.00  0.00    -0.353 N 
ATOM      3  H   UNL     1      -2.481 -35.400  -2.244  1.00  0.00     0.344 HD
ATOM      4  H   UNL     1      -3.259 -34.998  -3.715  1.00  0.00     0.344 HD
ATOM      5  H   UNL     1      -1.655 -34.504  -3.432  1.00  0.00     0.344 HD
ENDBRANCH   1   2
BRANCH   1   6
ATOM      6  C   UNL     1      -4.230 -33.672  -1.493  1.00  0.00     0.096 C 
ATOM      7  O   UNL     1      -4.634 -34.848  -1.293  1.00  0.00    -0.544 OA
ATOM      8  O   UNL     1      -4.908 -32.605  -0.917  1.00  0.00    -0.544 OA
ENDBRANCH   1   6
TORSDOF 2
ENDMDL
