MODEL 1
REMARK VINA RESULT:     1.476      0.000      0.000
REMARK INTER + INTRA:           1.339
REMARK INTER:                   1.864
REMARK INTRA:                  -0.525
REMARK UNBOUND:                -0.525
REMARK SMILES CC(C)=CCCC(C)=CCO
REMARK SMILES IDX 7 1 9 2 8 3 6 4 5 5 4 6 1 7 2 8 3 9 10 10 11 11
REMARK H PARENT 11 12
REMARK Flexibility Score: inf
ROOT
ATOM      1  C   UNL     1      37.170 -14.535 -20.361  1.00  0.00    -0.075 C 
ATOM      2  C   UNL     1      36.885 -15.773 -20.826  1.00  0.00    -0.000 C 
ATOM      3  C   UNL     1      36.489 -14.069 -19.101  1.00  0.00     0.039 C 
ENDROOT
BRANCH   1   4
ATOM      4  C   UNL     1      38.193 -13.626 -21.016  1.00  0.00     0.034 C 
BRANCH   4   5
ATOM      5  C   UNL     1      37.501 -12.478 -21.758  1.00  0.00     0.032 C 
BRANCH   5   6
ATOM      6  C   UNL     1      37.801 -11.148 -21.111  1.00  0.00    -0.028 C 
ATOM      7  C   UNL     1      37.208  -9.018 -19.993  1.00  0.00     0.039 C 
ATOM      8  C   UNL     1      36.837 -10.333 -20.629  1.00  0.00    -0.080 C 
ATOM      9  C   UNL     1      35.376 -10.701 -20.707  1.00  0.00     0.039 C 
ENDBRANCH   5   6
ENDBRANCH   4   5
ENDBRANCH   1   4
BRANCH   2  10
ATOM     10  C   UNL     1      37.493 -16.378 -22.066  1.00  0.00     0.183 C 
BRANCH  10  11
ATOM     11  O   UNL     1      38.732 -16.963 -21.772  1.00  0.00    -0.392 OA
ATOM     12  H   UNL     1      39.059 -16.534 -20.938  1.00  0.00     0.210 HD
ENDBRANCH  10  11
ENDBRANCH   2  10
TORSDOF 5
ENDMDL
MODEL 2
REMARK VINA RESULT:     1.926      1.779      2.441
REMARK INTER + INTRA:           1.907
REMARK INTER:                   2.212
REMARK INTRA:                  -0.305
REMARK UNBOUND:                -0.525
REMARK SMILES CC(C)=CCCC(C)=CCO
REMARK SMILES IDX 7 1 9 2 8 3 6 4 5 5 4 6 1 7 2 8 3 9 10 10 11 11
REMARK H PARENT 11 12
REMARK Flexibility Score: inf
ROOT
ATOM      1  C   UNL     1      37.449 -15.016 -20.998  1.00  0.00    -0.075 C 
ATOM      2  C   UNL     1      36.651 -15.044 -19.906  1.00  0.00    -0.000 C 
ATOM      3  C   UNL     1      37.410 -16.188 -21.943  1.00  0.00     0.039 C 
ENDROOT
BRANCH   1   4
ATOM      4  C   UNL     1      38.326 -13.829 -21.344  1.00  0.00     0.034 C 
BRANCH   4   5
ATOM      5  C   UNL     1      37.481 -12.671 -21.887  1.00  0.00     0.032 C 
BRANCH   5   6
ATOM      6  C   UNL     1      37.837 -11.369 -21.211  1.00  0.00    -0.028 C 
ATOM      7  C   UNL     1      37.335  -9.249 -20.033  1.00  0.00     0.039 C 
ATOM      8  C   UNL     1      36.909 -10.533 -20.696  1.00  0.00    -0.080 C 
ATOM      9  C   UNL     1      35.436 -10.847 -20.762  1.00  0.00     0.039 C 
ENDBRANCH   5   6
ENDBRANCH   4   5
ENDBRANCH   1   4
BRANCH   2  10
ATOM     10  C   UNL     1      36.575 -13.944 -18.878  1.00  0.00     0.183 C 
BRANCH  10  11
ATOM     11  O   UNL     1      35.468 -14.130 -18.038  1.00  0.00    -0.392 OA
ATOM     12  H   UNL     1      35.571 -13.490 -17.286  1.00  0.00     0.210 HD
ENDBRANCH  10  11
ENDBRANCH   2  10
TORSDOF 5
ENDMDL
MODEL 3
REMARK VINA RESULT:     2.009      2.591      5.481
REMARK INTER + INTRA:           2.013
REMARK INTER:                   2.273
REMARK INTRA:                  -0.260
REMARK UNBOUND:                -0.525
REMARK SMILES CC(C)=CCCC(C)=CCO
REMARK SMILES IDX 7 1 9 2 8 3 6 4 5 5 4 6 1 7 2 8 3 9 10 10 11 11
REMARK H PARENT 11 12
REMARK Flexibility Score: inf
ROOT
ATOM      1  C   UNL     1      36.714 -10.472 -20.670  1.00  0.00    -0.075 C 
ATOM      2  C   UNL     1      37.163  -9.272 -20.235  1.00  0.00    -0.000 C 
ATOM      3  C   UNL     1      35.227 -10.689 -20.763  1.00  0.00     0.039 C 
ENDROOT
BRANCH   1   4
ATOM      4  C   UNL     1      37.643 -11.578 -21.131  1.00  0.00     0.034 C 
BRANCH   4   5
ATOM      5  C   UNL     1      37.266 -12.910 -20.474  1.00  0.00     0.032 C 
BRANCH   5   6
ATOM      6  C   UNL     1      37.730 -14.082 -21.306  1.00  0.00    -0.028 C 
ATOM      7  C   UNL     1      37.879 -16.479 -21.910  1.00  0.00     0.039 C 
ATOM      8  C   UNL     1      37.378 -15.358 -21.036  1.00  0.00    -0.080 C 
ATOM      9  C   UNL     1      36.486 -15.704 -19.871  1.00  0.00     0.039 C 
ENDBRANCH   5   6
ENDBRANCH   4   5
ENDBRANCH   1   4
BRANCH   2  10
ATOM     10  C   UNL     1      38.618  -8.905 -20.098  1.00  0.00     0.183 C 
BRANCH  10  11
ATOM     11  O   UNL     1      39.124  -9.343 -18.867  1.00  0.00    -0.392 OA
ATOM     12  H   UNL     1      39.186  -8.542 -18.283  1.00  0.00     0.210 HD
ENDBRANCH  10  11
ENDBRANCH   2  10
TORSDOF 5
ENDMDL
MODEL 4
REMARK VINA RESULT:     3.231      2.826      5.503
REMARK INTER + INTRA:           3.557
REMARK INTER:                   2.981
REMARK INTRA:                   0.575
REMARK UNBOUND:                -0.525
REMARK SMILES CC(C)=CCCC(C)=CCO
REMARK SMILES IDX 7 1 9 2 8 3 6 4 5 5 4 6 1 7 2 8 3 9 10 10 11 11
REMARK H PARENT 11 12
REMARK Flexibility Score: inf
ROOT
ATOM      1  C   UNL     1      37.278 -11.490 -21.053  1.00  0.00    -0.075 C 
ATOM      2  C   UNL     1      37.727 -10.241 -20.789  1.00  0.00    -0.000 C 
ATOM      3  C   UNL     1      37.826 -12.207 -22.259  1.00  0.00     0.039 C 
ENDROOT
BRANCH   1   4
ATOM      4  C   UNL     1      36.302 -12.220 -20.152  1.00  0.00     0.034 C 
BRANCH   4   5
ATOM      5  C   UNL     1      36.945 -13.482 -19.567  1.00  0.00     0.032 C 
BRANCH   5   6
ATOM      6  C   UNL     1      37.593 -14.317 -20.645  1.00  0.00    -0.028 C 
ATOM      7  C   UNL     1      37.974 -16.389 -21.947  1.00  0.00     0.039 C 
ATOM      8  C   UNL     1      37.287 -15.616 -20.851  1.00  0.00    -0.080 C 
ATOM      9  C   UNL     1      36.264 -16.332 -20.005  1.00  0.00     0.039 C 
ENDBRANCH   5   6
ENDBRANCH   4   5
ENDBRANCH   1   4
BRANCH   2  10
ATOM     10  C   UNL     1      37.279  -9.405 -19.617  1.00  0.00     0.183 C 
BRANCH  10  11
ATOM     11  O   UNL     1      36.180  -8.611 -19.969  1.00  0.00    -0.392 OA
ATOM     12  H   UNL     1      36.190  -7.826 -19.361  1.00  0.00     0.210 HD
ENDBRANCH  10  11
ENDBRANCH   2  10
TORSDOF 5
ENDMDL
MODEL 5
REMARK VINA RESULT:     4.146      1.648      2.170
REMARK INTER + INTRA:           4.712
REMARK INTER:                   3.812
REMARK INTRA:                   0.901
REMARK UNBOUND:                -0.525
REMARK SMILES CC(C)=CCCC(C)=CCO
REMARK SMILES IDX 7 1 9 2 8 3 6 4 5 5 4 6 1 7 2 8 3 9 10 10 11 11
REMARK H PARENT 11 12
REMARK Flexibility Score: inf
ROOT
ATOM      1  C   UNL     1      37.623 -14.024 -21.147  1.00  0.00    -0.075 C 
ATOM      2  C   UNL     1      37.360 -15.351 -21.100  1.00  0.00    -0.000 C 
ATOM      3  C   UNL     1      38.386 -13.487 -22.329  1.00  0.00     0.039 C 
ENDROOT
BRANCH   1   4
ATOM      4  C   UNL     1      37.123 -13.050 -20.098  1.00  0.00     0.034 C 
BRANCH   4   5
ATOM      5  C   UNL     1      36.326 -11.915 -20.749  1.00  0.00     0.032 C 
BRANCH   5   6
ATOM      6  C   UNL     1      37.209 -10.726 -21.047  1.00  0.00    -0.028 C 
ATOM      7  C   UNL     1      38.173  -8.488 -20.608  1.00  0.00     0.039 C 
ATOM      8  C   UNL     1      37.268  -9.639 -20.249  1.00  0.00    -0.080 C 
ATOM      9  C   UNL     1      36.446  -9.534 -18.989  1.00  0.00     0.039 C 
ENDBRANCH   5   6
ENDBRANCH   4   5
ENDBRANCH   1   4
BRANCH   2  10
ATOM     10  C   UNL     1      36.600 -16.030 -19.989  1.00  0.00     0.183 C 
BRANCH  10  11
ATOM     11  O   UNL     1      36.276 -15.113 -18.981  1.00  0.00    -0.392 OA
ATOM     12  H   UNL     1      35.290 -15.144 -18.874  1.00  0.00     0.210 HD
ENDBRANCH  10  11
ENDBRANCH   2  10
TORSDOF 5
ENDMDL
MODEL 6
REMARK VINA RESULT:     4.196      3.227      4.849
REMARK INTER + INTRA:           4.775
REMARK INTER:                   5.044
REMARK INTRA:                  -0.270
REMARK UNBOUND:                -0.525
REMARK SMILES CC(C)=CCCC(C)=CCO
REMARK SMILES IDX 7 1 9 2 8 3 6 4 5 5 4 6 1 7 2 8 3 9 10 10 11 11
REMARK H PARENT 11 12
REMARK Flexibility Score: inf
ROOT
ATOM      1  C   UNL     1      37.290 -10.286 -20.391  1.00  0.00    -0.075 C 
ATOM      2  C   UNL     1      36.801 -11.490 -20.766  1.00  0.00    -0.000 C 
ATOM      3  C   UNL     1      36.314  -9.173 -20.112  1.00  0.00     0.039 C 
ENDROOT
BRANCH   1   4
ATOM      4  C   UNL     1      38.769 -10.031 -20.174  1.00  0.00     0.034 C 
BRANCH   4   5
ATOM      5  C   UNL     1      38.987  -9.087 -18.986  1.00  0.00     0.032 C 
BRANCH   5   6
ATOM      6  C   UNL     1      40.210  -9.479 -18.193  1.00  0.00    -0.028 C 
ATOM      7  C   UNL     1      42.468  -9.122 -17.238  1.00  0.00     0.039 C 
ATOM      8  C   UNL     1      41.280  -8.667 -18.045  1.00  0.00    -0.080 C 
ATOM      9  C   UNL     1      41.326  -7.296 -18.672  1.00  0.00     0.039 C 
ENDBRANCH   5   6
ENDBRANCH   4   5
ENDBRANCH   1   4
BRANCH   2  10
ATOM     10  C   UNL     1      37.651 -12.698 -21.069  1.00  0.00     0.183 C 
BRANCH  10  11
ATOM     11  O   UNL     1      37.272 -13.782 -20.266  1.00  0.00    -0.392 OA
ATOM     12  H   UNL     1      38.111 -14.195 -19.932  1.00  0.00     0.210 HD
ENDBRANCH  10  11
ENDBRANCH   2  10
TORSDOF 5
ENDMDL
MODEL 7
REMARK VINA RESULT:     4.450     13.433     14.961
REMARK INTER + INTRA:           5.096
REMARK INTER:                   5.314
REMARK INTRA:                  -0.218
REMARK UNBOUND:                -0.525
REMARK SMILES CC(C)=CCCC(C)=CCO
REMARK SMILES IDX 7 1 9 2 8 3 6 4 5 5 4 6 1 7 2 8 3 9 10 10 11 11
REMARK H PARENT 11 12
REMARK Flexibility Score: inf
ROOT
ATOM      1  C   UNL     1      41.344  -5.153  -9.615  1.00  0.00    -0.075 C 
ATOM      2  C   UNL     1      40.935  -3.865  -9.676  1.00  0.00    -0.000 C 
ATOM      3  C   UNL     1      41.366  -5.834  -8.272  1.00  0.00     0.039 C 
ENDROOT
BRANCH   1   4
ATOM      4  C   UNL     1      41.716  -5.956 -10.847  1.00  0.00     0.034 C 
BRANCH   4   5
ATOM      5  C   UNL     1      41.873  -7.440 -10.498  1.00  0.00     0.032 C 
BRANCH   5   6
ATOM      6  C   UNL     1      43.310  -7.781 -10.186  1.00  0.00    -0.028 C 
ATOM      7  C   UNL     1      45.125  -8.856  -8.888  1.00  0.00     0.039 C 
ATOM      8  C   UNL     1      43.670  -8.556  -9.140  1.00  0.00    -0.080 C 
ATOM      9  C   UNL     1      42.647  -9.141  -8.199  1.00  0.00     0.039 C 
ENDBRANCH   5   6
ENDBRANCH   4   5
ENDBRANCH   1   4
BRANCH   2  10
ATOM     10  C   UNL     1      40.851  -3.056 -10.946  1.00  0.00     0.183 C 
BRANCH  10  11
ATOM     11  O   UNL     1      40.107  -1.888 -10.739  1.00  0.00    -0.392 OA
ATOM     12  H   UNL     1      39.552  -2.043  -9.930  1.00  0.00     0.210 HD
ENDBRANCH  10  11
ENDBRANCH   2  10
TORSDOF 5
ENDMDL
