MODEL 1
REMARK VINA RESULT:    -4.345      0.000      0.000
REMARK INTER + INTRA:          -6.762
REMARK INTER:                  -5.869
REMARK INTRA:                  -0.893
REMARK UNBOUND:                -0.893
REMARK SMILES CC(=O)CCC=C(C)CCC=C(C)C
REMARK SMILES IDX 7 1 6 2 8 3 9 4 10 5 11 6 13 7 12 8 14 9 5 10 4 11 2 12 3 13
REMARK SMILES IDX 1 14
REMARK H PARENT
REMARK Flexibility Score: inf
ROOT
ATOM      1  C   UNL     1      16.211  11.470  26.041  1.00  0.00    -0.077 C 
ATOM      2  C   UNL     1      16.897  10.737  25.137  1.00  0.00    -0.028 C 
ATOM      3  C   UNL     1      14.919  10.970  26.644  1.00  0.00     0.039 C 
ENDROOT
BRANCH   1   4
ATOM      4  C   UNL     1      16.749  12.823  26.462  1.00  0.00     0.034 C 
BRANCH   4   5
ATOM      5  C   UNL     1      16.941  13.761  25.262  1.00  0.00     0.032 C 
BRANCH   5   6
ATOM      6  C   UNL     1      16.107  15.014  25.391  1.00  0.00    -0.028 C 
ATOM      7  C   UNL     1      14.109  16.432  25.221  1.00  0.00     0.039 C 
ATOM      8  C   UNL     1      14.827  15.130  24.975  1.00  0.00    -0.080 C 
ATOM      9  C   UNL     1      14.112  14.008  24.259  1.00  0.00     0.039 C 
ENDBRANCH   5   6
ENDBRANCH   4   5
ENDBRANCH   1   4
BRANCH   2  10
ATOM     10  C   UNL     1      16.442   9.377  24.664  1.00  0.00     0.035 C 
BRANCH  10  11
ATOM     11  C   UNL     1      17.191   8.256  25.399  1.00  0.00     0.079 C 
BRANCH  11  12
ATOM     12  C   UNL     1      16.302   7.151  25.924  1.00  0.00     0.130 C 
ATOM     13  O   UNL     1      16.830   6.130  26.338  1.00  0.00    -0.300 OA
ATOM     14  C   UNL     1      14.802   7.253  25.959  1.00  0.00     0.087 C 
ENDBRANCH  11  12
ENDBRANCH  10  11
ENDBRANCH   2  10
TORSDOF 6
ENDMDL
MODEL 2
REMARK VINA RESULT:    -4.339      2.660      6.285
REMARK INTER + INTRA:          -6.755
REMARK INTER:                  -5.732
REMARK INTRA:                  -1.022
REMARK UNBOUND:                -0.893
REMARK SMILES CC(=O)CCC=C(C)CCC=C(C)C
REMARK SMILES IDX 7 1 6 2 8 3 9 4 10 5 11 6 13 7 12 8 14 9 5 10 4 11 2 12 3 13
REMARK SMILES IDX 1 14
REMARK H PARENT
REMARK Flexibility Score: inf
ROOT
ATOM      1  C   UNL     1      14.046  10.679  26.652  1.00  0.00    -0.077 C 
ATOM      2  C   UNL     1      13.849  11.548  25.636  1.00  0.00    -0.028 C 
ATOM      3  C   UNL     1      14.960  11.013  27.807  1.00  0.00     0.039 C 
ENDROOT
BRANCH   1   4
ATOM      4  C   UNL     1      13.333   9.341  26.634  1.00  0.00     0.034 C 
BRANCH   4   5
ATOM      5  C   UNL     1      13.788   8.466  25.457  1.00  0.00     0.032 C 
BRANCH   5   6
ATOM      6  C   UNL     1      14.755   7.393  25.898  1.00  0.00    -0.028 C 
ATOM      7  C   UNL     1      16.935   6.345  26.324  1.00  0.00     0.039 C 
ATOM      8  C   UNL     1      16.099   7.480  25.790  1.00  0.00    -0.080 C 
ATOM      9  C   UNL     1      16.776   8.662  25.138  1.00  0.00     0.039 C 
ENDBRANCH   5   6
ENDBRANCH   4   5
ENDBRANCH   1   4
BRANCH   2  10
ATOM     10  C   UNL     1      14.510  12.903  25.572  1.00  0.00     0.035 C 
BRANCH  10  11
ATOM     11  C   UNL     1      15.807  12.850  24.752  1.00  0.00     0.079 C 
BRANCH  11  12
ATOM     12  C   UNL     1      16.909  13.748  25.268  1.00  0.00     0.130 C 
ATOM     13  O   UNL     1      17.943  13.827  24.621  1.00  0.00    -0.300 OA
ATOM     14  C   UNL     1      16.790  14.545  26.538  1.00  0.00     0.087 C 
ENDBRANCH  11  12
ENDBRANCH  10  11
ENDBRANCH   2  10
TORSDOF 6
ENDMDL
MODEL 3
REMARK VINA RESULT:    -4.312      2.681      6.424
REMARK INTER + INTRA:          -6.718
REMARK INTER:                  -5.784
REMARK INTRA:                  -0.934
REMARK UNBOUND:                -0.893
REMARK SMILES CC(=O)CCC=C(C)CCC=C(C)C
REMARK SMILES IDX 7 1 6 2 8 3 9 4 10 5 11 6 13 7 12 8 14 9 5 10 4 11 2 12 3 13
REMARK SMILES IDX 1 14
REMARK H PARENT
REMARK Flexibility Score: inf
ROOT
ATOM      1  C   UNL     1      15.302  11.498  27.172  1.00  0.00    -0.077 C 
ATOM      2  C   UNL     1      16.012  11.982  26.129  1.00  0.00    -0.028 C 
ATOM      3  C   UNL     1      15.554  11.973  28.584  1.00  0.00     0.039 C 
ENDROOT
BRANCH   1   4
ATOM      4  C   UNL     1      14.229  10.457  26.921  1.00  0.00     0.034 C 
BRANCH   4   5
ATOM      5  C   UNL     1      14.522   9.625  25.665  1.00  0.00     0.032 C 
BRANCH   5   6
ATOM      6  C   UNL     1      15.001   8.236  26.012  1.00  0.00    -0.028 C 
ATOM      7  C   UNL     1      16.595   6.380  26.241  1.00  0.00     0.039 C 
ATOM      8  C   UNL     1      16.253   7.778  25.790  1.00  0.00    -0.080 C 
ATOM      9  C   UNL     1      17.300   8.613  25.091  1.00  0.00     0.039 C 
ENDBRANCH   5   6
ENDBRANCH   4   5
ENDBRANCH   1   4
BRANCH   2  10
ATOM     10  C   UNL     1      17.093  13.024  26.282  1.00  0.00     0.035 C 
BRANCH  10  11
ATOM     11  C   UNL     1      16.802  14.257  25.413  1.00  0.00     0.079 C 
BRANCH  11  12
ATOM     12  C   UNL     1      15.732  15.171  25.966  1.00  0.00     0.130 C 
ATOM     13  O   UNL     1      15.632  15.278  27.180  1.00  0.00    -0.300 OA
ATOM     14  C   UNL     1      14.790  15.953  25.093  1.00  0.00     0.087 C 
ENDBRANCH  11  12
ENDBRANCH  10  11
ENDBRANCH   2  10
TORSDOF 6
ENDMDL
MODEL 4
REMARK VINA RESULT:    -4.301      1.299      1.868
REMARK INTER + INTRA:          -6.702
REMARK INTER:                  -5.591
REMARK INTRA:                  -1.112
REMARK UNBOUND:                -0.893
REMARK SMILES CC(=O)CCC=C(C)CCC=C(C)C
REMARK SMILES IDX 7 1 6 2 8 3 9 4 10 5 11 6 13 7 12 8 14 9 5 10 4 11 2 12 3 13
REMARK SMILES IDX 1 14
REMARK H PARENT
REMARK Flexibility Score: inf
ROOT
ATOM      1  C   UNL     1      15.315  11.101  26.539  1.00  0.00    -0.077 C 
ATOM      2  C   UNL     1      16.509  10.736  26.025  1.00  0.00    -0.028 C 
ATOM      3  C   UNL     1      14.024  10.830  25.802  1.00  0.00     0.039 C 
ENDROOT
BRANCH   1   4
ATOM      4  C   UNL     1      15.266  11.797  27.885  1.00  0.00     0.034 C 
BRANCH   4   5
ATOM      5  C   UNL     1      16.074  13.102  27.883  1.00  0.00     0.032 C 
BRANCH   5   6
ATOM      6  C   UNL     1      15.392  14.182  27.077  1.00  0.00    -0.028 C 
ATOM      7  C   UNL     1      15.070  15.767  25.228  1.00  0.00     0.039 C 
ATOM      8  C   UNL     1      15.896  14.734  25.952  1.00  0.00    -0.080 C 
ATOM      9  C   UNL     1      17.258  14.360  25.416  1.00  0.00     0.039 C 
ENDBRANCH   5   6
ENDBRANCH   4   5
ENDBRANCH   1   4
BRANCH   2  10
ATOM     10  C   UNL     1      16.654  10.033  24.697  1.00  0.00     0.035 C 
BRANCH  10  11
ATOM     11  C   UNL     1      17.245   8.627  24.876  1.00  0.00     0.079 C 
BRANCH  11  12
ATOM     12  C   UNL     1      16.236   7.570  25.265  1.00  0.00     0.130 C 
ATOM     13  O   UNL     1      15.122   7.621  24.765  1.00  0.00    -0.300 OA
ATOM     14  C   UNL     1      16.541   6.464  26.237  1.00  0.00     0.087 C 
ENDBRANCH  11  12
ENDBRANCH  10  11
ENDBRANCH   2  10
TORSDOF 6
ENDMDL
MODEL 5
REMARK VINA RESULT:    -4.287      2.704      6.150
REMARK INTER + INTRA:          -6.684
REMARK INTER:                  -5.862
REMARK INTRA:                  -0.821
REMARK UNBOUND:                -0.893
REMARK SMILES CC(=O)CCC=C(C)CCC=C(C)C
REMARK SMILES IDX 7 1 6 2 8 3 9 4 10 5 11 6 13 7 12 8 14 9 5 10 4 11 2 12 3 13
REMARK SMILES IDX 1 14
REMARK H PARENT
REMARK Flexibility Score: inf
ROOT
ATOM      1  C   UNL     1      16.445  10.353  25.480  1.00  0.00    -0.077 C 
ATOM      2  C   UNL     1      16.713  11.190  24.453  1.00  0.00    -0.028 C 
ATOM      3  C   UNL     1      15.582  10.784  26.643  1.00  0.00     0.039 C 
ENDROOT
BRANCH   1   4
ATOM      4  C   UNL     1      17.020   8.951  25.465  1.00  0.00     0.034 C 
BRANCH   4   5
ATOM      5  C   UNL     1      15.960   7.894  25.808  1.00  0.00     0.032 C 
BRANCH   5   6
ATOM      6  C   UNL     1      15.081   7.578  24.622  1.00  0.00    -0.028 C 
ATOM      7  C   UNL     1      13.011   7.460  23.304  1.00  0.00     0.039 C 
ATOM      8  C   UNL     1      13.746   7.779  24.581  1.00  0.00    -0.080 C 
ATOM      9  C   UNL     1      12.975   8.292  25.775  1.00  0.00     0.039 C 
ENDBRANCH   5   6
ENDBRANCH   4   5
ENDBRANCH   1   4
BRANCH   2  10
ATOM     10  C   UNL     1      16.179  12.600  24.379  1.00  0.00     0.035 C 
BRANCH  10  11
ATOM     11  C   UNL     1      17.149  13.595  25.031  1.00  0.00     0.079 C 
BRANCH  11  12
ATOM     12  C   UNL     1      16.479  14.663  25.868  1.00  0.00     0.130 C 
ATOM     13  O   UNL     1      16.831  14.794  27.030  1.00  0.00    -0.300 OA
ATOM     14  C   UNL     1      15.402  15.567  25.334  1.00  0.00     0.087 C 
ENDBRANCH  11  12
ENDBRANCH  10  11
ENDBRANCH   2  10
TORSDOF 6
ENDMDL
MODEL 6
REMARK VINA RESULT:    -4.214      3.118      7.024
REMARK INTER + INTRA:          -6.586
REMARK INTER:                  -5.992
REMARK INTRA:                  -0.594
REMARK UNBOUND:                -0.893
REMARK SMILES CC(=O)CCC=C(C)CCC=C(C)C
REMARK SMILES IDX 7 1 6 2 8 3 9 4 10 5 11 6 13 7 12 8 14 9 5 10 4 11 2 12 3 13
REMARK SMILES IDX 1 14
REMARK H PARENT
REMARK Flexibility Score: inf
ROOT
ATOM      1  C   UNL     1      15.418  11.737  25.310  1.00  0.00    -0.077 C 
ATOM      2  C   UNL     1      15.628  12.875  24.613  1.00  0.00    -0.028 C 
ATOM      3  C   UNL     1      14.035  11.339  25.771  1.00  0.00     0.039 C 
ENDROOT
BRANCH   1   4
ATOM      4  C   UNL     1      16.594  10.838  25.636  1.00  0.00     0.034 C 
BRANCH   4   5
ATOM      5  C   UNL     1      16.723   9.680  24.637  1.00  0.00     0.032 C 
BRANCH   5   6
ATOM      6  C   UNL     1      17.089   8.386  25.324  1.00  0.00    -0.028 C 
ATOM      7  C   UNL     1      16.726   6.178  26.339  1.00  0.00     0.039 C 
ATOM      8  C   UNL     1      16.201   7.443  25.709  1.00  0.00    -0.080 C 
ATOM      9  C   UNL     1      14.711   7.631  25.545  1.00  0.00     0.039 C 
ENDBRANCH   5   6
ENDBRANCH   4   5
ENDBRANCH   1   4
BRANCH   2  10
ATOM     10  C   UNL     1      14.518  13.827  24.237  1.00  0.00     0.035 C 
BRANCH  10  11
ATOM     11  C   UNL     1      14.631  15.146  25.015  1.00  0.00     0.079 C 
BRANCH  11  12
ATOM     12  C   UNL     1      13.724  16.246  24.513  1.00  0.00     0.130 C 
ATOM     13  O   UNL     1      13.312  16.179  23.364  1.00  0.00    -0.300 OA
ATOM     14  C   UNL     1      13.307  17.416  25.361  1.00  0.00     0.087 C 
ENDBRANCH  11  12
ENDBRANCH  10  11
ENDBRANCH   2  10
TORSDOF 6
ENDMDL
MODEL 7
REMARK VINA RESULT:    -4.123      2.845      5.443
REMARK INTER + INTRA:          -6.462
REMARK INTER:                  -5.217
REMARK INTRA:                  -1.245
REMARK UNBOUND:                -0.893
REMARK SMILES CC(=O)CCC=C(C)CCC=C(C)C
REMARK SMILES IDX 7 1 6 2 8 3 9 4 10 5 11 6 13 7 12 8 14 9 5 10 4 11 2 12 3 13
REMARK SMILES IDX 1 14
REMARK H PARENT
REMARK Flexibility Score: inf
ROOT
ATOM      1  C   UNL     1      15.425  11.297  26.110  1.00  0.00    -0.077 C 
ATOM      2  C   UNL     1      15.311  10.814  27.366  1.00  0.00    -0.028 C 
ATOM      3  C   UNL     1      14.256  11.947  25.407  1.00  0.00     0.039 C 
ENDROOT
BRANCH   1   4
ATOM      4  C   UNL     1      16.753  11.187  25.389  1.00  0.00     0.034 C 
BRANCH   4   5
ATOM      5  C   UNL     1      16.814   9.943  24.490  1.00  0.00     0.032 C 
BRANCH   5   6
ATOM      6  C   UNL     1      17.207   8.710  25.267  1.00  0.00    -0.028 C 
ATOM      7  C   UNL     1      16.932   6.491  26.286  1.00  0.00     0.039 C 
ATOM      8  C   UNL     1      16.378   7.680  25.543  1.00  0.00    -0.080 C 
ATOM      9  C   UNL     1      14.920   7.696  25.146  1.00  0.00     0.039 C 
ENDBRANCH   5   6
ENDBRANCH   4   5
ENDBRANCH   1   4
BRANCH   2  10
ATOM     10  C   UNL     1      14.032  10.887  28.164  1.00  0.00     0.035 C 
BRANCH  10  11
ATOM     11  C   UNL     1      13.326   9.523  28.205  1.00  0.00     0.079 C 
BRANCH  11  12
ATOM     12  C   UNL     1      11.951   9.513  27.577  1.00  0.00     0.130 C 
ATOM     13  O   UNL     1      10.977   9.566  28.313  1.00  0.00    -0.300 OA
ATOM     14  C   UNL     1      11.729   9.440  26.091  1.00  0.00     0.087 C 
ENDBRANCH  11  12
ENDBRANCH  10  11
ENDBRANCH   2  10
TORSDOF 6
ENDMDL
MODEL 8
REMARK VINA RESULT:    -4.023      1.396      2.301
REMARK INTER + INTRA:          -6.328
REMARK INTER:                  -5.398
REMARK INTRA:                  -0.930
REMARK UNBOUND:                -0.893
REMARK SMILES CC(=O)CCC=C(C)CCC=C(C)C
REMARK SMILES IDX 7 1 6 2 8 3 9 4 10 5 11 6 13 7 12 8 14 9 5 10 4 11 2 12 3 13
REMARK SMILES IDX 1 14
REMARK H PARENT
REMARK Flexibility Score: inf
ROOT
ATOM      1  C   UNL     1      16.883  13.464  25.885  1.00  0.00    -0.077 C 
ATOM      2  C   UNL     1      16.346  12.248  26.129  1.00  0.00    -0.028 C 
ATOM      3  C   UNL     1      17.730  13.719  24.660  1.00  0.00     0.039 C 
ENDROOT
BRANCH   1   4
ATOM      4  C   UNL     1      16.629  14.597  26.859  1.00  0.00     0.034 C 
BRANCH   4   5
ATOM      5  C   UNL     1      15.143  14.979  26.918  1.00  0.00     0.032 C 
BRANCH   5   6
ATOM      6  C   UNL     1      14.697  15.687  25.661  1.00  0.00    -0.028 C 
ATOM      7  C   UNL     1      13.419  16.044  23.594  1.00  0.00     0.039 C 
ATOM      8  C   UNL     1      13.803  15.193  24.778  1.00  0.00    -0.080 C 
ATOM      9  C   UNL     1      13.198  13.817  24.933  1.00  0.00     0.039 C 
ENDBRANCH   5   6
ENDBRANCH   4   5
ENDBRANCH   1   4
BRANCH   2  10
ATOM     10  C   UNL     1      16.539  11.064  25.213  1.00  0.00     0.035 C 
BRANCH  10  11
ATOM     11  C   UNL     1      15.604   9.908  25.597  1.00  0.00     0.079 C 
BRANCH  11  12
ATOM     12  C   UNL     1      16.060   8.549  25.114  1.00  0.00     0.130 C 
ATOM     13  O   UNL     1      15.351   7.949  24.320  1.00  0.00    -0.300 OA
ATOM     14  C   UNL     1      17.343   7.907  25.565  1.00  0.00     0.087 C 
ENDBRANCH  11  12
ENDBRANCH  10  11
ENDBRANCH   2  10
TORSDOF 6
ENDMDL
MODEL 9
REMARK VINA RESULT:    -3.996     10.067     11.471
REMARK INTER + INTRA:          -6.291
REMARK INTER:                  -5.157
REMARK INTRA:                  -1.134
REMARK UNBOUND:                -0.893
REMARK SMILES CC(=O)CCC=C(C)CCC=C(C)C
REMARK SMILES IDX 7 1 6 2 8 3 9 4 10 5 11 6 13 7 12 8 14 9 5 10 4 11 2 12 3 13
REMARK SMILES IDX 1 14
REMARK H PARENT
REMARK Flexibility Score: inf
ROOT
ATOM      1  C   UNL     1      15.700   1.878  19.009  1.00  0.00    -0.077 C 
ATOM      2  C   UNL     1      14.676   2.137  19.852  1.00  0.00    -0.028 C 
ATOM      3  C   UNL     1      15.642   0.731  18.027  1.00  0.00     0.039 C 
ENDROOT
BRANCH   1   4
ATOM      4  C   UNL     1      16.933   2.758  19.046  1.00  0.00     0.034 C 
BRANCH   4   5
ATOM      5  C   UNL     1      17.088   3.582  17.760  1.00  0.00     0.032 C 
BRANCH   5   6
ATOM      6  C   UNL     1      16.379   4.912  17.858  1.00  0.00    -0.028 C 
ATOM      7  C   UNL     1      14.622   6.578  17.443  1.00  0.00     0.039 C 
ATOM      8  C   UNL     1      15.240   5.224  17.202  1.00  0.00    -0.080 C 
ATOM      9  C   UNL     1      14.587   4.271  16.230  1.00  0.00     0.039 C 
ENDBRANCH   5   6
ENDBRANCH   4   5
ENDBRANCH   1   4
BRANCH   2  10
ATOM     10  C   UNL     1      13.407   1.320  19.880  1.00  0.00     0.035 C 
BRANCH  10  11
ATOM     11  C   UNL     1      13.323   0.470  21.157  1.00  0.00     0.079 C 
BRANCH  11  12
ATOM     12  C   UNL     1      14.263  -0.714  21.181  1.00  0.00     0.130 C 
ATOM     13  O   UNL     1      13.964  -1.704  20.530  1.00  0.00    -0.300 OA
ATOM     14  C   UNL     1      15.545  -0.728  21.967  1.00  0.00     0.087 C 
ENDBRANCH  11  12
ENDBRANCH  10  11
ENDBRANCH   2  10
TORSDOF 6
ENDMDL
