MODEL 1
REMARK VINA RESULT:    -4.368      0.000      0.000
REMARK INTER + INTRA:          -6.471
REMARK INTER:                  -6.156
REMARK INTRA:                  -0.315
REMARK UNBOUND:                -0.315
REMARK SMILES CCCCCCCCC(=O)[O-]
REMARK SMILES IDX 6 1 7 2 8 3 9 4 10 5 11 6 5 7 4 8 3 9 2 10 1 11
REMARK H PARENT
REMARK Flexibility Score: inf
ROOT
ATOM      1  C   UNL     1       4.151 -36.570  19.126  1.00  0.00     0.000 C 
ENDROOT
BRANCH   1   2
ATOM      2  C   UNL     1       5.303 -36.692  20.131  1.00  0.00     0.006 C 
BRANCH   2   3
ATOM      3  C   UNL     1       4.972 -37.709  21.227  1.00  0.00     0.053 C 
BRANCH   3   4
ATOM      4  C   UNL     1       5.049 -37.068  22.576  1.00  0.00     0.041 C 
ATOM      5  O   UNL     1       4.853 -35.830  22.702  1.00  0.00    -0.550 OA
ATOM      6  O   UNL     1       5.288 -37.844  23.703  1.00  0.00    -0.550 OA
ENDBRANCH   3   4
ENDBRANCH   2   3
ENDBRANCH   1   2
BRANCH   1   7
ATOM      7  C   UNL     1       3.521 -37.939  18.841  1.00  0.00     0.000 C 
BRANCH   7   8
ATOM      8  C   UNL     1       2.609 -37.877  17.606  1.00  0.00    -0.000 C 
BRANCH   8   9
ATOM      9  C   UNL     1       3.103 -36.870  16.555  1.00  0.00    -0.000 C 
BRANCH   9  10
ATOM     10  C   UNL     1       2.502 -37.124  15.165  1.00  0.00    -0.003 C 
ATOM     11  C   UNL     1       3.498 -37.846  14.260  1.00  0.00     0.004 C 
ENDBRANCH   9  10
ENDBRANCH   8   9
ENDBRANCH   7   8
ENDBRANCH   1   7
TORSDOF 7
ENDMDL
MODEL 2
REMARK VINA RESULT:    -4.361      1.531      2.198
REMARK INTER + INTRA:          -6.461
REMARK INTER:                  -6.194
REMARK INTRA:                  -0.267
REMARK UNBOUND:                -0.315
REMARK SMILES CCCCCCCCC(=O)[O-]
REMARK SMILES IDX 6 1 7 2 8 3 9 4 10 5 11 6 5 7 4 8 3 9 2 10 1 11
REMARK H PARENT
REMARK Flexibility Score: inf
ROOT
ATOM      1  C   UNL     1       5.329 -36.470  20.640  1.00  0.00     0.000 C 
ENDROOT
BRANCH   1   2
ATOM      2  C   UNL     1       4.993 -37.588  21.634  1.00  0.00     0.006 C 
BRANCH   2   3
ATOM      3  C   UNL     1       5.057 -37.079  23.077  1.00  0.00     0.053 C 
BRANCH   3   4
ATOM      4  C   UNL     1       4.922 -38.217  24.039  1.00  0.00     0.041 C 
ATOM      5  O   UNL     1       4.885 -39.403  23.619  1.00  0.00    -0.550 OA
ATOM      6  O   UNL     1       4.884 -37.971  25.406  1.00  0.00    -0.550 OA
ENDBRANCH   3   4
ENDBRANCH   2   3
ENDBRANCH   1   2
BRANCH   1   7
ATOM      7  C   UNL     1       4.378 -36.496  19.438  1.00  0.00     0.000 C 
BRANCH   7   8
ATOM      8  C   UNL     1       3.926 -37.930  19.126  1.00  0.00    -0.000 C 
BRANCH   8   9
ATOM      9  C   UNL     1       2.614 -37.977  18.326  1.00  0.00    -0.000 C 
BRANCH   9  10
ATOM     10  C   UNL     1       2.844 -37.919  16.808  1.00  0.00    -0.003 C 
ATOM     11  C   UNL     1       1.749 -37.111  16.117  1.00  0.00     0.004 C 
ENDBRANCH   9  10
ENDBRANCH   8   9
ENDBRANCH   7   8
ENDBRANCH   1   7
TORSDOF 7
ENDMDL
MODEL 3
REMARK VINA RESULT:    -4.355      3.170      6.056
REMARK INTER + INTRA:          -6.453
REMARK INTER:                  -5.947
REMARK INTRA:                  -0.506
REMARK UNBOUND:                -0.315
REMARK SMILES CCCCCCCCC(=O)[O-]
REMARK SMILES IDX 6 1 7 2 8 3 9 4 10 5 11 6 5 7 4 8 3 9 2 10 1 11
REMARK H PARENT
REMARK Flexibility Score: inf
ROOT
ATOM      1  C   UNL     1       5.587 -36.407  21.009  1.00  0.00     0.000 C 
ENDROOT
BRANCH   1   2
ATOM      2  C   UNL     1       4.279 -36.508  20.216  1.00  0.00     0.006 C 
BRANCH   2   3
ATOM      3  C   UNL     1       4.105 -37.907  19.618  1.00  0.00     0.053 C 
BRANCH   3   4
ATOM      4  C   UNL     1       2.972 -37.922  18.642  1.00  0.00     0.041 C 
ATOM      5  O   UNL     1       3.125 -37.447  17.486  1.00  0.00    -0.550 OA
ATOM      6  O   UNL     1       1.760 -38.504  18.991  1.00  0.00    -0.550 OA
ENDBRANCH   3   4
ENDBRANCH   2   3
ENDBRANCH   1   2
BRANCH   1   7
ATOM      7  C   UNL     1       5.322 -35.986  22.459  1.00  0.00     0.000 C 
BRANCH   7   8
ATOM      8  C   UNL     1       5.997 -36.952  23.444  1.00  0.00    -0.000 C 
BRANCH   8   9
ATOM      9  C   UNL     1       4.998 -37.606  24.412  1.00  0.00    -0.000 C 
BRANCH   9  10
ATOM     10  C   UNL     1       4.983 -39.138  24.302  1.00  0.00    -0.003 C 
ATOM     11  C   UNL     1       4.597 -39.582  22.893  1.00  0.00     0.004 C 
ENDBRANCH   9  10
ENDBRANCH   8   9
ENDBRANCH   7   8
ENDBRANCH   1   7
TORSDOF 7
ENDMDL
MODEL 4
REMARK VINA RESULT:    -4.342      0.250      0.996
REMARK INTER + INTRA:          -6.434
REMARK INTER:                  -6.074
REMARK INTRA:                  -0.360
REMARK UNBOUND:                -0.315
REMARK SMILES CCCCCCCCC(=O)[O-]
REMARK SMILES IDX 6 1 7 2 8 3 9 4 10 5 11 6 5 7 4 8 3 9 2 10 1 11
REMARK H PARENT
REMARK Flexibility Score: inf
ROOT
ATOM      1  C   UNL     1       4.256 -36.525  19.122  1.00  0.00     0.000 C 
ENDROOT
BRANCH   1   2
ATOM      2  C   UNL     1       5.305 -36.565  20.239  1.00  0.00     0.006 C 
BRANCH   2   3
ATOM      3  C   UNL     1       4.975 -37.653  21.265  1.00  0.00     0.053 C 
BRANCH   3   4
ATOM      4  C   UNL     1       4.970 -37.083  22.648  1.00  0.00     0.041 C 
ATOM      5  O   UNL     1       4.981 -37.848  23.649  1.00  0.00    -0.550 OA
ATOM      6  O   UNL     1       5.002 -35.707  22.834  1.00  0.00    -0.550 OA
ENDBRANCH   3   4
ENDBRANCH   2   3
ENDBRANCH   1   2
BRANCH   1   7
ATOM      7  C   UNL     1       3.502 -37.856  19.026  1.00  0.00     0.000 C 
BRANCH   7   8
ATOM      8  C   UNL     1       2.812 -37.999  17.661  1.00  0.00    -0.000 C 
BRANCH   8   9
ATOM      9  C   UNL     1       3.072 -36.799  16.737  1.00  0.00    -0.000 C 
BRANCH   9  10
ATOM     10  C   UNL     1       2.658 -37.071  15.283  1.00  0.00    -0.003 C 
ATOM     11  C   UNL     1       3.490 -38.199  14.678  1.00  0.00     0.004 C 
ENDBRANCH   9  10
ENDBRANCH   8   9
ENDBRANCH   7   8
ENDBRANCH   1   7
TORSDOF 7
ENDMDL
MODEL 5
REMARK VINA RESULT:    -4.267      3.157      6.492
REMARK INTER + INTRA:          -6.329
REMARK INTER:                  -5.993
REMARK INTRA:                  -0.335
REMARK UNBOUND:                -0.315
REMARK SMILES CCCCCCCCC(=O)[O-]
REMARK SMILES IDX 6 1 7 2 8 3 9 4 10 5 11 6 5 7 4 8 3 9 2 10 1 11
REMARK H PARENT
REMARK Flexibility Score: inf
ROOT
ATOM      1  C   UNL     1       5.026 -37.890  21.076  1.00  0.00     0.000 C 
ENDROOT
BRANCH   1   2
ATOM      2  C   UNL     1       4.616 -38.270  19.648  1.00  0.00     0.006 C 
BRANCH   2   3
ATOM      3  C   UNL     1       3.613 -37.263  19.078  1.00  0.00     0.053 C 
BRANCH   3   4
ATOM      4  C   UNL     1       2.645 -37.949  18.166  1.00  0.00     0.041 C 
ATOM      5  O   UNL     1       1.512 -38.297  18.589  1.00  0.00    -0.550 OA
ATOM      6  O   UNL     1       2.976 -38.160  16.833  1.00  0.00    -0.550 OA
ENDBRANCH   3   4
ENDBRANCH   2   3
ENDBRANCH   1   2
BRANCH   1   7
ATOM      7  C   UNL     1       5.223 -36.376  21.209  1.00  0.00     0.000 C 
BRANCH   7   8
ATOM      8  C   UNL     1       6.125 -36.042  22.407  1.00  0.00    -0.000 C 
BRANCH   8   9
ATOM      9  C   UNL     1       5.351 -35.986  23.734  1.00  0.00    -0.000 C 
BRANCH   9  10
ATOM     10  C   UNL     1       5.934 -36.927  24.799  1.00  0.00    -0.003 C 
ATOM     11  C   UNL     1       4.893 -37.944  25.261  1.00  0.00     0.004 C 
ENDBRANCH   9  10
ENDBRANCH   8   9
ENDBRANCH   7   8
ENDBRANCH   1   7
TORSDOF 7
ENDMDL
MODEL 6
REMARK VINA RESULT:    -4.245      3.598      6.443
REMARK INTER + INTRA:          -6.297
REMARK INTER:                  -5.994
REMARK INTRA:                  -0.303
REMARK UNBOUND:                -0.315
REMARK SMILES CCCCCCCCC(=O)[O-]
REMARK SMILES IDX 6 1 7 2 8 3 9 4 10 5 11 6 5 7 4 8 3 9 2 10 1 11
REMARK H PARENT
REMARK Flexibility Score: inf
ROOT
ATOM      1  C   UNL     1       3.732 -37.705  19.524  1.00  0.00     0.000 C 
ENDROOT
BRANCH   1   2
ATOM      2  C   UNL     1       2.984 -37.901  18.200  1.00  0.00     0.006 C 
BRANCH   2   3
ATOM      3  C   UNL     1       3.410 -36.853  17.168  1.00  0.00     0.053 C 
BRANCH   3   4
ATOM      4  C   UNL     1       2.540 -36.931  15.953  1.00  0.00     0.041 C 
ATOM      5  O   UNL     1       1.298 -36.752  16.049  1.00  0.00    -0.550 OA
ATOM      6  O   UNL     1       3.108 -37.155  14.705  1.00  0.00    -0.550 OA
ENDBRANCH   3   4
ENDBRANCH   2   3
ENDBRANCH   1   2
BRANCH   1   7
ATOM      7  C   UNL     1       4.538 -36.401  19.515  1.00  0.00     0.000 C 
BRANCH   7   8
ATOM      8  C   UNL     1       5.545 -36.369  20.674  1.00  0.00    -0.000 C 
BRANCH   8   9
ATOM      9  C   UNL     1       5.002 -37.037  21.949  1.00  0.00    -0.000 C 
BRANCH   9  10
ATOM     10  C   UNL     1       5.843 -36.710  23.192  1.00  0.00    -0.003 C 
ATOM     11  C   UNL     1       5.764 -35.224  23.532  1.00  0.00     0.004 C 
ENDBRANCH   9  10
ENDBRANCH   8   9
ENDBRANCH   7   8
ENDBRANCH   1   7
TORSDOF 7
ENDMDL
MODEL 7
REMARK VINA RESULT:    -3.919      3.627      6.233
REMARK INTER + INTRA:          -5.838
REMARK INTER:                  -5.504
REMARK INTRA:                  -0.334
REMARK UNBOUND:                -0.315
REMARK SMILES CCCCCCCCC(=O)[O-]
REMARK SMILES IDX 6 1 7 2 8 3 9 4 10 5 11 6 5 7 4 8 3 9 2 10 1 11
REMARK H PARENT
REMARK Flexibility Score: inf
ROOT
ATOM      1  C   UNL     1       3.287 -37.243  19.095  1.00  0.00     0.000 C 
ENDROOT
BRANCH   1   2
ATOM      2  C   UNL     1       2.428 -38.062  18.125  1.00  0.00     0.006 C 
BRANCH   2   3
ATOM      3  C   UNL     1       3.078 -38.134  16.740  1.00  0.00     0.053 C 
BRANCH   3   4
ATOM      4  C   UNL     1       2.416 -37.177  15.800  1.00  0.00     0.041 C 
ATOM      5  O   UNL     1       2.867 -37.018  14.636  1.00  0.00    -0.550 OA
ATOM      6  O   UNL     1       1.272 -36.494  16.194  1.00  0.00    -0.550 OA
ENDBRANCH   3   4
ENDBRANCH   2   3
ENDBRANCH   1   2
BRANCH   1   7
ATOM      7  C   UNL     1       4.397 -38.104  19.709  1.00  0.00     0.000 C 
BRANCH   7   8
ATOM      8  C   UNL     1       5.168 -37.322  20.784  1.00  0.00    -0.000 C 
BRANCH   8   9
ATOM      9  C   UNL     1       5.117 -38.002  22.161  1.00  0.00    -0.000 C 
BRANCH   9  10
ATOM     10  C   UNL     1       4.327 -39.320  22.142  1.00  0.00    -0.003 C 
ATOM     11  C   UNL     1       5.216 -40.499  22.528  1.00  0.00     0.004 C 
ENDBRANCH   9  10
ENDBRANCH   8   9
ENDBRANCH   7   8
ENDBRANCH   1   7
TORSDOF 7
ENDMDL
MODEL 8
REMARK VINA RESULT:    -3.884      2.715      4.557
REMARK INTER + INTRA:          -5.789
REMARK INTER:                  -5.324
REMARK INTRA:                  -0.465
REMARK UNBOUND:                -0.315
REMARK SMILES CCCCCCCCC(=O)[O-]
REMARK SMILES IDX 6 1 7 2 8 3 9 4 10 5 11 6 5 7 4 8 3 9 2 10 1 11
REMARK H PARENT
REMARK Flexibility Score: inf
ROOT
ATOM      1  C   UNL     1       5.215 -36.219  24.076  1.00  0.00     0.000 C 
ENDROOT
BRANCH   1   2
ATOM      2  C   UNL     1       5.914 -37.531  24.452  1.00  0.00     0.006 C 
BRANCH   2   3
ATOM      3  C   UNL     1       4.893 -38.624  24.779  1.00  0.00     0.053 C 
BRANCH   3   4
ATOM      4  C   UNL     1       4.892 -39.675  23.714  1.00  0.00     0.041 C 
ATOM      5  O   UNL     1       5.361 -40.818  23.951  1.00  0.00    -0.550 OA
ATOM      6  O   UNL     1       4.327 -39.406  22.474  1.00  0.00    -0.550 OA
ENDBRANCH   3   4
ENDBRANCH   2   3
ENDBRANCH   1   2
BRANCH   1   7
ATOM      7  C   UNL     1       5.973 -35.490  22.961  1.00  0.00     0.000 C 
BRANCH   7   8
ATOM      8  C   UNL     1       5.913 -36.282  21.646  1.00  0.00    -0.000 C 
BRANCH   8   9
ATOM      9  C   UNL     1       4.545 -36.176  20.952  1.00  0.00    -0.000 C 
BRANCH   9  10
ATOM     10  C   UNL     1       4.559 -36.746  19.526  1.00  0.00    -0.003 C 
ATOM     11  C   UNL     1       3.441 -37.766  19.332  1.00  0.00     0.004 C 
ENDBRANCH   9  10
ENDBRANCH   8   9
ENDBRANCH   7   8
ENDBRANCH   1   7
TORSDOF 7
ENDMDL
MODEL 9
REMARK VINA RESULT:    -3.721      3.261      6.481
REMARK INTER + INTRA:          -5.559
REMARK INTER:                  -5.312
REMARK INTRA:                  -0.247
REMARK UNBOUND:                -0.315
REMARK SMILES CCCCCCCCC(=O)[O-]
REMARK SMILES IDX 6 1 7 2 8 3 9 4 10 5 11 6 5 7 4 8 3 9 2 10 1 11
REMARK H PARENT
REMARK Flexibility Score: inf
ROOT
ATOM      1  C   UNL     1       5.266 -38.200  21.939  1.00  0.00     0.000 C 
ENDROOT
BRANCH   1   2
ATOM      2  C   UNL     1       4.672 -38.019  20.538  1.00  0.00     0.006 C 
BRANCH   2   3
ATOM      3  C   UNL     1       4.260 -36.563  20.298  1.00  0.00     0.053 C 
BRANCH   3   4
ATOM      4  C   UNL     1       4.228 -36.263  18.833  1.00  0.00     0.041 C 
ATOM      5  O   UNL     1       3.536 -36.971  18.056  1.00  0.00    -0.550 OA
ATOM      6  O   UNL     1       4.925 -35.170  18.331  1.00  0.00    -0.550 OA
ENDBRANCH   3   4
ENDBRANCH   2   3
ENDBRANCH   1   2
BRANCH   1   7
ATOM      7  C   UNL     1       4.618 -39.385  22.665  1.00  0.00     0.000 C 
BRANCH   7   8
ATOM      8  C   UNL     1       4.974 -39.376  24.159  1.00  0.00    -0.000 C 
BRANCH   8   9
ATOM      9  C   UNL     1       4.754 -38.001  24.811  1.00  0.00    -0.000 C 
BRANCH   9  10
ATOM     10  C   UNL     1       6.072 -37.282  25.136  1.00  0.00    -0.003 C 
ATOM     11  C   UNL     1       6.094 -35.880  24.533  1.00  0.00     0.004 C 
ENDBRANCH   9  10
ENDBRANCH   8   9
ENDBRANCH   7   8
ENDBRANCH   1   7
TORSDOF 7
ENDMDL
