MODEL 1
REMARK VINA RESULT:    -3.872      0.000      0.000
REMARK INTER + INTRA:         -15.054
REMARK INTER:                  -9.757
REMARK INTRA:                  -5.297
REMARK UNBOUND:                -5.297
REMARK SMILES CCCCCCCCCCCCCCCCCCCCCCCCCCCC(=O)[O-]
REMARK SMILES IDX 15 1 16 2 17 3 18 4 19 5 20 6 21 7 22 8 23 9 24 10 25 11
REMARK SMILES IDX 26 12 27 13 28 14 29 15 30 16 14 17 13 18 12 19 11 20 10 21
REMARK SMILES IDX 9 22 8 23 7 24 6 25 5 26 4 27 3 28 2 29 1 30
REMARK H PARENT
REMARK Flexibility Score: inf
ROOT
ATOM      1  C   UNL     1     131.587 142.554 107.623  1.00  0.00     0.000 C 
ENDROOT
BRANCH   1   2
ATOM      2  C   UNL     1     131.498 142.428 106.092  1.00  0.00     0.000 C 
BRANCH   2   3
ATOM      3  C   UNL     1     132.275 143.534 105.353  1.00  0.00     0.000 C 
BRANCH   3   4
ATOM      4  C   UNL     1     133.788 143.287 105.208  1.00  0.00     0.000 C 
BRANCH   4   5
ATOM      5  C   UNL     1     134.454 144.244 104.203  1.00  0.00     0.000 C 
BRANCH   5   6
ATOM      6  C   UNL     1     134.640 145.661 104.776  1.00  0.00     0.000 C 
BRANCH   6   7
ATOM      7  C   UNL     1     135.801 145.782 105.789  1.00  0.00     0.000 C 
BRANCH   7   8
ATOM      8  C   UNL     1     135.333 146.033 107.233  1.00  0.00     0.000 C 
BRANCH   8   9
ATOM      9  C   UNL     1     133.834 146.348 107.328  1.00  0.00     0.000 C 
BRANCH   9  10
ATOM     10  C   UNL     1     133.148 145.661 108.522  1.00  0.00     0.000 C 
BRANCH  10  11
ATOM     11  C   UNL     1     132.494 146.646 109.514  1.00  0.00     0.000 C 
BRANCH  11  12
ATOM     12  C   UNL     1     131.970 145.943 110.780  1.00  0.00     0.006 C 
BRANCH  12  13
ATOM     13  C   UNL     1     131.332 146.928 111.767  1.00  0.00     0.053 C 
BRANCH  13  14
ATOM     14  C   UNL     1     131.927 146.811 113.140  1.00  0.00     0.041 C 
ATOM     15  O   UNL     1     133.175 146.713 113.285  1.00  0.00    -0.550 OA
ATOM     16  O   UNL     1     131.105 146.832 114.260  1.00  0.00    -0.550 OA
ENDBRANCH  13  14
ENDBRANCH  12  13
ENDBRANCH  11  12
ENDBRANCH  10  11
ENDBRANCH   9  10
ENDBRANCH   8   9
ENDBRANCH   7   8
ENDBRANCH   6   7
ENDBRANCH   5   6
ENDBRANCH   4   5
ENDBRANCH   3   4
ENDBRANCH   2   3
ENDBRANCH   1   2
BRANCH   1  17
ATOM     17  C   UNL     1     130.362 141.974 108.353  1.00  0.00     0.000 C 
BRANCH  17  18
ATOM     18  C   UNL     1     129.236 141.440 107.448  1.00  0.00     0.000 C 
BRANCH  18  19
ATOM     19  C   UNL     1     127.841 141.943 107.862  1.00  0.00     0.000 C 
BRANCH  19  20
ATOM     20  C   UNL     1     127.119 142.710 106.741  1.00  0.00     0.000 C 
BRANCH  20  21
ATOM     21  C   UNL     1     127.993 143.070 105.525  1.00  0.00     0.000 C 
BRANCH  21  22
ATOM     22  C   UNL     1     127.615 144.420 104.886  1.00  0.00    -0.000 C 
BRANCH  22  23
ATOM     23  C   UNL     1     127.956 145.614 105.805  1.00  0.00    -0.000 C 
BRANCH  23  24
ATOM     24  C   UNL     1     129.393 145.584 106.355  1.00  0.00    -0.000 C 
BRANCH  24  25
ATOM     25  C   UNL     1     129.450 145.549 107.889  1.00  0.00    -0.000 C 
BRANCH  25  26
ATOM     26  C   UNL     1     128.176 146.128 108.538  1.00  0.00    -0.000 C 
BRANCH  26  27
ATOM     27  C   UNL     1     127.569 145.231 109.634  1.00  0.00    -0.000 C 
BRANCH  27  28
ATOM     28  C   UNL     1     128.611 144.440 110.453  1.00  0.00    -0.000 C 
BRANCH  28  29
ATOM     29  C   UNL     1     128.057 143.844 111.762  1.00  0.00    -0.003 C 
ATOM     30  C   UNL     1     128.714 144.448 113.004  1.00  0.00     0.004 C 
ENDBRANCH  28  29
ENDBRANCH  27  28
ENDBRANCH  26  27
ENDBRANCH  25  26
ENDBRANCH  24  25
ENDBRANCH  23  24
ENDBRANCH  22  23
ENDBRANCH  21  22
ENDBRANCH  20  21
ENDBRANCH  19  20
ENDBRANCH  18  19
ENDBRANCH  17  18
ENDBRANCH   1  17
TORSDOF 26
ENDMDL
MODEL 2
REMARK VINA RESULT:    -3.626      3.235      6.596
REMARK INTER + INTRA:         -14.434
REMARK INTER:                  -9.471
REMARK INTRA:                  -4.962
REMARK UNBOUND:                -5.297
REMARK SMILES CCCCCCCCCCCCCCCCCCCCCCCCCCCC(=O)[O-]
REMARK SMILES IDX 15 1 16 2 17 3 18 4 19 5 20 6 21 7 22 8 23 9 24 10 25 11
REMARK SMILES IDX 26 12 27 13 28 14 29 15 30 16 14 17 13 18 12 19 11 20 10 21
REMARK SMILES IDX 9 22 8 23 7 24 6 25 5 26 4 27 3 28 2 29 1 30
REMARK H PARENT
REMARK Flexibility Score: inf
ROOT
ATOM      1  C   UNL     1     134.404 142.315 105.725  1.00  0.00     0.000 C 
ENDROOT
BRANCH   1   2
ATOM      2  C   UNL     1     133.088 142.160 106.509  1.00  0.00     0.000 C 
BRANCH   2   3
ATOM      3  C   UNL     1     131.845 142.152 105.601  1.00  0.00     0.000 C 
BRANCH   3   4
ATOM      4  C   UNL     1     130.915 143.371 105.753  1.00  0.00     0.000 C 
BRANCH   4   5
ATOM      5  C   UNL     1     131.065 144.067 107.117  1.00  0.00     0.000 C 
BRANCH   5   6
ATOM      6  C   UNL     1     130.432 145.472 107.132  1.00  0.00     0.000 C 
BRANCH   6   7
ATOM      7  C   UNL     1     129.697 145.844 105.825  1.00  0.00     0.000 C 
BRANCH   7   8
ATOM      8  C   UNL     1     128.167 145.733 105.927  1.00  0.00     0.000 C 
BRANCH   8   9
ATOM      9  C   UNL     1     127.563 144.813 104.856  1.00  0.00     0.000 C 
BRANCH   9  10
ATOM     10  C   UNL     1     127.364 143.368 105.347  1.00  0.00     0.000 C 
BRANCH  10  11
ATOM     11  C   UNL     1     127.231 143.244 106.879  1.00  0.00     0.000 C 
BRANCH  11  12
ATOM     12  C   UNL     1     127.511 141.815 107.379  1.00  0.00     0.006 C 
BRANCH  12  13
ATOM     13  C   UNL     1     128.126 140.930 106.287  1.00  0.00     0.053 C 
BRANCH  13  14
ATOM     14  C   UNL     1     127.659 139.507 106.388  1.00  0.00     0.041 C 
ATOM     15  O   UNL     1     127.580 138.790 105.356  1.00  0.00    -0.550 OA
ATOM     16  O   UNL     1     127.329 138.968 107.626  1.00  0.00    -0.550 OA
ENDBRANCH  13  14
ENDBRANCH  12  13
ENDBRANCH  11  12
ENDBRANCH  10  11
ENDBRANCH   9  10
ENDBRANCH   8   9
ENDBRANCH   7   8
ENDBRANCH   6   7
ENDBRANCH   5   6
ENDBRANCH   4   5
ENDBRANCH   3   4
ENDBRANCH   2   3
ENDBRANCH   1   2
BRANCH   1  17
ATOM     17  C   UNL     1     134.191 142.725 104.256  1.00  0.00     0.000 C 
BRANCH  17  18
ATOM     18  C   UNL     1     134.696 144.129 103.875  1.00  0.00     0.000 C 
BRANCH  18  19
ATOM     19  C   UNL     1     134.199 145.228 104.832  1.00  0.00     0.000 C 
BRANCH  19  20
ATOM     20  C   UNL     1     135.339 146.070 105.430  1.00  0.00     0.000 C 
BRANCH  20  21
ATOM     21  C   UNL     1     135.547 145.907 106.948  1.00  0.00     0.000 C 
BRANCH  21  22
ATOM     22  C   UNL     1     134.225 145.844 107.736  1.00  0.00    -0.000 C 
BRANCH  22  23
ATOM     23  C   UNL     1     134.414 145.235 109.143  1.00  0.00    -0.000 C 
BRANCH  23  24
ATOM     24  C   UNL     1     133.100 144.797 109.812  1.00  0.00    -0.000 C 
BRANCH  24  25
ATOM     25  C   UNL     1     132.636 145.758 110.916  1.00  0.00    -0.000 C 
BRANCH  25  26
ATOM     26  C   UNL     1     131.126 146.063 110.833  1.00  0.00    -0.000 C 
BRANCH  26  27
ATOM     27  C   UNL     1     130.298 145.438 111.973  1.00  0.00    -0.000 C 
BRANCH  27  28
ATOM     28  C   UNL     1     129.545 144.151 111.574  1.00  0.00    -0.000 C 
BRANCH  28  29
ATOM     29  C   UNL     1     128.917 144.203 110.167  1.00  0.00    -0.003 C 
ATOM     30  C   UNL     1     127.641 145.044 110.127  1.00  0.00     0.004 C 
ENDBRANCH  28  29
ENDBRANCH  27  28
ENDBRANCH  26  27
ENDBRANCH  25  26
ENDBRANCH  24  25
ENDBRANCH  23  24
ENDBRANCH  22  23
ENDBRANCH  21  22
ENDBRANCH  20  21
ENDBRANCH  19  20
ENDBRANCH  18  19
ENDBRANCH  17  18
ENDBRANCH   1  17
TORSDOF 26
ENDMDL
MODEL 3
REMARK VINA RESULT:    -3.609      3.364      7.005
REMARK INTER + INTRA:         -14.391
REMARK INTER:                  -9.565
REMARK INTRA:                  -4.826
REMARK UNBOUND:                -5.297
REMARK SMILES CCCCCCCCCCCCCCCCCCCCCCCCCCCC(=O)[O-]
REMARK SMILES IDX 15 1 16 2 17 3 18 4 19 5 20 6 21 7 22 8 23 9 24 10 25 11
REMARK SMILES IDX 26 12 27 13 28 14 29 15 30 16 14 17 13 18 12 19 11 20 10 21
REMARK SMILES IDX 9 22 8 23 7 24 6 25 5 26 4 27 3 28 2 29 1 30
REMARK H PARENT
REMARK Flexibility Score: inf
ROOT
ATOM      1  C   UNL     1     131.367 143.591 106.949  1.00  0.00     0.000 C 
ENDROOT
BRANCH   1   2
ATOM      2  C   UNL     1     130.345 144.000 105.873  1.00  0.00     0.000 C 
BRANCH   2   3
ATOM      3  C   UNL     1     129.702 145.372 106.147  1.00  0.00     0.000 C 
BRANCH   3   4
ATOM      4  C   UNL     1     128.257 145.533 105.638  1.00  0.00     0.000 C 
BRANCH   4   5
ATOM      5  C   UNL     1     127.279 145.954 106.748  1.00  0.00     0.000 C 
BRANCH   5   6
ATOM      6  C   UNL     1     127.950 146.009 108.133  1.00  0.00     0.000 C 
BRANCH   6   7
ATOM      7  C   UNL     1     127.060 145.491 109.284  1.00  0.00     0.000 C 
BRANCH   7   8
ATOM      8  C   UNL     1     127.670 144.302 110.047  1.00  0.00     0.000 C 
BRANCH   8   9
ATOM      9  C   UNL     1     128.559 143.419 109.161  1.00  0.00     0.000 C 
BRANCH   9  10
ATOM     10  C   UNL     1     127.816 142.199 108.588  1.00  0.00     0.000 C 
BRANCH  10  11
ATOM     11  C   UNL     1     127.201 142.444 107.194  1.00  0.00     0.000 C 
BRANCH  11  12
ATOM     12  C   UNL     1     127.230 141.184 106.310  1.00  0.00     0.006 C 
BRANCH  12  13
ATOM     13  C   UNL     1     128.343 140.212 106.723  1.00  0.00     0.053 C 
BRANCH  13  14
ATOM     14  C   UNL     1     127.926 138.780 106.563  1.00  0.00     0.041 C 
ATOM     15  O   UNL     1     128.296 138.119 105.555  1.00  0.00    -0.550 OA
ATOM     16  O   UNL     1     127.144 138.168 107.535  1.00  0.00    -0.550 OA
ENDBRANCH  13  14
ENDBRANCH  12  13
ENDBRANCH  11  12
ENDBRANCH  10  11
ENDBRANCH   9  10
ENDBRANCH   8   9
ENDBRANCH   7   8
ENDBRANCH   6   7
ENDBRANCH   5   6
ENDBRANCH   4   5
ENDBRANCH   3   4
ENDBRANCH   2   3
ENDBRANCH   1   2
BRANCH   1  17
ATOM     17  C   UNL     1     132.505 142.709 106.403  1.00  0.00     0.000 C 
BRANCH  17  18
ATOM     18  C   UNL     1     132.951 143.012 104.961  1.00  0.00     0.000 C 
BRANCH  18  19
ATOM     19  C   UNL     1     134.403 143.517 104.873  1.00  0.00     0.000 C 
BRANCH  19  20
ATOM     20  C   UNL     1     134.535 144.845 104.108  1.00  0.00     0.000 C 
BRANCH  20  21
ATOM     21  C   UNL     1     134.897 146.067 104.974  1.00  0.00     0.000 C 
BRANCH  21  22
ATOM     22  C   UNL     1     136.002 145.772 106.005  1.00  0.00    -0.000 C 
BRANCH  22  23
ATOM     23  C   UNL     1     135.628 146.269 107.419  1.00  0.00    -0.000 C 
BRANCH  23  24
ATOM     24  C   UNL     1     134.410 145.551 108.027  1.00  0.00    -0.000 C 
BRANCH  24  25
ATOM     25  C   UNL     1     133.180 146.459 108.161  1.00  0.00    -0.000 C 
BRANCH  25  26
ATOM     26  C   UNL     1     132.675 146.554 109.615  1.00  0.00    -0.000 C 
BRANCH  26  27
ATOM     27  C   UNL     1     131.247 146.009 109.818  1.00  0.00    -0.000 C 
BRANCH  27  28
ATOM     28  C   UNL     1     130.785 145.982 111.291  1.00  0.00    -0.000 C 
BRANCH  28  29
ATOM     29  C   UNL     1     130.787 144.575 111.921  1.00  0.00    -0.003 C 
ATOM     30  C   UNL     1     131.701 143.602 111.178  1.00  0.00     0.004 C 
ENDBRANCH  28  29
ENDBRANCH  27  28
ENDBRANCH  26  27
ENDBRANCH  25  26
ENDBRANCH  24  25
ENDBRANCH  23  24
ENDBRANCH  22  23
ENDBRANCH  21  22
ENDBRANCH  20  21
ENDBRANCH  19  20
ENDBRANCH  18  19
ENDBRANCH  17  18
ENDBRANCH   1  17
TORSDOF 26
ENDMDL
MODEL 4
REMARK VINA RESULT:    -3.584      3.304      5.403
REMARK INTER + INTRA:         -14.329
REMARK INTER:                  -8.764
REMARK INTRA:                  -5.565
REMARK UNBOUND:                -5.297
REMARK SMILES CCCCCCCCCCCCCCCCCCCCCCCCCCCC(=O)[O-]
REMARK SMILES IDX 15 1 16 2 17 3 18 4 19 5 20 6 21 7 22 8 23 9 24 10 25 11
REMARK SMILES IDX 26 12 27 13 28 14 29 15 30 16 14 17 13 18 12 19 11 20 10 21
REMARK SMILES IDX 9 22 8 23 7 24 6 25 5 26 4 27 3 28 2 29 1 30
REMARK H PARENT
REMARK Flexibility Score: inf
ROOT
ATOM      1  C   UNL     1     134.248 145.950 106.456  1.00  0.00     0.000 C 
ENDROOT
BRANCH   1   2
ATOM      2  C   UNL     1     134.323 145.969 104.919  1.00  0.00     0.000 C 
BRANCH   2   3
ATOM      3  C   UNL     1     134.763 144.619 104.322  1.00  0.00     0.000 C 
BRANCH   3   4
ATOM      4  C   UNL     1     133.676 143.528 104.299  1.00  0.00     0.000 C 
BRANCH   4   5
ATOM      5  C   UNL     1     134.139 142.212 104.951  1.00  0.00     0.000 C 
BRANCH   5   6
ATOM      6  C   UNL     1     133.236 141.787 106.123  1.00  0.00     0.000 C 
BRANCH   6   7
ATOM      7  C   UNL     1     133.798 142.154 107.515  1.00  0.00     0.000 C 
BRANCH   7   8
ATOM      8  C   UNL     1     132.794 142.905 108.406  1.00  0.00     0.000 C 
BRANCH   8   9
ATOM      9  C   UNL     1     131.967 141.965 109.294  1.00  0.00     0.000 C 
BRANCH   9  10
ATOM     10  C   UNL     1     130.484 141.901 108.887  1.00  0.00     0.000 C 
BRANCH  10  11
ATOM     11  C   UNL     1     129.709 140.739 109.543  1.00  0.00     0.000 C 
BRANCH  11  12
ATOM     12  C   UNL     1     128.326 140.521 108.903  1.00  0.00     0.006 C 
BRANCH  12  13
ATOM     13  C   UNL     1     128.274 139.242 108.058  1.00  0.00     0.053 C 
BRANCH  13  14
ATOM     14  C   UNL     1     127.842 139.518 106.647  1.00  0.00     0.041 C 
ATOM     15  O   UNL     1     128.312 138.840 105.695  1.00  0.00    -0.550 OA
ATOM     16  O   UNL     1     126.906 140.511 106.387  1.00  0.00    -0.550 OA
ENDBRANCH  13  14
ENDBRANCH  12  13
ENDBRANCH  11  12
ENDBRANCH  10  11
ENDBRANCH   9  10
ENDBRANCH   8   9
ENDBRANCH   7   8
ENDBRANCH   6   7
ENDBRANCH   5   6
ENDBRANCH   4   5
ENDBRANCH   3   4
ENDBRANCH   2   3
ENDBRANCH   1   2
BRANCH   1  17
ATOM     17  C   UNL     1     132.839 146.250 107.000  1.00  0.00     0.000 C 
BRANCH  17  18
ATOM     18  C   UNL     1     131.862 146.898 106.002  1.00  0.00     0.000 C 
BRANCH  18  19
ATOM     19  C   UNL     1     130.545 146.114 105.854  1.00  0.00     0.000 C 
BRANCH  19  20
ATOM     20  C   UNL     1     130.692 144.618 106.184  1.00  0.00     0.000 C 
BRANCH  20  21
ATOM     21  C   UNL     1     129.508 143.733 105.750  1.00  0.00     0.000 C 
BRANCH  21  22
ATOM     22  C   UNL     1     128.291 144.544 105.268  1.00  0.00    -0.000 C 
BRANCH  22  23
ATOM     23  C   UNL     1     127.174 144.608 106.333  1.00  0.00    -0.000 C 
BRANCH  23  24
ATOM     24  C   UNL     1     127.410 143.677 107.536  1.00  0.00    -0.000 C 
BRANCH  24  25
ATOM     25  C   UNL     1     127.604 144.437 108.857  1.00  0.00    -0.000 C 
BRANCH  25  26
ATOM     26  C   UNL     1     127.982 145.915 108.634  1.00  0.00    -0.000 C 
BRANCH  26  27
ATOM     27  C   UNL     1     129.169 146.393 109.494  1.00  0.00    -0.000 C 
BRANCH  27  28
ATOM     28  C   UNL     1     130.218 145.300 109.787  1.00  0.00    -0.000 C 
BRANCH  28  29
ATOM     29  C   UNL     1     131.535 145.838 110.380  1.00  0.00    -0.003 C 
ATOM     30  C   UNL     1     132.039 144.993 111.550  1.00  0.00     0.004 C 
ENDBRANCH  28  29
ENDBRANCH  27  28
ENDBRANCH  26  27
ENDBRANCH  25  26
ENDBRANCH  24  25
ENDBRANCH  23  24
ENDBRANCH  22  23
ENDBRANCH  21  22
ENDBRANCH  20  21
ENDBRANCH  19  20
ENDBRANCH  18  19
ENDBRANCH  17  18
ENDBRANCH   1  17
TORSDOF 26
ENDMDL
MODEL 5
REMARK VINA RESULT:    -3.576      1.818      4.243
REMARK INTER + INTRA:         -14.308
REMARK INTER:                  -9.112
REMARK INTRA:                  -5.197
REMARK UNBOUND:                -5.297
REMARK SMILES CCCCCCCCCCCCCCCCCCCCCCCCCCCC(=O)[O-]
REMARK SMILES IDX 15 1 16 2 17 3 18 4 19 5 20 6 21 7 22 8 23 9 24 10 25 11
REMARK SMILES IDX 26 12 27 13 28 14 29 15 30 16 14 17 13 18 12 19 11 20 10 21
REMARK SMILES IDX 9 22 8 23 7 24 6 25 5 26 4 27 3 28 2 29 1 30
REMARK H PARENT
REMARK Flexibility Score: inf
ROOT
ATOM      1  C   UNL     1     133.755 143.425 105.295  1.00  0.00     0.000 C 
ENDROOT
BRANCH   1   2
ATOM      2  C   UNL     1     134.373 144.520 104.406  1.00  0.00     0.000 C 
BRANCH   2   3
ATOM      3  C   UNL     1     134.584 145.850 105.152  1.00  0.00     0.000 C 
BRANCH   3   4
ATOM      4  C   UNL     1     135.617 145.805 106.294  1.00  0.00     0.000 C 
BRANCH   4   5
ATOM      5  C   UNL     1     134.971 145.929 107.685  1.00  0.00     0.000 C 
BRANCH   5   6
ATOM      6  C   UNL     1     133.524 146.451 107.617  1.00  0.00     0.000 C 
BRANCH   6   7
ATOM      7  C   UNL     1     132.880 146.701 108.999  1.00  0.00     0.000 C 
BRANCH   7   8
ATOM      8  C   UNL     1     133.114 145.559 110.003  1.00  0.00     0.000 C 
BRANCH   8   9
ATOM      9  C   UNL     1     132.626 145.901 111.417  1.00  0.00     0.000 C 
BRANCH   9  10
ATOM     10  C   UNL     1     131.092 145.966 111.528  1.00  0.00     0.000 C 
BRANCH  10  11
ATOM     11  C   UNL     1     130.565 145.805 112.969  1.00  0.00     0.000 C 
BRANCH  11  12
ATOM     12  C   UNL     1     129.588 144.624 113.108  1.00  0.00     0.006 C 
BRANCH  12  13
ATOM     13  C   UNL     1     129.352 143.907 111.772  1.00  0.00     0.053 C 
BRANCH  13  14
ATOM     14  C   UNL     1     130.042 142.576 111.720  1.00  0.00     0.041 C 
ATOM     15  O   UNL     1     130.895 142.268 112.594  1.00  0.00    -0.550 OA
ATOM     16  O   UNL     1     129.728 141.667 110.716  1.00  0.00    -0.550 OA
ENDBRANCH  13  14
ENDBRANCH  12  13
ENDBRANCH  11  12
ENDBRANCH  10  11
ENDBRANCH   9  10
ENDBRANCH   8   9
ENDBRANCH   7   8
ENDBRANCH   6   7
ENDBRANCH   5   6
ENDBRANCH   4   5
ENDBRANCH   3   4
ENDBRANCH   2   3
ENDBRANCH   1   2
BRANCH   1  17
ATOM     17  C   UNL     1     132.252 143.209 105.038  1.00  0.00     0.000 C 
BRANCH  17  18
ATOM     18  C   UNL     1     131.299 144.009 105.945  1.00  0.00     0.000 C 
BRANCH  18  19
ATOM     19  C   UNL     1     131.274 143.493 107.396  1.00  0.00     0.000 C 
BRANCH  19  20
ATOM     20  C   UNL     1     130.228 144.204 108.272  1.00  0.00     0.000 C 
BRANCH  20  21
ATOM     21  C   UNL     1     129.652 145.504 107.680  1.00  0.00     0.000 C 
BRANCH  21  22
ATOM     22  C   UNL     1     128.211 145.793 108.141  1.00  0.00    -0.000 C 
BRANCH  22  23
ATOM     23  C   UNL     1     127.178 145.534 107.022  1.00  0.00    -0.000 C 
BRANCH  23  24
ATOM     24  C   UNL     1     127.789 145.496 105.610  1.00  0.00    -0.000 C 
BRANCH  24  25
ATOM     25  C   UNL     1     127.628 144.134 104.920  1.00  0.00    -0.000 C 
BRANCH  25  26
ATOM     26  C   UNL     1     127.253 143.014 105.912  1.00  0.00    -0.000 C 
BRANCH  26  27
ATOM     27  C   UNL     1     128.268 141.855 105.960  1.00  0.00    -0.000 C 
BRANCH  27  28
ATOM     28  C   UNL     1     128.368 141.158 107.333  1.00  0.00    -0.000 C 
BRANCH  28  29
ATOM     29  C   UNL     1     129.291 139.924 107.344  1.00  0.00    -0.003 C 
ATOM     30  C   UNL     1     130.419 140.028 106.317  1.00  0.00     0.004 C 
ENDBRANCH  28  29
ENDBRANCH  27  28
ENDBRANCH  26  27
ENDBRANCH  25  26
ENDBRANCH  24  25
ENDBRANCH  23  24
ENDBRANCH  22  23
ENDBRANCH  21  22
ENDBRANCH  20  21
ENDBRANCH  19  20
ENDBRANCH  18  19
ENDBRANCH  17  18
ENDBRANCH   1  17
TORSDOF 26
ENDMDL
MODEL 6
REMARK VINA RESULT:    -3.560      4.968      7.388
REMARK INTER + INTRA:         -14.269
REMARK INTER:                 -11.934
REMARK INTRA:                  -2.335
REMARK UNBOUND:                -5.297
REMARK SMILES CCCCCCCCCCCCCCCCCCCCCCCCCCCC(=O)[O-]
REMARK SMILES IDX 15 1 16 2 17 3 18 4 19 5 20 6 21 7 22 8 23 9 24 10 25 11
REMARK SMILES IDX 26 12 27 13 28 14 29 15 30 16 14 17 13 18 12 19 11 20 10 21
REMARK SMILES IDX 9 22 8 23 7 24 6 25 5 26 4 27 3 28 2 29 1 30
REMARK H PARENT
REMARK Flexibility Score: inf
ROOT
ATOM      1  C   UNL     1     131.113 145.029 107.756  1.00  0.00     0.000 C 
ENDROOT
BRANCH   1   2
ATOM      2  C   UNL     1     130.966 145.951 106.532  1.00  0.00     0.000 C 
BRANCH   2   3
ATOM      3  C   UNL     1     132.312 146.514 106.038  1.00  0.00     0.000 C 
BRANCH   3   4
ATOM      4  C   UNL     1     133.505 145.545 106.142  1.00  0.00     0.000 C 
BRANCH   4   5
ATOM      5  C   UNL     1     134.548 145.765 105.032  1.00  0.00     0.000 C 
BRANCH   5   6
ATOM      6  C   UNL     1     135.865 146.353 105.572  1.00  0.00     0.000 C 
BRANCH   6   7
ATOM      7  C   UNL     1     136.580 145.451 106.603  1.00  0.00     0.000 C 
BRANCH   7   8
ATOM      8  C   UNL     1     138.086 145.284 106.335  1.00  0.00     0.000 C 
BRANCH   8   9
ATOM      9  C   UNL     1     138.852 146.612 106.393  1.00  0.00     0.000 C 
BRANCH   9  10
ATOM     10  C   UNL     1     140.078 146.643 105.463  1.00  0.00     0.000 C 
BRANCH  10  11
ATOM     11  C   UNL     1     141.420 146.800 106.209  1.00  0.00     0.000 C 
BRANCH  11  12
ATOM     12  C   UNL     1     142.390 145.640 105.921  1.00  0.00     0.006 C 
BRANCH  12  13
ATOM     13  C   UNL     1     143.324 145.358 107.105  1.00  0.00     0.053 C 
BRANCH  13  14
ATOM     14  C   UNL     1     144.657 144.834 106.657  1.00  0.00     0.041 C 
ATOM     15  O   UNL     1     145.043 145.012 105.471  1.00  0.00    -0.550 OA
ATOM     16  O   UNL     1     145.480 144.165 107.554  1.00  0.00    -0.550 OA
ENDBRANCH  13  14
ENDBRANCH  12  13
ENDBRANCH  11  12
ENDBRANCH  10  11
ENDBRANCH   9  10
ENDBRANCH   8   9
ENDBRANCH   7   8
ENDBRANCH   6   7
ENDBRANCH   5   6
ENDBRANCH   4   5
ENDBRANCH   3   4
ENDBRANCH   2   3
ENDBRANCH   1   2
BRANCH   1  17
ATOM     17  C   UNL     1     129.788 144.795 108.504  1.00  0.00     0.000 C 
BRANCH  17  18
ATOM     18  C   UNL     1     129.126 146.051 109.099  1.00  0.00     0.000 C 
BRANCH  18  19
ATOM     19  C   UNL     1     127.659 146.220 108.666  1.00  0.00     0.000 C 
BRANCH  19  20
ATOM     20  C   UNL     1     127.252 145.272 107.525  1.00  0.00     0.000 C 
BRANCH  20  21
ATOM     21  C   UNL     1     127.006 145.952 106.165  1.00  0.00     0.000 C 
BRANCH  21  22
ATOM     22  C   UNL     1     127.591 145.161 104.979  1.00  0.00    -0.000 C 
BRANCH  22  23
ATOM     23  C   UNL     1     127.610 143.640 105.246  1.00  0.00    -0.000 C 
BRANCH  23  24
ATOM     24  C   UNL     1     129.023 143.031 105.272  1.00  0.00    -0.000 C 
BRANCH  24  25
ATOM     25  C   UNL     1     129.181 141.919 106.318  1.00  0.00    -0.000 C 
BRANCH  25  26
ATOM     26  C   UNL     1     128.246 140.722 106.049  1.00  0.00    -0.000 C 
BRANCH  26  27
ATOM     27  C   UNL     1     128.800 139.372 106.545  1.00  0.00    -0.000 C 
BRANCH  27  28
ATOM     28  C   UNL     1     127.771 138.222 106.526  1.00  0.00    -0.000 C 
BRANCH  28  29
ATOM     29  C   UNL     1     127.528 137.621 105.127  1.00  0.00    -0.003 C 
ATOM     30  C   UNL     1     128.826 137.404 104.351  1.00  0.00     0.004 C 
ENDBRANCH  28  29
ENDBRANCH  27  28
ENDBRANCH  26  27
ENDBRANCH  25  26
ENDBRANCH  24  25
ENDBRANCH  23  24
ENDBRANCH  22  23
ENDBRANCH  21  22
ENDBRANCH  20  21
ENDBRANCH  19  20
ENDBRANCH  18  19
ENDBRANCH  17  18
ENDBRANCH   1  17
TORSDOF 26
ENDMDL
MODEL 7
REMARK VINA RESULT:    -3.559      2.111      4.863
REMARK INTER + INTRA:         -14.265
REMARK INTER:                  -8.986
REMARK INTRA:                  -5.279
REMARK UNBOUND:                -5.297
REMARK SMILES CCCCCCCCCCCCCCCCCCCCCCCCCCCC(=O)[O-]
REMARK SMILES IDX 15 1 16 2 17 3 18 4 19 5 20 6 21 7 22 8 23 9 24 10 25 11
REMARK SMILES IDX 26 12 27 13 28 14 29 15 30 16 14 17 13 18 12 19 11 20 10 21
REMARK SMILES IDX 9 22 8 23 7 24 6 25 5 26 4 27 3 28 2 29 1 30
REMARK H PARENT
REMARK Flexibility Score: inf
ROOT
ATOM      1  C   UNL     1     129.572 142.260 110.884  1.00  0.00     0.000 C 
ENDROOT
BRANCH   1   2
ATOM      2  C   UNL     1     129.424 142.180 109.354  1.00  0.00     0.000 C 
BRANCH   2   3
ATOM      3  C   UNL     1     128.628 140.946 108.892  1.00  0.00     0.000 C 
BRANCH   3   4
ATOM      4  C   UNL     1     128.197 140.960 107.413  1.00  0.00     0.000 C 
BRANCH   4   5
ATOM      5  C   UNL     1     129.250 140.335 106.481  1.00  0.00     0.000 C 
BRANCH   5   6
ATOM      6  C   UNL     1     130.246 141.377 105.938  1.00  0.00     0.000 C 
BRANCH   6   7
ATOM      7  C   UNL     1     131.674 141.241 106.511  1.00  0.00     0.000 C 
BRANCH   7   8
ATOM      8  C   UNL     1     132.490 142.543 106.446  1.00  0.00     0.000 C 
BRANCH   8   9
ATOM      9  C   UNL     1     132.881 142.930 105.013  1.00  0.00     0.000 C 
BRANCH   9  10
ATOM     10  C   UNL     1     134.306 143.503 104.911  1.00  0.00     0.000 C 
BRANCH  10  11
ATOM     11  C   UNL     1     134.381 144.852 104.165  1.00  0.00     0.000 C 
BRANCH  11  12
ATOM     12  C   UNL     1     134.878 145.995 105.069  1.00  0.00     0.006 C 
BRANCH  12  13
ATOM     13  C   UNL     1     135.900 145.512 106.105  1.00  0.00     0.053 C 
BRANCH  13  14
ATOM     14  C   UNL     1     135.394 145.668 107.509  1.00  0.00     0.041 C 
ATOM     15  O   UNL     1     135.031 146.799 107.931  1.00  0.00    -0.550 OA
ATOM     16  O   UNL     1     135.304 144.562 108.345  1.00  0.00    -0.550 OA
ENDBRANCH  13  14
ENDBRANCH  12  13
ENDBRANCH  11  12
ENDBRANCH  10  11
ENDBRANCH   9  10
ENDBRANCH   8   9
ENDBRANCH   7   8
ENDBRANCH   6   7
ENDBRANCH   5   6
ENDBRANCH   4   5
ENDBRANCH   3   4
ENDBRANCH   2   3
ENDBRANCH   1   2
BRANCH   1  17
ATOM     17  C   UNL     1     128.820 143.451 111.507  1.00  0.00     0.000 C 
BRANCH  17  18
ATOM     18  C   UNL     1     127.622 143.981 110.696  1.00  0.00     0.000 C 
BRANCH  18  19
ATOM     19  C   UNL     1     127.858 145.391 110.127  1.00  0.00     0.000 C 
BRANCH  19  20
ATOM     20  C   UNL     1     127.172 145.616 108.767  1.00  0.00     0.000 C 
BRANCH  20  21
ATOM     21  C   UNL     1     127.382 144.493 107.735  1.00  0.00     0.000 C 
BRANCH  21  22
ATOM     22  C   UNL     1     127.054 144.927 106.293  1.00  0.00    -0.000 C 
BRANCH  22  23
ATOM     23  C   UNL     1     128.294 145.477 105.555  1.00  0.00    -0.000 C 
BRANCH  23  24
ATOM     24  C   UNL     1     129.631 144.959 106.114  1.00  0.00    -0.000 C 
BRANCH  24  25
ATOM     25  C   UNL     1     130.783 145.960 105.945  1.00  0.00    -0.000 C 
BRANCH  25  26
ATOM     26  C   UNL     1     131.690 146.027 107.191  1.00  0.00    -0.000 C 
BRANCH  26  27
ATOM     27  C   UNL     1     131.033 145.480 108.473  1.00  0.00    -0.000 C 
BRANCH  27  28
ATOM     28  C   UNL     1     132.007 144.747 109.420  1.00  0.00    -0.000 C 
BRANCH  28  29
ATOM     29  C   UNL     1     132.346 145.534 110.702  1.00  0.00    -0.003 C 
ATOM     30  C   UNL     1     131.231 146.496 111.109  1.00  0.00     0.004 C 
ENDBRANCH  28  29
ENDBRANCH  27  28
ENDBRANCH  26  27
ENDBRANCH  25  26
ENDBRANCH  24  25
ENDBRANCH  23  24
ENDBRANCH  22  23
ENDBRANCH  21  22
ENDBRANCH  20  21
ENDBRANCH  19  20
ENDBRANCH  18  19
ENDBRANCH  17  18
ENDBRANCH   1  17
TORSDOF 26
ENDMDL
MODEL 8
REMARK VINA RESULT:    -3.556      1.258      5.731
REMARK INTER + INTRA:         -14.258
REMARK INTER:                  -9.251
REMARK INTRA:                  -5.007
REMARK UNBOUND:                -5.297
REMARK SMILES CCCCCCCCCCCCCCCCCCCCCCCCCCCC(=O)[O-]
REMARK SMILES IDX 15 1 16 2 17 3 18 4 19 5 20 6 21 7 22 8 23 9 24 10 25 11
REMARK SMILES IDX 26 12 27 13 28 14 29 15 30 16 14 17 13 18 12 19 11 20 10 21
REMARK SMILES IDX 9 22 8 23 7 24 6 25 5 26 4 27 3 28 2 29 1 30
REMARK H PARENT
REMARK Flexibility Score: inf
ROOT
ATOM      1  C   UNL     1     129.340 145.604 107.447  1.00  0.00     0.000 C 
ENDROOT
BRANCH   1   2
ATOM      2  C   UNL     1     127.874 145.370 107.040  1.00  0.00     0.000 C 
BRANCH   2   3
ATOM      3  C   UNL     1     127.691 145.213 105.519  1.00  0.00     0.000 C 
BRANCH   3   4
ATOM      4  C   UNL     1     127.609 143.760 105.015  1.00  0.00     0.000 C 
BRANCH   4   5
ATOM      5  C   UNL     1     127.251 142.763 106.131  1.00  0.00     0.000 C 
BRANCH   5   6
ATOM      6  C   UNL     1     128.363 141.723 106.367  1.00  0.00     0.000 C 
BRANCH   6   7
ATOM      7  C   UNL     1     128.394 141.151 107.803  1.00  0.00     0.000 C 
BRANCH   7   8
ATOM      8  C   UNL     1     128.865 142.166 108.859  1.00  0.00     0.000 C 
BRANCH   8   9
ATOM      9  C   UNL     1     127.813 142.426 109.945  1.00  0.00     0.000 C 
BRANCH   9  10
ATOM     10  C   UNL     1     127.888 143.848 110.529  1.00  0.00     0.000 C 
BRANCH  10  11
ATOM     11  C   UNL     1     127.004 144.056 111.777  1.00  0.00     0.000 C 
BRANCH  11  12
ATOM     12  C   UNL     1     127.778 144.693 112.945  1.00  0.00     0.006 C 
BRANCH  12  13
ATOM     13  C   UNL     1     129.166 144.068 113.130  1.00  0.00     0.053 C 
BRANCH  13  14
ATOM     14  C   UNL     1     130.059 144.924 113.979  1.00  0.00     0.041 C 
ATOM     15  O   UNL     1     130.195 144.678 115.207  1.00  0.00    -0.550 OA
ATOM     16  O   UNL     1     130.756 145.983 113.410  1.00  0.00    -0.550 OA
ENDBRANCH  13  14
ENDBRANCH  12  13
ENDBRANCH  11  12
ENDBRANCH  10  11
ENDBRANCH   9  10
ENDBRANCH   8   9
ENDBRANCH   7   8
ENDBRANCH   6   7
ENDBRANCH   5   6
ENDBRANCH   4   5
ENDBRANCH   3   4
ENDBRANCH   2   3
ENDBRANCH   1   2
BRANCH   1  17
ATOM     17  C   UNL     1     130.247 145.983 106.263  1.00  0.00     0.000 C 
BRANCH  17  18
ATOM     18  C   UNL     1     131.510 145.119 106.085  1.00  0.00     0.000 C 
BRANCH  18  19
ATOM     19  C   UNL     1     131.409 143.755 106.791  1.00  0.00     0.000 C 
BRANCH  19  20
ATOM     20  C   UNL     1     131.852 142.580 105.901  1.00  0.00     0.000 C 
BRANCH  20  21
ATOM     21  C   UNL     1     132.358 142.974 104.501  1.00  0.00     0.000 C 
BRANCH  21  22
ATOM     22  C   UNL     1     133.882 142.818 104.342  1.00  0.00    -0.000 C 
BRANCH  22  23
ATOM     23  C   UNL     1     134.587 144.176 104.131  1.00  0.00    -0.000 C 
BRANCH  23  24
ATOM     24  C   UNL     1     135.450 144.619 105.326  1.00  0.00    -0.000 C 
BRANCH  24  25
ATOM     25  C   UNL     1     135.057 145.999 105.875  1.00  0.00    -0.000 C 
BRANCH  25  26
ATOM     26  C   UNL     1     135.276 146.110 107.397  1.00  0.00    -0.000 C 
BRANCH  26  27
ATOM     27  C   UNL     1     134.002 146.461 108.189  1.00  0.00    -0.000 C 
BRANCH  27  28
ATOM     28  C   UNL     1     133.642 145.443 109.292  1.00  0.00    -0.000 C 
BRANCH  28  29
ATOM     29  C   UNL     1     132.247 145.657 109.912  1.00  0.00    -0.003 C 
ATOM     30  C   UNL     1     131.588 144.345 110.338  1.00  0.00     0.004 C 
ENDBRANCH  28  29
ENDBRANCH  27  28
ENDBRANCH  26  27
ENDBRANCH  25  26
ENDBRANCH  24  25
ENDBRANCH  23  24
ENDBRANCH  22  23
ENDBRANCH  21  22
ENDBRANCH  20  21
ENDBRANCH  19  20
ENDBRANCH  18  19
ENDBRANCH  17  18
ENDBRANCH   1  17
TORSDOF 26
ENDMDL
MODEL 9
REMARK VINA RESULT:    -3.532      3.186      6.461
REMARK INTER + INTRA:         -14.198
REMARK INTER:                  -9.505
REMARK INTRA:                  -4.693
REMARK UNBOUND:                -5.297
REMARK SMILES CCCCCCCCCCCCCCCCCCCCCCCCCCCC(=O)[O-]
REMARK SMILES IDX 15 1 16 2 17 3 18 4 19 5 20 6 21 7 22 8 23 9 24 10 25 11
REMARK SMILES IDX 26 12 27 13 28 14 29 15 30 16 14 17 13 18 12 19 11 20 10 21
REMARK SMILES IDX 9 22 8 23 7 24 6 25 5 26 4 27 3 28 2 29 1 30
REMARK H PARENT
REMARK Flexibility Score: inf
ROOT
ATOM      1  C   UNL     1     132.142 142.116 105.776  1.00  0.00     0.000 C 
ENDROOT
BRANCH   1   2
ATOM      2  C   UNL     1     131.020 142.772 106.601  1.00  0.00     0.000 C 
BRANCH   2   3
ATOM      3  C   UNL     1     130.127 143.706 105.763  1.00  0.00     0.000 C 
BRANCH   3   4
ATOM      4  C   UNL     1     128.892 143.037 105.130  1.00  0.00     0.000 C 
BRANCH   4   5
ATOM      5  C   UNL     1     127.639 143.928 105.186  1.00  0.00     0.000 C 
BRANCH   5   6
ATOM      6  C   UNL     1     127.957 145.362 105.649  1.00  0.00     0.000 C 
BRANCH   6   7
ATOM      7  C   UNL     1     127.211 145.787 106.934  1.00  0.00     0.000 C 
BRANCH   7   8
ATOM      8  C   UNL     1     128.137 145.989 108.145  1.00  0.00     0.000 C 
BRANCH   8   9
ATOM      9  C   UNL     1     127.839 145.013 109.292  1.00  0.00     0.000 C 
BRANCH   9  10
ATOM     10  C   UNL     1     128.611 143.687 109.172  1.00  0.00     0.000 C 
BRANCH  10  11
ATOM     11  C   UNL     1     127.703 142.439 109.138  1.00  0.00     0.000 C 
BRANCH  11  12
ATOM     12  C   UNL     1     128.365 141.252 108.415  1.00  0.00     0.006 C 
BRANCH  12  13
ATOM     13  C   UNL     1     127.487 140.699 107.285  1.00  0.00     0.053 C 
BRANCH  13  14
ATOM     14  C   UNL     1     128.078 139.467 106.666  1.00  0.00     0.041 C 
ATOM     15  O   UNL     1     127.392 138.415 106.566  1.00  0.00    -0.550 OA
ATOM     16  O   UNL     1     129.380 139.486 106.181  1.00  0.00    -0.550 OA
ENDBRANCH  13  14
ENDBRANCH  12  13
ENDBRANCH  11  12
ENDBRANCH  10  11
ENDBRANCH   9  10
ENDBRANCH   8   9
ENDBRANCH   7   8
ENDBRANCH   6   7
ENDBRANCH   5   6
ENDBRANCH   4   5
ENDBRANCH   3   4
ENDBRANCH   2   3
ENDBRANCH   1   2
BRANCH   1  17
ATOM     17  C   UNL     1     132.635 142.994 104.612  1.00  0.00     0.000 C 
BRANCH  17  18
ATOM     18  C   UNL     1     134.078 142.731 104.141  1.00  0.00     0.000 C 
BRANCH  18  19
ATOM     19  C   UNL     1     135.079 143.781 104.655  1.00  0.00     0.000 C 
BRANCH  19  20
ATOM     20  C   UNL     1     134.610 145.228 104.424  1.00  0.00     0.000 C 
BRANCH  20  21
ATOM     21  C   UNL     1     134.235 146.006 105.699  1.00  0.00     0.000 C 
BRANCH  21  22
ATOM     22  C   UNL     1     132.742 146.378 105.764  1.00  0.00    -0.000 C 
BRANCH  22  23
ATOM     23  C   UNL     1     132.194 146.335 107.208  1.00  0.00    -0.000 C 
BRANCH  23  24
ATOM     24  C   UNL     1     133.207 146.793 108.271  1.00  0.00    -0.000 C 
BRANCH  24  25
ATOM     25  C   UNL     1     133.338 145.809 109.442  1.00  0.00    -0.000 C 
BRANCH  25  26
ATOM     26  C   UNL     1     132.136 144.847 109.537  1.00  0.00    -0.000 C 
BRANCH  26  27
ATOM     27  C   UNL     1     131.445 144.844 110.915  1.00  0.00    -0.000 C 
BRANCH  27  28
ATOM     28  C   UNL     1     130.793 146.189 111.298  1.00  0.00    -0.000 C 
BRANCH  28  29
ATOM     29  C   UNL     1     131.271 146.755 112.650  1.00  0.00    -0.003 C 
ATOM     30  C   UNL     1     130.623 146.049 113.841  1.00  0.00     0.004 C 
ENDBRANCH  28  29
ENDBRANCH  27  28
ENDBRANCH  26  27
ENDBRANCH  25  26
ENDBRANCH  24  25
ENDBRANCH  23  24
ENDBRANCH  22  23
ENDBRANCH  21  22
ENDBRANCH  20  21
ENDBRANCH  19  20
ENDBRANCH  18  19
ENDBRANCH  17  18
ENDBRANCH   1  17
TORSDOF 26
ENDMDL
