MODEL 1
REMARK VINA RESULT:    -4.970      0.000      0.000
REMARK INTER + INTRA:          -7.981
REMARK INTER:                  -7.585
REMARK INTRA:                  -0.396
REMARK UNBOUND:                -0.396
REMARK SMILES O=C([O-])CCCCCCCCC(=O)[O-]
REMARK SMILES IDX 7 1 6 2 5 3 4 4 2 5 1 6 3 7 8 8 9 9 10 10 11 11 12 12 13 13
REMARK SMILES IDX 14 14
REMARK H PARENT
REMARK Flexibility Score: inf
ROOT
ATOM      1  C   UNL     1      98.366 124.139 126.776  1.00  0.00     0.000 C 
ENDROOT
BRANCH   1   2
ATOM      2  C   UNL     1      99.521 123.198 126.396  1.00  0.00     0.000 C 
BRANCH   2   3
ATOM      3  C   UNL     1      99.108 121.716 126.414  1.00  0.00     0.006 C 
BRANCH   3   4
ATOM      4  C   UNL     1     100.259 120.800 126.851  1.00  0.00     0.053 C 
BRANCH   4   5
ATOM      5  C   UNL     1     100.787 119.990 125.708  1.00  0.00     0.041 C 
ATOM      6  O   UNL     1     101.956 119.524 125.746  1.00  0.00    -0.550 OA
ATOM      7  O   UNL     1      99.998 119.777 124.584  1.00  0.00    -0.550 OA
ENDBRANCH   4   5
ENDBRANCH   3   4
ENDBRANCH   2   3
ENDBRANCH   1   2
BRANCH   1   8
ATOM      8  C   UNL     1      97.047 123.761 126.086  1.00  0.00     0.000 C 
BRANCH   8   9
ATOM      9  C   UNL     1      96.758 124.697 124.906  1.00  0.00     0.000 C 
BRANCH   9  10
ATOM     10  C   UNL     1      95.660 124.120 124.000  1.00  0.00     0.006 C 
BRANCH  10  11
ATOM     11  C   UNL     1      94.625 123.307 124.787  1.00  0.00     0.053 C 
BRANCH  11  12
ATOM     12  C   UNL     1      93.300 123.270 124.088  1.00  0.00     0.041 C 
ATOM     13  O   UNL     1      92.232 123.262 124.754  1.00  0.00    -0.550 OA
ATOM     14  O   UNL     1      93.248 123.211 122.701  1.00  0.00    -0.550 OA
ENDBRANCH  11  12
ENDBRANCH  10  11
ENDBRANCH   9  10
ENDBRANCH   8   9
ENDBRANCH   1   8
TORSDOF 9
ENDMDL
MODEL 2
REMARK VINA RESULT:    -4.936      0.157      6.765
REMARK INTER + INTRA:          -7.930
REMARK INTER:                  -7.536
REMARK INTRA:                  -0.394
REMARK UNBOUND:                -0.396
REMARK SMILES O=C([O-])CCCCCCCCC(=O)[O-]
REMARK SMILES IDX 7 1 6 2 5 3 4 4 2 5 1 6 3 7 8 8 9 9 10 10 11 11 12 12 13 13
REMARK SMILES IDX 14 14
REMARK H PARENT
REMARK Flexibility Score: inf
ROOT
ATOM      1  C   UNL     1      97.236 123.779 126.025  1.00  0.00     0.000 C 
ENDROOT
BRANCH   1   2
ATOM      2  C   UNL     1      96.870 124.789 124.925  1.00  0.00     0.000 C 
BRANCH   2   3
ATOM      3  C   UNL     1      95.729 124.291 124.021  1.00  0.00     0.006 C 
BRANCH   3   4
ATOM      4  C   UNL     1      94.772 123.349 124.762  1.00  0.00     0.053 C 
BRANCH   4   5
ATOM      5  C   UNL     1      93.426 123.299 124.107  1.00  0.00     0.041 C 
ATOM      6  O   UNL     1      92.383 123.211 124.806  1.00  0.00    -0.550 OA
ATOM      7  O   UNL     1      93.327 123.314 122.721  1.00  0.00    -0.550 OA
ENDBRANCH   4   5
ENDBRANCH   3   4
ENDBRANCH   2   3
ENDBRANCH   1   2
BRANCH   1   8
ATOM      8  C   UNL     1      98.536 124.147 126.755  1.00  0.00     0.000 C 
BRANCH   8   9
ATOM      9  C   UNL     1      99.665 123.175 126.389  1.00  0.00     0.000 C 
BRANCH   9  10
ATOM     10  C   UNL     1      99.165 121.723 126.394  1.00  0.00     0.006 C 
BRANCH  10  11
ATOM     11  C   UNL     1     100.236 120.741 126.887  1.00  0.00     0.053 C 
BRANCH  11  12
ATOM     12  C   UNL     1     100.891 120.019 125.750  1.00  0.00     0.041 C 
ATOM     13  O   UNL     1     102.107 119.701 125.817  1.00  0.00    -0.550 OA
ATOM     14  O   UNL     1     100.165 119.726 124.602  1.00  0.00    -0.550 OA
ENDBRANCH  11  12
ENDBRANCH  10  11
ENDBRANCH   9  10
ENDBRANCH   8   9
ENDBRANCH   1   8
TORSDOF 9
ENDMDL
MODEL 3
REMARK VINA RESULT:    -4.653      2.301      3.633
REMARK INTER + INTRA:          -7.497
REMARK INTER:                  -7.166
REMARK INTRA:                  -0.331
REMARK UNBOUND:                -0.396
REMARK SMILES O=C([O-])CCCCCCCCC(=O)[O-]
REMARK SMILES IDX 7 1 6 2 5 3 4 4 2 5 1 6 3 7 8 8 9 9 10 10 11 11 12 12 13 13
REMARK SMILES IDX 14 14
REMARK H PARENT
REMARK Flexibility Score: inf
ROOT
ATOM      1  C   UNL     1      95.387 124.053 124.141  1.00  0.00     0.000 C 
ENDROOT
BRANCH   1   2
ATOM      2  C   UNL     1      96.541 124.577 125.011  1.00  0.00     0.000 C 
BRANCH   2   3
ATOM      3  C   UNL     1      97.029 123.538 126.035  1.00  0.00     0.006 C 
BRANCH   3   4
ATOM      4  C   UNL     1      98.426 123.871 126.576  1.00  0.00     0.053 C 
BRANCH   4   5
ATOM      5  C   UNL     1      99.332 122.679 126.541  1.00  0.00     0.041 C 
ATOM      6  O   UNL     1      98.876 121.527 126.768  1.00  0.00    -0.550 OA
ATOM      7  O   UNL     1     100.689 122.844 126.290  1.00  0.00    -0.550 OA
ENDBRANCH   4   5
ENDBRANCH   3   4
ENDBRANCH   2   3
ENDBRANCH   1   2
BRANCH   1   8
ATOM      8  C   UNL     1      94.403 123.178 124.933  1.00  0.00     0.000 C 
BRANCH   8   9
ATOM      9  C   UNL     1      93.029 123.144 124.251  1.00  0.00     0.000 C 
BRANCH   9  10
ATOM     10  C   UNL     1      93.164 123.306 122.730  1.00  0.00     0.006 C 
BRANCH  10  11
ATOM     11  C   UNL     1      92.506 122.153 121.961  1.00  0.00     0.053 C 
BRANCH  11  12
ATOM     12  C   UNL     1      92.824 122.207 120.499  1.00  0.00     0.041 C 
ATOM     13  O   UNL     1      92.118 122.901 119.722  1.00  0.00    -0.550 OA
ATOM     14  O   UNL     1      93.883 121.465 119.990  1.00  0.00    -0.550 OA
ENDBRANCH  11  12
ENDBRANCH  10  11
ENDBRANCH   9  10
ENDBRANCH   8   9
ENDBRANCH   1   8
TORSDOF 9
ENDMDL
MODEL 4
REMARK VINA RESULT:    -4.606      2.488      7.050
REMARK INTER + INTRA:          -7.426
REMARK INTER:                  -7.079
REMARK INTRA:                  -0.347
REMARK UNBOUND:                -0.396
REMARK SMILES O=C([O-])CCCCCCCCC(=O)[O-]
REMARK SMILES IDX 7 1 6 2 5 3 4 4 2 5 1 6 3 7 8 8 9 9 10 10 11 11 12 12 13 13
REMARK SMILES IDX 14 14
REMARK H PARENT
REMARK Flexibility Score: inf
ROOT
ATOM      1  C   UNL     1      94.342 123.323 124.843  1.00  0.00     0.000 C 
ENDROOT
BRANCH   1   2
ATOM      2  C   UNL     1      93.012 123.074 124.114  1.00  0.00     0.000 C 
BRANCH   2   3
ATOM      3  C   UNL     1      93.129 123.259 122.591  1.00  0.00     0.006 C 
BRANCH   3   4
ATOM      4  C   UNL     1      92.471 122.110 121.816  1.00  0.00     0.053 C 
BRANCH   4   5
ATOM      5  C   UNL     1      92.844 122.134 120.366  1.00  0.00     0.041 C 
ATOM      6  O   UNL     1      93.867 121.520 119.963  1.00  0.00    -0.550 OA
ATOM      7  O   UNL     1      92.080 122.864 119.464  1.00  0.00    -0.550 OA
ENDBRANCH   4   5
ENDBRANCH   3   4
ENDBRANCH   2   3
ENDBRANCH   1   2
BRANCH   1   8
ATOM      8  C   UNL     1      95.420 123.913 123.920  1.00  0.00     0.000 C 
BRANCH   8   9
ATOM      9  C   UNL     1      96.498 124.641 124.732  1.00  0.00     0.000 C 
BRANCH   9  10
ATOM     10  C   UNL     1      96.900 123.826 125.970  1.00  0.00     0.006 C 
BRANCH  10  11
ATOM     11  C   UNL     1      98.281 124.227 126.506  1.00  0.00     0.053 C 
BRANCH  11  12
ATOM     12  C   UNL     1      99.229 123.066 126.520  1.00  0.00     0.041 C 
ATOM     13  O   UNL     1     100.460 123.251 126.334  1.00  0.00    -0.550 OA
ATOM     14  O   UNL     1      98.746 121.777 126.705  1.00  0.00    -0.550 OA
ENDBRANCH  11  12
ENDBRANCH  10  11
ENDBRANCH   9  10
ENDBRANCH   8   9
ENDBRANCH   1   8
TORSDOF 9
ENDMDL
MODEL 5
REMARK VINA RESULT:    -4.412      2.966      7.158
REMARK INTER + INTRA:          -7.129
REMARK INTER:                  -6.740
REMARK INTRA:                  -0.389
REMARK UNBOUND:                -0.396
REMARK SMILES O=C([O-])CCCCCCCCC(=O)[O-]
REMARK SMILES IDX 7 1 6 2 5 3 4 4 2 5 1 6 3 7 8 8 9 9 10 10 11 11 12 12 13 13
REMARK SMILES IDX 14 14
REMARK H PARENT
REMARK Flexibility Score: inf
ROOT
ATOM      1  C   UNL     1      92.862 123.018 124.300  1.00  0.00     0.000 C 
ENDROOT
BRANCH   1   2
ATOM      2  C   UNL     1      92.833 123.494 122.838  1.00  0.00     0.000 C 
BRANCH   2   3
ATOM      3  C   UNL     1      92.769 122.327 121.837  1.00  0.00     0.006 C 
BRANCH   3   4
ATOM      4  C   UNL     1      92.424 122.801 120.419  1.00  0.00     0.053 C 
BRANCH   4   5
ATOM      5  C   UNL     1      93.008 121.898 119.377  1.00  0.00     0.041 C 
ATOM      6  O   UNL     1      94.057 121.243 119.619  1.00  0.00    -0.550 OA
ATOM      7  O   UNL     1      92.413 121.804 118.125  1.00  0.00    -0.550 OA
ENDBRANCH   4   5
ENDBRANCH   3   4
ENDBRANCH   2   3
ENDBRANCH   1   2
BRANCH   1   8
ATOM      8  C   UNL     1      94.274 123.054 124.905  1.00  0.00     0.000 C 
BRANCH   8   9
ATOM      9  C   UNL     1      95.160 124.064 124.166  1.00  0.00     0.000 C 
BRANCH   9  10
ATOM     10  C   UNL     1      96.474 124.303 124.924  1.00  0.00     0.006 C 
BRANCH  10  11
ATOM     11  C   UNL     1      96.686 123.287 126.054  1.00  0.00     0.053 C 
BRANCH  11  12
ATOM     12  C   UNL     1      98.124 123.210 126.469  1.00  0.00     0.041 C 
ATOM     13  O   UNL     1      98.750 124.257 126.778  1.00  0.00    -0.550 OA
ATOM     14  O   UNL     1      98.779 121.986 126.483  1.00  0.00    -0.550 OA
ENDBRANCH  11  12
ENDBRANCH  10  11
ENDBRANCH   9  10
ENDBRANCH   8   9
ENDBRANCH   1   8
TORSDOF 9
ENDMDL
MODEL 6
REMARK VINA RESULT:    -4.016     13.399     16.389
REMARK INTER + INTRA:          -6.525
REMARK INTER:                  -6.131
REMARK INTRA:                  -0.394
REMARK UNBOUND:                -0.396
REMARK SMILES O=C([O-])CCCCCCCCC(=O)[O-]
REMARK SMILES IDX 7 1 6 2 5 3 4 4 2 5 1 6 3 7 8 8 9 9 10 10 11 11 12 12 13 13
REMARK SMILES IDX 14 14
REMARK H PARENT
REMARK Flexibility Score: inf
ROOT
ATOM      1  C   UNL     1      81.989 127.061 130.734  1.00  0.00     0.000 C 
ENDROOT
BRANCH   1   2
ATOM      2  C   UNL     1      83.416 127.594 130.937  1.00  0.00     0.000 C 
BRANCH   2   3
ATOM      3  C   UNL     1      83.597 129.023 130.395  1.00  0.00     0.006 C 
BRANCH   3   4
ATOM      4  C   UNL     1      82.526 129.983 130.926  1.00  0.00     0.053 C 
BRANCH   4   5
ATOM      5  C   UNL     1      83.130 131.109 131.707  1.00  0.00     0.041 C 
ATOM      6  O   UNL     1      82.620 132.260 131.661  1.00  0.00    -0.550 OA
ATOM      7  O   UNL     1      84.277 130.895 132.462  1.00  0.00    -0.550 OA
ENDBRANCH   4   5
ENDBRANCH   3   4
ENDBRANCH   2   3
ENDBRANCH   1   2
BRANCH   1   8
ATOM      8  C   UNL     1      81.932 125.889 129.742  1.00  0.00     0.000 C 
BRANCH   8   9
ATOM      9  C   UNL     1      83.342 125.386 129.408  1.00  0.00     0.000 C 
BRANCH   9  10
ATOM     10  C   UNL     1      83.304 124.354 128.271  1.00  0.00     0.006 C 
BRANCH  10  11
ATOM     11  C   UNL     1      84.422 124.578 127.245  1.00  0.00     0.053 C 
BRANCH  11  12
ATOM     12  C   UNL     1      84.396 123.544 126.161  1.00  0.00     0.041 C 
ATOM     13  O   UNL     1      84.007 123.849 125.004  1.00  0.00    -0.550 OA
ATOM     14  O   UNL     1      84.772 122.236 126.440  1.00  0.00    -0.550 OA
ENDBRANCH  11  12
ENDBRANCH  10  11
ENDBRANCH   9  10
ENDBRANCH   8   9
ENDBRANCH   1   8
TORSDOF 9
ENDMDL
MODEL 7
REMARK VINA RESULT:    -3.965     13.531     15.678
REMARK INTER + INTRA:          -6.448
REMARK INTER:                  -6.076
REMARK INTRA:                  -0.372
REMARK UNBOUND:                -0.396
REMARK SMILES O=C([O-])CCCCCCCCC(=O)[O-]
REMARK SMILES IDX 7 1 6 2 5 3 4 4 2 5 1 6 3 7 8 8 9 9 10 10 11 11 12 12 13 13
REMARK SMILES IDX 14 14
REMARK H PARENT
REMARK Flexibility Score: inf
ROOT
ATOM      1  C   UNL     1      81.896 125.577 129.336  1.00  0.00     0.000 C 
ENDROOT
BRANCH   1   2
ATOM      2  C   UNL     1      81.948 126.776 130.297  1.00  0.00     0.000 C 
BRANCH   2   3
ATOM      3  C   UNL     1      83.388 127.203 130.632  1.00  0.00     0.006 C 
BRANCH   3   4
ATOM      4  C   UNL     1      83.707 128.614 130.119  1.00  0.00     0.053 C 
BRANCH   4   5
ATOM      5  C   UNL     1      84.055 129.545 131.240  1.00  0.00     0.041 C 
ATOM      6  O   UNL     1      83.387 130.597 131.422  1.00  0.00    -0.550 OA
ATOM      7  O   UNL     1      85.139 129.267 132.064  1.00  0.00    -0.550 OA
ENDBRANCH   4   5
ENDBRANCH   3   4
ENDBRANCH   2   3
ENDBRANCH   1   2
BRANCH   1   8
ATOM      8  C   UNL     1      83.288 125.000 129.037  1.00  0.00     0.000 C 
BRANCH   8   9
ATOM      9  C   UNL     1      83.220 123.960 127.911  1.00  0.00     0.000 C 
BRANCH   9  10
ATOM     10  C   UNL     1      84.261 124.257 126.822  1.00  0.00     0.006 C 
BRANCH  10  11
ATOM     11  C   UNL     1      83.671 124.152 125.410  1.00  0.00     0.053 C 
BRANCH  11  12
ATOM     12  C   UNL     1      83.740 122.751 124.883  1.00  0.00     0.041 C 
ATOM     13  O   UNL     1      84.750 122.036 125.114  1.00  0.00    -0.550 OA
ATOM     14  O   UNL     1      82.701 122.247 124.110  1.00  0.00    -0.550 OA
ENDBRANCH  11  12
ENDBRANCH  10  11
ENDBRANCH   9  10
ENDBRANCH   8   9
ENDBRANCH   1   8
TORSDOF 9
ENDMDL
MODEL 8
REMARK VINA RESULT:    -3.881     13.626     15.741
REMARK INTER + INTRA:          -6.319
REMARK INTER:                  -5.817
REMARK INTRA:                  -0.502
REMARK UNBOUND:                -0.396
REMARK SMILES O=C([O-])CCCCCCCCC(=O)[O-]
REMARK SMILES IDX 7 1 6 2 5 3 4 4 2 5 1 6 3 7 8 8 9 9 10 10 11 11 12 12 13 13
REMARK SMILES IDX 14 14
REMARK H PARENT
REMARK Flexibility Score: inf
ROOT
ATOM      1  C   UNL     1      82.070 125.332 129.515  1.00  0.00     0.000 C 
ENDROOT
BRANCH   1   2
ATOM      2  C   UNL     1      83.369 124.593 129.878  1.00  0.00     0.000 C 
BRANCH   2   3
ATOM      3  C   UNL     1      83.983 123.852 128.677  1.00  0.00     0.006 C 
BRANCH   3   4
ATOM      4  C   UNL     1      83.571 124.479 127.338  1.00  0.00     0.053 C 
BRANCH   4   5
ATOM      5  C   UNL     1      84.071 123.678 126.176  1.00  0.00     0.041 C 
ATOM      6  O   UNL     1      84.836 122.696 126.363  1.00  0.00    -0.550 OA
ATOM      7  O   UNL     1      83.717 124.037 124.881  1.00  0.00    -0.550 OA
ENDBRANCH   4   5
ENDBRANCH   3   4
ENDBRANCH   2   3
ENDBRANCH   1   2
BRANCH   1   8
ATOM      8  C   UNL     1      82.002 126.740 130.127  1.00  0.00     0.000 C 
BRANCH   8   9
ATOM      9  C   UNL     1      83.384 127.192 130.616  1.00  0.00     0.000 C 
BRANCH   9  10
ATOM     10  C   UNL     1      83.699 128.616 130.137  1.00  0.00     0.006 C 
BRANCH  10  11
ATOM     11  C   UNL     1      82.863 129.675 130.868  1.00  0.00     0.053 C 
BRANCH  11  12
ATOM     12  C   UNL     1      83.705 130.516 131.777  1.00  0.00     0.041 C 
ATOM     13  O   UNL     1      84.696 130.014 132.368  1.00  0.00    -0.550 OA
ATOM     14  O   UNL     1      83.374 131.847 131.996  1.00  0.00    -0.550 OA
ENDBRANCH  11  12
ENDBRANCH  10  11
ENDBRANCH   9  10
ENDBRANCH   8   9
ENDBRANCH   1   8
TORSDOF 9
ENDMDL
MODEL 9
REMARK VINA RESULT:    -3.785     13.285     15.353
REMARK INTER + INTRA:          -6.173
REMARK INTER:                  -5.872
REMARK INTRA:                  -0.302
REMARK UNBOUND:                -0.396
REMARK SMILES O=C([O-])CCCCCCCCC(=O)[O-]
REMARK SMILES IDX 7 1 6 2 5 3 4 4 2 5 1 6 3 7 8 8 9 9 10 10 11 11 12 12 13 13
REMARK SMILES IDX 14 14
REMARK H PARENT
REMARK Flexibility Score: inf
ROOT
ATOM      1  C   UNL     1      83.277 125.257 129.245  1.00  0.00     0.000 C 
ENDROOT
BRANCH   1   2
ATOM      2  C   UNL     1      83.093 124.480 127.931  1.00  0.00     0.000 C 
BRANCH   2   3
ATOM      3  C   UNL     1      84.356 124.495 127.053  1.00  0.00     0.006 C 
BRANCH   3   4
ATOM      4  C   UNL     1      84.108 123.871 125.673  1.00  0.00     0.053 C 
BRANCH   4   5
ATOM      5  C   UNL     1      84.513 122.429 125.637  1.00  0.00     0.041 C 
ATOM      6  O   UNL     1      84.627 121.830 124.535  1.00  0.00    -0.550 OA
ATOM      7  O   UNL     1      84.733 121.739 126.822  1.00  0.00    -0.550 OA
ENDBRANCH   4   5
ENDBRANCH   3   4
ENDBRANCH   2   3
ENDBRANCH   1   2
BRANCH   1   8
ATOM      8  C   UNL     1      81.957 125.835 129.779  1.00  0.00     0.000 C 
BRANCH   8   9
ATOM      9  C   UNL     1      82.217 127.033 130.701  1.00  0.00     0.000 C 
BRANCH   9  10
ATOM     10  C   UNL     1      83.392 127.878 130.190  1.00  0.00     0.006 C 
BRANCH  10  11
ATOM     11  C   UNL     1      83.213 129.370 130.499  1.00  0.00     0.053 C 
BRANCH  11  12
ATOM     12  C   UNL     1      83.865 129.750 131.793  1.00  0.00     0.041 C 
ATOM     13  O   UNL     1      83.241 130.444 132.638  1.00  0.00    -0.550 OA
ATOM     14  O   UNL     1      85.175 129.364 132.052  1.00  0.00    -0.550 OA
ENDBRANCH  11  12
ENDBRANCH  10  11
ENDBRANCH   9  10
ENDBRANCH   8   9
ENDBRANCH   1   8
TORSDOF 9
ENDMDL
