MODEL 1
REMARK VINA RESULT:    -2.150      0.000      0.000
REMARK INTER + INTRA:          -2.553
REMARK INTER:                  -2.528
REMARK INTRA:                  -0.026
REMARK UNBOUND:                -0.026
REMARK SMILES CCCCC(=O)[O-]
REMARK SMILES IDX 4 1 5 2 6 3 7 4 3 5 2 6 1 7
REMARK H PARENT
REMARK Flexibility Score: inf
ROOT
ATOM      1  C   UNL     1     -32.236  20.901  -9.996  1.00  0.00     0.053 C 
ENDROOT
BRANCH   1   2
ATOM      2  C   UNL     1     -31.591  19.606 -10.372  1.00  0.00     0.041 C 
ATOM      3  O   UNL     1     -32.281  18.556 -10.463  1.00  0.00    -0.550 OA
ATOM      4  O   UNL     1     -30.218  19.545 -10.574  1.00  0.00    -0.550 OA
ENDBRANCH   1   2
BRANCH   1   5
ATOM      5  C   UNL     1     -31.518  22.073 -10.671  1.00  0.00     0.006 C 
BRANCH   5   6
ATOM      6  C   UNL     1     -31.714  23.369  -9.874  1.00  0.00    -0.003 C 
ATOM      7  C   UNL     1     -33.160  23.850  -9.951  1.00  0.00     0.004 C 
ENDBRANCH   5   6
ENDBRANCH   1   5
TORSDOF 3
ENDMDL
MODEL 2
REMARK VINA RESULT:    -1.815     23.021     24.292
REMARK INTER + INTRA:          -2.159
REMARK INTER:                  -2.135
REMARK INTRA:                  -0.024
REMARK UNBOUND:                -0.026
REMARK SMILES CCCCC(=O)[O-]
REMARK SMILES IDX 4 1 5 2 6 3 7 4 3 5 2 6 1 7
REMARK H PARENT
REMARK Flexibility Score: inf
ROOT
ATOM      1  C   UNL     1     -17.486   3.878 -18.588  1.00  0.00     0.053 C 
ENDROOT
BRANCH   1   2
ATOM      2  C   UNL     1     -18.753   4.360 -19.222  1.00  0.00     0.041 C 
ATOM      3  O   UNL     1     -18.716   5.237 -20.124  1.00  0.00    -0.550 OA
ATOM      4  O   UNL     1     -19.978   3.877 -18.781  1.00  0.00    -0.550 OA
ENDBRANCH   1   2
BRANCH   1   5
ATOM      5  C   UNL     1     -16.336   3.912 -19.598  1.00  0.00     0.006 C 
BRANCH   5   6
ATOM      6  C   UNL     1     -14.979   3.926 -18.884  1.00  0.00    -0.003 C 
ATOM      7  C   UNL     1     -13.989   4.841 -19.600  1.00  0.00     0.004 C 
ENDBRANCH   5   6
ENDBRANCH   1   5
TORSDOF 3
ENDMDL
MODEL 3
REMARK VINA RESULT:    -1.568      1.041      1.809
REMARK INTER + INTRA:          -1.869
REMARK INTER:                  -1.846
REMARK INTRA:                  -0.023
REMARK UNBOUND:                -0.026
REMARK SMILES CCCCC(=O)[O-]
REMARK SMILES IDX 4 1 5 2 6 3 7 4 3 5 2 6 1 7
REMARK H PARENT
REMARK Flexibility Score: inf
ROOT
ATOM      1  C   UNL     1     -31.962  19.585 -10.443  1.00  0.00     0.053 C 
ENDROOT
BRANCH   1   2
ATOM      2  C   UNL     1     -30.917  18.520 -10.547  1.00  0.00     0.041 C 
ATOM      3  O   UNL     1     -29.707  18.831 -10.699  1.00  0.00    -0.550 OA
ATOM      4  O   UNL     1     -31.285  17.180 -10.527  1.00  0.00    -0.550 OA
ENDBRANCH   1   2
BRANCH   1   5
ATOM      5  C   UNL     1     -31.310  20.968 -10.358  1.00  0.00     0.006 C 
BRANCH   5   6
ATOM      6  C   UNL     1     -32.366  22.078 -10.436  1.00  0.00    -0.003 C 
ATOM      7  C   UNL     1     -31.839  23.381  -9.843  1.00  0.00     0.004 C 
ENDBRANCH   5   6
ENDBRANCH   1   5
TORSDOF 3
ENDMDL
MODEL 4
REMARK VINA RESULT:    -1.385      2.853      4.259
REMARK INTER + INTRA:          -1.654
REMARK INTER:                  -1.637
REMARK INTRA:                  -0.016
REMARK UNBOUND:                -0.026
REMARK SMILES CCCCC(=O)[O-]
REMARK SMILES IDX 4 1 5 2 6 3 7 4 3 5 2 6 1 7
REMARK H PARENT
REMARK Flexibility Score: inf
ROOT
ATOM      1  C   UNL     1     -31.807  22.278 -10.714  1.00  0.00     0.053 C 
ENDROOT
BRANCH   1   2
ATOM      2  C   UNL     1     -32.350  23.474  -9.999  1.00  0.00     0.041 C 
ATOM      3  O   UNL     1     -31.619  24.123  -9.204  1.00  0.00    -0.550 OA
ATOM      4  O   UNL     1     -33.677  23.845 -10.171  1.00  0.00    -0.550 OA
ENDBRANCH   1   2
BRANCH   1   5
ATOM      5  C   UNL     1     -32.283  20.989 -10.038  1.00  0.00     0.006 C 
BRANCH   5   6
ATOM      6  C   UNL     1     -31.359  19.814 -10.385  1.00  0.00    -0.003 C 
ATOM      7  C   UNL     1     -32.136  18.502 -10.447  1.00  0.00     0.004 C 
ENDBRANCH   5   6
ENDBRANCH   1   5
TORSDOF 3
ENDMDL
MODEL 5
REMARK VINA RESULT:    -1.180      2.617      3.609
REMARK INTER + INTRA:          -1.412
REMARK INTER:                  -1.373
REMARK INTRA:                  -0.039
REMARK UNBOUND:                -0.026
REMARK SMILES CCCCC(=O)[O-]
REMARK SMILES IDX 4 1 5 2 6 3 7 4 3 5 2 6 1 7
REMARK H PARENT
REMARK Flexibility Score: inf
ROOT
ATOM      1  C   UNL     1     -30.091  18.493 -10.725  1.00  0.00     0.053 C 
ENDROOT
BRANCH   1   2
ATOM      2  C   UNL     1     -29.425  17.400 -11.497  1.00  0.00     0.041 C 
ATOM      3  O   UNL     1     -29.447  16.216 -11.068  1.00  0.00    -0.550 OA
ATOM      4  O   UNL     1     -28.735  17.694 -12.666  1.00  0.00    -0.550 OA
ENDBRANCH   1   2
BRANCH   1   5
ATOM      5  C   UNL     1     -31.538  18.115 -10.400  1.00  0.00     0.006 C 
BRANCH   5   6
ATOM      6  C   UNL     1     -32.446  19.352 -10.415  1.00  0.00    -0.003 C 
ATOM      7  C   UNL     1     -31.627  20.637 -10.346  1.00  0.00     0.004 C 
ENDBRANCH   5   6
ENDBRANCH   1   5
TORSDOF 3
ENDMDL
MODEL 6
REMARK VINA RESULT:    -1.124      2.299      4.231
REMARK INTER + INTRA:          -1.347
REMARK INTER:                  -1.325
REMARK INTRA:                  -0.023
REMARK UNBOUND:                -0.026
REMARK SMILES CCCCC(=O)[O-]
REMARK SMILES IDX 4 1 5 2 6 3 7 4 3 5 2 6 1 7
REMARK H PARENT
REMARK Flexibility Score: inf
ROOT
ATOM      1  C   UNL     1     -32.421  20.702 -10.203  1.00  0.00     0.053 C 
ENDROOT
BRANCH   1   2
ATOM      2  C   UNL     1     -31.955  22.112 -10.375  1.00  0.00     0.041 C 
ATOM      3  O   UNL     1     -30.747  22.354 -10.636  1.00  0.00    -0.550 OA
ATOM      4  O   UNL     1     -32.845  23.165 -10.198  1.00  0.00    -0.550 OA
ENDBRANCH   1   2
BRANCH   1   5
ATOM      5  C   UNL     1     -31.257  19.726 -10.394  1.00  0.00     0.006 C 
BRANCH   5   6
ATOM      6  C   UNL     1     -31.759  18.278 -10.458  1.00  0.00    -0.003 C 
ATOM      7  C   UNL     1     -30.606  17.305 -10.686  1.00  0.00     0.004 C 
ENDBRANCH   5   6
ENDBRANCH   1   5
TORSDOF 3
ENDMDL
MODEL 7
REMARK VINA RESULT:    -0.889      2.247      4.108
REMARK INTER + INTRA:          -1.071
REMARK INTER:                  -1.051
REMARK INTRA:                  -0.020
REMARK UNBOUND:                -0.026
REMARK SMILES CCCCC(=O)[O-]
REMARK SMILES IDX 4 1 5 2 6 3 7 4 3 5 2 6 1 7
REMARK H PARENT
REMARK Flexibility Score: inf
ROOT
ATOM      1  C   UNL     1     -32.413  20.617 -10.351  1.00  0.00     0.053 C 
ENDROOT
BRANCH   1   2
ATOM      2  C   UNL     1     -31.918  22.027 -10.368  1.00  0.00     0.041 C 
ATOM      3  O   UNL     1     -32.714  22.981 -10.163  1.00  0.00    -0.550 OA
ATOM      4  O   UNL     1     -30.586  22.294 -10.660  1.00  0.00    -0.550 OA
ENDBRANCH   1   2
BRANCH   1   5
ATOM      5  C   UNL     1     -31.237  19.636 -10.344  1.00  0.00     0.006 C 
BRANCH   5   6
ATOM      6  C   UNL     1     -31.731  18.186 -10.414  1.00  0.00    -0.003 C 
ATOM      7  C   UNL     1     -30.581  17.225 -10.705  1.00  0.00     0.004 C 
ENDBRANCH   5   6
ENDBRANCH   1   5
TORSDOF 3
ENDMDL
MODEL 8
REMARK VINA RESULT:    -0.690      2.420      4.300
REMARK INTER + INTRA:          -0.837
REMARK INTER:                  -0.815
REMARK INTRA:                  -0.022
REMARK UNBOUND:                -0.026
REMARK SMILES CCCCC(=O)[O-]
REMARK SMILES IDX 4 1 5 2 6 3 7 4 3 5 2 6 1 7
REMARK H PARENT
REMARK Flexibility Score: inf
ROOT
ATOM      1  C   UNL     1     -30.396  20.573 -10.681  1.00  0.00     0.053 C 
ENDROOT
BRANCH   1   2
ATOM      2  C   UNL     1     -31.643  21.281 -10.257  1.00  0.00     0.041 C 
ATOM      3  O   UNL     1     -32.677  20.625  -9.965  1.00  0.00    -0.550 OA
ATOM      4  O   UNL     1     -31.680  22.670 -10.231  1.00  0.00    -0.550 OA
ENDBRANCH   1   2
BRANCH   1   5
ATOM      5  C   UNL     1     -30.552  19.061 -10.502  1.00  0.00     0.006 C 
BRANCH   5   6
ATOM      6  C   UNL     1     -29.240  18.332 -10.818  1.00  0.00    -0.003 C 
ATOM      7  C   UNL     1     -29.499  16.892 -11.249  1.00  0.00     0.004 C 
ENDBRANCH   5   6
ENDBRANCH   1   5
TORSDOF 3
ENDMDL
MODEL 9
REMARK VINA RESULT:     0.122      3.417      4.903
REMARK INTER + INTRA:           0.118
REMARK INTER:                  -0.176
REMARK INTRA:                   0.294
REMARK UNBOUND:                -0.026
REMARK SMILES CCCCC(=O)[O-]
REMARK SMILES IDX 4 1 5 2 6 3 7 4 3 5 2 6 1 7
REMARK H PARENT
REMARK Flexibility Score: inf
ROOT
ATOM      1  C   UNL     1     -30.194  18.883 -10.776  1.00  0.00     0.053 C 
ENDROOT
BRANCH   1   2
ATOM      2  C   UNL     1     -31.578  18.415 -10.459  1.00  0.00     0.041 C 
ATOM      3  O   UNL     1     -32.523  19.242 -10.371  1.00  0.00    -0.550 OA
ATOM      4  O   UNL     1     -31.817  17.069 -10.212  1.00  0.00    -0.550 OA
ENDBRANCH   1   2
BRANCH   1   5
ATOM      5  C   UNL     1     -29.179  17.763 -10.530  1.00  0.00     0.006 C 
BRANCH   5   6
ATOM      6  C   UNL     1     -29.261  16.696 -11.629  1.00  0.00    -0.003 C 
ATOM      7  C   UNL     1     -28.866  17.272 -12.986  1.00  0.00     0.004 C 
ENDBRANCH   5   6
ENDBRANCH   1   5
TORSDOF 3
ENDMDL
