MODEL 1
REMARK VINA RESULT:    -3.545      0.000      0.000
REMARK INTER + INTRA:          -4.635
REMARK INTER:                  -4.374
REMARK INTRA:                  -0.261
REMARK UNBOUND:                -0.261
REMARK SMILES CCCCCC(=O)[O-]
REMARK SMILES IDX 4 1 5 2 6 3 7 4 8 5 3 6 2 7 1 8
REMARK H PARENT
REMARK Flexibility Score: inf
ROOT
ATOM      1  C   UNL     1      62.088  27.121  26.700  1.00  0.00     0.006 C 
ENDROOT
BRANCH   1   2
ATOM      2  C   UNL     1      61.999  27.373  28.211  1.00  0.00     0.053 C 
BRANCH   2   3
ATOM      3  C   UNL     1      61.477  28.744  28.516  1.00  0.00     0.041 C 
ATOM      4  O   UNL     1      60.383  28.887  29.123  1.00  0.00    -0.550 OA
ATOM      5  O   UNL     1      62.186  29.866  28.103  1.00  0.00    -0.550 OA
ENDBRANCH   2   3
ENDBRANCH   1   2
BRANCH   1   6
ATOM      6  C   UNL     1      60.707  27.151  26.024  1.00  0.00     0.000 C 
BRANCH   6   7
ATOM      7  C   UNL     1      60.682  28.045  24.775  1.00  0.00    -0.003 C 
ATOM      8  C   UNL     1      61.870  29.005  24.709  1.00  0.00     0.004 C 
ENDBRANCH   6   7
ENDBRANCH   1   6
TORSDOF 4
ENDMDL
MODEL 2
REMARK VINA RESULT:    -3.525     15.125     16.424
REMARK INTER + INTRA:          -4.611
REMARK INTER:                  -4.351
REMARK INTRA:                  -0.260
REMARK UNBOUND:                -0.261
REMARK SMILES CCCCCC(=O)[O-]
REMARK SMILES IDX 4 1 5 2 6 3 7 4 8 5 3 6 2 7 1 8
REMARK H PARENT
REMARK Flexibility Score: inf
ROOT
ATOM      1  C   UNL     1      62.964  29.601  11.471  1.00  0.00     0.006 C 
ENDROOT
BRANCH   1   2
ATOM      2  C   UNL     1      62.981  28.955  10.079  1.00  0.00     0.053 C 
BRANCH   2   3
ATOM      3  C   UNL     1      61.602  28.829   9.507  1.00  0.00     0.041 C 
ATOM      4  O   UNL     1      61.226  27.745   8.990  1.00  0.00    -0.550 OA
ATOM      5  O   UNL     1      60.742  29.921   9.520  1.00  0.00    -0.550 OA
ENDBRANCH   2   3
ENDBRANCH   1   2
BRANCH   1   6
ATOM      6  C   UNL     1      62.457  28.632  12.553  1.00  0.00     0.000 C 
BRANCH   6   7
ATOM      7  C   UNL     1      61.102  29.058  13.137  1.00  0.00    -0.003 C 
ATOM      8  C   UNL     1      59.966  28.110  12.754  1.00  0.00     0.004 C 
ENDBRANCH   6   7
ENDBRANCH   1   6
TORSDOF 4
ENDMDL
MODEL 3
REMARK VINA RESULT:    -3.451      1.390      1.635
REMARK INTER + INTRA:          -4.519
REMARK INTER:                  -4.322
REMARK INTRA:                  -0.196
REMARK UNBOUND:                -0.261
REMARK SMILES CCCCCC(=O)[O-]
REMARK SMILES IDX 4 1 5 2 6 3 7 4 8 5 3 6 2 7 1 8
REMARK H PARENT
REMARK Flexibility Score: inf
ROOT
ATOM      1  C   UNL     1      62.143  27.831  27.137  1.00  0.00     0.006 C 
ENDROOT
BRANCH   1   2
ATOM      2  C   UNL     1      61.674  28.990  28.027  1.00  0.00     0.053 C 
BRANCH   2   3
ATOM      3  C   UNL     1      62.577  30.181  27.911  1.00  0.00     0.041 C 
ATOM      4  O   UNL     1      62.711  30.972  28.881  1.00  0.00    -0.550 OA
ATOM      5  O   UNL     1      63.247  30.431  26.720  1.00  0.00    -0.550 OA
ENDBRANCH   2   3
ENDBRANCH   1   2
BRANCH   1   6
ATOM      6  C   UNL     1      60.969  27.131  26.431  1.00  0.00     0.000 C 
BRANCH   6   7
ATOM      7  C   UNL     1      60.521  27.871  25.161  1.00  0.00    -0.003 C 
ATOM      8  C   UNL     1      61.695  28.324  24.294  1.00  0.00     0.004 C 
ENDBRANCH   6   7
ENDBRANCH   1   6
TORSDOF 4
ENDMDL
MODEL 4
REMARK VINA RESULT:    -3.441      2.416      3.493
REMARK INTER + INTRA:          -4.506
REMARK INTER:                  -4.367
REMARK INTRA:                  -0.139
REMARK UNBOUND:                -0.261
REMARK SMILES CCCCCC(=O)[O-]
REMARK SMILES IDX 4 1 5 2 6 3 7 4 8 5 3 6 2 7 1 8
REMARK H PARENT
REMARK Flexibility Score: inf
ROOT
ATOM      1  C   UNL     1      60.762  27.425  28.047  1.00  0.00     0.006 C 
ENDROOT
BRANCH   1   2
ATOM      2  C   UNL     1      61.444  27.126  26.705  1.00  0.00     0.053 C 
BRANCH   2   3
ATOM      3  C   UNL     1      60.500  27.286  25.553  1.00  0.00     0.041 C 
ATOM      4  O   UNL     1      59.540  26.485  25.403  1.00  0.00    -0.550 OA
ATOM      5  O   UNL     1      60.697  28.305  24.629  1.00  0.00    -0.550 OA
ENDBRANCH   2   3
ENDBRANCH   1   2
BRANCH   1   6
ATOM      6  C   UNL     1      61.048  28.855  28.536  1.00  0.00     0.000 C 
BRANCH   6   7
ATOM      7  C   UNL     1      62.278  29.475  27.856  1.00  0.00    -0.003 C 
ATOM      8  C   UNL     1      62.833  30.678  28.617  1.00  0.00     0.004 C 
ENDBRANCH   6   7
ENDBRANCH   1   6
TORSDOF 4
ENDMDL
MODEL 5
REMARK VINA RESULT:    -3.408     14.125     14.940
REMARK INTER + INTRA:          -4.466
REMARK INTER:                  -4.362
REMARK INTRA:                  -0.104
REMARK UNBOUND:                -0.261
REMARK SMILES CCCCCC(=O)[O-]
REMARK SMILES IDX 4 1 5 2 6 3 7 4 8 5 3 6 2 7 1 8
REMARK H PARENT
REMARK Flexibility Score: inf
ROOT
ATOM      1  C   UNL     1      61.391  30.549  12.462  1.00  0.00     0.006 C 
ENDROOT
BRANCH   1   2
ATOM      2  C   UNL     1      60.859  29.222  13.020  1.00  0.00     0.053 C 
BRANCH   2   3
ATOM      3  C   UNL     1      59.768  28.655  12.163  1.00  0.00     0.041 C 
ATOM      4  O   UNL     1      58.830  27.997  12.684  1.00  0.00    -0.550 OA
ATOM      5  O   UNL     1      59.804  28.832  10.785  1.00  0.00    -0.550 OA
ENDBRANCH   2   3
ENDBRANCH   1   2
BRANCH   1   6
ATOM      6  C   UNL     1      60.423  31.717  12.723  1.00  0.00     0.000 C 
BRANCH   6   7
ATOM      7  C   UNL     1      61.155  33.016  13.091  1.00  0.00    -0.003 C 
ATOM      8  C   UNL     1      60.837  33.495  14.507  1.00  0.00     0.004 C 
ENDBRANCH   6   7
ENDBRANCH   1   6
TORSDOF 4
ENDMDL
MODEL 6
REMARK VINA RESULT:    -3.398     14.585     16.131
REMARK INTER + INTRA:          -4.453
REMARK INTER:                  -4.314
REMARK INTRA:                  -0.139
REMARK UNBOUND:                -0.261
REMARK SMILES CCCCCC(=O)[O-]
REMARK SMILES IDX 4 1 5 2 6 3 7 4 8 5 3 6 2 7 1 8
REMARK H PARENT
REMARK Flexibility Score: inf
ROOT
ATOM      1  C   UNL     1      60.122  29.000  11.490  1.00  0.00     0.006 C 
ENDROOT
BRANCH   1   2
ATOM      2  C   UNL     1      61.142  29.673  10.563  1.00  0.00     0.053 C 
BRANCH   2   3
ATOM      3  C   UNL     1      61.876  28.673   9.722  1.00  0.00     0.041 C 
ATOM      4  O   UNL     1      61.239  27.816   9.055  1.00  0.00    -0.550 OA
ATOM      5  O   UNL     1      63.265  28.671   9.699  1.00  0.00    -0.550 OA
ENDBRANCH   2   3
ENDBRANCH   1   2
BRANCH   1   6
ATOM      6  C   UNL     1      60.800  28.238  12.642  1.00  0.00     0.000 C 
BRANCH   6   7
ATOM      7  C   UNL     1      62.003  28.998  13.223  1.00  0.00    -0.003 C 
ATOM      8  C   UNL     1      61.601  30.018  14.287  1.00  0.00     0.004 C 
ENDBRANCH   6   7
ENDBRANCH   1   6
TORSDOF 4
ENDMDL
MODEL 7
REMARK VINA RESULT:    -3.392     14.336     15.423
REMARK INTER + INTRA:          -4.447
REMARK INTER:                  -4.222
REMARK INTRA:                  -0.225
REMARK UNBOUND:                -0.261
REMARK SMILES CCCCCC(=O)[O-]
REMARK SMILES IDX 4 1 5 2 6 3 7 4 8 5 3 6 2 7 1 8
REMARK H PARENT
REMARK Flexibility Score: inf
ROOT
ATOM      1  C   UNL     1      62.206  28.584  12.933  1.00  0.00     0.006 C 
ENDROOT
BRANCH   1   2
ATOM      2  C   UNL     1      60.898  29.386  12.910  1.00  0.00     0.053 C 
BRANCH   2   3
ATOM      3  C   UNL     1      59.822  28.674  12.150  1.00  0.00     0.041 C 
ATOM      4  O   UNL     1      59.722  28.821  10.904  1.00  0.00    -0.550 OA
ATOM      5  O   UNL     1      58.911  27.869  12.824  1.00  0.00    -0.550 OA
ENDBRANCH   2   3
ENDBRANCH   1   2
BRANCH   1   6
ATOM      6  C   UNL     1      63.388  29.386  12.363  1.00  0.00     0.000 C 
BRANCH   6   7
ATOM      7  C   UNL     1      63.079  29.991  10.985  1.00  0.00    -0.003 C 
ATOM      8  C   UNL     1      63.162  28.965   9.855  1.00  0.00     0.004 C 
ENDBRANCH   6   7
ENDBRANCH   1   6
TORSDOF 4
ENDMDL
MODEL 8
REMARK VINA RESULT:    -3.390      1.413      2.152
REMARK INTER + INTRA:          -4.444
REMARK INTER:                  -4.173
REMARK INTRA:                  -0.271
REMARK UNBOUND:                -0.261
REMARK SMILES CCCCCC(=O)[O-]
REMARK SMILES IDX 4 1 5 2 6 3 7 4 8 5 3 6 2 7 1 8
REMARK H PARENT
REMARK Flexibility Score: inf
ROOT
ATOM      1  C   UNL     1      60.568  27.901  25.215  1.00  0.00     0.006 C 
ENDROOT
BRANCH   1   2
ATOM      2  C   UNL     1      60.710  26.942  26.404  1.00  0.00     0.053 C 
BRANCH   2   3
ATOM      3  C   UNL     1      61.343  27.612  27.586  1.00  0.00     0.041 C 
ATOM      4  O   UNL     1      62.271  27.041  28.217  1.00  0.00    -0.550 OA
ATOM      5  O   UNL     1      60.888  28.856  28.006  1.00  0.00    -0.550 OA
ENDBRANCH   2   3
ENDBRANCH   1   2
BRANCH   1   6
ATOM      6  C   UNL     1      61.928  28.252  24.587  1.00  0.00     0.000 C 
BRANCH   6   7
ATOM      7  C   UNL     1      62.201  29.764  24.581  1.00  0.00    -0.003 C 
ATOM      8  C   UNL     1      63.229  30.185  25.630  1.00  0.00     0.004 C 
ENDBRANCH   6   7
ENDBRANCH   1   6
TORSDOF 4
ENDMDL
MODEL 9
REMARK VINA RESULT:    -3.350     14.810     16.286
REMARK INTER + INTRA:          -4.395
REMARK INTER:                  -4.159
REMARK INTRA:                  -0.236
REMARK UNBOUND:                -0.261
REMARK SMILES CCCCCC(=O)[O-]
REMARK SMILES IDX 4 1 5 2 6 3 7 4 8 5 3 6 2 7 1 8
REMARK H PARENT
REMARK Flexibility Score: inf
ROOT
ATOM      1  C   UNL     1      60.040  29.006   9.987  1.00  0.00     0.006 C 
ENDROOT
BRANCH   1   2
ATOM      2  C   UNL     1      60.456  29.685  11.300  1.00  0.00     0.053 C 
BRANCH   2   3
ATOM      3  C   UNL     1      60.691  28.686  12.392  1.00  0.00     0.041 C 
ATOM      4  O   UNL     1      61.833  28.567  12.908  1.00  0.00    -0.550 OA
ATOM      5  O   UNL     1      59.652  27.868  12.821  1.00  0.00    -0.550 OA
ENDBRANCH   2   3
ENDBRANCH   1   2
BRANCH   1   6
ATOM      6  C   UNL     1      61.219  28.287   9.309  1.00  0.00     0.000 C 
BRANCH   6   7
ATOM      7  C   UNL     1      62.329  29.256   8.875  1.00  0.00    -0.003 C 
ATOM      8  C   UNL     1      63.672  28.954   9.540  1.00  0.00     0.004 C 
ENDBRANCH   6   7
ENDBRANCH   1   6
TORSDOF 4
ENDMDL
