MODEL 1
REMARK VINA RESULT:    -4.338      0.000      0.000
REMARK INTER + INTRA:          -4.465
REMARK INTER:                  -4.465
REMARK INTRA:                   0.000
REMARK UNBOUND:                 0.000
REMARK SMILES Nc1ncnc2nc[nH]c12
REMARK SMILES IDX 8 1 7 2 6 3 5 4 4 5 3 6 2 7 10 8 9 9 1 11
REMARK H PARENT 9 10 1 12 1 13
REMARK Flexibility Score: inf
ROOT
ATOM      1  C   UNL     1      16.079   7.547  10.196  1.00  0.00     0.199 A 
ATOM      2  N   UNL     1      17.145   6.704  10.129  1.00  0.00    -0.217 NA
ATOM      3  C   UNL     1      17.453   6.736   8.822  1.00  0.00     0.182 A 
ATOM      4  N   UNL     1      18.453   6.060   8.210  1.00  0.00    -0.215 NA
ATOM      5  C   UNL     1      18.611   6.222   6.861  1.00  0.00     0.226 A 
ATOM      6  N   UNL     1      17.774   7.048   6.156  1.00  0.00    -0.217 NA
ATOM      7  C   UNL     1      16.763   7.731   6.771  1.00  0.00     0.152 A 
ATOM      8  C   UNL     1      16.615   7.556   8.145  1.00  0.00     0.127 A 
ATOM      9  N   UNL     1      15.732   8.085   9.001  1.00  0.00    -0.340 N 
ATOM     10  H   UNL     1      14.953   8.753   8.805  1.00  0.00     0.168 HD
ENDROOT
BRANCH   7  11
ATOM     11  N   UNL     1      15.903   8.586   6.018  1.00  0.00    -0.382 N 
ATOM     12  H   UNL     1      14.953   8.275   5.718  1.00  0.00     0.158 HD
ATOM     13  H   UNL     1      16.221   9.544   5.753  1.00  0.00     0.158 HD
ENDBRANCH   7  11
TORSDOF 1
ENDMDL
MODEL 2
REMARK VINA RESULT:    -4.263     13.348     15.613
REMARK INTER + INTRA:          -4.387
REMARK INTER:                  -4.387
REMARK INTRA:                   0.000
REMARK UNBOUND:                 0.000
REMARK SMILES Nc1ncnc2nc[nH]c12
REMARK SMILES IDX 8 1 7 2 6 3 5 4 4 5 3 6 2 7 10 8 9 9 1 11
REMARK H PARENT 9 10 1 12 1 13
REMARK Flexibility Score: inf
ROOT
ATOM      1  C   UNL     1      12.486   5.579  20.220  1.00  0.00     0.199 A 
ATOM      2  N   UNL     1      12.741   4.242  20.243  1.00  0.00    -0.217 NA
ATOM      3  C   UNL     1      12.630   3.953  21.551  1.00  0.00     0.182 A 
ATOM      4  N   UNL     1      12.792   2.739  22.126  1.00  0.00    -0.215 NA
ATOM      5  C   UNL     1      12.637   2.640  23.481  1.00  0.00     0.226 A 
ATOM      6  N   UNL     1      12.327   3.748  24.229  1.00  0.00    -0.217 NA
ATOM      7  C   UNL     1      12.164   4.975  23.650  1.00  0.00     0.152 A 
ATOM      8  C   UNL     1      12.324   5.058  22.269  1.00  0.00     0.127 A 
ATOM      9  N   UNL     1      12.227   6.106  21.442  1.00  0.00    -0.340 N 
ATOM     10  H   UNL     1      12.006   7.101  21.672  1.00  0.00     0.168 HD
ENDROOT
BRANCH   7  11
ATOM     11  N   UNL     1      11.840   6.114  24.447  1.00  0.00    -0.382 N 
ATOM     12  H   UNL     1      11.710   7.058  24.020  1.00  0.00     0.158 HD
ATOM     13  H   UNL     1      11.729   6.014  25.480  1.00  0.00     0.158 HD
ENDBRANCH   7  11
TORSDOF 1
ENDMDL
MODEL 3
REMARK VINA RESULT:    -4.161     10.504     12.169
REMARK INTER + INTRA:          -4.283
REMARK INTER:                  -4.283
REMARK INTRA:                   0.000
REMARK UNBOUND:                 0.000
REMARK SMILES Nc1ncnc2nc[nH]c12
REMARK SMILES IDX 8 1 7 2 6 3 5 4 4 5 3 6 2 7 10 8 9 9 1 11
REMARK H PARENT 9 10 1 12 1 13
REMARK Flexibility Score: inf
ROOT
ATOM      1  C   UNL     1      11.906   3.744  16.534  1.00  0.00     0.199 A 
ATOM      2  N   UNL     1      11.344   3.313  17.696  1.00  0.00    -0.217 NA
ATOM      3  C   UNL     1      10.947   2.070  17.377  1.00  0.00     0.182 A 
ATOM      4  N   UNL     1      10.318   1.188  18.190  1.00  0.00    -0.215 NA
ATOM      5  C   UNL     1       9.991  -0.038  17.683  1.00  0.00     0.226 A 
ATOM      6  N   UNL     1      10.295  -0.359  16.384  1.00  0.00    -0.217 NA
ATOM      7  C   UNL     1      10.929   0.530  15.562  1.00  0.00     0.152 A 
ATOM      8  C   UNL     1      11.256   1.775  16.094  1.00  0.00     0.127 A 
ATOM      9  N   UNL     1      11.868   2.826  15.536  1.00  0.00    -0.340 N 
ATOM     10  H   UNL     1      12.233   2.929  14.563  1.00  0.00     0.168 HD
ENDROOT
BRANCH   7  11
ATOM     11  N   UNL     1      11.236   0.175  14.214  1.00  0.00    -0.382 N 
ATOM     12  H   UNL     1      11.147   0.865  13.435  1.00  0.00     0.158 HD
ATOM     13  H   UNL     1      11.558  -0.792  13.988  1.00  0.00     0.158 HD
ENDBRANCH   7  11
TORSDOF 1
ENDMDL
MODEL 4
REMARK VINA RESULT:    -4.094      2.038      2.061
REMARK INTER + INTRA:          -4.213
REMARK INTER:                  -4.213
REMARK INTRA:                   0.000
REMARK UNBOUND:                 0.000
REMARK SMILES Nc1ncnc2nc[nH]c12
REMARK SMILES IDX 8 1 7 2 6 3 5 4 4 5 3 6 2 7 10 8 9 9 1 11
REMARK H PARENT 9 10 1 12 1 13
REMARK Flexibility Score: inf
ROOT
ATOM      1  C   UNL     1      17.825  10.586   9.560  1.00  0.00     0.199 A 
ATOM      2  N   UNL     1      18.487   9.504  10.054  1.00  0.00    -0.217 NA
ATOM      3  C   UNL     1      18.183   8.550   9.159  1.00  0.00     0.182 A 
ATOM      4  N   UNL     1      18.593   7.260   9.181  1.00  0.00    -0.215 NA
ATOM      5  C   UNL     1      18.177   6.432   8.176  1.00  0.00     0.226 A 
ATOM      6  N   UNL     1      17.365   6.904   7.176  1.00  0.00    -0.217 NA
ATOM      7  C   UNL     1      16.949   8.206   7.151  1.00  0.00     0.152 A 
ATOM      8  C   UNL     1      17.383   9.036   8.182  1.00  0.00     0.127 A 
ATOM      9  N   UNL     1      17.141  10.332   8.416  1.00  0.00    -0.340 N 
ATOM     10  H   UNL     1      16.564  11.000   7.859  1.00  0.00     0.168 HD
ENDROOT
BRANCH   7  11
ATOM     11  N   UNL     1      16.106   8.676   6.100  1.00  0.00    -0.382 N 
ATOM     12  H   UNL     1      16.130   8.247   5.149  1.00  0.00     0.158 HD
ATOM     13  H   UNL     1      15.446   9.467   6.274  1.00  0.00     0.158 HD
ENDBRANCH   7  11
TORSDOF 1
ENDMDL
MODEL 5
REMARK VINA RESULT:    -4.037      6.116      7.216
REMARK INTER + INTRA:          -4.155
REMARK INTER:                  -4.155
REMARK INTRA:                   0.000
REMARK UNBOUND:                 0.000
REMARK SMILES Nc1ncnc2nc[nH]c12
REMARK SMILES IDX 8 1 7 2 6 3 5 4 4 5 3 6 2 7 10 8 9 9 1 11
REMARK H PARENT 9 10 1 12 1 13
REMARK Flexibility Score: inf
ROOT
ATOM      1  C   UNL     1      17.481   7.179  14.740  1.00  0.00     0.199 A 
ATOM      2  N   UNL     1      17.638   6.280  13.730  1.00  0.00    -0.217 NA
ATOM      3  C   UNL     1      18.971   6.107  13.708  1.00  0.00     0.182 A 
ATOM      4  N   UNL     1      19.667   5.300  12.873  1.00  0.00    -0.215 NA
ATOM      5  C   UNL     1      21.027   5.255  13.004  1.00  0.00     0.226 A 
ATOM      6  N   UNL     1      21.661   6.011  13.957  1.00  0.00    -0.217 NA
ATOM      7  C   UNL     1      20.960   6.826  14.801  1.00  0.00     0.152 A 
ATOM      8  C   UNL     1      19.575   6.860  14.656  1.00  0.00     0.127 A 
ATOM      9  N   UNL     1      18.646   7.552  15.326  1.00  0.00    -0.340 N 
ATOM     10  H   UNL     1      18.775   8.224  16.115  1.00  0.00     0.168 HD
ENDROOT
BRANCH   7  11
ATOM     11  N   UNL     1      21.640   7.603  15.786  1.00  0.00    -0.382 N 
ATOM     12  H   UNL     1      22.100   7.156  16.610  1.00  0.00     0.158 HD
ATOM     13  H   UNL     1      21.685   8.642  15.694  1.00  0.00     0.158 HD
ENDBRANCH   7  11
TORSDOF 1
ENDMDL
MODEL 6
REMARK VINA RESULT:    -4.024     11.126     12.679
REMARK INTER + INTRA:          -4.142
REMARK INTER:                  -4.142
REMARK INTRA:                   0.000
REMARK UNBOUND:                 0.000
REMARK SMILES Nc1ncnc2nc[nH]c12
REMARK SMILES IDX 8 1 7 2 6 3 5 4 4 5 3 6 2 7 10 8 9 9 1 11
REMARK H PARENT 9 10 1 12 1 13
REMARK Flexibility Score: inf
ROOT
ATOM      1  C   UNL     1      13.467   1.740  17.093  1.00  0.00     0.199 A 
ATOM      2  N   UNL     1      13.180   0.870  18.100  1.00  0.00    -0.217 NA
ATOM      3  C   UNL     1      12.015   0.338  17.694  1.00  0.00     0.182 A 
ATOM      4  N   UNL     1      11.284  -0.598  18.343  1.00  0.00    -0.215 NA
ATOM      5  C   UNL     1      10.116  -1.019  17.769  1.00  0.00     0.226 A 
ATOM      6  N   UNL     1       9.704  -0.500  16.568  1.00  0.00    -0.217 NA
ATOM      7  C   UNL     1      10.440   0.446  15.911  1.00  0.00     0.152 A 
ATOM      8  C   UNL     1      11.627   0.863  16.509  1.00  0.00     0.127 A 
ATOM      9  N   UNL     1      12.537   1.758  16.106  1.00  0.00    -0.340 N 
ATOM     10  H   UNL     1      12.541   2.341  15.239  1.00  0.00     0.168 HD
ENDROOT
BRANCH   7  11
ATOM     11  N   UNL     1       9.993   0.971  14.662  1.00  0.00    -0.382 N 
ATOM     12  H   UNL     1      10.605   1.584  14.078  1.00  0.00     0.158 HD
ATOM     13  H   UNL     1       9.035   0.746  14.313  1.00  0.00     0.158 HD
ENDBRANCH   7  11
TORSDOF 1
ENDMDL
MODEL 7
REMARK VINA RESULT:    -4.023     14.774     16.076
REMARK INTER + INTRA:          -4.141
REMARK INTER:                  -4.141
REMARK INTRA:                   0.000
REMARK UNBOUND:                 0.000
REMARK SMILES Nc1ncnc2nc[nH]c12
REMARK SMILES IDX 8 1 7 2 6 3 5 4 4 5 3 6 2 7 10 8 9 9 1 11
REMARK H PARENT 9 10 1 12 1 13
REMARK Flexibility Score: inf
ROOT
ATOM      1  C   UNL     1       9.919   5.132  20.750  1.00  0.00     0.199 A 
ATOM      2  N   UNL     1      10.483   3.904  20.592  1.00  0.00    -0.217 NA
ATOM      3  C   UNL     1      11.211   3.777  21.714  1.00  0.00     0.182 A 
ATOM      4  N   UNL     1      11.982   2.721  22.063  1.00  0.00    -0.215 NA
ATOM      5  C   UNL     1      12.653   2.775  23.253  1.00  0.00     0.226 A 
ATOM      6  N   UNL     1      12.542   3.875  24.065  1.00  0.00    -0.217 NA
ATOM      7  C   UNL     1      11.764   4.943  23.715  1.00  0.00     0.152 A 
ATOM      8  C   UNL     1      11.087   4.872  22.500  1.00  0.00     0.127 A 
ATOM      9  N   UNL     1      10.268   5.748  21.907  1.00  0.00    -0.340 N 
ATOM     10  H   UNL     1       9.963   6.689  22.244  1.00  0.00     0.168 HD
ENDROOT
BRANCH   7  11
ATOM     11  N   UNL     1      11.662   6.077  24.576  1.00  0.00    -0.382 N 
ATOM     12  H   UNL     1      11.059   6.893  24.332  1.00  0.00     0.158 HD
ATOM     13  H   UNL     1      12.198   6.102  25.472  1.00  0.00     0.158 HD
ENDBRANCH   7  11
TORSDOF 1
ENDMDL
MODEL 8
REMARK VINA RESULT:    -4.015      9.841     11.682
REMARK INTER + INTRA:          -4.132
REMARK INTER:                  -4.132
REMARK INTRA:                   0.000
REMARK UNBOUND:                 0.000
REMARK SMILES Nc1ncnc2nc[nH]c12
REMARK SMILES IDX 8 1 7 2 6 3 5 4 4 5 3 6 2 7 10 8 9 9 1 11
REMARK H PARENT 9 10 1 12 1 13
REMARK Flexibility Score: inf
ROOT
ATOM      1  C   UNL     1      10.183   0.191  15.246  1.00  0.00     0.199 A 
ATOM      2  N   UNL     1      10.226   0.171  16.606  1.00  0.00    -0.217 NA
ATOM      3  C   UNL     1      10.819   1.343  16.890  1.00  0.00     0.182 A 
ATOM      4  N   UNL     1      11.108   1.826  18.121  1.00  0.00    -0.215 NA
ATOM      5  C   UNL     1      11.717   3.047  18.210  1.00  0.00     0.226 A 
ATOM      6  N   UNL     1      12.025   3.756  17.076  1.00  0.00    -0.217 NA
ATOM      7  C   UNL     1      11.735   3.270  15.832  1.00  0.00     0.152 A 
ATOM      8  C   UNL     1      11.113   2.026  15.759  1.00  0.00     0.127 A 
ATOM      9  N   UNL     1      10.716   1.312  14.699  1.00  0.00    -0.340 N 
ATOM     10  H   UNL     1      10.795   1.549  13.685  1.00  0.00     0.168 HD
ENDROOT
BRANCH   7  11
ATOM     11  N   UNL     1      12.063   4.025  14.666  1.00  0.00    -0.382 N 
ATOM     12  H   UNL     1      11.468   4.823  14.350  1.00  0.00     0.158 HD
ATOM     13  H   UNL     1      12.912   3.784  14.109  1.00  0.00     0.158 HD
ENDBRANCH   7  11
TORSDOF 1
ENDMDL
MODEL 9
REMARK VINA RESULT:    -3.953      0.952      2.996
REMARK INTER + INTRA:          -4.068
REMARK INTER:                  -4.068
REMARK INTRA:                   0.000
REMARK UNBOUND:                 0.000
REMARK SMILES Nc1ncnc2nc[nH]c12
REMARK SMILES IDX 8 1 7 2 6 3 5 4 4 5 3 6 2 7 10 8 9 9 1 11
REMARK H PARENT 9 10 1 12 1 13
REMARK Flexibility Score: inf
ROOT
ATOM      1  C   UNL     1      16.290   7.600   6.085  1.00  0.00     0.199 A 
ATOM      2  N   UNL     1      17.398   6.854   6.349  1.00  0.00    -0.217 NA
ATOM      3  C   UNL     1      17.394   6.803   7.692  1.00  0.00     0.182 A 
ATOM      4  N   UNL     1      18.298   6.174   8.479  1.00  0.00    -0.215 NA
ATOM      5  C   UNL     1      18.126   6.233   9.834  1.00  0.00     0.226 A 
ATOM      6  N   UNL     1      17.064   6.915  10.373  1.00  0.00    -0.217 NA
ATOM      7  C   UNL     1      16.152   7.552   9.580  1.00  0.00     0.152 A 
ATOM      8  C   UNL     1      16.340   7.481   8.201  1.00  0.00     0.127 A 
ATOM      9  N   UNL     1      15.622   7.997   7.197  1.00  0.00    -0.340 N 
ATOM     10  H   UNL     1      14.752   8.573   7.244  1.00  0.00     0.168 HD
ENDROOT
BRANCH   7  11
ATOM     11  N   UNL     1      15.054   8.255  10.161  1.00  0.00    -0.382 N 
ATOM     12  H   UNL     1      14.892   8.254  11.192  1.00  0.00     0.158 HD
ATOM     13  H   UNL     1      14.391   8.784   9.553  1.00  0.00     0.158 HD
ENDBRANCH   7  11
TORSDOF 1
ENDMDL
