MODEL 1
REMARK VINA RESULT:    -5.001      0.000      0.000
REMARK INTER + INTRA:          -8.415
REMARK INTER:                  -7.632
REMARK INTRA:                  -0.783
REMARK UNBOUND:                -0.783
REMARK SMILES CCCCCCCCCC=CC(=O)[O-]
REMARK SMILES IDX 7 1 8 2 9 3 10 4 11 5 12 6 13 7 14 8 6 9 5 10 4 11 3 12 2 13
REMARK SMILES IDX 1 14
REMARK H PARENT
REMARK Flexibility Score: inf
ROOT
ATOM      1  C   UNL     1      -1.615   0.683   4.794  1.00  0.00     0.000 C 
ENDROOT
BRANCH   1   2
ATOM      2  C   UNL     1      -2.501  -0.185   3.887  1.00  0.00     0.004 C 
BRANCH   2   3
ATOM      3  C   UNL     1      -3.998   0.063   4.131  1.00  0.00     0.027 C 
BRANCH   3   4
ATOM      4  C   UNL     1      -4.641  -1.043   4.922  1.00  0.00    -0.025 C 
ATOM      5  C   UNL     1      -5.781  -0.849   5.595  1.00  0.00     0.020 C 
BRANCH   5   6
ATOM      6  C   UNL     1      -6.423  -1.916   6.379  1.00  0.00     0.064 C 
ATOM      7  O   UNL     1      -5.925  -2.316   7.465  1.00  0.00    -0.545 OA
ATOM      8  O   UNL     1      -7.597  -2.493   5.913  1.00  0.00    -0.545 OA
ENDBRANCH   5   6
ENDBRANCH   3   4
ENDBRANCH   2   3
ENDBRANCH   1   2
BRANCH   1   9
ATOM      9  C   UNL     1      -0.330   1.102   4.065  1.00  0.00     0.000 C 
BRANCH   9  10
ATOM     10  C   UNL     1       0.932   0.467   4.674  1.00  0.00     0.000 C 
BRANCH  10  11
ATOM     11  C   UNL     1       0.605  -0.603   5.730  1.00  0.00    -0.000 C 
BRANCH  11  12
ATOM     12  C   UNL     1       1.022  -2.014   5.288  1.00  0.00    -0.000 C 
BRANCH  12  13
ATOM     13  C   UNL     1      -0.022  -2.684   4.383  1.00  0.00    -0.003 C 
ATOM     14  C   UNL     1       0.538  -2.927   2.984  1.00  0.00     0.004 C 
ENDBRANCH  12  13
ENDBRANCH  11  12
ENDBRANCH  10  11
ENDBRANCH   9  10
ENDBRANCH   1   9
TORSDOF 9
ENDMDL
MODEL 2
REMARK VINA RESULT:    -4.924      4.589      7.416
REMARK INTER + INTRA:          -8.298
REMARK INTER:                  -7.828
REMARK INTRA:                  -0.470
REMARK UNBOUND:                -0.783
REMARK SMILES CCCCCCCCCC=CC(=O)[O-]
REMARK SMILES IDX 7 1 8 2 9 3 10 4 11 5 12 6 13 7 14 8 6 9 5 10 4 11 3 12 2 13
REMARK SMILES IDX 1 14
REMARK H PARENT
REMARK Flexibility Score: inf
ROOT
ATOM      1  C   UNL     1      -1.113  -0.700   3.820  1.00  0.00     0.000 C 
ENDROOT
BRANCH   1   2
ATOM      2  C   UNL     1      -0.513  -2.043   4.263  1.00  0.00     0.004 C 
BRANCH   2   3
ATOM      3  C   UNL     1       0.984  -2.146   3.932  1.00  0.00     0.027 C 
BRANCH   3   4
ATOM      4  C   UNL     1       1.560  -0.837   3.467  1.00  0.00    -0.025 C 
ATOM      5  C   UNL     1       2.716  -0.780   2.796  1.00  0.00     0.020 C 
BRANCH   5   6
ATOM      6  C   UNL     1       3.298   0.491   2.337  1.00  0.00     0.064 C 
ATOM      7  O   UNL     1       2.588   1.371   1.780  1.00  0.00    -0.545 OA
ATOM      8  O   UNL     1       4.655   0.724   2.517  1.00  0.00    -0.545 OA
ENDBRANCH   5   6
ENDBRANCH   3   4
ENDBRANCH   2   3
ENDBRANCH   1   2
BRANCH   1   9
ATOM      9  C   UNL     1      -2.363  -0.360   4.646  1.00  0.00     0.000 C 
BRANCH   9  10
ATOM     10  C   UNL     1      -3.602  -0.106   3.772  1.00  0.00     0.000 C 
BRANCH  10  11
ATOM     11  C   UNL     1      -4.913  -0.494   4.479  1.00  0.00    -0.000 C 
BRANCH  11  12
ATOM     12  C   UNL     1      -4.768  -1.760   5.338  1.00  0.00    -0.000 C 
BRANCH  12  13
ATOM     13  C   UNL     1      -5.846  -1.865   6.426  1.00  0.00    -0.003 C 
ATOM     14  C   UNL     1      -7.236  -2.004   5.811  1.00  0.00     0.004 C 
ENDBRANCH  12  13
ENDBRANCH  11  12
ENDBRANCH  10  11
ENDBRANCH   9  10
ENDBRANCH   1   9
TORSDOF 9
ENDMDL
MODEL 3
REMARK VINA RESULT:    -4.918      1.790      2.649
REMARK INTER + INTRA:          -8.288
REMARK INTER:                  -7.934
REMARK INTRA:                  -0.354
REMARK UNBOUND:                -0.783
REMARK SMILES CCCCCCCCCC=CC(=O)[O-]
REMARK SMILES IDX 7 1 8 2 9 3 10 4 11 5 12 6 13 7 14 8 6 9 5 10 4 11 3 12 2 13
REMARK SMILES IDX 1 14
REMARK H PARENT
REMARK Flexibility Score: inf
ROOT
ATOM      1  C   UNL     1      -1.181  -1.609   4.491  1.00  0.00     0.000 C 
ENDROOT
BRANCH   1   2
ATOM      2  C   UNL     1      -1.977  -0.434   3.903  1.00  0.00     0.004 C 
BRANCH   2   3
ATOM      3  C   UNL     1      -3.131   0.001   4.820  1.00  0.00     0.027 C 
BRANCH   3   4
ATOM      4  C   UNL     1      -4.428  -0.672   4.466  1.00  0.00    -0.025 C 
ATOM      5  C   UNL     1      -5.512  -0.552   5.241  1.00  0.00     0.020 C 
BRANCH   5   6
ATOM      6  C   UNL     1      -6.789  -1.207   4.916  1.00  0.00     0.064 C 
ATOM      7  O   UNL     1      -7.341  -1.999   5.727  1.00  0.00    -0.545 OA
ATOM      8  O   UNL     1      -7.395  -0.951   3.693  1.00  0.00    -0.545 OA
ENDBRANCH   5   6
ENDBRANCH   3   4
ENDBRANCH   2   3
ENDBRANCH   1   2
BRANCH   1   9
ATOM      9  C   UNL     1       0.008  -1.971   3.588  1.00  0.00     0.000 C 
BRANCH   9  10
ATOM     10  C   UNL     1       1.340  -1.399   4.103  1.00  0.00     0.000 C 
BRANCH  10  11
ATOM     11  C   UNL     1       1.249   0.099   4.441  1.00  0.00    -0.000 C 
BRANCH  11  12
ATOM     12  C   UNL     1       2.006   0.978   3.433  1.00  0.00    -0.000 C 
BRANCH  12  13
ATOM     13  C   UNL     1       2.820   0.155   2.423  1.00  0.00    -0.003 C 
ATOM     14  C   UNL     1       4.316   0.411   2.585  1.00  0.00     0.004 C 
ENDBRANCH  12  13
ENDBRANCH  11  12
ENDBRANCH  10  11
ENDBRANCH   9  10
ENDBRANCH   1   9
TORSDOF 9
ENDMDL
MODEL 4
REMARK VINA RESULT:    -4.827      1.104      1.931
REMARK INTER + INTRA:          -8.149
REMARK INTER:                  -7.439
REMARK INTRA:                  -0.710
REMARK UNBOUND:                -0.783
REMARK SMILES CCCCCCCCCC=CC(=O)[O-]
REMARK SMILES IDX 7 1 8 2 9 3 10 4 11 5 12 6 13 7 14 8 6 9 5 10 4 11 3 12 2 13
REMARK SMILES IDX 1 14
REMARK H PARENT
REMARK Flexibility Score: inf
ROOT
ATOM      1  C   UNL     1      -1.825   0.660   4.828  1.00  0.00     0.000 C 
ENDROOT
BRANCH   1   2
ATOM      2  C   UNL     1      -3.321   0.742   5.169  1.00  0.00     0.004 C 
BRANCH   2   3
ATOM      3  C   UNL     1      -4.185  -0.054   4.179  1.00  0.00     0.027 C 
BRANCH   3   4
ATOM      4  C   UNL     1      -4.904  -1.199   4.838  1.00  0.00    -0.025 C 
ATOM      5  C   UNL     1      -5.750  -1.000   5.855  1.00  0.00     0.020 C 
BRANCH   5   6
ATOM      6  C   UNL     1      -6.459  -2.107   6.518  1.00  0.00     0.064 C 
ATOM      7  O   UNL     1      -6.017  -2.621   7.579  1.00  0.00    -0.545 OA
ATOM      8  O   UNL     1      -7.634  -2.594   5.961  1.00  0.00    -0.545 OA
ENDBRANCH   5   6
ENDBRANCH   3   4
ENDBRANCH   2   3
ENDBRANCH   1   2
BRANCH   1   9
ATOM      9  C   UNL     1      -1.558  -0.448   3.798  1.00  0.00     0.000 C 
BRANCH   9  10
ATOM     10  C   UNL     1      -0.815  -1.652   4.400  1.00  0.00     0.000 C 
BRANCH  10  11
ATOM     11  C   UNL     1       0.340  -2.141   3.508  1.00  0.00    -0.000 C 
BRANCH  11  12
ATOM     12  C   UNL     1       1.712  -1.658   4.003  1.00  0.00    -0.000 C 
BRANCH  12  13
ATOM     13  C   UNL     1       2.365  -0.648   3.047  1.00  0.00    -0.003 C 
ATOM     14  C   UNL     1       1.900   0.774   3.349  1.00  0.00     0.004 C 
ENDBRANCH  12  13
ENDBRANCH  11  12
ENDBRANCH  10  11
ENDBRANCH   9  10
ENDBRANCH   1   9
TORSDOF 9
ENDMDL
MODEL 5
REMARK VINA RESULT:    -4.790      1.390      1.995
REMARK INTER + INTRA:          -8.093
REMARK INTER:                  -7.103
REMARK INTRA:                  -0.990
REMARK UNBOUND:                -0.783
REMARK SMILES CCCCCCCCCC=CC(=O)[O-]
REMARK SMILES IDX 7 1 8 2 9 3 10 4 11 5 12 6 13 7 14 8 6 9 5 10 4 11 3 12 2 13
REMARK SMILES IDX 1 14
REMARK H PARENT
REMARK Flexibility Score: inf
ROOT
ATOM      1  C   UNL     1      -0.138   1.622   3.997  1.00  0.00     0.000 C 
ENDROOT
BRANCH   1   2
ATOM      2  C   UNL     1      -1.346   1.006   4.720  1.00  0.00     0.004 C 
BRANCH   2   3
ATOM      3  C   UNL     1      -2.380   0.434   3.738  1.00  0.00     0.027 C 
BRANCH   3   4
ATOM      4  C   UNL     1      -3.766   0.399   4.322  1.00  0.00    -0.025 C 
ATOM      5  C   UNL     1      -4.537  -0.690   4.227  1.00  0.00     0.020 C 
BRANCH   5   6
ATOM      6  C   UNL     1      -5.897  -0.744   4.785  1.00  0.00     0.064 C 
ATOM      7  O   UNL     1      -6.097  -0.643   6.025  1.00  0.00    -0.545 OA
ATOM      8  O   UNL     1      -6.979  -0.910   3.931  1.00  0.00    -0.545 OA
ENDBRANCH   5   6
ENDBRANCH   3   4
ENDBRANCH   2   3
ENDBRANCH   1   2
BRANCH   1   9
ATOM      9  C   UNL     1       1.173   0.977   4.471  1.00  0.00     0.000 C 
BRANCH   9  10
ATOM     10  C   UNL     1       2.134   0.663   3.313  1.00  0.00     0.000 C 
BRANCH  10  11
ATOM     11  C   UNL     1       2.225  -0.843   3.010  1.00  0.00    -0.000 C 
BRANCH  11  12
ATOM     12  C   UNL     1       1.598  -1.705   4.117  1.00  0.00    -0.000 C 
BRANCH  12  13
ATOM     13  C   UNL     1       0.340  -2.451   3.647  1.00  0.00    -0.003 C 
ATOM     14  C   UNL     1      -0.636  -2.664   4.801  1.00  0.00     0.004 C 
ENDBRANCH  12  13
ENDBRANCH  11  12
ENDBRANCH  10  11
ENDBRANCH   9  10
ENDBRANCH   1   9
TORSDOF 9
ENDMDL
MODEL 6
REMARK VINA RESULT:    -4.528     14.588     16.237
REMARK INTER + INTRA:          -7.694
REMARK INTER:                  -6.849
REMARK INTRA:                  -0.845
REMARK UNBOUND:                -0.783
REMARK SMILES CCCCCCCCCC=CC(=O)[O-]
REMARK SMILES IDX 7 1 8 2 9 3 10 4 11 5 12 6 13 7 14 8 6 9 5 10 4 11 3 12 2 13
REMARK SMILES IDX 1 14
REMARK H PARENT
REMARK Flexibility Score: inf
ROOT
ATOM      1  C   UNL     1      -7.036 -10.480  -8.827  1.00  0.00     0.000 C 
ENDROOT
BRANCH   1   2
ATOM      2  C   UNL     1      -8.309 -10.029  -8.094  1.00  0.00     0.004 C 
BRANCH   2   3
ATOM      3  C   UNL     1      -7.997  -9.103  -6.907  1.00  0.00     0.027 C 
BRANCH   3   4
ATOM      4  C   UNL     1      -6.871  -8.151  -7.204  1.00  0.00    -0.025 C 
ATOM      5  C   UNL     1      -6.730  -7.004  -6.529  1.00  0.00     0.020 C 
BRANCH   5   6
ATOM      6  C   UNL     1      -5.639  -6.057  -6.808  1.00  0.00     0.064 C 
ATOM      7  O   UNL     1      -4.640  -5.970  -6.045  1.00  0.00    -0.545 OA
ATOM      8  O   UNL     1      -5.714  -5.241  -7.929  1.00  0.00    -0.545 OA
ENDBRANCH   5   6
ENDBRANCH   3   4
ENDBRANCH   2   3
ENDBRANCH   1   2
BRANCH   1   9
ATOM      9  C   UNL     1      -6.858 -12.003  -8.728  1.00  0.00     0.000 C 
BRANCH   9  10
ATOM     10  C   UNL     1      -5.418 -12.453  -9.029  1.00  0.00     0.000 C 
BRANCH  10  11
ATOM     11  C   UNL     1      -4.565 -11.331  -9.646  1.00  0.00    -0.000 C 
BRANCH  11  12
ATOM     12  C   UNL     1      -3.154 -11.263  -9.042  1.00  0.00    -0.000 C 
BRANCH  12  13
ATOM     13  C   UNL     1      -2.634  -9.824  -8.910  1.00  0.00    -0.003 C 
ATOM     14  C   UNL     1      -3.693  -8.912  -8.295  1.00  0.00     0.004 C 
ENDBRANCH  12  13
ENDBRANCH  11  12
ENDBRANCH  10  11
ENDBRANCH   9  10
ENDBRANCH   1   9
TORSDOF 9
ENDMDL
MODEL 7
REMARK VINA RESULT:    -4.516      1.322      2.296
REMARK INTER + INTRA:          -7.675
REMARK INTER:                  -6.690
REMARK INTRA:                  -0.985
REMARK UNBOUND:                -0.783
REMARK SMILES CCCCCCCCCC=CC(=O)[O-]
REMARK SMILES IDX 7 1 8 2 9 3 10 4 11 5 12 6 13 7 14 8 6 9 5 10 4 11 3 12 2 13
REMARK SMILES IDX 1 14
REMARK H PARENT
REMARK Flexibility Score: inf
ROOT
ATOM      1  C   UNL     1      -2.020   1.253   5.642  1.00  0.00     0.000 C 
ENDROOT
BRANCH   1   2
ATOM      2  C   UNL     1      -3.210   1.704   6.502  1.00  0.00     0.004 C 
BRANCH   2   3
ATOM      3  C   UNL     1      -4.555   1.475   5.796  1.00  0.00     0.027 C 
BRANCH   3   4
ATOM      4  C   UNL     1      -5.365   0.386   6.445  1.00  0.00    -0.025 C 
ATOM      5  C   UNL     1      -5.534  -0.804   5.858  1.00  0.00     0.020 C 
BRANCH   5   6
ATOM      6  C   UNL     1      -6.327  -1.880   6.473  1.00  0.00     0.064 C 
ATOM      7  O   UNL     1      -7.399  -2.282   5.947  1.00  0.00    -0.545 OA
ATOM      8  O   UNL     1      -5.888  -2.460   7.656  1.00  0.00    -0.545 OA
ENDBRANCH   5   6
ENDBRANCH   3   4
ENDBRANCH   2   3
ENDBRANCH   1   2
BRANCH   1   9
ATOM      9  C   UNL     1      -2.447   1.045   4.182  1.00  0.00     0.000 C 
BRANCH   9  10
ATOM     10  C   UNL     1      -2.341  -0.423   3.735  1.00  0.00     0.000 C 
BRANCH  10  11
ATOM     11  C   UNL     1      -1.270  -1.204   4.518  1.00  0.00    -0.000 C 
BRANCH  11  12
ATOM     12  C   UNL     1      -0.203  -1.821   3.601  1.00  0.00    -0.000 C 
BRANCH  12  13
ATOM     13  C   UNL     1       1.216  -1.336   3.933  1.00  0.00    -0.003 C 
ATOM     14  C   UNL     1       1.323   0.181   3.801  1.00  0.00     0.004 C 
ENDBRANCH  12  13
ENDBRANCH  11  12
ENDBRANCH  10  11
ENDBRANCH   9  10
ENDBRANCH   1   9
TORSDOF 9
ENDMDL
MODEL 8
REMARK VINA RESULT:    -4.360      4.841      7.376
REMARK INTER + INTRA:          -7.437
REMARK INTER:                  -6.915
REMARK INTRA:                  -0.522
REMARK UNBOUND:                -0.783
REMARK SMILES CCCCCCCCCC=CC(=O)[O-]
REMARK SMILES IDX 7 1 8 2 9 3 10 4 11 5 12 6 13 7 14 8 6 9 5 10 4 11 3 12 2 13
REMARK SMILES IDX 1 14
REMARK H PARENT
REMARK Flexibility Score: inf
ROOT
ATOM      1  C   UNL     1      -2.334   1.082   3.822  1.00  0.00     0.000 C 
ENDROOT
BRANCH   1   2
ATOM      2  C   UNL     1      -1.049   1.629   4.461  1.00  0.00     0.004 C 
BRANCH   2   3
ATOM      3  C   UNL     1       0.076   0.583   4.487  1.00  0.00     0.027 C 
BRANCH   3   4
ATOM      4  C   UNL     1       1.299   1.037   3.738  1.00  0.00    -0.025 C 
ATOM      5  C   UNL     1       2.068   0.173   3.066  1.00  0.00     0.020 C 
BRANCH   5   6
ATOM      6  C   UNL     1       3.271   0.596   2.332  1.00  0.00     0.064 C 
ATOM      7  O   UNL     1       4.397   0.088   2.578  1.00  0.00    -0.545 OA
ATOM      8  O   UNL     1       3.163   1.574   1.352  1.00  0.00    -0.545 OA
ENDBRANCH   5   6
ENDBRANCH   3   4
ENDBRANCH   2   3
ENDBRANCH   1   2
BRANCH   1   9
ATOM      9  C   UNL     1      -2.567  -0.382   4.226  1.00  0.00     0.000 C 
BRANCH   9  10
ATOM     10  C   UNL     1      -4.032  -0.672   4.593  1.00  0.00     0.000 C 
BRANCH  10  11
ATOM     11  C   UNL     1      -4.610   0.359   5.578  1.00  0.00    -0.000 C 
BRANCH  11  12
ATOM     12  C   UNL     1      -5.776  -0.205   6.404  1.00  0.00    -0.000 C 
BRANCH  12  13
ATOM     13  C   UNL     1      -5.854  -1.737   6.352  1.00  0.00    -0.003 C 
ATOM     14  C   UNL     1      -7.264  -2.205   6.002  1.00  0.00     0.004 C 
ENDBRANCH  12  13
ENDBRANCH  11  12
ENDBRANCH  10  11
ENDBRANCH   9  10
ENDBRANCH   1   9
TORSDOF 9
ENDMDL
MODEL 9
REMARK VINA RESULT:    -4.298      2.031      2.767
REMARK INTER + INTRA:          -7.342
REMARK INTER:                  -6.802
REMARK INTRA:                  -0.540
REMARK UNBOUND:                -0.783
REMARK SMILES CCCCCCCCCC=CC(=O)[O-]
REMARK SMILES IDX 7 1 8 2 9 3 10 4 11 5 12 6 13 7 14 8 6 9 5 10 4 11 3 12 2 13
REMARK SMILES IDX 1 14
REMARK H PARENT
REMARK Flexibility Score: inf
ROOT
ATOM      1  C   UNL     1      -4.077   0.001   3.826  1.00  0.00     0.000 C 
ENDROOT
BRANCH   1   2
ATOM      2  C   UNL     1      -4.554  -1.111   4.772  1.00  0.00     0.004 C 
BRANCH   2   3
ATOM      3  C   UNL     1      -5.991  -0.878   5.263  1.00  0.00     0.027 C 
BRANCH   3   4
ATOM      4  C   UNL     1      -6.044  -0.479   6.712  1.00  0.00    -0.025 C 
ATOM      5  C   UNL     1      -5.456   0.640   7.151  1.00  0.00     0.020 C 
BRANCH   5   6
ATOM      6  C   UNL     1      -5.490   1.045   8.565  1.00  0.00     0.064 C 
ATOM      7  O   UNL     1      -5.145   0.251   9.480  1.00  0.00    -0.545 OA
ATOM      8  O   UNL     1      -5.914   2.325   8.897  1.00  0.00    -0.545 OA
ENDBRANCH   5   6
ENDBRANCH   3   4
ENDBRANCH   2   3
ENDBRANCH   1   2
BRANCH   1   9
ATOM      9  C   UNL     1      -2.619   0.384   4.122  1.00  0.00     0.000 C 
BRANCH   9  10
ATOM     10  C   UNL     1      -1.749  -0.829   4.487  1.00  0.00     0.000 C 
BRANCH  10  11
ATOM     11  C   UNL     1      -0.452  -0.429   5.214  1.00  0.00    -0.000 C 
BRANCH  11  12
ATOM     12  C   UNL     1       0.718  -1.371   4.893  1.00  0.00    -0.000 C 
BRANCH  12  13
ATOM     13  C   UNL     1       0.252  -2.750   4.404  1.00  0.00    -0.003 C 
ATOM     14  C   UNL     1       0.616  -2.965   2.937  1.00  0.00     0.004 C 
ENDBRANCH  12  13
ENDBRANCH  11  12
ENDBRANCH  10  11
ENDBRANCH   9  10
ENDBRANCH   1   9
TORSDOF 9
ENDMDL
