MODEL 1
REMARK VINA RESULT:    -2.367      0.000      0.000
REMARK INTER + INTRA:          -5.615
REMARK INTER:                  -5.134
REMARK INTRA:                  -0.482
REMARK UNBOUND:                -0.482
REMARK SMILES CCCCCCCCCCCCCCCCCCCCCC(=O)[O-]
REMARK SMILES IDX 12 1 11 2 10 3 9 4 8 5 7 6 6 7 5 8 4 9 3 10 2 11 1 12 13 13
REMARK SMILES IDX 14 14 15 15 16 16 17 17 18 18 19 19 20 20 21 21 22 22 23 23
REMARK SMILES IDX 24 24
REMARK H PARENT
REMARK Flexibility Score: inf
ROOT
ATOM      1  C   UNL     1      -4.272  37.863  20.650  1.00  0.00     0.000 C 
ENDROOT
BRANCH   1   2
ATOM      2  C   UNL     1      -3.002  37.160  20.142  1.00  0.00     0.000 C 
BRANCH   2   3
ATOM      3  C   UNL     1      -1.764  38.070  20.200  1.00  0.00     0.000 C 
BRANCH   3   4
ATOM      4  C   UNL     1      -1.473  38.757  18.858  1.00  0.00    -0.000 C 
BRANCH   4   5
ATOM      5  C   UNL     1      -1.577  37.762  17.695  1.00  0.00    -0.000 C 
BRANCH   5   6
ATOM      6  C   UNL     1      -3.000  37.192  17.585  1.00  0.00    -0.000 C 
BRANCH   6   7
ATOM      7  C   UNL     1      -3.221  36.391  16.293  1.00  0.00    -0.000 C 
BRANCH   7   8
ATOM      8  C   UNL     1      -2.074  36.561  15.285  1.00  0.00    -0.000 C 
BRANCH   8   9
ATOM      9  C   UNL     1      -2.619  36.844  13.878  1.00  0.00    -0.000 C 
BRANCH   9  10
ATOM     10  C   UNL     1      -3.937  37.634  13.900  1.00  0.00    -0.000 C 
BRANCH  10  11
ATOM     11  C   UNL     1      -3.741  39.101  14.313  1.00  0.00    -0.003 C 
ATOM     12  C   UNL     1      -4.928  39.957  13.882  1.00  0.00     0.004 C 
ENDBRANCH  10  11
ENDBRANCH   9  10
ENDBRANCH   8   9
ENDBRANCH   7   8
ENDBRANCH   6   7
ENDBRANCH   5   6
ENDBRANCH   4   5
ENDBRANCH   3   4
ENDBRANCH   2   3
ENDBRANCH   1   2
BRANCH   1  13
ATOM     13  C   UNL     1      -5.523  36.979  20.528  1.00  0.00     0.000 C 
BRANCH  13  14
ATOM     14  C   UNL     1      -6.125  36.615  21.897  1.00  0.00     0.000 C 
BRANCH  14  15
ATOM     15  C   UNL     1      -5.747  35.194  22.355  1.00  0.00     0.000 C 
BRANCH  15  16
ATOM     16  C   UNL     1      -5.643  35.013  23.880  1.00  0.00     0.000 C 
BRANCH  16  17
ATOM     17  C   UNL     1      -6.084  36.264  24.661  1.00  0.00     0.000 C 
BRANCH  17  18
ATOM     18  C   UNL     1      -4.894  37.069  25.206  1.00  0.00     0.000 C 
BRANCH  18  19
ATOM     19  C   UNL     1      -5.211  38.566  25.370  1.00  0.00     0.000 C 
BRANCH  19  20
ATOM     20  C   UNL     1      -5.315  39.300  24.023  1.00  0.00     0.006 C 
BRANCH  20  21
ATOM     21  C   UNL     1      -5.619  40.795  24.189  1.00  0.00     0.053 C 
BRANCH  21  22
ATOM     22  C   UNL     1      -5.781  41.452  22.854  1.00  0.00     0.041 C 
ATOM     23  O   UNL     1      -5.919  40.752  21.816  1.00  0.00    -0.550 OA
ATOM     24  O   UNL     1      -5.765  42.839  22.753  1.00  0.00    -0.550 OA
ENDBRANCH  21  22
ENDBRANCH  20  21
ENDBRANCH  19  20
ENDBRANCH  18  19
ENDBRANCH  17  18
ENDBRANCH  16  17
ENDBRANCH  15  16
ENDBRANCH  14  15
ENDBRANCH  13  14
ENDBRANCH   1  13
TORSDOF 20
ENDMDL
MODEL 2
REMARK VINA RESULT:    -2.205      2.402      7.396
REMARK INTER + INTRA:          -5.266
REMARK INTER:                  -4.110
REMARK INTRA:                  -1.155
REMARK UNBOUND:                -0.482
REMARK SMILES CCCCCCCCCCCCCCCCCCCCCC(=O)[O-]
REMARK SMILES IDX 12 1 11 2 10 3 9 4 8 5 7 6 6 7 5 8 4 9 3 10 2 11 1 12 13 13
REMARK SMILES IDX 14 14 15 15 16 16 17 17 18 18 19 19 20 20 21 21 22 22 23 23
REMARK SMILES IDX 24 24
REMARK H PARENT
REMARK Flexibility Score: inf
ROOT
ATOM      1  C   UNL     1      -4.700  35.816  22.367  1.00  0.00     0.000 C 
ENDROOT
BRANCH   1   2
ATOM      2  C   UNL     1      -5.950  35.076  22.871  1.00  0.00     0.000 C 
BRANCH   2   3
ATOM      3  C   UNL     1      -5.989  34.967  24.404  1.00  0.00     0.000 C 
BRANCH   3   4
ATOM      4  C   UNL     1      -6.124  36.335  25.089  1.00  0.00    -0.000 C 
BRANCH   4   5
ATOM      5  C   UNL     1      -4.819  36.732  25.791  1.00  0.00    -0.000 C 
BRANCH   5   6
ATOM      6  C   UNL     1      -4.658  38.260  25.826  1.00  0.00    -0.000 C 
BRANCH   6   7
ATOM      7  C   UNL     1      -5.520  38.972  24.772  1.00  0.00    -0.000 C 
BRANCH   7   8
ATOM      8  C   UNL     1      -4.796  40.155  24.112  1.00  0.00    -0.000 C 
BRANCH   8   9
ATOM      9  C   UNL     1      -5.803  41.138  23.498  1.00  0.00    -0.000 C 
BRANCH   9  10
ATOM     10  C   UNL     1      -5.843  41.067  21.963  1.00  0.00    -0.000 C 
BRANCH  10  11
ATOM     11  C   UNL     1      -5.176  39.797  21.413  1.00  0.00    -0.003 C 
ATOM     12  C   UNL     1      -5.822  39.361  20.101  1.00  0.00     0.004 C 
ENDBRANCH  10  11
ENDBRANCH   9  10
ENDBRANCH   8   9
ENDBRANCH   7   8
ENDBRANCH   6   7
ENDBRANCH   5   6
ENDBRANCH   4   5
ENDBRANCH   3   4
ENDBRANCH   2   3
ENDBRANCH   1   2
BRANCH   1  13
ATOM     13  C   UNL     1      -4.589  35.809  20.834  1.00  0.00     0.000 C 
BRANCH  13  14
ATOM     14  C   UNL     1      -5.964  35.779  20.143  1.00  0.00     0.000 C 
BRANCH  14  15
ATOM     15  C   UNL     1      -5.928  35.067  18.777  1.00  0.00     0.000 C 
BRANCH  15  16
ATOM     16  C   UNL     1      -4.537  34.996  18.122  1.00  0.00     0.000 C 
BRANCH  16  17
ATOM     17  C   UNL     1      -3.978  36.382  17.757  1.00  0.00     0.000 C 
BRANCH  17  18
ATOM     18  C   UNL     1      -3.182  36.370  16.443  1.00  0.00     0.000 C 
BRANCH  18  19
ATOM     19  C   UNL     1      -2.248  37.585  16.298  1.00  0.00     0.000 C 
BRANCH  19  20
ATOM     20  C   UNL     1      -0.948  37.431  17.106  1.00  0.00     0.006 C 
BRANCH  20  21
ATOM     21  C   UNL     1      -0.798  38.506  18.191  1.00  0.00     0.053 C 
BRANCH  21  22
ATOM     22  C   UNL     1      -1.118  37.942  19.540  1.00  0.00     0.041 C 
ATOM     23  O   UNL     1      -0.199  37.741  20.378  1.00  0.00    -0.550 OA
ATOM     24  O   UNL     1      -2.432  37.623  19.869  1.00  0.00    -0.550 OA
ENDBRANCH  21  22
ENDBRANCH  20  21
ENDBRANCH  19  20
ENDBRANCH  18  19
ENDBRANCH  17  18
ENDBRANCH  16  17
ENDBRANCH  15  16
ENDBRANCH  14  15
ENDBRANCH  13  14
ENDBRANCH   1  13
TORSDOF 20
ENDMDL
MODEL 3
REMARK VINA RESULT:    -2.105      2.694      6.788
REMARK INTER + INTRA:          -5.049
REMARK INTER:                  -3.341
REMARK INTRA:                  -1.708
REMARK UNBOUND:                -0.482
REMARK SMILES CCCCCCCCCCCCCCCCCCCCCC(=O)[O-]
REMARK SMILES IDX 12 1 11 2 10 3 9 4 8 5 7 6 6 7 5 8 4 9 3 10 2 11 1 12 13 13
REMARK SMILES IDX 14 14 15 15 16 16 17 17 18 18 19 19 20 20 21 21 22 22 23 23
REMARK SMILES IDX 24 24
REMARK H PARENT
REMARK Flexibility Score: inf
ROOT
ATOM      1  C   UNL     1      -6.096  36.354  24.060  1.00  0.00     0.000 C 
ENDROOT
BRANCH   1   2
ATOM      2  C   UNL     1      -5.171  36.766  25.218  1.00  0.00     0.000 C 
BRANCH   2   3
ATOM      3  C   UNL     1      -4.969  38.288  25.295  1.00  0.00     0.000 C 
BRANCH   3   4
ATOM      4  C   UNL     1      -5.817  39.048  24.264  1.00  0.00    -0.000 C 
BRANCH   4   5
ATOM      5  C   UNL     1      -5.187  40.405  23.923  1.00  0.00    -0.000 C 
BRANCH   5   6
ATOM      6  C   UNL     1      -5.221  40.661  22.408  1.00  0.00    -0.000 C 
BRANCH   6   7
ATOM      7  C   UNL     1      -5.604  39.409  21.604  1.00  0.00    -0.000 C 
BRANCH   7   8
ATOM      8  C   UNL     1      -5.149  39.483  20.138  1.00  0.00    -0.000 C 
BRANCH   8   9
ATOM      9  C   UNL     1      -4.330  38.241  19.757  1.00  0.00    -0.000 C 
BRANCH   9  10
ATOM     10  C   UNL     1      -2.865  38.333  20.214  1.00  0.00    -0.000 C 
BRANCH  10  11
ATOM     11  C   UNL     1      -1.901  38.624  19.054  1.00  0.00    -0.003 C 
ATOM     12  C   UNL     1      -0.610  37.824  19.198  1.00  0.00     0.004 C 
ENDBRANCH  10  11
ENDBRANCH   9  10
ENDBRANCH   8   9
ENDBRANCH   7   8
ENDBRANCH   6   7
ENDBRANCH   5   6
ENDBRANCH   4   5
ENDBRANCH   3   4
ENDBRANCH   2   3
ENDBRANCH   1   2
BRANCH   1  13
ATOM     13  C   UNL     1      -6.027  34.848  23.759  1.00  0.00     0.000 C 
BRANCH  13  14
ATOM     14  C   UNL     1      -6.125  34.542  22.254  1.00  0.00     0.000 C 
BRANCH  14  15
ATOM     15  C   UNL     1      -6.105  35.814  21.385  1.00  0.00     0.000 C 
BRANCH  15  16
ATOM     16  C   UNL     1      -6.082  35.560  19.867  1.00  0.00     0.000 C 
BRANCH  16  17
ATOM     17  C   UNL     1      -4.701  35.109  19.360  1.00  0.00     0.000 C 
BRANCH  17  18
ATOM     18  C   UNL     1      -4.603  35.121  17.826  1.00  0.00     0.000 C 
BRANCH  18  19
ATOM     19  C   UNL     1      -3.931  36.393  17.279  1.00  0.00     0.000 C 
BRANCH  19  20
ATOM     20  C   UNL     1      -2.653  36.090  16.480  1.00  0.00     0.006 C 
BRANCH  20  21
ATOM     21  C   UNL     1      -2.210  37.271  15.606  1.00  0.00     0.053 C 
BRANCH  21  22
ATOM     22  C   UNL     1      -3.339  37.742  14.744  1.00  0.00     0.041 C 
ATOM     23  O   UNL     1      -3.709  38.946  14.784  1.00  0.00    -0.550 OA
ATOM     24  O   UNL     1      -3.995  36.847  13.905  1.00  0.00    -0.550 OA
ENDBRANCH  21  22
ENDBRANCH  20  21
ENDBRANCH  19  20
ENDBRANCH  18  19
ENDBRANCH  17  18
ENDBRANCH  16  17
ENDBRANCH  15  16
ENDBRANCH  14  15
ENDBRANCH  13  14
ENDBRANCH   1  13
TORSDOF 20
ENDMDL
MODEL 4
REMARK VINA RESULT:    -1.752      1.245      3.130
REMARK INTER + INTRA:          -4.283
REMARK INTER:                  -3.457
REMARK INTRA:                  -0.826
REMARK UNBOUND:                -0.482
REMARK SMILES CCCCCCCCCCCCCCCCCCCCCC(=O)[O-]
REMARK SMILES IDX 12 1 11 2 10 3 9 4 8 5 7 6 6 7 5 8 4 9 3 10 2 11 1 12 13 13
REMARK SMILES IDX 14 14 15 15 16 16 17 17 18 18 19 19 20 20 21 21 22 22 23 23
REMARK SMILES IDX 24 24
REMARK H PARENT
REMARK Flexibility Score: inf
ROOT
ATOM      1  C   UNL     1      -5.662  36.691  20.856  1.00  0.00     0.000 C 
ENDROOT
BRANCH   1   2
ATOM      2  C   UNL     1      -5.846  36.479  19.344  1.00  0.00     0.000 C 
BRANCH   2   3
ATOM      3  C   UNL     1      -5.813  34.993  18.952  1.00  0.00     0.000 C 
BRANCH   3   4
ATOM      4  C   UNL     1      -4.664  34.663  17.987  1.00  0.00    -0.000 C 
BRANCH   4   5
ATOM      5  C   UNL     1      -4.057  35.941  17.395  1.00  0.00    -0.000 C 
BRANCH   5   6
ATOM      6  C   UNL     1      -3.058  35.607  16.276  1.00  0.00    -0.000 C 
BRANCH   6   7
ATOM      7  C   UNL     1      -2.911  36.743  15.253  1.00  0.00    -0.000 C 
BRANCH   7   8
ATOM      8  C   UNL     1      -2.743  38.120  15.913  1.00  0.00    -0.000 C 
BRANCH   8   9
ATOM      9  C   UNL     1      -2.367  37.974  17.395  1.00  0.00    -0.000 C 
BRANCH   9  10
ATOM     10  C   UNL     1      -0.849  38.021  17.630  1.00  0.00    -0.000 C 
BRANCH  10  11
ATOM     11  C   UNL     1      -0.486  38.218  19.110  1.00  0.00    -0.003 C 
ATOM     12  C   UNL     1      -1.707  38.029  20.006  1.00  0.00     0.004 C 
ENDBRANCH  10  11
ENDBRANCH   9  10
ENDBRANCH   8   9
ENDBRANCH   7   8
ENDBRANCH   6   7
ENDBRANCH   5   6
ENDBRANCH   4   5
ENDBRANCH   3   4
ENDBRANCH   2   3
ENDBRANCH   1   2
BRANCH   1  13
ATOM     13  C   UNL     1      -4.206  36.490  21.307  1.00  0.00     0.000 C 
BRANCH  13  14
ATOM     14  C   UNL     1      -3.921  35.045  21.754  1.00  0.00     0.000 C 
BRANCH  14  15
ATOM     15  C   UNL     1      -4.233  34.811  23.244  1.00  0.00     0.000 C 
BRANCH  15  16
ATOM     16  C   UNL     1      -5.727  34.869  23.607  1.00  0.00     0.000 C 
BRANCH  16  17
ATOM     17  C   UNL     1      -6.125  36.192  24.286  1.00  0.00     0.000 C 
BRANCH  17  18
ATOM     18  C   UNL     1      -5.041  36.713  25.242  1.00  0.00     0.000 C 
BRANCH  18  19
ATOM     19  C   UNL     1      -5.031  38.248  25.354  1.00  0.00     0.000 C 
BRANCH  19  20
ATOM     20  C   UNL     1      -5.660  38.935  24.130  1.00  0.00     0.006 C 
BRANCH  20  21
ATOM     21  C   UNL     1      -5.349  40.436  24.072  1.00  0.00     0.053 C 
BRANCH  21  22
ATOM     22  C   UNL     1      -5.578  40.970  22.693  1.00  0.00     0.041 C 
ATOM     23  O   UNL     1      -5.800  42.198  22.517  1.00  0.00    -0.550 OA
ATOM     24  O   UNL     1      -5.563  40.109  21.601  1.00  0.00    -0.550 OA
ENDBRANCH  21  22
ENDBRANCH  20  21
ENDBRANCH  19  20
ENDBRANCH  18  19
ENDBRANCH  17  18
ENDBRANCH  16  17
ENDBRANCH  15  16
ENDBRANCH  14  15
ENDBRANCH  13  14
ENDBRANCH   1  13
TORSDOF 20
ENDMDL
MODEL 5
REMARK VINA RESULT:    -1.632      2.376      7.672
REMARK INTER + INTRA:          -4.021
REMARK INTER:                  -2.679
REMARK INTRA:                  -1.343
REMARK UNBOUND:                -0.482
REMARK SMILES CCCCCCCCCCCCCCCCCCCCCC(=O)[O-]
REMARK SMILES IDX 12 1 11 2 10 3 9 4 8 5 7 6 6 7 5 8 4 9 3 10 2 11 1 12 13 13
REMARK SMILES IDX 14 14 15 15 16 16 17 17 18 18 19 19 20 20 21 21 22 22 23 23
REMARK SMILES IDX 24 24
REMARK H PARENT
REMARK Flexibility Score: inf
ROOT
ATOM      1  C   UNL     1      -5.377  38.117  21.259  1.00  0.00     0.000 C 
ENDROOT
BRANCH   1   2
ATOM      2  C   UNL     1      -5.864  39.575  21.215  1.00  0.00     0.000 C 
BRANCH   2   3
ATOM      3  C   UNL     1      -4.904  40.537  21.933  1.00  0.00     0.000 C 
BRANCH   3   4
ATOM      4  C   UNL     1      -5.600  41.355  23.031  1.00  0.00    -0.000 C 
BRANCH   4   5
ATOM      5  C   UNL     1      -5.475  40.667  24.396  1.00  0.00    -0.000 C 
BRANCH   5   6
ATOM      6  C   UNL     1      -5.343  39.145  24.233  1.00  0.00    -0.000 C 
BRANCH   6   7
ATOM      7  C   UNL     1      -5.013  38.433  25.555  1.00  0.00    -0.000 C 
BRANCH   7   8
ATOM      8  C   UNL     1      -5.376  36.941  25.533  1.00  0.00    -0.000 C 
BRANCH   8   9
ATOM      9  C   UNL     1      -5.714  36.481  24.107  1.00  0.00    -0.000 C 
BRANCH   9  10
ATOM     10  C   UNL     1      -6.106  34.996  24.039  1.00  0.00    -0.000 C 
BRANCH  10  11
ATOM     11  C   UNL     1      -5.110  34.158  23.224  1.00  0.00    -0.003 C 
ATOM     12  C   UNL     1      -4.096  35.048  22.511  1.00  0.00     0.004 C 
ENDBRANCH  10  11
ENDBRANCH   9  10
ENDBRANCH   8   9
ENDBRANCH   7   8
ENDBRANCH   6   7
ENDBRANCH   5   6
ENDBRANCH   4   5
ENDBRANCH   3   4
ENDBRANCH   2   3
ENDBRANCH   1   2
BRANCH   1  13
ATOM     13  C   UNL     1      -5.155  37.528  19.856  1.00  0.00     0.000 C 
BRANCH  13  14
ATOM     14  C   UNL     1      -5.588  36.054  19.759  1.00  0.00     0.000 C 
BRANCH  14  15
ATOM     15  C   UNL     1      -4.738  35.249  18.758  1.00  0.00     0.000 C 
BRANCH  15  16
ATOM     16  C   UNL     1      -4.308  36.028  17.503  1.00  0.00     0.000 C 
BRANCH  16  17
ATOM     17  C   UNL     1      -3.101  35.392  16.791  1.00  0.00     0.000 C 
BRANCH  17  18
ATOM     18  C   UNL     1      -2.406  36.365  15.824  1.00  0.00     0.000 C 
BRANCH  18  19
ATOM     19  C   UNL     1      -2.362  37.807  16.358  1.00  0.00     0.000 C 
BRANCH  19  20
ATOM     20  C   UNL     1      -1.270  38.012  17.421  1.00  0.00     0.006 C 
BRANCH  20  21
ATOM     21  C   UNL     1      -1.835  38.506  18.760  1.00  0.00     0.053 C 
BRANCH  21  22
ATOM     22  C   UNL     1      -1.333  37.662  19.888  1.00  0.00     0.041 C 
ATOM     23  O   UNL     1      -2.141  36.997  20.591  1.00  0.00    -0.550 OA
ATOM     24  O   UNL     1       0.027  37.620  20.176  1.00  0.00    -0.550 OA
ENDBRANCH  21  22
ENDBRANCH  20  21
ENDBRANCH  19  20
ENDBRANCH  18  19
ENDBRANCH  17  18
ENDBRANCH  16  17
ENDBRANCH  15  16
ENDBRANCH  14  15
ENDBRANCH  13  14
ENDBRANCH   1  13
TORSDOF 20
ENDMDL
MODEL 6
REMARK VINA RESULT:    -1.496      1.284      2.384
REMARK INTER + INTRA:          -3.726
REMARK INTER:                  -1.487
REMARK INTRA:                  -2.239
REMARK UNBOUND:                -0.482
REMARK SMILES CCCCCCCCCCCCCCCCCCCCCC(=O)[O-]
REMARK SMILES IDX 12 1 11 2 10 3 9 4 8 5 7 6 6 7 5 8 4 9 3 10 2 11 1 12 13 13
REMARK SMILES IDX 14 14 15 15 16 16 17 17 18 18 19 19 20 20 21 21 22 22 23 23
REMARK SMILES IDX 24 24
REMARK H PARENT
REMARK Flexibility Score: inf
ROOT
ATOM      1  C   UNL     1      -3.530  38.273  20.573  1.00  0.00     0.000 C 
ENDROOT
BRANCH   1   2
ATOM      2  C   UNL     1      -2.527  37.217  20.080  1.00  0.00     0.000 C 
BRANCH   2   3
ATOM      3  C   UNL     1      -1.067  37.641  20.309  1.00  0.00     0.000 C 
BRANCH   3   4
ATOM      4  C   UNL     1      -0.433  38.272  19.060  1.00  0.00    -0.000 C 
BRANCH   4   5
ATOM      5  C   UNL     1      -1.378  38.179  17.855  1.00  0.00    -0.000 C 
BRANCH   5   6
ATOM      6  C   UNL     1      -0.879  37.136  16.844  1.00  0.00    -0.000 C 
BRANCH   6   7
ATOM      7  C   UNL     1      -1.913  36.825  15.752  1.00  0.00    -0.000 C 
BRANCH   7   8
ATOM      8  C   UNL     1      -3.250  37.548  15.976  1.00  0.00    -0.000 C 
BRANCH   8   9
ATOM      9  C   UNL     1      -4.261  36.626  16.672  1.00  0.00    -0.000 C 
BRANCH   9  10
ATOM     10  C   UNL     1      -3.610  35.359  17.249  1.00  0.00    -0.000 C 
BRANCH  10  11
ATOM     11  C   UNL     1      -4.384  34.789  18.447  1.00  0.00    -0.003 C 
ATOM     12  C   UNL     1      -5.860  35.171  18.379  1.00  0.00     0.004 C 
ENDBRANCH  10  11
ENDBRANCH   9  10
ENDBRANCH   8   9
ENDBRANCH   7   8
ENDBRANCH   6   7
ENDBRANCH   5   6
ENDBRANCH   4   5
ENDBRANCH   3   4
ENDBRANCH   2   3
ENDBRANCH   1   2
BRANCH   1  13
ATOM     13  C   UNL     1      -4.987  37.889  20.269  1.00  0.00     0.000 C 
BRANCH  13  14
ATOM     14  C   UNL     1      -5.762  37.466  21.530  1.00  0.00     0.000 C 
BRANCH  14  15
ATOM     15  C   UNL     1      -5.708  35.947  21.780  1.00  0.00     0.000 C 
BRANCH  15  16
ATOM     16  C   UNL     1      -4.980  35.530  23.070  1.00  0.00     0.000 C 
BRANCH  16  17
ATOM     17  C   UNL     1      -5.721  35.978  24.343  1.00  0.00     0.000 C 
BRANCH  17  18
ATOM     18  C   UNL     1      -4.981  37.097  25.094  1.00  0.00     0.000 C 
BRANCH  18  19
ATOM     19  C   UNL     1      -5.709  38.450  25.018  1.00  0.00     0.000 C 
BRANCH  19  20
ATOM     20  C   UNL     1      -5.003  39.452  24.090  1.00  0.00     0.006 C 
BRANCH  20  21
ATOM     21  C   UNL     1      -5.473  40.896  24.313  1.00  0.00     0.053 C 
BRANCH  21  22
ATOM     22  C   UNL     1      -5.799  41.552  23.009  1.00  0.00     0.041 C 
ATOM     23  O   UNL     1      -5.834  42.809  22.922  1.00  0.00    -0.550 OA
ATOM     24  O   UNL     1      -6.081  40.777  21.889  1.00  0.00    -0.550 OA
ENDBRANCH  21  22
ENDBRANCH  20  21
ENDBRANCH  19  20
ENDBRANCH  18  19
ENDBRANCH  17  18
ENDBRANCH  16  17
ENDBRANCH  15  16
ENDBRANCH  14  15
ENDBRANCH  13  14
ENDBRANCH   1  13
TORSDOF 20
ENDMDL
MODEL 7
REMARK VINA RESULT:    -1.460      1.223      2.034
REMARK INTER + INTRA:          -3.650
REMARK INTER:                  -1.810
REMARK INTRA:                  -1.840
REMARK UNBOUND:                -0.482
REMARK SMILES CCCCCCCCCCCCCCCCCCCCCC(=O)[O-]
REMARK SMILES IDX 12 1 11 2 10 3 9 4 8 5 7 6 6 7 5 8 4 9 3 10 2 11 1 12 13 13
REMARK SMILES IDX 14 14 15 15 16 16 17 17 18 18 19 19 20 20 21 21 22 22 23 23
REMARK SMILES IDX 24 24
REMARK H PARENT
REMARK Flexibility Score: inf
ROOT
ATOM      1  C   UNL     1      -4.120  36.263  21.604  1.00  0.00     0.000 C 
ENDROOT
BRANCH   1   2
ATOM      2  C   UNL     1      -3.618  35.646  20.288  1.00  0.00     0.000 C 
BRANCH   2   3
ATOM      3  C   UNL     1      -4.338  36.222  19.058  1.00  0.00     0.000 C 
BRANCH   3   4
ATOM      4  C   UNL     1      -3.830  37.621  18.679  1.00  0.00    -0.000 C 
BRANCH   4   5
ATOM      5  C   UNL     1      -2.534  37.960  19.427  1.00  0.00    -0.000 C 
BRANCH   5   6
ATOM      6  C   UNL     1      -1.306  37.720  18.535  1.00  0.00    -0.000 C 
BRANCH   6   7
ATOM      7  C   UNL     1      -1.590  37.989  17.050  1.00  0.00    -0.000 C 
BRANCH   7   8
ATOM      8  C   UNL     1      -1.299  36.772  16.158  1.00  0.00    -0.000 C 
BRANCH   8   9
ATOM      9  C   UNL     1      -1.934  36.945  14.771  1.00  0.00    -0.000 C 
BRANCH   9  10
ATOM     10  C   UNL     1      -3.428  36.585  14.752  1.00  0.00    -0.000 C 
BRANCH  10  11
ATOM     11  C   UNL     1      -4.278  37.626  14.010  1.00  0.00    -0.003 C 
ATOM     12  C   UNL     1      -3.848  39.045  14.371  1.00  0.00     0.004 C 
ENDBRANCH  10  11
ENDBRANCH   9  10
ENDBRANCH   8   9
ENDBRANCH   7   8
ENDBRANCH   6   7
ENDBRANCH   5   6
ENDBRANCH   4   5
ENDBRANCH   3   4
ENDBRANCH   2   3
ENDBRANCH   1   2
BRANCH   1  13
ATOM     13  C   UNL     1      -5.617  36.007  21.841  1.00  0.00     0.000 C 
BRANCH  13  14
ATOM     14  C   UNL     1      -5.900  35.397  23.226  1.00  0.00     0.000 C 
BRANCH  14  15
ATOM     15  C   UNL     1      -6.125  36.466  24.312  1.00  0.00     0.000 C 
BRANCH  15  16
ATOM     16  C   UNL     1      -5.023  36.538  25.385  1.00  0.00     0.000 C 
BRANCH  16  17
ATOM     17  C   UNL     1      -4.360  37.924  25.465  1.00  0.00     0.000 C 
BRANCH  17  18
ATOM     18  C   UNL     1      -5.375  39.072  25.352  1.00  0.00     0.000 C 
BRANCH  18  19
ATOM     19  C   UNL     1      -4.754  40.368  24.802  1.00  0.00     0.000 C 
BRANCH  19  20
ATOM     20  C   UNL     1      -5.442  40.855  23.516  1.00  0.00     0.006 C 
BRANCH  20  21
ATOM     21  C   UNL     1      -5.746  39.710  22.540  1.00  0.00     0.053 C 
BRANCH  21  22
ATOM     22  C   UNL     1      -5.882  40.229  21.143  1.00  0.00     0.041 C 
ATOM     23  O   UNL     1      -5.764  39.448  20.162  1.00  0.00    -0.550 OA
ATOM     24  O   UNL     1      -6.125  41.581  20.923  1.00  0.00    -0.550 OA
ENDBRANCH  21  22
ENDBRANCH  20  21
ENDBRANCH  19  20
ENDBRANCH  18  19
ENDBRANCH  17  18
ENDBRANCH  16  17
ENDBRANCH  15  16
ENDBRANCH  14  15
ENDBRANCH  13  14
ENDBRANCH   1  13
TORSDOF 20
ENDMDL
MODEL 8
REMARK VINA RESULT:    -1.266      1.620      6.894
REMARK INTER + INTRA:          -3.229
REMARK INTER:                  -2.091
REMARK INTRA:                  -1.138
REMARK UNBOUND:                -0.482
REMARK SMILES CCCCCCCCCCCCCCCCCCCCCC(=O)[O-]
REMARK SMILES IDX 12 1 11 2 10 3 9 4 8 5 7 6 6 7 5 8 4 9 3 10 2 11 1 12 13 13
REMARK SMILES IDX 14 14 15 15 16 16 17 17 18 18 19 19 20 20 21 21 22 22 23 23
REMARK SMILES IDX 24 24
REMARK H PARENT
REMARK Flexibility Score: inf
ROOT
ATOM      1  C   UNL     1      -2.997  35.684  16.849  1.00  0.00     0.000 C 
ENDROOT
BRANCH   1   2
ATOM      2  C   UNL     1      -4.480  35.605  17.250  1.00  0.00     0.000 C 
BRANCH   2   3
ATOM      3  C   UNL     1      -4.732  34.581  18.369  1.00  0.00     0.000 C 
BRANCH   3   4
ATOM      4  C   UNL     1      -6.125  34.727  18.999  1.00  0.00    -0.000 C 
BRANCH   4   5
ATOM      5  C   UNL     1      -6.098  35.715  20.173  1.00  0.00    -0.000 C 
BRANCH   5   6
ATOM      6  C   UNL     1      -5.284  35.150  21.347  1.00  0.00    -0.000 C 
BRANCH   6   7
ATOM      7  C   UNL     1      -6.115  34.237  22.261  1.00  0.00    -0.000 C 
BRANCH   7   8
ATOM      8  C   UNL     1      -5.994  34.611  23.746  1.00  0.00    -0.000 C 
BRANCH   8   9
ATOM      9  C   UNL     1      -5.373  36.006  23.909  1.00  0.00    -0.000 C 
BRANCH   9  10
ATOM     10  C   UNL     1      -5.688  36.642  25.272  1.00  0.00    -0.000 C 
BRANCH  10  11
ATOM     11  C   UNL     1      -5.079  38.043  25.426  1.00  0.00    -0.003 C 
ATOM     12  C   UNL     1      -3.837  38.009  26.311  1.00  0.00     0.004 C 
ENDBRANCH  10  11
ENDBRANCH   9  10
ENDBRANCH   8   9
ENDBRANCH   7   8
ENDBRANCH   6   7
ENDBRANCH   5   6
ENDBRANCH   4   5
ENDBRANCH   3   4
ENDBRANCH   2   3
ENDBRANCH   1   2
BRANCH   1  13
ATOM     13  C   UNL     1      -2.721  36.803  15.832  1.00  0.00     0.000 C 
BRANCH  13  14
ATOM     14  C   UNL     1      -1.736  37.857  16.367  1.00  0.00     0.000 C 
BRANCH  14  15
ATOM     15  C   UNL     1      -2.122  38.377  17.765  1.00  0.00     0.000 C 
BRANCH  15  16
ATOM     16  C   UNL     1      -0.975  38.383  18.792  1.00  0.00     0.000 C 
BRANCH  16  17
ATOM     17  C   UNL     1      -1.443  38.016  20.211  1.00  0.00     0.000 C 
BRANCH  17  18
ATOM     18  C   UNL     1      -2.878  37.465  20.235  1.00  0.00     0.000 C 
BRANCH  18  19
ATOM     19  C   UNL     1      -3.928  38.513  19.829  1.00  0.00     0.000 C 
BRANCH  19  20
ATOM     20  C   UNL     1      -4.984  38.748  20.922  1.00  0.00     0.006 C 
BRANCH  20  21
ATOM     21  C   UNL     1      -5.639  40.132  20.821  1.00  0.00     0.053 C 
BRANCH  21  22
ATOM     22  C   UNL     1      -5.608  40.829  22.145  1.00  0.00     0.041 C 
ATOM     23  O   UNL     1      -5.905  42.051  22.225  1.00  0.00    -0.550 OA
ATOM     24  O   UNL     1      -5.236  40.133  23.290  1.00  0.00    -0.550 OA
ENDBRANCH  21  22
ENDBRANCH  20  21
ENDBRANCH  19  20
ENDBRANCH  18  19
ENDBRANCH  17  18
ENDBRANCH  16  17
ENDBRANCH  15  16
ENDBRANCH  14  15
ENDBRANCH  13  14
ENDBRANCH   1  13
TORSDOF 20
ENDMDL
MODEL 9
REMARK VINA RESULT:    -1.184      1.929      4.022
REMARK INTER + INTRA:          -3.051
REMARK INTER:                  -1.847
REMARK INTRA:                  -1.203
REMARK UNBOUND:                -0.482
REMARK SMILES CCCCCCCCCCCCCCCCCCCCCC(=O)[O-]
REMARK SMILES IDX 12 1 11 2 10 3 9 4 8 5 7 6 6 7 5 8 4 9 3 10 2 11 1 12 13 13
REMARK SMILES IDX 14 14 15 15 16 16 17 17 18 18 19 19 20 20 21 21 22 22 23 23
REMARK SMILES IDX 24 24
REMARK H PARENT
REMARK Flexibility Score: inf
ROOT
ATOM      1  C   UNL     1      -5.962  35.337  24.091  1.00  0.00     0.000 C 
ENDROOT
BRANCH   1   2
ATOM      2  C   UNL     1      -5.689  35.052  22.605  1.00  0.00     0.000 C 
BRANCH   2   3
ATOM      3  C   UNL     1      -4.218  35.284  22.223  1.00  0.00     0.000 C 
BRANCH   3   4
ATOM      4  C   UNL     1      -4.017  35.429  20.708  1.00  0.00    -0.000 C 
BRANCH   4   5
ATOM      5  C   UNL     1      -5.344  35.738  20.003  1.00  0.00    -0.000 C 
BRANCH   5   6
ATOM      6  C   UNL     1      -5.454  34.968  18.678  1.00  0.00    -0.000 C 
BRANCH   6   7
ATOM      7  C   UNL     1      -4.113  34.869  17.935  1.00  0.00    -0.000 C 
BRANCH   7   8
ATOM      8  C   UNL     1      -3.894  36.024  16.946  1.00  0.00    -0.000 C 
BRANCH   8   9
ATOM      9  C   UNL     1      -2.440  36.516  16.992  1.00  0.00    -0.000 C 
BRANCH   9  10
ATOM     10  C   UNL     1      -2.071  37.395  15.787  1.00  0.00    -0.000 C 
BRANCH  10  11
ATOM     11  C   UNL     1      -2.944  37.107  14.556  1.00  0.00    -0.003 C 
ATOM     12  C   UNL     1      -3.823  38.305  14.213  1.00  0.00     0.004 C 
ENDBRANCH  10  11
ENDBRANCH   9  10
ENDBRANCH   8   9
ENDBRANCH   7   8
ENDBRANCH   6   7
ENDBRANCH   5   6
ENDBRANCH   4   5
ENDBRANCH   3   4
ENDBRANCH   2   3
ENDBRANCH   1   2
BRANCH   1  13
ATOM     13  C   UNL     1      -6.098  36.840  24.387  1.00  0.00     0.000 C 
BRANCH  13  14
ATOM     14  C   UNL     1      -5.797  37.183  25.857  1.00  0.00     0.000 C 
BRANCH  14  15
ATOM     15  C   UNL     1      -4.991  38.487  26.010  1.00  0.00     0.000 C 
BRANCH  15  16
ATOM     16  C   UNL     1      -4.545  39.131  24.686  1.00  0.00     0.000 C 
BRANCH  16  17
ATOM     17  C   UNL     1      -5.434  40.317  24.270  1.00  0.00     0.000 C 
BRANCH  17  18
ATOM     18  C   UNL     1      -5.048  40.890  22.897  1.00  0.00     0.000 C 
BRANCH  18  19
ATOM     19  C   UNL     1      -6.120  40.638  21.822  1.00  0.00     0.000 C 
BRANCH  19  20
ATOM     20  C   UNL     1      -5.625  39.710  20.700  1.00  0.00     0.006 C 
BRANCH  20  21
ATOM     21  C   UNL     1      -4.375  38.915  21.100  1.00  0.00     0.053 C 
BRANCH  21  22
ATOM     22  C   UNL     1      -3.586  38.526  19.890  1.00  0.00     0.041 C 
ATOM     23  O   UNL     1      -4.136  38.498  18.756  1.00  0.00    -0.550 OA
ATOM     24  O   UNL     1      -2.245  38.179  20.013  1.00  0.00    -0.550 OA
ENDBRANCH  21  22
ENDBRANCH  20  21
ENDBRANCH  19  20
ENDBRANCH  18  19
ENDBRANCH  17  18
ENDBRANCH  16  17
ENDBRANCH  15  16
ENDBRANCH  14  15
ENDBRANCH  13  14
ENDBRANCH   1  13
TORSDOF 20
ENDMDL
