MODEL 1
REMARK VINA RESULT:    -2.483      0.000      0.000
REMARK INTER + INTRA:          -3.315
REMARK INTER:                  -3.063
REMARK INTRA:                  -0.252
REMARK UNBOUND:                -0.252
REMARK SMILES CCCCCC(C)=O
REMARK SMILES IDX 4 1 3 2 2 3 1 4 5 5 6 6 8 7 7 8
REMARK H PARENT
REMARK Flexibility Score: inf
ROOT
ATOM      1  C   UNL     1     142.516 133.947 145.057  1.00  0.00     0.008 C 
ENDROOT
BRANCH   1   2
ATOM      2  C   UNL     1     143.458 132.847 145.579  1.00  0.00     0.000 C 
BRANCH   2   3
ATOM      3  C   UNL     1     144.058 131.999 144.448  1.00  0.00    -0.003 C 
ATOM      4  C   UNL     1     145.327 131.260 144.872  1.00  0.00     0.004 C 
ENDBRANCH   2   3
ENDBRANCH   1   2
BRANCH   1   5
ATOM      5  C   UNL     1     142.906 134.422 143.650  1.00  0.00     0.075 C 
BRANCH   5   6
ATOM      6  C   UNL     1     143.511 135.800 143.665  1.00  0.00     0.129 C 
ATOM      7  O   UNL     1     142.793 136.781 143.551  1.00  0.00    -0.300 OA
ATOM      8  C   UNL     1     144.989 135.977 143.848  1.00  0.00     0.087 C 
ENDBRANCH   5   6
ENDBRANCH   1   5
TORSDOF 4
ENDMDL
MODEL 2
REMARK VINA RESULT:    -2.471      9.464     10.723
REMARK INTER + INTRA:          -3.301
REMARK INTER:                  -3.056
REMARK INTRA:                  -0.245
REMARK UNBOUND:                -0.252
REMARK SMILES CCCCCC(C)=O
REMARK SMILES IDX 4 1 3 2 2 3 1 4 5 5 6 6 8 7 7 8
REMARK H PARENT
REMARK Flexibility Score: inf
ROOT
ATOM      1  C   UNL     1     133.865 139.047 145.033  1.00  0.00     0.008 C 
ENDROOT
BRANCH   1   2
ATOM      2  C   UNL     1     132.821 138.049 145.567  1.00  0.00     0.000 C 
BRANCH   2   3
ATOM      3  C   UNL     1     131.977 137.424 144.447  1.00  0.00    -0.003 C 
ATOM      4  C   UNL     1     131.170 136.214 144.919  1.00  0.00     0.004 C 
ENDBRANCH   2   3
ENDBRANCH   1   2
BRANCH   1   5
ATOM      5  C   UNL     1     134.379 138.655 143.641  1.00  0.00     0.075 C 
BRANCH   5   6
ATOM      6  C   UNL     1     135.765 138.071 143.692  1.00  0.00     0.129 C 
ATOM      7  O   UNL     1     136.736 138.811 143.726  1.00  0.00    -0.300 OA
ATOM      8  C   UNL     1     135.960 136.585 143.732  1.00  0.00     0.087 C 
ENDBRANCH   5   6
ENDBRANCH   1   5
TORSDOF 4
ENDMDL
MODEL 3
REMARK VINA RESULT:    -2.441     13.005     15.102
REMARK INTER + INTRA:          -3.264
REMARK INTER:                  -3.027
REMARK INTRA:                  -0.237
REMARK UNBOUND:                -0.252
REMARK SMILES CCCCCC(C)=O
REMARK SMILES IDX 4 1 3 2 2 3 1 4 5 5 6 6 8 7 7 8
REMARK H PARENT
REMARK Flexibility Score: inf
ROOT
ATOM      1  C   UNL     1     139.103 147.646 144.969  1.00  0.00     0.008 C 
ENDROOT
BRANCH   1   2
ATOM      2  C   UNL     1     138.173 148.730 145.542  1.00  0.00     0.000 C 
BRANCH   2   3
ATOM      3  C   UNL     1     137.593 149.645 144.453  1.00  0.00    -0.003 C 
ATOM      4  C   UNL     1     136.227 150.220 144.828  1.00  0.00     0.004 C 
ENDBRANCH   2   3
ENDBRANCH   1   2
BRANCH   1   5
ATOM      5  C   UNL     1     138.619 147.130 143.607  1.00  0.00     0.075 C 
BRANCH   5   6
ATOM      6  C   UNL     1     138.064 145.733 143.695  1.00  0.00     0.129 C 
ATOM      7  O   UNL     1     138.825 144.780 143.765  1.00  0.00    -0.300 OA
ATOM      8  C   UNL     1     136.583 145.507 143.727  1.00  0.00     0.087 C 
ENDBRANCH   5   6
ENDBRANCH   1   5
TORSDOF 4
ENDMDL
MODEL 4
REMARK VINA RESULT:    -2.433      9.617     10.880
REMARK INTER + INTRA:          -3.254
REMARK INTER:                  -3.000
REMARK INTRA:                  -0.254
REMARK UNBOUND:                -0.252
REMARK SMILES CCCCCC(C)=O
REMARK SMILES IDX 4 1 3 2 2 3 1 4 5 5 6 6 8 7 7 8
REMARK H PARENT
REMARK Flexibility Score: inf
ROOT
ATOM      1  C   UNL     1     147.795 142.659 145.193  1.00  0.00     0.008 C 
ENDROOT
BRANCH   1   2
ATOM      2  C   UNL     1     148.885 143.629 145.682  1.00  0.00     0.000 C 
BRANCH   2   3
ATOM      3  C   UNL     1     149.657 144.281 144.526  1.00  0.00    -0.003 C 
ATOM      4  C   UNL     1     150.548 145.435 144.985  1.00  0.00     0.004 C 
ENDBRANCH   2   3
ENDBRANCH   1   2
BRANCH   1   5
ATOM      5  C   UNL     1     147.378 142.942 143.743  1.00  0.00     0.075 C 
BRANCH   5   6
ATOM      6  C   UNL     1     146.035 143.618 143.661  1.00  0.00     0.129 C 
ATOM      7  O   UNL     1     145.059 142.986 143.286  1.00  0.00    -0.300 OA
ATOM      8  C   UNL     1     145.882 145.053 144.067  1.00  0.00     0.087 C 
ENDBRANCH   5   6
ENDBRANCH   1   5
TORSDOF 4
ENDMDL
MODEL 5
REMARK VINA RESULT:    -2.415      2.488      3.910
REMARK INTER + INTRA:          -3.232
REMARK INTER:                  -2.951
REMARK INTRA:                  -0.282
REMARK UNBOUND:                -0.252
REMARK SMILES CCCCCC(C)=O
REMARK SMILES IDX 4 1 3 2 2 3 1 4 5 5 6 6 8 7 7 8
REMARK H PARENT
REMARK Flexibility Score: inf
ROOT
ATOM      1  C   UNL     1     142.820 133.396 145.330  1.00  0.00     0.008 C 
ENDROOT
BRANCH   1   2
ATOM      2  C   UNL     1     141.869 134.442 144.723  1.00  0.00     0.000 C 
BRANCH   2   3
ATOM      3  C   UNL     1     142.479 135.851 144.700  1.00  0.00    -0.003 C 
ATOM      4  C   UNL     1     143.311 136.116 143.446  1.00  0.00     0.004 C 
ENDBRANCH   2   3
ENDBRANCH   1   2
BRANCH   1   5
ATOM      5  C   UNL     1     143.293 132.371 144.289  1.00  0.00     0.075 C 
BRANCH   5   6
ATOM      6  C   UNL     1     144.775 132.121 144.372  1.00  0.00     0.129 C 
ATOM      7  O   UNL     1     145.188 131.037 144.754  1.00  0.00    -0.300 OA
ATOM      8  C   UNL     1     145.748 133.185 143.960  1.00  0.00     0.087 C 
ENDBRANCH   5   6
ENDBRANCH   1   5
TORSDOF 4
ENDMDL
MODEL 6
REMARK VINA RESULT:    -2.404      9.396     10.879
REMARK INTER + INTRA:          -3.218
REMARK INTER:                  -2.931
REMARK INTRA:                  -0.287
REMARK UNBOUND:                -0.252
REMARK SMILES CCCCCC(C)=O
REMARK SMILES IDX 4 1 3 2 2 3 1 4 5 5 6 6 8 7 7 8
REMARK H PARENT
REMARK Flexibility Score: inf
ROOT
ATOM      1  C   UNL     1     148.197 142.848 145.406  1.00  0.00     0.008 C 
ENDROOT
BRANCH   1   2
ATOM      2  C   UNL     1     147.145 141.913 144.783  1.00  0.00     0.000 C 
BRANCH   2   3
ATOM      3  C   UNL     1     145.745 142.543 144.743  1.00  0.00    -0.003 C 
ATOM      4  C   UNL     1     145.490 143.339 143.463  1.00  0.00     0.004 C 
ENDBRANCH   2   3
ENDBRANCH   1   2
BRANCH   1   5
ATOM      5  C   UNL     1     149.251 143.295 144.384  1.00  0.00     0.075 C 
BRANCH   5   6
ATOM      6  C   UNL     1     149.491 144.781 144.431  1.00  0.00     0.129 C 
ATOM      7  O   UNL     1     150.574 145.209 144.800  1.00  0.00    -0.300 OA
ATOM      8  C   UNL     1     148.420 145.736 143.998  1.00  0.00     0.087 C 
ENDBRANCH   5   6
ENDBRANCH   1   5
TORSDOF 4
ENDMDL
MODEL 7
REMARK VINA RESULT:    -2.392     13.093     14.590
REMARK INTER + INTRA:          -3.203
REMARK INTER:                  -2.873
REMARK INTRA:                  -0.330
REMARK UNBOUND:                -0.252
REMARK SMILES CCCCCC(C)=O
REMARK SMILES IDX 4 1 3 2 2 3 1 4 5 5 6 6 8 7 7 8
REMARK H PARENT
REMARK Flexibility Score: inf
ROOT
ATOM      1  C   UNL     1     139.632 147.155 144.798  1.00  0.00     0.008 C 
ENDROOT
BRANCH   1   2
ATOM      2  C   UNL     1     139.112 145.710 144.696  1.00  0.00     0.000 C 
BRANCH   2   3
ATOM      3  C   UNL     1     138.306 145.463 143.412  1.00  0.00    -0.003 C 
ATOM      4  C   UNL     1     136.797 145.438 143.656  1.00  0.00     0.004 C 
ENDBRANCH   2   3
ENDBRANCH   1   2
BRANCH   1   5
ATOM      5  C   UNL     1     138.728 148.034 145.674  1.00  0.00     0.075 C 
BRANCH   5   6
ATOM      6  C   UNL     1     137.872 148.962 144.853  1.00  0.00     0.129 C 
ATOM      7  O   UNL     1     138.377 149.626 143.962  1.00  0.00    -0.300 OA
ATOM      8  C   UNL     1     136.396 149.052 145.104  1.00  0.00     0.087 C 
ENDBRANCH   5   6
ENDBRANCH   1   5
TORSDOF 4
ENDMDL
MODEL 8
REMARK VINA RESULT:    -2.380      9.074     10.224
REMARK INTER + INTRA:          -3.189
REMARK INTER:                  -2.896
REMARK INTRA:                  -0.293
REMARK UNBOUND:                -0.252
REMARK SMILES CCCCCC(C)=O
REMARK SMILES IDX 4 1 3 2 2 3 1 4 5 5 6 6 8 7 7 8
REMARK H PARENT
REMARK Flexibility Score: inf
ROOT
ATOM      1  C   UNL     1     135.478 138.876 144.829  1.00  0.00     0.008 C 
ENDROOT
BRANCH   1   2
ATOM      2  C   UNL     1     136.047 138.271 143.533  1.00  0.00     0.000 C 
BRANCH   2   3
ATOM      3  C   UNL     1     136.094 136.736 143.570  1.00  0.00    -0.003 C 
ATOM      4  C   UNL     1     136.912 136.197 144.743  1.00  0.00     0.004 C 
ENDBRANCH   2   3
ENDBRANCH   1   2
BRANCH   1   5
ATOM      5  C   UNL     1     134.083 139.482 144.619  1.00  0.00     0.075 C 
BRANCH   5   6
ATOM      6  C   UNL     1     132.987 138.477 144.854  1.00  0.00     0.129 C 
ATOM      7  O   UNL     1     132.069 138.381 144.055  1.00  0.00    -0.300 OA
ATOM      8  C   UNL     1     133.031 137.573 146.049  1.00  0.00     0.087 C 
ENDBRANCH   5   6
ENDBRANCH   1   5
TORSDOF 4
ENDMDL
MODEL 9
REMARK VINA RESULT:    -2.368      2.048      3.710
REMARK INTER + INTRA:          -3.174
REMARK INTER:                  -2.810
REMARK INTRA:                  -0.364
REMARK UNBOUND:                -0.252
REMARK SMILES CCCCCC(C)=O
REMARK SMILES IDX 4 1 3 2 2 3 1 4 5 5 6 6 8 7 7 8
REMARK H PARENT
REMARK Flexibility Score: inf
ROOT
ATOM      1  C   UNL     1     142.656 135.459 144.841  1.00  0.00     0.008 C 
ENDROOT
BRANCH   1   2
ATOM      2  C   UNL     1     143.298 135.952 143.532  1.00  0.00     0.000 C 
BRANCH   2   3
ATOM      3  C   UNL     1     144.812 136.175 143.665  1.00  0.00    -0.003 C 
ATOM      4  C   UNL     1     145.252 136.399 145.112  1.00  0.00     0.004 C 
ENDBRANCH   2   3
ENDBRANCH   1   2
BRANCH   1   5
ATOM      5  C   UNL     1     142.056 134.053 144.696  1.00  0.00     0.075 C 
BRANCH   5   6
ATOM      6  C   UNL     1     143.090 132.974 144.877  1.00  0.00     0.129 C 
ATOM      7  O   UNL     1     143.219 132.108 144.025  1.00  0.00    -0.300 OA
ATOM      8  C   UNL     1     143.982 132.973 146.081  1.00  0.00     0.087 C 
ENDBRANCH   5   6
ENDBRANCH   1   5
TORSDOF 4
ENDMDL
