MODEL 1
REMARK VINA RESULT:    41.397      0.000      0.000
REMARK INTER + INTRA:          72.105
REMARK INTER:                  60.758
REMARK INTRA:                  11.348
REMARK UNBOUND:                11.348
REMARK SMILES Cc1cc2c(C(C)C)c(O)c(O)c(C=O)c2c(O)c1-c1c(C)cc2c(C(C)C)c(O)c(O)c(C=O)c2c1O
REMARK SMILES IDX 1 1 2 2 3 3 4 4 16 5 13 6 11 7 9 8 5 9 17 10 19 11 20 12
REMARK SMILES IDX 37 13 21 14 36 15 23 16 22 17 24 18 33 19 25 20 31 21 29 22
REMARK SMILES IDX 38 23 34 25 35 26 26 27 27 28 28 29 32 30 30 32 18 34 6 36
REMARK SMILES IDX 7 37 8 38 14 39 15 40 10 41 12 43
REMARK H PARENT 38 24 32 31 30 33 18 35 10 42 12 44
REMARK Flexibility Score: inf
ROOT
ATOM      1  C   UNL     1       1.010   8.195  24.392  1.00  0.00     0.045 C 
ATOM      2  C   UNL     1       1.302   7.241  23.259  1.00  0.00    -0.039 A 
ATOM      3  C   UNL     1       1.434   7.741  21.962  1.00  0.00     0.013 A 
ATOM      4  C   UNL     1       1.689   6.893  20.861  1.00  0.00    -0.006 A 
ATOM      5  C   UNL     1       1.958   5.518  21.112  1.00  0.00     0.039 A 
ATOM      6  C   UNL     1       2.463   4.711  20.055  1.00  0.00     0.072 A 
ATOM      7  C   UNL     1       2.584   5.237  18.759  1.00  0.00     0.169 A 
ATOM      8  C   UNL     1       2.247   6.581  18.500  1.00  0.00     0.162 A 
ATOM      9  C   UNL     1       1.707   7.394  19.523  1.00  0.00     0.008 A 
ATOM     10  C   UNL     1       1.673   4.989  22.404  1.00  0.00     0.132 A 
ATOM     11  C   UNL     1       1.370   5.854  23.475  1.00  0.00     0.031 A 
ENDROOT
BRANCH  11  12
ATOM     12  C   UNL     1       1.120   5.305  24.834  1.00  0.00     0.031 A 
ATOM     13  C   UNL     1       0.243   5.969  25.719  1.00  0.00     0.132 A 
ATOM     14  C   UNL     1       1.748   4.113  25.229  1.00  0.00    -0.039 A 
ATOM     15  C   UNL     1      -0.015   5.434  27.017  1.00  0.00     0.039 A 
ATOM     16  C   UNL     1       1.561   3.634  26.526  1.00  0.00     0.013 A 
ATOM     17  C   UNL     1       2.629   3.344  24.273  1.00  0.00     0.045 C 
ATOM     18  C   UNL     1       0.750   4.314  27.461  1.00  0.00    -0.006 A 
ATOM     19  C   UNL     1      -1.001   5.984  27.891  1.00  0.00     0.072 A 
ATOM     20  C   UNL     1       0.667   3.881  28.819  1.00  0.00     0.008 A 
ATOM     21  C   UNL     1      -1.201   5.417  29.167  1.00  0.00     0.169 A 
ATOM     22  C   UNL     1      -0.373   4.388  29.626  1.00  0.00     0.162 A 
BRANCH  13  23
ATOM     23  O   UNL     1      -0.353   7.170  25.316  1.00  0.00    -0.507 OA
ATOM     24  H   UNL     1       0.125   7.892  24.793  1.00  0.00     0.293 HD
ENDBRANCH  13  23
BRANCH  19  25
ATOM     25  C   UNL     1      -1.894   7.082  27.467  1.00  0.00     0.264 C 
ATOM     26  O   UNL     1      -2.742   7.562  28.265  1.00  0.00    -0.298 OA
ENDBRANCH  19  25
BRANCH  20  27
ATOM     27  C   UNL     1       1.674   2.877  29.410  1.00  0.00     0.017 C 
ATOM     28  C   UNL     1       1.655   2.920  30.942  1.00  0.00     0.012 C 
ATOM     29  C   UNL     1       3.103   3.042  28.860  1.00  0.00     0.012 C 
ENDBRANCH  20  27
BRANCH  21  30
ATOM     30  O   UNL     1      -2.238   5.845  30.005  1.00  0.00    -0.504 OA
ATOM     31  H   UNL     1      -3.195   5.531  29.927  1.00  0.00     0.293 HD
ENDBRANCH  21  30
BRANCH  22  32
ATOM     32  O   UNL     1      -0.601   3.838  30.891  1.00  0.00    -0.504 OA
ATOM     33  H   UNL     1       0.139   3.662  31.559  1.00  0.00     0.293 HD
ENDBRANCH  22  32
ENDBRANCH  11  12
BRANCH  10  34
ATOM     34  O   UNL     1       1.642   3.604  22.604  1.00  0.00    -0.507 OA
ATOM     35  H   UNL     1       0.940   3.132  23.160  1.00  0.00     0.293 HD
ENDBRANCH  10  34
BRANCH   9  36
ATOM     36  C   UNL     1       1.163   8.793  19.183  1.00  0.00     0.017 C 
ATOM     37  C   UNL     1       2.173   9.881  19.558  1.00  0.00     0.012 C 
ATOM     38  C   UNL     1       0.696   8.938  17.721  1.00  0.00     0.012 C 
ENDBRANCH   9  36
BRANCH   6  39
ATOM     39  C   UNL     1       3.000   3.347  20.271  1.00  0.00     0.264 C 
ATOM     40  O   UNL     1       3.123   2.882  21.435  1.00  0.00    -0.298 OA
ENDBRANCH   6  39
BRANCH   8  41
ATOM     41  O   UNL     1       2.478   7.145  17.242  1.00  0.00    -0.504 OA
ATOM     42  H   UNL     1       3.391   7.336  16.856  1.00  0.00     0.293 HD
ENDBRANCH   8  41
BRANCH   7  43
ATOM     43  O   UNL     1       3.051   4.390  17.744  1.00  0.00    -0.504 OA
ATOM     44  H   UNL     1       2.636   3.502  17.503  1.00  0.00     0.293 HD
ENDBRANCH   7  43
TORSDOF 11
ENDMDL
