MODEL 1
REMARK VINA RESULT:    -4.905      0.000      0.000
REMARK INTER + INTRA:          -5.523
REMARK INTER:                  -5.335
REMARK INTRA:                  -0.188
REMARK UNBOUND:                -0.188
REMARK SMILES CC1=CC[C@@](O)(C(C)C)CC1
REMARK SMILES IDX 1 1 2 2 3 3 4 4 5 5 10 6 11 7 7 8 8 9 9 10 6 11
REMARK H PARENT 6 12
REMARK Flexibility Score: inf
ROOT
ATOM      1  C   UNL     1     137.058 138.549 145.253  1.00  0.00     0.039 C 
ATOM      2  C   UNL     1     136.170 138.600 144.041  1.00  0.00    -0.077 C 
ATOM      3  C   UNL     1     135.112 139.422 144.015  1.00  0.00    -0.025 C 
ATOM      4  C   UNL     1     134.178 139.387 142.837  1.00  0.00     0.062 C 
ATOM      5  C   UNL     1     133.839 137.911 142.477  1.00  0.00     0.071 C 
ATOM      6  C   UNL     1     135.171 137.107 142.244  1.00  0.00     0.040 C 
ATOM      7  C   UNL     1     136.453 137.745 142.831  1.00  0.00     0.033 C 
ENDROOT
BRANCH   5   8
ATOM      8  C   UNL     1     132.938 137.824 141.188  1.00  0.00     0.015 C 
ATOM      9  C   UNL     1     133.166 139.025 140.249  1.00  0.00     0.010 C 
ATOM     10  C   UNL     1     133.114 136.521 140.382  1.00  0.00     0.010 C 
ENDBRANCH   5   8
BRANCH   5  11
ATOM     11  O   UNL     1     133.170 137.308 143.567  1.00  0.00    -0.389 OA
ATOM     12  H   UNL     1     132.484 136.686 143.213  1.00  0.00     0.211 HD
ENDBRANCH   5  11
TORSDOF 2
ENDMDL
MODEL 2
REMARK VINA RESULT:    -4.670      0.971      4.352
REMARK INTER + INTRA:          -5.267
REMARK INTER:                  -5.079
REMARK INTRA:                  -0.188
REMARK UNBOUND:                -0.188
REMARK SMILES CC1=CC[C@@](O)(C(C)C)CC1
REMARK SMILES IDX 1 1 2 2 3 3 4 4 5 5 10 6 11 7 7 8 8 9 9 10 6 11
REMARK H PARENT 6 12
REMARK Flexibility Score: inf
ROOT
ATOM      1  C   UNL     1     132.033 136.650 139.249  1.00  0.00     0.039 C 
ATOM      2  C   UNL     1     133.123 137.120 140.171  1.00  0.00    -0.077 C 
ATOM      3  C   UNL     1     133.976 136.238 140.711  1.00  0.00    -0.025 C 
ATOM      4  C   UNL     1     134.995 136.712 141.710  1.00  0.00     0.062 C 
ATOM      5  C   UNL     1     134.317 137.652 142.750  1.00  0.00     0.071 C 
ATOM      6  C   UNL     1     133.583 138.824 142.000  1.00  0.00     0.040 C 
ATOM      7  C   UNL     1     133.290 138.583 140.500  1.00  0.00     0.033 C 
ENDROOT
BRANCH   5   8
ATOM      8  C   UNL     1     135.369 138.248 143.759  1.00  0.00     0.015 C 
ATOM      9  C   UNL     1     136.778 138.323 143.140  1.00  0.00     0.010 C 
ATOM     10  C   UNL     1     134.994 139.638 144.314  1.00  0.00     0.010 C 
ENDBRANCH   5   8
BRANCH   5  11
ATOM     11  O   UNL     1     133.333 136.927 143.460  1.00  0.00    -0.389 OA
ATOM     12  H   UNL     1     133.268 137.296 144.378  1.00  0.00     0.211 HD
ENDBRANCH   5  11
TORSDOF 2
ENDMDL
MODEL 3
REMARK VINA RESULT:    -4.545     19.919     20.875
REMARK INTER + INTRA:          -5.132
REMARK INTER:                  -5.030
REMARK INTRA:                  -0.101
REMARK UNBOUND:                -0.188
REMARK SMILES CC1=CC[C@@](O)(C(C)C)CC1
REMARK SMILES IDX 1 1 2 2 3 3 4 4 5 5 10 6 11 7 7 8 8 9 9 10 6 11
REMARK H PARENT 6 12
REMARK Flexibility Score: inf
ROOT
ATOM      1  C   UNL     1     148.961 141.867 129.548  1.00  0.00     0.039 C 
ATOM      2  C   UNL     1     149.520 143.223 129.880  1.00  0.00    -0.077 C 
ATOM      3  C   UNL     1     149.660 143.600 131.158  1.00  0.00    -0.025 C 
ATOM      4  C   UNL     1     150.125 144.996 131.470  1.00  0.00     0.062 C 
ATOM      5  C   UNL     1     149.348 146.020 130.591  1.00  0.00     0.071 C 
ATOM      6  C   UNL     1     149.500 145.632 129.074  1.00  0.00     0.040 C 
ATOM      7  C   UNL     1     149.945 144.178 128.792  1.00  0.00     0.033 C 
ENDROOT
BRANCH   5   8
ATOM      8  C   UNL     1     149.871 147.488 130.817  1.00  0.00     0.015 C 
ATOM      9  C   UNL     1     148.958 148.531 130.145  1.00  0.00     0.010 C 
ATOM     10  C   UNL     1     150.059 147.870 132.299  1.00  0.00     0.010 C 
ENDBRANCH   5   8
BRANCH   5  11
ATOM     11  O   UNL     1     147.971 145.951 130.906  1.00  0.00    -0.389 OA
ATOM     12  H   UNL     1     147.522 146.755 130.539  1.00  0.00     0.211 HD
ENDBRANCH   5  11
TORSDOF 2
ENDMDL
MODEL 4
REMARK VINA RESULT:    -4.495     16.653     17.574
REMARK INTER + INTRA:          -5.077
REMARK INTER:                  -4.974
REMARK INTRA:                  -0.103
REMARK UNBOUND:                -0.188
REMARK SMILES CC1=CC[C@@](O)(C(C)C)CC1
REMARK SMILES IDX 1 1 2 2 3 3 4 4 5 5 10 6 11 7 7 8 8 9 9 10 6 11
REMARK H PARENT 6 12
REMARK Flexibility Score: inf
ROOT
ATOM      1  C   UNL     1     140.194 144.352 127.903  1.00  0.00     0.039 C 
ATOM      2  C   UNL     1     141.028 145.471 128.460  1.00  0.00    -0.077 C 
ATOM      3  C   UNL     1     141.889 145.237 129.461  1.00  0.00    -0.025 C 
ATOM      4  C   UNL     1     142.640 146.386 130.074  1.00  0.00     0.062 C 
ATOM      5  C   UNL     1     141.665 147.569 130.345  1.00  0.00     0.071 C 
ATOM      6  C   UNL     1     140.915 147.948 129.015  1.00  0.00     0.040 C 
ATOM      7  C   UNL     1     140.927 146.871 127.905  1.00  0.00     0.033 C 
ENDROOT
BRANCH   5   8
ATOM      8  C   UNL     1     142.428 148.830 130.899  1.00  0.00     0.015 C 
ATOM      9  C   UNL     1     141.519 150.074 130.948  1.00  0.00     0.010 C 
ATOM     10  C   UNL     1     143.065 148.623 132.288  1.00  0.00     0.010 C 
ENDBRANCH   5   8
BRANCH   5  11
ATOM     11  O   UNL     1     140.684 147.158 131.276  1.00  0.00    -0.389 OA
ATOM     12  H   UNL     1     140.082 147.925 131.462  1.00  0.00     0.211 HD
ENDBRANCH   5  11
TORSDOF 2
ENDMDL
MODEL 5
REMARK VINA RESULT:    -4.348     13.938     15.145
REMARK INTER + INTRA:          -4.917
REMARK INTER:                  -4.735
REMARK INTRA:                  -0.182
REMARK UNBOUND:                -0.188
REMARK SMILES CC1=CC[C@@](O)(C(C)C)CC1
REMARK SMILES IDX 1 1 2 2 3 3 4 4 5 5 10 6 11 7 7 8 8 9 9 10 6 11
REMARK H PARENT 6 12
REMARK Flexibility Score: inf
ROOT
ATOM      1  C   UNL     1     148.097 140.674 135.862  1.00  0.00     0.039 C 
ATOM      2  C   UNL     1     148.146 140.416 137.343  1.00  0.00    -0.077 C 
ATOM      3  C   UNL     1     147.353 141.106 138.174  1.00  0.00    -0.025 C 
ATOM      4  C   UNL     1     147.486 140.908 139.658  1.00  0.00     0.062 C 
ATOM      5  C   UNL     1     148.991 140.930 140.060  1.00  0.00     0.071 C 
ATOM      6  C   UNL     1     149.777 139.863 139.211  1.00  0.00     0.040 C 
ATOM      7  C   UNL     1     149.073 139.376 137.923  1.00  0.00     0.033 C 
ENDROOT
BRANCH   5   8
ATOM      8  C   UNL     1     149.182 140.630 141.594  1.00  0.00     0.015 C 
ATOM      9  C   UNL     1     148.109 141.327 142.452  1.00  0.00     0.010 C 
ATOM     10  C   UNL     1     149.205 139.128 141.945  1.00  0.00     0.010 C 
ENDBRANCH   5   8
BRANCH   5  11
ATOM     11  O   UNL     1     149.536 142.197 139.749  1.00  0.00    -0.389 OA
ATOM     12  H   UNL     1     148.892 142.687 139.176  1.00  0.00     0.211 HD
ENDBRANCH   5  11
TORSDOF 2
ENDMDL
MODEL 6
REMARK VINA RESULT:    -4.328     20.117     20.888
REMARK INTER + INTRA:          -4.896
REMARK INTER:                  -4.780
REMARK INTRA:                  -0.116
REMARK UNBOUND:                -0.188
REMARK SMILES CC1=CC[C@@](O)(C(C)C)CC1
REMARK SMILES IDX 1 1 2 2 3 3 4 4 5 5 10 6 11 7 7 8 8 9 9 10 6 11
REMARK H PARENT 6 12
REMARK Flexibility Score: inf
ROOT
ATOM      1  C   UNL     1     150.020 143.003 131.003  1.00  0.00     0.039 C 
ATOM      2  C   UNL     1     149.872 144.405 130.481  1.00  0.00    -0.077 C 
ATOM      3  C   UNL     1     149.946 145.448 131.320  1.00  0.00    -0.025 C 
ATOM      4  C   UNL     1     149.695 146.835 130.798  1.00  0.00     0.062 C 
ATOM      5  C   UNL     1     148.424 146.838 129.897  1.00  0.00     0.071 C 
ATOM      6  C   UNL     1     148.581 145.760 128.762  1.00  0.00     0.040 C 
ATOM      7  C   UNL     1     149.651 144.671 129.012  1.00  0.00     0.033 C 
ENDROOT
BRANCH   5   8
ATOM      8  C   UNL     1     148.179 148.253 129.251  1.00  0.00     0.015 C 
ATOM      9  C   UNL     1     147.494 148.143 127.875  1.00  0.00     0.010 C 
ATOM     10  C   UNL     1     147.366 149.219 130.137  1.00  0.00     0.010 C 
ENDBRANCH   5   8
BRANCH   5  11
ATOM     11  O   UNL     1     147.303 146.468 130.675  1.00  0.00    -0.389 OA
ATOM     12  H   UNL     1     146.484 146.588 130.128  1.00  0.00     0.211 HD
ENDBRANCH   5  11
TORSDOF 2
ENDMDL
MODEL 7
REMARK VINA RESULT:    -4.240     14.387     15.487
REMARK INTER + INTRA:          -4.799
REMARK INTER:                  -4.664
REMARK INTRA:                  -0.136
REMARK UNBOUND:                -0.188
REMARK SMILES CC1=CC[C@@](O)(C(C)C)CC1
REMARK SMILES IDX 1 1 2 2 3 3 4 4 5 5 10 6 11 7 7 8 8 9 9 10 6 11
REMARK H PARENT 6 12
REMARK Flexibility Score: inf
ROOT
ATOM      1  C   UNL     1     149.779 137.014 137.660  1.00  0.00     0.039 C 
ATOM      2  C   UNL     1     149.225 138.030 138.619  1.00  0.00    -0.077 C 
ATOM      3  C   UNL     1     148.424 139.009 138.175  1.00  0.00    -0.025 C 
ATOM      4  C   UNL     1     147.961 140.075 139.129  1.00  0.00     0.062 C 
ATOM      5  C   UNL     1     149.164 140.581 139.979  1.00  0.00     0.071 C 
ATOM      6  C   UNL     1     149.855 139.360 140.691  1.00  0.00     0.040 C 
ATOM      7  C   UNL     1     149.543 137.968 140.093  1.00  0.00     0.033 C 
ENDROOT
BRANCH   5   8
ATOM      8  C   UNL     1     148.705 141.631 141.060  1.00  0.00     0.015 C 
ATOM      9  C   UNL     1     148.968 141.129 142.493  1.00  0.00     0.010 C 
ATOM     10  C   UNL     1     149.342 143.026 140.895  1.00  0.00     0.010 C 
ENDBRANCH   5   8
BRANCH   5  11
ATOM     11  O   UNL     1     150.124 141.166 139.123  1.00  0.00    -0.389 OA
ATOM     12  H   UNL     1     149.661 141.514 138.318  1.00  0.00     0.211 HD
ENDBRANCH   5  11
TORSDOF 2
ENDMDL
MODEL 8
REMARK VINA RESULT:    -4.210      1.126      4.355
REMARK INTER + INTRA:          -4.767
REMARK INTER:                  -4.646
REMARK INTRA:                  -0.121
REMARK UNBOUND:                -0.188
REMARK SMILES CC1=CC[C@@](O)(C(C)C)CC1
REMARK SMILES IDX 1 1 2 2 3 3 4 4 5 5 10 6 11 7 7 8 8 9 9 10 6 11
REMARK H PARENT 6 12
REMARK Flexibility Score: inf
ROOT
ATOM      1  C   UNL     1     132.187 137.403 140.486  1.00  0.00     0.039 C 
ATOM      2  C   UNL     1     133.496 137.841 141.082  1.00  0.00    -0.077 C 
ATOM      3  C   UNL     1     134.555 137.020 141.060  1.00  0.00    -0.025 C 
ATOM      4  C   UNL     1     135.826 137.434 141.749  1.00  0.00     0.062 C 
ATOM      5  C   UNL     1     135.498 138.003 143.161  1.00  0.00     0.071 C 
ATOM      6  C   UNL     1     134.449 139.168 143.028  1.00  0.00     0.040 C 
ATOM      7  C   UNL     1     133.652 139.207 141.703  1.00  0.00     0.033 C 
ENDROOT
BRANCH   5   8
ATOM      8  C   UNL     1     136.793 138.538 143.881  1.00  0.00     0.015 C 
ATOM      9  C   UNL     1     136.880 138.049 145.339  1.00  0.00     0.010 C 
ATOM     10  C   UNL     1     138.108 138.187 143.157  1.00  0.00     0.010 C 
ENDBRANCH   5   8
BRANCH   5  11
ATOM     11  O   UNL     1     134.902 136.989 143.944  1.00  0.00    -0.389 OA
ATOM     12  H   UNL     1     134.843 136.162 143.400  1.00  0.00     0.211 HD
ENDBRANCH   5  11
TORSDOF 2
ENDMDL
MODEL 9
REMARK VINA RESULT:    -4.139     12.855     14.412
REMARK INTER + INTRA:          -4.690
REMARK INTER:                  -4.510
REMARK INTRA:                  -0.180
REMARK UNBOUND:                -0.188
REMARK SMILES CC1=CC[C@@](O)(C(C)C)CC1
REMARK SMILES IDX 1 1 2 2 3 3 4 4 5 5 10 6 11 7 7 8 8 9 9 10 6 11
REMARK H PARENT 6 12
REMARK Flexibility Score: inf
ROOT
ATOM      1  C   UNL     1     149.806 143.790 141.372  1.00  0.00     0.039 C 
ATOM      2  C   UNL     1     148.995 142.528 141.277  1.00  0.00    -0.077 C 
ATOM      3  C   UNL     1     149.000 141.646 142.286  1.00  0.00    -0.025 C 
ATOM      4  C   UNL     1     148.264 140.343 142.133  1.00  0.00     0.062 C 
ATOM      5  C   UNL     1     148.587 139.715 140.745  1.00  0.00     0.071 C 
ATOM      6  C   UNL     1     148.263 140.755 139.610  1.00  0.00     0.040 C 
ATOM      7  C   UNL     1     148.153 142.231 140.060  1.00  0.00     0.033 C 
ENDROOT
BRANCH   5   8
ATOM      8  C   UNL     1     147.761 138.396 140.503  1.00  0.00     0.015 C 
ATOM      9  C   UNL     1     147.734 137.500 141.757  1.00  0.00     0.010 C 
ATOM     10  C   UNL     1     146.313 138.635 140.030  1.00  0.00     0.010 C 
ENDBRANCH   5   8
BRANCH   5  11
ATOM     11  O   UNL     1     149.970 139.433 140.673  1.00  0.00    -0.389 OA
ATOM     12  H   UNL     1     150.183 139.126 139.754  1.00  0.00     0.211 HD
ENDBRANCH   5  11
TORSDOF 2
ENDMDL
