MODEL 1
REMARK VINA RESULT:    -3.441      0.000      0.000
REMARK INTER + INTRA:          -8.401
REMARK INTER:                  -6.056
REMARK INTRA:                  -2.344
REMARK UNBOUND:                -2.344
REMARK SMILES CCCCCCCCCCCCCCC(=O)[O-]
REMARK SMILES IDX 9 1 10 2 11 3 12 4 13 5 14 6 15 7 16 8 17 9 8 10 7 11 6 12
REMARK SMILES IDX 5 13 4 14 3 15 2 16 1 17
REMARK H PARENT
REMARK Flexibility Score: inf
ROOT
ATOM      1  C   UNL     1      36.027 -50.037 -14.923  1.00  0.00     0.000 C 
ENDROOT
BRANCH   1   2
ATOM      2  C   UNL     1      35.104 -49.315 -15.919  1.00  0.00     0.000 C 
BRANCH   2   3
ATOM      3  C   UNL     1      35.624 -47.924 -16.311  1.00  0.00     0.000 C 
BRANCH   3   4
ATOM      4  C   UNL     1      35.674 -47.770 -17.839  1.00  0.00     0.000 C 
BRANCH   4   5
ATOM      5  C   UNL     1      36.829 -46.869 -18.307  1.00  0.00     0.006 C 
BRANCH   5   6
ATOM      6  C   UNL     1      36.850 -46.677 -19.828  1.00  0.00     0.053 C 
BRANCH   6   7
ATOM      7  C   UNL     1      38.178 -47.083 -20.386  1.00  0.00     0.041 C 
ATOM      8  O   UNL     1      38.302 -47.318 -21.618  1.00  0.00    -0.550 OA
ATOM      9  O   UNL     1      39.289 -47.155 -19.557  1.00  0.00    -0.550 OA
ENDBRANCH   6   7
ENDBRANCH   5   6
ENDBRANCH   4   5
ENDBRANCH   3   4
ENDBRANCH   2   3
ENDBRANCH   1   2
BRANCH   1  10
ATOM     10  C   UNL     1      36.402 -51.456 -15.387  1.00  0.00     0.000 C 
BRANCH  10  11
ATOM     11  C   UNL     1      36.368 -51.605 -16.917  1.00  0.00    -0.000 C 
BRANCH  11  12
ATOM     12  C   UNL     1      37.776 -51.699 -17.532  1.00  0.00    -0.000 C 
BRANCH  12  13
ATOM     13  C   UNL     1      38.349 -50.322 -17.904  1.00  0.00    -0.000 C 
BRANCH  13  14
ATOM     14  C   UNL     1      39.575 -49.941 -17.061  1.00  0.00    -0.000 C 
BRANCH  14  15
ATOM     15  C   UNL     1      39.339 -48.622 -16.313  1.00  0.00    -0.000 C 
BRANCH  15  16
ATOM     16  C   UNL     1      39.466 -48.818 -14.798  1.00  0.00    -0.003 C 
ATOM     17  C   UNL     1      38.756 -47.704 -14.036  1.00  0.00     0.004 C 
ENDBRANCH  15  16
ENDBRANCH  14  15
ENDBRANCH  13  14
ENDBRANCH  12  13
ENDBRANCH  11  12
ENDBRANCH  10  11
ENDBRANCH   1  10
TORSDOF 13
ENDMDL
MODEL 2
REMARK VINA RESULT:    -3.440     12.616     15.191
REMARK INTER + INTRA:          -8.398
REMARK INTER:                  -6.581
REMARK INTRA:                  -1.817
REMARK UNBOUND:                -2.344
REMARK SMILES CCCCCCCCCCCCCCC(=O)[O-]
REMARK SMILES IDX 9 1 10 2 11 3 12 4 13 5 14 6 15 7 16 8 17 9 8 10 7 11 6 12
REMARK SMILES IDX 5 13 4 14 3 15 2 16 1 17
REMARK H PARENT
REMARK Flexibility Score: inf
ROOT
ATOM      1  C   UNL     1      51.974 -49.245  -8.095  1.00  0.00     0.000 C 
ENDROOT
BRANCH   1   2
ATOM      2  C   UNL     1      51.081 -48.433  -9.047  1.00  0.00     0.000 C 
BRANCH   2   3
ATOM      3  C   UNL     1      51.887 -47.619 -10.071  1.00  0.00     0.000 C 
BRANCH   3   4
ATOM      4  C   UNL     1      51.037 -46.481 -10.656  1.00  0.00     0.000 C 
BRANCH   4   5
ATOM      5  C   UNL     1      49.529 -46.708 -10.461  1.00  0.00     0.006 C 
BRANCH   5   6
ATOM      6  C   UNL     1      48.799 -46.997 -11.778  1.00  0.00     0.053 C 
BRANCH   6   7
ATOM      7  C   UNL     1      47.319 -46.877 -11.592  1.00  0.00     0.041 C 
ATOM      8  O   UNL     1      46.533 -47.279 -12.490  1.00  0.00    -0.550 OA
ATOM      9  O   UNL     1      46.807 -46.366 -10.407  1.00  0.00    -0.550 OA
ENDBRANCH   6   7
ENDBRANCH   5   6
ENDBRANCH   4   5
ENDBRANCH   3   4
ENDBRANCH   2   3
ENDBRANCH   1   2
BRANCH   1  10
ATOM     10  C   UNL     1      51.386 -50.630  -7.770  1.00  0.00     0.000 C 
BRANCH  10  11
ATOM     11  C   UNL     1      51.982 -51.744  -8.646  1.00  0.00    -0.000 C 
BRANCH  11  12
ATOM     12  C   UNL     1      53.333 -51.347  -9.267  1.00  0.00    -0.000 C 
BRANCH  12  13
ATOM     13  C   UNL     1      53.286 -51.300 -10.802  1.00  0.00    -0.000 C 
BRANCH  13  14
ATOM     14  C   UNL     1      51.852 -51.308 -11.353  1.00  0.00    -0.000 C 
BRANCH  14  15
ATOM     15  C   UNL     1      51.828 -50.898 -12.831  1.00  0.00    -0.000 C 
BRANCH  15  16
ATOM     16  C   UNL     1      50.928 -49.676 -13.050  1.00  0.00    -0.003 C 
ATOM     17  C   UNL     1      51.689 -48.547 -13.736  1.00  0.00     0.004 C 
ENDBRANCH  15  16
ENDBRANCH  14  15
ENDBRANCH  13  14
ENDBRANCH  12  13
ENDBRANCH  11  12
ENDBRANCH  10  11
ENDBRANCH   1  10
TORSDOF 13
ENDMDL
MODEL 3
REMARK VINA RESULT:    -3.399     12.698     15.444
REMARK INTER + INTRA:          -8.326
REMARK INTER:                  -6.573
REMARK INTRA:                  -1.753
REMARK UNBOUND:                -2.344
REMARK SMILES CCCCCCCCCCCCCCC(=O)[O-]
REMARK SMILES IDX 9 1 10 2 11 3 12 4 13 5 14 6 15 7 16 8 17 9 8 10 7 11 6 12
REMARK SMILES IDX 5 13 4 14 3 15 2 16 1 17
REMARK H PARENT
REMARK Flexibility Score: inf
ROOT
ATOM      1  C   UNL     1      51.964 -51.756  -8.702  1.00  0.00     0.000 C 
ENDROOT
BRANCH   1   2
ATOM      2  C   UNL     1      53.351 -51.409  -9.268  1.00  0.00     0.000 C 
BRANCH   2   3
ATOM      3  C   UNL     1      53.363 -51.324 -10.802  1.00  0.00     0.000 C 
BRANCH   3   4
ATOM      4  C   UNL     1      51.933 -51.247 -11.357  1.00  0.00     0.000 C 
BRANCH   4   5
ATOM      5  C   UNL     1      51.854 -50.486 -12.690  1.00  0.00     0.006 C 
BRANCH   5   6
ATOM      6  C   UNL     1      50.547 -49.699 -12.845  1.00  0.00     0.053 C 
BRANCH   6   7
ATOM      7  C   UNL     1      49.712 -50.285 -13.940  1.00  0.00     0.041 C 
ATOM      8  O   UNL     1      48.485 -50.011 -14.017  1.00  0.00    -0.550 OA
ATOM      9  O   UNL     1      50.298 -51.095 -14.903  1.00  0.00    -0.550 OA
ENDBRANCH   6   7
ENDBRANCH   5   6
ENDBRANCH   4   5
ENDBRANCH   3   4
ENDBRANCH   2   3
ENDBRANCH   1   2
BRANCH   1  10
ATOM     10  C   UNL     1      51.400 -50.646  -7.796  1.00  0.00     0.000 C 
BRANCH  10  11
ATOM     11  C   UNL     1      52.060 -49.281  -8.055  1.00  0.00    -0.000 C 
BRANCH  11  12
ATOM     12  C   UNL     1      51.188 -48.361  -8.927  1.00  0.00    -0.000 C 
BRANCH  12  13
ATOM     13  C   UNL     1      51.975 -47.723 -10.083  1.00  0.00    -0.000 C 
BRANCH  13  14
ATOM     14  C   UNL     1      51.202 -46.590 -10.774  1.00  0.00    -0.000 C 
BRANCH  14  15
ATOM     15  C   UNL     1      49.802 -46.429 -10.167  1.00  0.00    -0.000 C 
BRANCH  15  16
ATOM     16  C   UNL     1      48.729 -47.001 -11.101  1.00  0.00    -0.003 C 
ATOM     17  C   UNL     1      48.571 -46.142 -12.351  1.00  0.00     0.004 C 
ENDBRANCH  15  16
ENDBRANCH  14  15
ENDBRANCH  13  14
ENDBRANCH  12  13
ENDBRANCH  11  12
ENDBRANCH  10  11
ENDBRANCH   1  10
TORSDOF 13
ENDMDL
MODEL 4
REMARK VINA RESULT:    -3.360     12.596     15.240
REMARK INTER + INTRA:          -8.257
REMARK INTER:                  -6.629
REMARK INTRA:                  -1.628
REMARK UNBOUND:                -2.344
REMARK SMILES CCCCCCCCCCCCCCC(=O)[O-]
REMARK SMILES IDX 9 1 10 2 11 3 12 4 13 5 14 6 15 7 16 8 17 9 8 10 7 11 6 12
REMARK SMILES IDX 5 13 4 14 3 15 2 16 1 17
REMARK H PARENT
REMARK Flexibility Score: inf
ROOT
ATOM      1  C   UNL     1      53.291 -51.370  -9.566  1.00  0.00     0.000 C 
ENDROOT
BRANCH   1   2
ATOM      2  C   UNL     1      53.156 -51.297 -11.095  1.00  0.00     0.000 C 
BRANCH   2   3
ATOM      3  C   UNL     1      51.695 -51.212 -11.561  1.00  0.00     0.000 C 
BRANCH   3   4
ATOM      4  C   UNL     1      51.561 -50.276 -12.772  1.00  0.00     0.000 C 
BRANCH   4   5
ATOM      5  C   UNL     1      51.158 -51.021 -14.055  1.00  0.00     0.006 C 
BRANCH   5   6
ATOM      6  C   UNL     1      49.878 -50.461 -14.686  1.00  0.00     0.053 C 
BRANCH   6   7
ATOM      7  C   UNL     1      48.705 -50.700 -13.788  1.00  0.00     0.041 C 
ATOM      8  O   UNL     1      48.447 -51.863 -13.380  1.00  0.00    -0.550 OA
ATOM      9  O   UNL     1      47.926 -49.632 -13.362  1.00  0.00    -0.550 OA
ENDBRANCH   6   7
ENDBRANCH   5   6
ENDBRANCH   4   5
ENDBRANCH   3   4
ENDBRANCH   2   3
ENDBRANCH   1   2
BRANCH   1  10
ATOM     10  C   UNL     1      52.009 -51.881  -8.883  1.00  0.00     0.000 C 
BRANCH  10  11
ATOM     11  C   UNL     1      51.376 -50.831  -7.955  1.00  0.00    -0.000 C 
BRANCH  11  12
ATOM     12  C   UNL     1      52.073 -49.463  -8.050  1.00  0.00    -0.000 C 
BRANCH  12  13
ATOM     13  C   UNL     1      51.235 -48.426  -8.815  1.00  0.00    -0.000 C 
BRANCH  13  14
ATOM     14  C   UNL     1      51.988 -47.815 -10.006  1.00  0.00    -0.000 C 
BRANCH  14  15
ATOM     15  C   UNL     1      51.158 -46.711 -10.673  1.00  0.00    -0.000 C 
BRANCH  15  16
ATOM     16  C   UNL     1      49.671 -47.083 -10.707  1.00  0.00    -0.003 C 
ATOM     17  C   UNL     1      49.008 -46.587 -11.988  1.00  0.00     0.004 C 
ENDBRANCH  15  16
ENDBRANCH  14  15
ENDBRANCH  13  14
ENDBRANCH  12  13
ENDBRANCH  11  12
ENDBRANCH  10  11
ENDBRANCH   1  10
TORSDOF 13
ENDMDL
MODEL 5
REMARK VINA RESULT:    -3.267     14.296     15.833
REMARK INTER + INTRA:          -8.094
REMARK INTER:                  -6.567
REMARK INTRA:                  -1.526
REMARK UNBOUND:                -2.344
REMARK SMILES CCCCCCCCCCCCCCC(=O)[O-]
REMARK SMILES IDX 9 1 10 2 11 3 12 4 13 5 14 6 15 7 16 8 17 9 8 10 7 11 6 12
REMARK SMILES IDX 5 13 4 14 3 15 2 16 1 17
REMARK H PARENT
REMARK Flexibility Score: inf
ROOT
ATOM      1  C   UNL     1      52.191 -49.321  -8.233  1.00  0.00     0.000 C 
ENDROOT
BRANCH   1   2
ATOM      2  C   UNL     1      51.338 -48.282  -8.980  1.00  0.00     0.000 C 
BRANCH   2   3
ATOM      3  C   UNL     1      52.063 -47.679 -10.193  1.00  0.00     0.000 C 
BRANCH   3   4
ATOM      4  C   UNL     1      51.295 -46.466 -10.740  1.00  0.00     0.000 C 
BRANCH   4   5
ATOM      5  C   UNL     1      50.018 -46.163  -9.940  1.00  0.00     0.006 C 
BRANCH   5   6
ATOM      6  C   UNL     1      49.301 -44.898 -10.428  1.00  0.00     0.053 C 
BRANCH   6   7
ATOM      7  C   UNL     1      48.860 -44.066  -9.264  1.00  0.00     0.041 C 
ATOM      8  O   UNL     1      49.651 -43.843  -8.310  1.00  0.00    -0.550 OA
ATOM      9  O   UNL     1      47.594 -43.497  -9.257  1.00  0.00    -0.550 OA
ENDBRANCH   6   7
ENDBRANCH   5   6
ENDBRANCH   4   5
ENDBRANCH   3   4
ENDBRANCH   2   3
ENDBRANCH   1   2
BRANCH   1  10
ATOM     10  C   UNL     1      51.469 -50.671  -8.069  1.00  0.00     0.000 C 
BRANCH  10  11
ATOM     11  C   UNL     1      52.068 -51.772  -8.960  1.00  0.00    -0.000 C 
BRANCH  11  12
ATOM     12  C   UNL     1      53.240 -51.264  -9.818  1.00  0.00    -0.000 C 
BRANCH  12  13
ATOM     13  C   UNL     1      52.879 -51.162 -11.308  1.00  0.00    -0.000 C 
BRANCH  13  14
ATOM     14  C   UNL     1      51.385 -51.401 -11.576  1.00  0.00    -0.000 C 
BRANCH  14  15
ATOM     15  C   UNL     1      50.968 -50.816 -12.931  1.00  0.00    -0.000 C 
BRANCH  15  16
ATOM     16  C   UNL     1      52.068 -49.914 -13.504  1.00  0.00    -0.003 C 
ATOM     17  C   UNL     1      51.527 -48.528 -13.837  1.00  0.00     0.004 C 
ENDBRANCH  15  16
ENDBRANCH  14  15
ENDBRANCH  13  14
ENDBRANCH  12  13
ENDBRANCH  11  12
ENDBRANCH  10  11
ENDBRANCH   1  10
TORSDOF 13
ENDMDL
MODEL 6
REMARK VINA RESULT:    -3.265      3.427      5.718
REMARK INTER + INTRA:          -8.091
REMARK INTER:                  -5.984
REMARK INTRA:                  -2.107
REMARK UNBOUND:                -2.344
REMARK SMILES CCCCCCCCCCCCCCC(=O)[O-]
REMARK SMILES IDX 9 1 10 2 11 3 12 4 13 5 14 6 15 7 16 8 17 9 8 10 7 11 6 12
REMARK SMILES IDX 5 13 4 14 3 15 2 16 1 17
REMARK H PARENT
REMARK Flexibility Score: inf
ROOT
ATOM      1  C   UNL     1      38.722 -49.747 -17.960  1.00  0.00     0.000 C 
ENDROOT
BRANCH   1   2
ATOM      2  C   UNL     1      39.467 -48.796 -17.008  1.00  0.00     0.000 C 
BRANCH   2   3
ATOM      3  C   UNL     1      40.372 -49.539 -16.013  1.00  0.00     0.000 C 
BRANCH   3   4
ATOM      4  C   UNL     1      40.406 -48.813 -14.659  1.00  0.00     0.000 C 
BRANCH   4   5
ATOM      5  C   UNL     1      39.003 -48.588 -14.073  1.00  0.00     0.006 C 
BRANCH   5   6
ATOM      6  C   UNL     1      38.828 -49.235 -12.693  1.00  0.00     0.053 C 
BRANCH   6   7
ATOM      7  C   UNL     1      39.599 -48.477 -11.659  1.00  0.00     0.041 C 
ATOM      8  O   UNL     1      40.678 -48.942 -11.206  1.00  0.00    -0.550 OA
ATOM      9  O   UNL     1      39.152 -47.234 -11.232  1.00  0.00    -0.550 OA
ENDBRANCH   6   7
ENDBRANCH   5   6
ENDBRANCH   4   5
ENDBRANCH   3   4
ENDBRANCH   2   3
ENDBRANCH   1   2
BRANCH   1  10
ATOM     10  C   UNL     1      38.507 -51.144 -17.350  1.00  0.00     0.000 C 
BRANCH  10  11
ATOM     11  C   UNL     1      37.101 -51.700 -17.633  1.00  0.00    -0.000 C 
BRANCH  11  12
ATOM     12  C   UNL     1      36.331 -52.038 -16.344  1.00  0.00    -0.000 C 
BRANCH  12  13
ATOM     13  C   UNL     1      36.444 -50.932 -15.283  1.00  0.00    -0.000 C 
BRANCH  13  14
ATOM     14  C   UNL     1      35.292 -49.918 -15.356  1.00  0.00    -0.000 C 
BRANCH  14  15
ATOM     15  C   UNL     1      35.766 -48.591 -15.960  1.00  0.00    -0.000 C 
BRANCH  15  16
ATOM     16  C   UNL     1      35.258 -48.427 -17.397  1.00  0.00    -0.003 C 
ATOM     17  C   UNL     1      36.097 -47.412 -18.166  1.00  0.00     0.004 C 
ENDBRANCH  15  16
ENDBRANCH  14  15
ENDBRANCH  13  14
ENDBRANCH  12  13
ENDBRANCH  11  12
ENDBRANCH  10  11
ENDBRANCH   1  10
TORSDOF 13
ENDMDL
MODEL 7
REMARK VINA RESULT:    -3.253      2.791      5.154
REMARK INTER + INTRA:          -8.070
REMARK INTER:                  -5.924
REMARK INTRA:                  -2.146
REMARK UNBOUND:                -2.344
REMARK SMILES CCCCCCCCCCCCCCC(=O)[O-]
REMARK SMILES IDX 9 1 10 2 11 3 12 4 13 5 14 6 15 7 16 8 17 9 8 10 7 11 6 12
REMARK SMILES IDX 5 13 4 14 3 15 2 16 1 17
REMARK H PARENT
REMARK Flexibility Score: inf
ROOT
ATOM      1  C   UNL     1      37.339 -51.812 -17.179  1.00  0.00     0.000 C 
ENDROOT
BRANCH   1   2
ATOM      2  C   UNL     1      38.005 -50.549 -17.749  1.00  0.00     0.000 C 
BRANCH   2   3
ATOM      3  C   UNL     1      39.265 -50.138 -16.972  1.00  0.00     0.000 C 
BRANCH   3   4
ATOM      4  C   UNL     1      39.384 -48.608 -16.895  1.00  0.00     0.000 C 
BRANCH   4   5
ATOM      5  C   UNL     1      39.093 -48.061 -15.488  1.00  0.00     0.006 C 
BRANCH   5   6
ATOM      6  C   UNL     1      38.560 -49.137 -14.534  1.00  0.00     0.053 C 
BRANCH   6   7
ATOM      7  C   UNL     1      38.741 -48.710 -13.112  1.00  0.00     0.041 C 
ATOM      8  O   UNL     1      38.740 -49.566 -12.188  1.00  0.00    -0.550 OA
ATOM      9  O   UNL     1      38.961 -47.372 -12.811  1.00  0.00    -0.550 OA
ENDBRANCH   6   7
ENDBRANCH   5   6
ENDBRANCH   4   5
ENDBRANCH   3   4
ENDBRANCH   2   3
ENDBRANCH   1   2
BRANCH   1  10
ATOM     10  C   UNL     1      36.070 -51.496 -16.367  1.00  0.00     0.000 C 
BRANCH  10  11
ATOM     11  C   UNL     1      35.225 -50.380 -17.004  1.00  0.00    -0.000 C 
BRANCH  11  12
ATOM     12  C   UNL     1      34.932 -49.230 -16.024  1.00  0.00    -0.000 C 
BRANCH  12  13
ATOM     13  C   UNL     1      35.574 -47.904 -16.462  1.00  0.00    -0.000 C 
BRANCH  13  14
ATOM     14  C   UNL     1      35.698 -47.779 -17.988  1.00  0.00    -0.000 C 
BRANCH  14  15
ATOM     15  C   UNL     1      36.734 -46.714 -18.370  1.00  0.00    -0.000 C 
BRANCH  15  16
ATOM     16  C   UNL     1      36.960 -46.683 -19.886  1.00  0.00    -0.003 C 
ATOM     17  C   UNL     1      38.188 -47.499 -20.277  1.00  0.00     0.004 C 
ENDBRANCH  15  16
ENDBRANCH  14  15
ENDBRANCH  13  14
ENDBRANCH  12  13
ENDBRANCH  11  12
ENDBRANCH  10  11
ENDBRANCH   1  10
TORSDOF 13
ENDMDL
MODEL 8
REMARK VINA RESULT:    -3.251     13.256     15.749
REMARK INTER + INTRA:          -8.067
REMARK INTER:                  -6.253
REMARK INTRA:                  -1.813
REMARK UNBOUND:                -2.344
REMARK SMILES CCCCCCCCCCCCCCC(=O)[O-]
REMARK SMILES IDX 9 1 10 2 11 3 12 4 13 5 14 6 15 7 16 8 17 9 8 10 7 11 6 12
REMARK SMILES IDX 5 13 4 14 3 15 2 16 1 17
REMARK H PARENT
REMARK Flexibility Score: inf
ROOT
ATOM      1  C   UNL     1      53.174 -51.291  -9.901  1.00  0.00     0.000 C 
ENDROOT
BRANCH   1   2
ATOM      2  C   UNL     1      52.979 -51.280 -11.426  1.00  0.00     0.000 C 
BRANCH   2   3
ATOM      3  C   UNL     1      51.503 -51.385 -11.837  1.00  0.00     0.000 C 
BRANCH   3   4
ATOM      4  C   UNL     1      50.993 -50.046 -12.391  1.00  0.00     0.000 C 
BRANCH   4   5
ATOM      5  C   UNL     1      51.823 -49.543 -13.583  1.00  0.00     0.006 C 
BRANCH   5   6
ATOM      6  C   UNL     1      51.661 -50.423 -14.829  1.00  0.00     0.053 C 
BRANCH   6   7
ATOM      7  C   UNL     1      52.815 -50.224 -15.761  1.00  0.00     0.041 C 
ATOM      8  O   UNL     1      52.884 -49.186 -16.472  1.00  0.00    -0.550 OA
ATOM      9  O   UNL     1      53.839 -51.161 -15.810  1.00  0.00    -0.550 OA
ENDBRANCH   6   7
ENDBRANCH   5   6
ENDBRANCH   4   5
ENDBRANCH   3   4
ENDBRANCH   2   3
ENDBRANCH   1   2
BRANCH   1  10
ATOM     10  C   UNL     1      51.942 -51.831  -9.151  1.00  0.00     0.000 C 
BRANCH  10  11
ATOM     11  C   UNL     1      51.371 -50.816  -8.147  1.00  0.00    -0.000 C 
BRANCH  11  12
ATOM     12  C   UNL     1      52.150 -49.489  -8.141  1.00  0.00    -0.000 C 
BRANCH  12  13
ATOM     13  C   UNL     1      51.338 -48.326  -8.732  1.00  0.00    -0.000 C 
BRANCH  13  14
ATOM     14  C   UNL     1      52.031 -47.668  -9.935  1.00  0.00    -0.000 C 
BRANCH  14  15
ATOM     15  C   UNL     1      51.070 -46.730 -10.677  1.00  0.00    -0.000 C 
BRANCH  15  16
ATOM     16  C   UNL     1      49.610 -47.089 -10.379  1.00  0.00    -0.003 C 
ATOM     17  C   UNL     1      48.801 -47.218 -11.666  1.00  0.00     0.004 C 
ENDBRANCH  15  16
ENDBRANCH  14  15
ENDBRANCH  13  14
ENDBRANCH  12  13
ENDBRANCH  11  12
ENDBRANCH  10  11
ENDBRANCH   1  10
TORSDOF 13
ENDMDL
MODEL 9
REMARK VINA RESULT:    -3.179     12.310     14.848
REMARK INTER + INTRA:          -7.939
REMARK INTER:                  -6.209
REMARK INTRA:                  -1.729
REMARK UNBOUND:                -2.344
REMARK SMILES CCCCCCCCCCCCCCC(=O)[O-]
REMARK SMILES IDX 9 1 10 2 11 3 12 4 13 5 14 6 15 7 16 8 17 9 8 10 7 11 6 12
REMARK SMILES IDX 5 13 4 14 3 15 2 16 1 17
REMARK H PARENT
REMARK Flexibility Score: inf
ROOT
ATOM      1  C   UNL     1      51.939 -47.639 -10.068  1.00  0.00     0.000 C 
ENDROOT
BRANCH   1   2
ATOM      2  C   UNL     1      51.121 -46.501 -10.700  1.00  0.00     0.000 C 
BRANCH   2   3
ATOM      3  C   UNL     1      50.340 -46.949 -11.945  1.00  0.00     0.000 C 
BRANCH   3   4
ATOM      4  C   UNL     1      49.024 -47.634 -11.546  1.00  0.00     0.000 C 
BRANCH   4   5
ATOM      5  C   UNL     1      48.086 -47.857 -12.744  1.00  0.00     0.006 C 
BRANCH   5   6
ATOM      6  C   UNL     1      48.809 -48.450 -13.959  1.00  0.00     0.053 C 
BRANCH   6   7
ATOM      7  C   UNL     1      48.277 -49.814 -14.269  1.00  0.00     0.041 C 
ATOM      8  O   UNL     1      47.550 -49.996 -15.281  1.00  0.00    -0.550 OA
ATOM      9  O   UNL     1      48.625 -50.894 -13.468  1.00  0.00    -0.550 OA
ENDBRANCH   6   7
ENDBRANCH   5   6
ENDBRANCH   4   5
ENDBRANCH   3   4
ENDBRANCH   2   3
ENDBRANCH   1   2
BRANCH   1  10
ATOM     10  C   UNL     1      51.228 -48.277  -8.861  1.00  0.00     0.000 C 
BRANCH  10  11
ATOM     11  C   UNL     1      52.090 -49.345  -8.166  1.00  0.00    -0.000 C 
BRANCH  11  12
ATOM     12  C   UNL     1      51.375 -50.704  -8.064  1.00  0.00    -0.000 C 
BRANCH  12  13
ATOM     13  C   UNL     1      51.931 -51.739  -9.055  1.00  0.00    -0.000 C 
BRANCH  13  14
ATOM     14  C   UNL     1      53.279 -51.318  -9.660  1.00  0.00    -0.000 C 
BRANCH  14  15
ATOM     15  C   UNL     1      53.235 -51.377 -11.192  1.00  0.00    -0.000 C 
BRANCH  15  16
ATOM     16  C   UNL     1      51.850 -50.986 -11.720  1.00  0.00    -0.003 C 
ATOM     17  C   UNL     1      51.962 -50.066 -12.932  1.00  0.00     0.004 C 
ENDBRANCH  15  16
ENDBRANCH  14  15
ENDBRANCH  13  14
ENDBRANCH  12  13
ENDBRANCH  11  12
ENDBRANCH  10  11
ENDBRANCH   1  10
TORSDOF 13
ENDMDL
