MODEL 1
REMARK VINA RESULT:    -2.630      0.000      0.000
REMARK INTER + INTRA:          -4.903
REMARK INTER:                  -4.013
REMARK INTRA:                  -0.890
REMARK UNBOUND:                -0.890
REMARK SMILES CCCCCCCCCCC(=O)[O-]
REMARK SMILES IDX 7 1 8 2 9 3 10 4 11 5 12 6 13 7 6 8 5 9 4 10 3 11 2 12 1 13
REMARK H PARENT
REMARK Flexibility Score: inf
ROOT
ATOM      1  C   UNL     1      37.791  38.644  20.679  1.00  0.00     0.000 C 
ENDROOT
BRANCH   1   2
ATOM      2  C   UNL     1      37.762  39.763  19.626  1.00  0.00     0.000 C 
BRANCH   2   3
ATOM      3  C   UNL     1      39.155  40.084  19.064  1.00  0.00     0.006 C 
BRANCH   3   4
ATOM      4  C   UNL     1      39.539  39.179  17.886  1.00  0.00     0.053 C 
BRANCH   4   5
ATOM      5  C   UNL     1      40.637  39.804  17.083  1.00  0.00     0.041 C 
ATOM      6  O   UNL     1      41.090  39.217  16.066  1.00  0.00    -0.550 OA
ATOM      7  O   UNL     1      41.125  41.057  17.431  1.00  0.00    -0.550 OA
ENDBRANCH   4   5
ENDBRANCH   3   4
ENDBRANCH   2   3
ENDBRANCH   1   2
BRANCH   1   8
ATOM      8  C   UNL     1      37.333  37.309  20.072  1.00  0.00     0.000 C 
BRANCH   8   9
ATOM      9  C   UNL     1      38.038  36.099  20.705  1.00  0.00    -0.000 C 
BRANCH   9  10
ATOM     10  C   UNL     1      38.867  35.298  19.684  1.00  0.00    -0.000 C 
BRANCH  10  11
ATOM     11  C   UNL     1      38.287  35.375  18.263  1.00  0.00    -0.000 C 
BRANCH  11  12
ATOM     12  C   UNL     1      39.370  35.596  17.196  1.00  0.00    -0.003 C 
ATOM     13  C   UNL     1      40.758  35.662  17.829  1.00  0.00     0.004 C 
ENDBRANCH  11  12
ENDBRANCH  10  11
ENDBRANCH   9  10
ENDBRANCH   8   9
ENDBRANCH   1   8
TORSDOF 9
ENDMDL
MODEL 2
REMARK VINA RESULT:    -2.518      2.191      4.113
REMARK INTER + INTRA:          -4.732
REMARK INTER:                  -3.802
REMARK INTRA:                  -0.930
REMARK UNBOUND:                -0.890
REMARK SMILES CCCCCCCCCCC(=O)[O-]
REMARK SMILES IDX 7 1 8 2 9 3 10 4 11 5 12 6 13 7 6 8 5 9 4 10 3 11 2 12 1 13
REMARK H PARENT
REMARK Flexibility Score: inf
ROOT
ATOM      1  C   UNL     1      39.348  34.926  19.002  1.00  0.00     0.000 C 
ENDROOT
BRANCH   1   2
ATOM      2  C   UNL     1      38.495  35.711  20.010  1.00  0.00     0.000 C 
BRANCH   2   3
ATOM      3  C   UNL     1      38.032  37.070  19.463  1.00  0.00     0.006 C 
BRANCH   3   4
ATOM      4  C   UNL     1      38.161  38.198  20.495  1.00  0.00     0.053 C 
BRANCH   4   5
ATOM      5  C   UNL     1      37.464  39.431  20.011  1.00  0.00     0.041 C 
ATOM      6  O   UNL     1      38.075  40.261  19.289  1.00  0.00    -0.550 OA
ATOM      7  O   UNL     1      36.125  39.637  20.317  1.00  0.00    -0.550 OA
ENDBRANCH   4   5
ENDBRANCH   3   4
ENDBRANCH   2   3
ENDBRANCH   1   2
BRANCH   1   8
ATOM      8  C   UNL     1      38.751  35.018  17.590  1.00  0.00     0.000 C 
BRANCH   8   9
ATOM      9  C   UNL     1      39.812  34.875  16.488  1.00  0.00    -0.000 C 
BRANCH   9  10
ATOM     10  C   UNL     1      40.897  35.965  16.568  1.00  0.00    -0.000 C 
BRANCH  10  11
ATOM     11  C   UNL     1      40.318  37.383  16.444  1.00  0.00    -0.000 C 
BRANCH  11  12
ATOM     12  C   UNL     1      40.849  38.333  17.528  1.00  0.00    -0.003 C 
ATOM     13  C   UNL     1      40.608  39.791  17.147  1.00  0.00     0.004 C 
ENDBRANCH  11  12
ENDBRANCH  10  11
ENDBRANCH   9  10
ENDBRANCH   8   9
ENDBRANCH   1   8
TORSDOF 9
ENDMDL
MODEL 3
REMARK VINA RESULT:    -2.462      1.850      4.414
REMARK INTER + INTRA:          -4.647
REMARK INTER:                  -3.957
REMARK INTRA:                  -0.690
REMARK UNBOUND:                -0.890
REMARK SMILES CCCCCCCCCCC(=O)[O-]
REMARK SMILES IDX 7 1 8 2 9 3 10 4 11 5 12 6 13 7 6 8 5 9 4 10 3 11 2 12 1 13
REMARK H PARENT
REMARK Flexibility Score: inf
ROOT
ATOM      1  C   UNL     1      37.326  37.837  19.918  1.00  0.00     0.000 C 
ENDROOT
BRANCH   1   2
ATOM      2  C   UNL     1      37.576  36.570  20.751  1.00  0.00     0.000 C 
BRANCH   2   3
ATOM      3  C   UNL     1      38.423  35.528  20.006  1.00  0.00     0.006 C 
BRANCH   3   4
ATOM      4  C   UNL     1      38.410  35.734  18.486  1.00  0.00     0.053 C 
BRANCH   4   5
ATOM      5  C   UNL     1      39.788  36.041  17.989  1.00  0.00     0.041 C 
ATOM      6  O   UNL     1      40.000  36.184  16.756  1.00  0.00    -0.550 OA
ATOM      7  O   UNL     1      40.829  36.218  18.891  1.00  0.00    -0.550 OA
ENDBRANCH   4   5
ENDBRANCH   3   4
ENDBRANCH   2   3
ENDBRANCH   1   2
BRANCH   1   8
ATOM      8  C   UNL     1      38.283  38.965  20.335  1.00  0.00     0.000 C 
BRANCH   8   9
ATOM      9  C   UNL     1      38.442  40.037  19.247  1.00  0.00    -0.000 C 
BRANCH   9  10
ATOM     10  C   UNL     1      39.296  39.553  18.061  1.00  0.00    -0.000 C 
BRANCH  10  11
ATOM     11  C   UNL     1      40.773  39.955  18.193  1.00  0.00    -0.000 C 
BRANCH  11  12
ATOM     12  C   UNL     1      41.035  41.398  17.737  1.00  0.00    -0.003 C 
ATOM     13  C   UNL     1      41.018  42.360  18.922  1.00  0.00     0.004 C 
ENDBRANCH  11  12
ENDBRANCH  10  11
ENDBRANCH   9  10
ENDBRANCH   8   9
ENDBRANCH   1   8
TORSDOF 9
ENDMDL
MODEL 4
REMARK VINA RESULT:    -2.391     24.142     26.308
REMARK INTER + INTRA:          -4.538
REMARK INTER:                  -4.111
REMARK INTRA:                  -0.427
REMARK UNBOUND:                -0.890
REMARK SMILES CCCCCCCCCCC(=O)[O-]
REMARK SMILES IDX 7 1 8 2 9 3 10 4 11 5 12 6 13 7 6 8 5 9 4 10 3 11 2 12 1 13
REMARK H PARENT
REMARK Flexibility Score: inf
ROOT
ATOM      1  C   UNL     1      22.703  54.927  31.164  1.00  0.00     0.000 C 
ENDROOT
BRANCH   1   2
ATOM      2  C   UNL     1      22.141  54.426  32.503  1.00  0.00     0.000 C 
BRANCH   2   3
ATOM      3  C   UNL     1      22.795  55.110  33.713  1.00  0.00     0.006 C 
BRANCH   3   4
ATOM      4  C   UNL     1      24.306  54.856  33.789  1.00  0.00     0.053 C 
BRANCH   4   5
ATOM      5  C   UNL     1      24.732  54.659  35.210  1.00  0.00     0.041 C 
ATOM      6  O   UNL     1      23.991  54.032  36.013  1.00  0.00    -0.550 OA
ATOM      7  O   UNL     1      25.969  55.125  35.636  1.00  0.00    -0.550 OA
ENDBRANCH   4   5
ENDBRANCH   3   4
ENDBRANCH   2   3
ENDBRANCH   1   2
BRANCH   1   8
ATOM      8  C   UNL     1      21.587  55.061  30.116  1.00  0.00     0.000 C 
BRANCH   8   9
ATOM      9  C   UNL     1      22.082  54.792  28.687  1.00  0.00    -0.000 C 
BRANCH   9  10
ATOM     10  C   UNL     1      23.239  53.776  28.643  1.00  0.00    -0.000 C 
BRANCH  10  11
ATOM     11  C   UNL     1      22.753  52.339  28.394  1.00  0.00    -0.000 C 
BRANCH  11  12
ATOM     12  C   UNL     1      23.725  51.532  27.522  1.00  0.00    -0.003 C 
ATOM     13  C   UNL     1      24.137  52.322  26.283  1.00  0.00     0.004 C 
ENDBRANCH  11  12
ENDBRANCH  10  11
ENDBRANCH   9  10
ENDBRANCH   8   9
ENDBRANCH   1   8
TORSDOF 9
ENDMDL
MODEL 5
REMARK VINA RESULT:    -2.301      2.105      4.237
REMARK INTER + INTRA:          -4.401
REMARK INTER:                  -3.727
REMARK INTRA:                  -0.674
REMARK UNBOUND:                -0.890
REMARK SMILES CCCCCCCCCCC(=O)[O-]
REMARK SMILES IDX 7 1 8 2 9 3 10 4 11 5 12 6 13 7 6 8 5 9 4 10 3 11 2 12 1 13
REMARK H PARENT
REMARK Flexibility Score: inf
ROOT
ATOM      1  C   UNL     1      37.109  39.360  20.272  1.00  0.00     0.000 C 
ENDROOT
BRANCH   1   2
ATOM      2  C   UNL     1      37.926  38.152  20.758  1.00  0.00     0.000 C 
BRANCH   2   3
ATOM      3  C   UNL     1      37.345  36.813  20.280  1.00  0.00     0.006 C 
BRANCH   3   4
ATOM      4  C   UNL     1      38.410  35.715  20.165  1.00  0.00     0.053 C 
BRANCH   4   5
ATOM      5  C   UNL     1      39.067  35.763  18.822  1.00  0.00     0.041 C 
ATOM      6  O   UNL     1      38.381  35.628  17.775  1.00  0.00    -0.550 OA
ATOM      7  O   UNL     1      40.431  36.008  18.725  1.00  0.00    -0.550 OA
ENDBRANCH   4   5
ENDBRANCH   3   4
ENDBRANCH   2   3
ENDBRANCH   1   2
BRANCH   1   8
ATOM      8  C   UNL     1      37.873  40.139  19.190  1.00  0.00     0.000 C 
BRANCH   8   9
ATOM      9  C   UNL     1      39.331  39.675  19.046  1.00  0.00    -0.000 C 
BRANCH   9  10
ATOM     10  C   UNL     1      40.251  40.781  18.498  1.00  0.00    -0.000 C 
BRANCH  10  11
ATOM     11  C   UNL     1      41.125  40.296  17.330  1.00  0.00    -0.000 C 
BRANCH  11  12
ATOM     12  C   UNL     1      40.295  39.710  16.177  1.00  0.00    -0.003 C 
ATOM     13  C   UNL     1      40.640  38.241  15.944  1.00  0.00     0.004 C 
ENDBRANCH  11  12
ENDBRANCH  10  11
ENDBRANCH   9  10
ENDBRANCH   8   9
ENDBRANCH   1   8
TORSDOF 9
ENDMDL
MODEL 6
REMARK VINA RESULT:    -2.260     24.244     26.494
REMARK INTER + INTRA:          -4.339
REMARK INTER:                  -3.813
REMARK INTRA:                  -0.526
REMARK UNBOUND:                -0.890
REMARK SMILES CCCCCCCCCCC(=O)[O-]
REMARK SMILES IDX 7 1 8 2 9 3 10 4 11 5 12 6 13 7 6 8 5 9 4 10 3 11 2 12 1 13
REMARK H PARENT
REMARK Flexibility Score: inf
ROOT
ATOM      1  C   UNL     1      23.143  54.700  31.147  1.00  0.00     0.000 C 
ENDROOT
BRANCH   1   2
ATOM      2  C   UNL     1      22.077  54.809  30.046  1.00  0.00     0.000 C 
BRANCH   2   3
ATOM      3  C   UNL     1      22.579  54.306  28.684  1.00  0.00     0.006 C 
BRANCH   3   4
ATOM      4  C   UNL     1      22.740  52.781  28.640  1.00  0.00     0.053 C 
BRANCH   4   5
ATOM      5  C   UNL     1      23.650  52.383  27.521  1.00  0.00     0.041 C 
ATOM      6  O   UNL     1      24.009  53.233  26.664  1.00  0.00    -0.550 OA
ATOM      7  O   UNL     1      24.141  51.086  27.452  1.00  0.00    -0.550 OA
ENDBRANCH   4   5
ENDBRANCH   3   4
ENDBRANCH   2   3
ENDBRANCH   1   2
BRANCH   1   8
ATOM      8  C   UNL     1      22.553  55.065  32.518  1.00  0.00     0.000 C 
BRANCH   8   9
ATOM      9  C   UNL     1      21.171  54.436  32.754  1.00  0.00    -0.000 C 
BRANCH   9  10
ATOM     10  C   UNL     1      21.073  53.716  34.111  1.00  0.00    -0.000 C 
BRANCH  10  11
ATOM     11  C   UNL     1      21.715  54.519  35.253  1.00  0.00    -0.000 C 
BRANCH  11  12
ATOM     12  C   UNL     1      22.715  53.686  36.068  1.00  0.00    -0.003 C 
ATOM     13  C   UNL     1      24.113  54.298  36.012  1.00  0.00     0.004 C 
ENDBRANCH  11  12
ENDBRANCH  10  11
ENDBRANCH   9  10
ENDBRANCH   8   9
ENDBRANCH   1   8
TORSDOF 9
ENDMDL
MODEL 7
REMARK VINA RESULT:    -2.037     23.778     26.058
REMARK INTER + INTRA:          -3.999
REMARK INTER:                  -3.880
REMARK INTRA:                  -0.119
REMARK UNBOUND:                -0.890
REMARK SMILES CCCCCCCCCCC(=O)[O-]
REMARK SMILES IDX 7 1 8 2 9 3 10 4 11 5 12 6 13 7 6 8 5 9 4 10 3 11 2 12 1 13
REMARK H PARENT
REMARK Flexibility Score: inf
ROOT
ATOM      1  C   UNL     1      22.710  54.813  30.703  1.00  0.00     0.000 C 
ENDROOT
BRANCH   1   2
ATOM      2  C   UNL     1      22.111  54.606  29.303  1.00  0.00     0.000 C 
BRANCH   2   3
ATOM      3  C   UNL     1      23.094  53.936  28.332  1.00  0.00     0.006 C 
BRANCH   3   4
ATOM      4  C   UNL     1      22.901  52.416  28.250  1.00  0.00     0.053 C 
BRANCH   4   5
ATOM      5  C   UNL     1      23.854  51.820  27.263  1.00  0.00     0.041 C 
ATOM      6  O   UNL     1      24.284  50.648  27.424  1.00  0.00    -0.550 OA
ATOM      7  O   UNL     1      24.230  52.542  26.137  1.00  0.00    -0.550 OA
ENDBRANCH   4   5
ENDBRANCH   3   4
ENDBRANCH   2   3
ENDBRANCH   1   2
BRANCH   1   8
ATOM      8  C   UNL     1      21.620  54.733  31.783  1.00  0.00     0.000 C 
BRANCH   8   9
ATOM      9  C   UNL     1      22.192  54.795  33.207  1.00  0.00    -0.000 C 
BRANCH   9  10
ATOM     10  C   UNL     1      23.685  54.423  33.261  1.00  0.00    -0.000 C 
BRANCH  10  11
ATOM     11  C   UNL     1      24.253  54.468  34.688  1.00  0.00    -0.000 C 
BRANCH  11  12
ATOM     12  C   UNL     1      23.176  54.761  35.743  1.00  0.00    -0.003 C 
ATOM     13  C   UNL     1      22.422  53.490  36.125  1.00  0.00     0.004 C 
ENDBRANCH  11  12
ENDBRANCH  10  11
ENDBRANCH   9  10
ENDBRANCH   8   9
ENDBRANCH   1   8
TORSDOF 9
ENDMDL
MODEL 8
REMARK VINA RESULT:    -1.988     23.750     25.916
REMARK INTER + INTRA:          -3.923
REMARK INTER:                  -3.440
REMARK INTRA:                  -0.483
REMARK UNBOUND:                -0.890
REMARK SMILES CCCCCCCCCCC(=O)[O-]
REMARK SMILES IDX 7 1 8 2 9 3 10 4 11 5 12 6 13 7 6 8 5 9 4 10 3 11 2 12 1 13
REMARK H PARENT
REMARK Flexibility Score: inf
ROOT
ATOM      1  C   UNL     1      24.273  53.792  30.649  1.00  0.00     0.000 C 
ENDROOT
BRANCH   1   2
ATOM      2  C   UNL     1      24.804  54.753  31.724  1.00  0.00     0.000 C 
BRANCH   2   3
ATOM      3  C   UNL     1      23.736  55.125  32.764  1.00  0.00     0.006 C 
BRANCH   3   4
ATOM      4  C   UNL     1      23.917  54.376  34.091  1.00  0.00     0.053 C 
BRANCH   4   5
ATOM      5  C   UNL     1      22.588  53.998  34.663  1.00  0.00     0.041 C 
ATOM      6  O   UNL     1      21.561  53.995  33.934  1.00  0.00    -0.550 OA
ATOM      7  O   UNL     1      22.490  53.600  35.990  1.00  0.00    -0.550 OA
ENDBRANCH   4   5
ENDBRANCH   3   4
ENDBRANCH   2   3
ENDBRANCH   1   2
BRANCH   1   8
ATOM      8  C   UNL     1      22.763  53.981  30.441  1.00  0.00     0.000 C 
BRANCH   8   9
ATOM      9  C   UNL     1      22.411  54.395  29.004  1.00  0.00    -0.000 C 
BRANCH   9  10
ATOM     10  C   UNL     1      23.256  53.655  27.952  1.00  0.00    -0.000 C 
BRANCH  10  11
ATOM     11  C   UNL     1      22.973  52.144  27.923  1.00  0.00    -0.000 C 
BRANCH  11  12
ATOM     12  C   UNL     1      24.036  51.360  27.139  1.00  0.00    -0.003 C 
ATOM     13  C   UNL     1      24.373  52.056  25.823  1.00  0.00     0.004 C 
ENDBRANCH  11  12
ENDBRANCH  10  11
ENDBRANCH   9  10
ENDBRANCH   8   9
ENDBRANCH   1   8
TORSDOF 9
ENDMDL
MODEL 9
REMARK VINA RESULT:    -1.727      2.556      4.955
REMARK INTER + INTRA:          -3.525
REMARK INTER:                  -2.692
REMARK INTRA:                  -0.833
REMARK UNBOUND:                -0.890
REMARK SMILES CCCCCCCCCCC(=O)[O-]
REMARK SMILES IDX 7 1 8 2 9 3 10 4 11 5 12 6 13 7 6 8 5 9 4 10 3 11 2 12 1 13
REMARK H PARENT
REMARK Flexibility Score: inf
ROOT
ATOM      1  C   UNL     1      40.728  36.088  17.796  1.00  0.00     0.000 C 
ENDROOT
BRANCH   1   2
ATOM      2  C   UNL     1      39.747  35.928  18.968  1.00  0.00     0.000 C 
BRANCH   2   3
ATOM      3  C   UNL     1      39.243  37.276  19.507  1.00  0.00     0.006 C 
BRANCH   3   4
ATOM      4  C   UNL     1      37.712  37.342  19.592  1.00  0.00     0.053 C 
BRANCH   4   5
ATOM      5  C   UNL     1      37.281  38.595  20.287  1.00  0.00     0.041 C 
ATOM      6  O   UNL     1      36.203  39.160  19.965  1.00  0.00    -0.550 OA
ATOM      7  O   UNL     1      38.046  39.112  21.325  1.00  0.00    -0.550 OA
ENDBRANCH   4   5
ENDBRANCH   3   4
ENDBRANCH   2   3
ENDBRANCH   1   2
BRANCH   1   8
ATOM      8  C   UNL     1      40.048  36.778  16.603  1.00  0.00     0.000 C 
BRANCH   8   9
ATOM      9  C   UNL     1      40.887  37.930  16.030  1.00  0.00    -0.000 C 
BRANCH   9  10
ATOM     10  C   UNL     1      41.125  39.055  17.054  1.00  0.00    -0.000 C 
BRANCH  10  11
ATOM     11  C   UNL     1      39.865  39.899  17.307  1.00  0.00    -0.000 C 
BRANCH  11  12
ATOM     12  C   UNL     1      39.932  40.675  18.630  1.00  0.00    -0.003 C 
ATOM     13  C   UNL     1      41.062  41.701  18.608  1.00  0.00     0.004 C 
ENDBRANCH  11  12
ENDBRANCH  10  11
ENDBRANCH   9  10
ENDBRANCH   8   9
ENDBRANCH   1   8
TORSDOF 9
ENDMDL
