MODEL 1
REMARK VINA RESULT:    -5.006      0.000      0.000
REMARK INTER + INTRA:          -6.324
REMARK INTER:                  -6.761
REMARK INTRA:                   0.437
REMARK UNBOUND:                 0.437
REMARK SMILES C=C1C(=O)O[C@@H]2[C@H]1CCC(C)=CCC[C@]1(C)O[C@@H]21
REMARK SMILES IDX 6 1 7 2 2 3 1 4 3 5 4 6 5 7 8 8 9 9 10 10 11 11 12 12 18 14
REMARK SMILES IDX 15 15 17 16 16 17 14 18 13 19
REMARK H PARENT
REMARK Flexibility Score: 70.00
ROOT
ATOM      1  C   UNL     1      12.839  -4.156 -30.990  1.00  0.00     0.216 C 
ATOM      2  C   UNL     1      11.614  -3.733 -31.899  1.00  0.00     0.070 C 
ATOM      3  C   UNL     1      10.438  -3.860 -30.975  1.00  0.00     0.037 C 
ATOM      4  C   UNL     1       9.176  -3.528 -31.253  1.00  0.00     0.021 C 
ATOM      5  C   UNL     1      10.928  -4.249 -29.679  1.00  0.00     0.334 C 
ATOM      6  O   UNL     1      10.221  -4.425 -28.650  1.00  0.00    -0.247 OA
ATOM      7  O   UNL     1      12.296  -4.387 -29.691  1.00  0.00    -0.455 OA
ENDROOT
BRANCH   2   8
ATOM      8  C   UNL     1      11.409  -4.547 -33.213  1.00  0.00     0.017 C 
BRANCH   8   9
ATOM      9  C   UNL     1      12.648  -4.460 -34.119  1.00  0.00     0.031 C 
BRANCH   9  10
ATOM     10  C   UNL     1      12.911  -5.673 -35.001  1.00  0.00    -0.077 C 
ATOM     11  C   UNL     1      11.764  -6.192 -35.836  1.00  0.00     0.039 C 
ATOM     12  C   UNL     1      14.129  -6.247 -35.212  1.00  0.00    -0.028 CG0
ATOM     13  G   UNL     1      15.398  -6.115 -34.389  1.00  0.00     0.000 G0
ENDBRANCH   9  10
ENDBRANCH   8   9
ENDBRANCH   2   8
BRANCH   1  14
ATOM     14  C   UNL     1      13.515  -5.457 -31.450  1.00  0.00     0.192 C 
ATOM     15  C   UNL     1      14.940  -5.436 -31.927  1.00  0.00     0.096 C 
ATOM     16  O   UNL     1      14.571  -5.898 -30.638  1.00  0.00    -0.362 OA
ATOM     17  C   UNL     1      15.975  -4.313 -31.733  1.00  0.00     0.045 C 
BRANCH  15  18
ATOM     18  C   UNL     1      15.322  -6.565 -32.902  1.00  0.00     0.042 C 
BRANCH  18  19
ATOM     19  C   UNL     1      15.404  -6.121 -34.380  1.00  0.00     0.030 CG0
ATOM     20  G   UNL     1      14.134  -6.251 -35.203  1.00  0.00     0.000 G0
ENDBRANCH  18  19
ENDBRANCH  15  18
ENDBRANCH   1  14
TORSDOF 0
ENDMDL
MODEL 2
REMARK VINA RESULT:    -4.790      1.839      3.461
REMARK INTER + INTRA:          -6.033
REMARK INTER:                  -6.489
REMARK INTRA:                   0.456
REMARK UNBOUND:                 0.437
REMARK SMILES C=C1C(=O)O[C@@H]2[C@H]1CCC(C)=CCC[C@]1(C)O[C@@H]21
REMARK SMILES IDX 6 1 7 2 2 3 1 4 3 5 4 6 5 7 8 8 9 9 10 10 11 11 12 12 18 14
REMARK SMILES IDX 15 15 17 16 16 17 14 18 13 19
REMARK H PARENT
REMARK Flexibility Score: 70.00
ROOT
ATOM      1  C   UNL     1      10.809  -5.149 -31.972  1.00  0.00     0.216 C 
ATOM      2  C   UNL     1      11.126  -5.366 -30.436  1.00  0.00     0.070 C 
ATOM      3  C   UNL     1      10.306  -4.306 -29.760  1.00  0.00     0.037 C 
ATOM      4  C   UNL     1      10.167  -4.134 -28.445  1.00  0.00     0.021 C 
ATOM      5  C   UNL     1       9.561  -3.603 -30.773  1.00  0.00     0.334 C 
ATOM      6  O   UNL     1       8.748  -2.664 -30.566  1.00  0.00    -0.247 OA
ATOM      7  O   UNL     1       9.833  -4.110 -32.023  1.00  0.00    -0.455 OA
ENDROOT
BRANCH   2   8
ATOM      8  C   UNL     1      12.626  -5.291 -30.019  1.00  0.00     0.017 C 
BRANCH   8   9
ATOM      9  C   UNL     1      13.468  -6.324 -30.785  1.00  0.00     0.031 C 
BRANCH   9  10
ATOM     10  C   UNL     1      14.895  -5.906 -31.113  1.00  0.00    -0.077 C 
ATOM     11  C   UNL     1      15.737  -5.353 -29.986  1.00  0.00     0.039 C 
ATOM     12  C   UNL     1      15.527  -6.116 -32.301  1.00  0.00    -0.028 CG0
ATOM     13  G   UNL     1      14.922  -6.432 -33.658  1.00  0.00     0.000 G0
ENDBRANCH   9  10
ENDBRANCH   8   9
ENDBRANCH   2   8
BRANCH   1  14
ATOM     14  C   UNL     1      12.027  -4.684 -32.784  1.00  0.00     0.192 C 
ATOM     15  C   UNL     1      12.524  -5.511 -33.936  1.00  0.00     0.096 C 
ATOM     16  O   UNL     1      11.756  -4.332 -34.115  1.00  0.00    -0.362 OA
ATOM     17  C   UNL     1      11.783  -6.654 -34.655  1.00  0.00     0.045 C 
BRANCH  15  18
ATOM     18  C   UNL     1      14.015  -5.335 -34.275  1.00  0.00     0.042 C 
BRANCH  18  19
ATOM     19  C   UNL     1      14.933  -6.416 -33.661  1.00  0.00     0.030 CG0
ATOM     20  G   UNL     1      15.530  -6.111 -32.299  1.00  0.00     0.000 G0
ENDBRANCH  18  19
ENDBRANCH  15  18
ENDBRANCH   1  14
TORSDOF 0
ENDMDL
MODEL 3
REMARK VINA RESULT:    -4.706      2.082      3.800
REMARK INTER + INTRA:          -5.919
REMARK INTER:                  -6.627
REMARK INTRA:                   0.708
REMARK UNBOUND:                 0.437
REMARK SMILES C=C1C(=O)O[C@@H]2[C@H]1CCC(C)=CCC[C@]1(C)O[C@@H]21
REMARK SMILES IDX 6 1 7 2 2 3 1 4 3 5 4 6 5 7 8 8 9 9 10 10 11 11 12 12 18 14
REMARK SMILES IDX 15 15 17 16 16 17 14 18 13 19
REMARK H PARENT
REMARK Flexibility Score: 70.00
ROOT
ATOM      1  C   UNL     1      11.627  -5.371 -29.610  1.00  0.00     0.216 C 
ATOM      2  C   UNL     1      13.107  -5.350 -29.048  1.00  0.00     0.070 C 
ATOM      3  C   UNL     1      12.996  -4.503 -27.813  1.00  0.00     0.037 C 
ATOM      4  C   UNL     1      13.969  -4.257 -26.934  1.00  0.00     0.021 C 
ATOM      5  C   UNL     1      11.614  -4.132 -27.648  1.00  0.00     0.334 C 
ATOM      6  O   UNL     1      11.149  -3.442 -26.703  1.00  0.00    -0.247 OA
ATOM      7  O   UNL     1      10.841  -4.655 -28.659  1.00  0.00    -0.455 OA
ENDROOT
BRANCH   2   8
ATOM      8  C   UNL     1      14.210  -4.822 -30.014  1.00  0.00     0.017 C 
BRANCH   8   9
ATOM      9  C   UNL     1      14.487  -5.827 -31.144  1.00  0.00     0.031 C 
BRANCH   9  10
ATOM     10  C   UNL     1      15.121  -5.253 -32.403  1.00  0.00    -0.077 C 
ATOM     11  C   UNL     1      16.563  -5.607 -32.683  1.00  0.00     0.039 C 
ATOM     12  C   UNL     1      14.462  -4.561 -33.375  1.00  0.00    -0.028 CG0
ATOM     13  G   UNL     1      13.113  -3.869 -33.301  1.00  0.00     0.000 G0
ENDBRANCH   9  10
ENDBRANCH   8   9
ENDBRANCH   2   8
BRANCH   1  14
ATOM     14  C   UNL     1      11.481  -4.661 -30.964  1.00  0.00     0.192 C 
ATOM     15  C   UNL     1      11.388  -5.466 -32.230  1.00  0.00     0.096 C 
ATOM     16  O   UNL     1      10.257  -4.869 -31.617  1.00  0.00    -0.362 OA
ATOM     17  C   UNL     1      11.097  -6.973 -32.360  1.00  0.00     0.045 C 
BRANCH  15  18
ATOM     18  C   UNL     1      11.855  -4.740 -33.504  1.00  0.00     0.042 C 
BRANCH  18  19
ATOM     19  C   UNL     1      13.107  -3.855 -33.304  1.00  0.00     0.030 CG0
ATOM     20  G   UNL     1      14.453  -4.553 -33.375  1.00  0.00     0.000 G0
ENDBRANCH  18  19
ENDBRANCH  15  18
ENDBRANCH   1  14
TORSDOF 0
ENDMDL
MODEL 4
REMARK VINA RESULT:    -4.640      2.975      5.037
REMARK INTER + INTRA:          -5.831
REMARK INTER:                  -6.235
REMARK INTRA:                   0.404
REMARK UNBOUND:                 0.437
REMARK SMILES C=C1C(=O)O[C@@H]2[C@H]1CCC(C)=CCC[C@]1(C)O[C@@H]21
REMARK SMILES IDX 6 1 7 2 2 3 1 4 3 5 4 6 5 7 8 8 9 9 10 10 11 11 12 12 18 14
REMARK SMILES IDX 15 15 17 16 16 17 14 18 13 19
REMARK H PARENT
REMARK Flexibility Score: 70.00
ROOT
ATOM      1  C   UNL     1      13.423  -7.534 -33.811  1.00  0.00     0.216 C 
ATOM      2  C   UNL     1      11.848  -7.653 -33.923  1.00  0.00     0.070 C 
ATOM      3  C   UNL     1      11.613  -7.751 -35.403  1.00  0.00     0.037 C 
ATOM      4  C   UNL     1      10.440  -7.955 -36.003  1.00  0.00     0.021 C 
ATOM      5  C   UNL     1      12.894  -7.750 -36.059  1.00  0.00     0.334 C 
ATOM      6  O   UNL     1      13.081  -7.844 -37.302  1.00  0.00    -0.247 OA
ATOM      7  O   UNL     1      13.916  -7.655 -35.144  1.00  0.00    -0.455 OA
ENDROOT
BRANCH   2   8
ATOM      8  C   UNL     1      11.016  -6.501 -33.280  1.00  0.00     0.017 C 
BRANCH   8   9
ATOM      9  C   UNL     1      11.331  -6.360 -31.781  1.00  0.00     0.031 C 
BRANCH   9  10
ATOM     10  C   UNL     1      11.277  -4.944 -31.224  1.00  0.00    -0.077 C 
ATOM     11  C   UNL     1      10.035  -4.130 -31.504  1.00  0.00     0.039 C 
ATOM     12  C   UNL     1      12.189  -4.394 -30.374  1.00  0.00    -0.028 CG0
ATOM     13  G   UNL     1      13.609  -4.844 -30.082  1.00  0.00     0.000 G0
ENDBRANCH   9  10
ENDBRANCH   8   9
ENDBRANCH   2   8
BRANCH   1  14
ATOM     14  C   UNL     1      13.892  -6.178 -33.262  1.00  0.00     0.192 C 
ATOM     15  C   UNL     1      14.740  -6.120 -32.022  1.00  0.00     0.096 C 
ATOM     16  O   UNL     1      15.277  -5.957 -33.325  1.00  0.00    -0.362 OA
ATOM     17  C   UNL     1      15.500  -7.281 -31.355  1.00  0.00     0.045 C 
BRANCH  15  18
ATOM     18  C   UNL     1      14.646  -4.808 -31.224  1.00  0.00     0.042 C 
BRANCH  18  19
ATOM     19  C   UNL     1      13.626  -4.847 -30.063  1.00  0.00     0.030 CG0
ATOM     20  G   UNL     1      12.213  -4.392 -30.380  1.00  0.00     0.000 G0
ENDBRANCH  18  19
ENDBRANCH  15  18
ENDBRANCH   1  14
TORSDOF 0
ENDMDL
MODEL 5
REMARK VINA RESULT:    -4.578      2.992      5.282
REMARK INTER + INTRA:          -5.747
REMARK INTER:                  -6.145
REMARK INTRA:                   0.398
REMARK UNBOUND:                 0.437
REMARK SMILES C=C1C(=O)O[C@@H]2[C@H]1CCC(C)=CCC[C@]1(C)O[C@@H]21
REMARK SMILES IDX 6 1 7 2 2 3 1 4 3 5 4 6 5 7 8 8 9 9 10 10 11 11 12 12 18 14
REMARK SMILES IDX 15 15 17 16 16 17 14 18 13 19
REMARK H PARENT
REMARK Flexibility Score: 70.00
ROOT
ATOM      1  C   UNL     1      11.644  -6.127 -34.400  1.00  0.00     0.216 C 
ATOM      2  C   UNL     1      12.877  -5.620 -35.253  1.00  0.00     0.070 C 
ATOM      3  C   UNL     1      12.903  -6.566 -36.419  1.00  0.00     0.037 C 
ATOM      4  C   UNL     1      13.719  -6.497 -37.473  1.00  0.00     0.021 C 
ATOM      5  C   UNL     1      11.789  -7.467 -36.288  1.00  0.00     0.334 C 
ATOM      6  O   UNL     1      11.485  -8.380 -37.102  1.00  0.00    -0.247 OA
ATOM      7  O   UNL     1      11.063  -7.191 -35.153  1.00  0.00    -0.455 OA
ENDROOT
BRANCH   2   8
ATOM      8  C   UNL     1      14.253  -5.566 -34.521  1.00  0.00     0.017 C 
BRANCH   8   9
ATOM      9  C   UNL     1      14.194  -4.638 -33.296  1.00  0.00     0.031 C 
BRANCH   9  10
ATOM     10  C   UNL     1      15.111  -5.008 -32.139  1.00  0.00    -0.077 C 
ATOM     11  C   UNL     1      16.569  -5.252 -32.453  1.00  0.00     0.039 C 
ATOM     12  C   UNL     1      14.763  -5.002 -30.821  1.00  0.00    -0.028 CG0
ATOM     13  G   UNL     1      13.376  -5.019 -30.204  1.00  0.00     0.000 G0
ENDBRANCH   9  10
ENDBRANCH   8   9
ENDBRANCH   2   8
BRANCH   1  14
ATOM     14  C   UNL     1      12.044  -6.692 -33.029  1.00  0.00     0.192 C 
ATOM     15  C   UNL     1      11.577  -6.015 -31.771  1.00  0.00     0.096 C 
ATOM     16  O   UNL     1      10.985  -7.206 -32.264  1.00  0.00    -0.362 OA
ATOM     17  C   UNL     1      10.456  -4.969 -31.633  1.00  0.00     0.045 C 
BRANCH  15  18
ATOM     18  C   UNL     1      12.472  -6.235 -30.537  1.00  0.00     0.042 C 
BRANCH  18  19
ATOM     19  C   UNL     1      13.370  -5.027 -30.186  1.00  0.00     0.030 CG0
ATOM     20  G   UNL     1      14.757  -5.006 -30.804  1.00  0.00     0.000 G0
ENDBRANCH  18  19
ENDBRANCH  15  18
ENDBRANCH   1  14
TORSDOF 0
ENDMDL
MODEL 6
REMARK VINA RESULT:    -4.538      3.288      5.388
REMARK INTER + INTRA:          -5.693
REMARK INTER:                  -6.362
REMARK INTRA:                   0.669
REMARK UNBOUND:                 0.437
REMARK SMILES C=C1C(=O)O[C@@H]2[C@H]1CCC(C)=CCC[C@]1(C)O[C@@H]21
REMARK SMILES IDX 6 1 7 2 2 3 1 4 3 5 4 6 5 7 8 8 9 9 10 10 11 11 12 12 18 14
REMARK SMILES IDX 15 15 17 16 16 17 14 18 13 19
REMARK H PARENT
REMARK Flexibility Score: 70.00
ROOT
ATOM      1  C   UNL     1      12.982  -5.735 -34.629  1.00  0.00     0.216 C 
ATOM      2  C   UNL     1      12.117  -6.983 -34.178  1.00  0.00     0.070 C 
ATOM      3  C   UNL     1      11.452  -7.421 -35.451  1.00  0.00     0.037 C 
ATOM      4  C   UNL     1      10.680  -8.498 -35.608  1.00  0.00     0.021 C 
ATOM      5  C   UNL     1      11.920  -6.572 -36.515  1.00  0.00     0.334 C 
ATOM      6  O   UNL     1      11.591  -6.667 -37.728  1.00  0.00    -0.247 OA
ATOM      7  O   UNL     1      12.810  -5.636 -36.042  1.00  0.00    -0.455 OA
ENDROOT
BRANCH   2   8
ATOM      8  C   UNL     1      11.081  -6.736 -33.040  1.00  0.00     0.017 C 
BRANCH   8   9
ATOM      9  C   UNL     1      11.774  -6.646 -31.670  1.00  0.00     0.031 C 
BRANCH   9  10
ATOM     10  C   UNL     1      10.991  -5.931 -30.577  1.00  0.00    -0.077 C 
ATOM     11  C   UNL     1      10.549  -6.748 -29.386  1.00  0.00     0.039 C 
ATOM     12  C   UNL     1      10.775  -4.587 -30.509  1.00  0.00    -0.028 CG0
ATOM     13  G   UNL     1      10.888  -3.549 -31.612  1.00  0.00     0.000 G0
ENDBRANCH   9  10
ENDBRANCH   8   9
ENDBRANCH   2   8
BRANCH   1  14
ATOM     14  C   UNL     1      12.509  -4.413 -34.009  1.00  0.00     0.192 C 
ATOM     15  C   UNL     1      13.166  -3.887 -32.764  1.00  0.00     0.096 C 
ATOM     16  O   UNL     1      13.443  -3.366 -34.054  1.00  0.00    -0.362 OA
ATOM     17  C   UNL     1      14.506  -4.337 -32.154  1.00  0.00     0.045 C 
BRANCH  15  18
ATOM     18  C   UNL     1      12.289  -2.963 -31.899  1.00  0.00     0.042 C 
BRANCH  18  19
ATOM     19  C   UNL     1      10.881  -3.527 -31.602  1.00  0.00     0.030 CG0
ATOM     20  G   UNL     1      10.785  -4.584 -30.516  1.00  0.00     0.000 G0
ENDBRANCH  18  19
ENDBRANCH  15  18
ENDBRANCH   1  14
TORSDOF 0
ENDMDL
MODEL 7
REMARK VINA RESULT:    -4.077      1.835      2.611
REMARK INTER + INTRA:          -5.070
REMARK INTER:                  -5.806
REMARK INTRA:                   0.736
REMARK UNBOUND:                 0.437
REMARK SMILES C=C1C(=O)O[C@@H]2[C@H]1CCC(C)=CCC[C@]1(C)O[C@@H]21
REMARK SMILES IDX 6 1 7 2 2 3 1 4 3 5 4 6 5 7 8 8 9 9 10 10 11 11 12 12 18 14
REMARK SMILES IDX 15 15 17 16 16 17 14 18 13 19
REMARK H PARENT
REMARK Flexibility Score: 70.00
ROOT
ATOM      1  C   UNL     1      13.696  -5.717 -32.597  1.00  0.00     0.216 C 
ATOM      2  C   UNL     1      12.296  -5.157 -33.080  1.00  0.00     0.070 C 
ATOM      3  C   UNL     1      11.515  -5.030 -31.804  1.00  0.00     0.037 C 
ATOM      4  C   UNL     1      10.292  -4.514 -31.675  1.00  0.00     0.021 C 
ATOM      5  C   UNL     1      12.375  -5.411 -30.714  1.00  0.00     0.334 C 
ATOM      6  O   UNL     1      12.060  -5.402 -29.494  1.00  0.00    -0.247 OA
ATOM      7  O   UNL     1      13.621  -5.772 -31.173  1.00  0.00    -0.455 OA
ENDROOT
BRANCH   2   8
ATOM      8  C   UNL     1      11.535  -6.008 -34.142  1.00  0.00     0.017 C 
BRANCH   8   9
ATOM      9  C   UNL     1      12.250  -5.966 -35.503  1.00  0.00     0.031 C 
BRANCH   9  10
ATOM     10  C   UNL     1      11.952  -7.124 -36.444  1.00  0.00    -0.077 C 
ATOM     11  C   UNL     1      11.053  -6.850 -37.627  1.00  0.00     0.039 C 
ATOM     12  C   UNL     1      12.538  -8.354 -36.395  1.00  0.00    -0.028 CG0
ATOM     13  G   UNL     1      13.289  -9.004 -35.246  1.00  0.00     0.000 G0
ENDBRANCH   9  10
ENDBRANCH   8   9
ENDBRANCH   2   8
BRANCH   1  14
ATOM     14  C   UNL     1      13.989  -7.137 -33.103  1.00  0.00     0.192 C 
ATOM     15  C   UNL     1      14.982  -7.352 -34.210  1.00  0.00     0.096 C 
ATOM     16  O   UNL     1      15.288  -7.604 -32.848  1.00  0.00    -0.362 OA
ATOM     17  C   UNL     1      16.027  -6.350 -34.736  1.00  0.00     0.045 C 
BRANCH  15  18
ATOM     18  C   UNL     1      14.771  -8.630 -35.042  1.00  0.00     0.042 C 
BRANCH  18  19
ATOM     19  C   UNL     1      13.287  -9.018 -35.236  1.00  0.00     0.030 CG0
ATOM     20  G   UNL     1      12.545  -8.334 -36.371  1.00  0.00     0.000 G0
ENDBRANCH  18  19
ENDBRANCH  15  18
ENDBRANCH   1  14
TORSDOF 0
ENDMDL
MODEL 8
REMARK VINA RESULT:    -3.906      2.853      5.800
REMARK INTER + INTRA:          -4.838
REMARK INTER:                  -5.631
REMARK INTRA:                   0.793
REMARK UNBOUND:                 0.437
REMARK SMILES C=C1C(=O)O[C@@H]2[C@H]1CCC(C)=CCC[C@]1(C)O[C@@H]21
REMARK SMILES IDX 6 1 7 2 2 3 1 4 3 5 4 6 5 7 8 8 9 9 10 10 11 11 12 12 18 14
REMARK SMILES IDX 15 15 17 16 16 17 14 18 13 19
REMARK H PARENT
REMARK Flexibility Score: 70.00
ROOT
ATOM      1  C   UNL     1      14.161  -4.724 -33.377  1.00  0.00     0.216 C 
ATOM      2  C   UNL     1      15.244  -5.030 -32.263  1.00  0.00     0.070 C 
ATOM      3  C   UNL     1      16.135  -6.047 -32.918  1.00  0.00     0.037 C 
ATOM      4  C   UNL     1      17.256  -6.558 -32.407  1.00  0.00     0.021 C 
ATOM      5  C   UNL     1      15.662  -6.256 -34.261  1.00  0.00     0.334 C 
ATOM      6  O   UNL     1      16.185  -7.026 -35.111  1.00  0.00    -0.247 OA
ATOM      7  O   UNL     1      14.557  -5.479 -34.521  1.00  0.00    -0.455 OA
ENDROOT
BRANCH   2   8
ATOM      8  C   UNL     1      14.706  -5.532 -30.889  1.00  0.00     0.017 C 
BRANCH   8   9
ATOM      9  C   UNL     1      13.904  -4.433 -30.172  1.00  0.00     0.031 C 
BRANCH   9  10
ATOM     10  C   UNL     1      12.889  -4.916 -29.145  1.00  0.00    -0.077 C 
ATOM     11  C   UNL     1      13.265  -4.805 -27.686  1.00  0.00     0.039 C 
ATOM     12  C   UNL     1      11.613  -5.309 -29.419  1.00  0.00    -0.028 CG0
ATOM     13  G   UNL     1      11.013  -5.732 -30.748  1.00  0.00     0.000 G0
ENDBRANCH   9  10
ENDBRANCH   8   9
ENDBRANCH   2   8
BRANCH   1  14
ATOM     14  C   UNL     1      12.746  -5.177 -32.988  1.00  0.00     0.192 C 
ATOM     15  C   UNL     1      11.690  -4.157 -32.666  1.00  0.00     0.096 C 
ATOM     16  O   UNL     1      11.739  -4.842 -33.907  1.00  0.00    -0.362 OA
ATOM     17  C   UNL     1      11.724  -2.648 -32.973  1.00  0.00     0.045 C 
BRANCH  15  18
ATOM     18  C   UNL     1      10.567  -4.646 -31.734  1.00  0.00     0.042 C 
BRANCH  18  19
ATOM     19  C   UNL     1      11.005  -5.752 -30.746  1.00  0.00     0.030 CG0
ATOM     20  G   UNL     1      11.618  -5.292 -29.436  1.00  0.00     0.000 G0
ENDBRANCH  18  19
ENDBRANCH  15  18
ENDBRANCH   1  14
TORSDOF 0
ENDMDL
