MODEL 1
REMARK VINA RESULT:    -4.782      0.000      0.000
REMARK INTER + INTRA:          -5.201
REMARK INTER:                  -5.201
REMARK INTRA:                   0.000
REMARK UNBOUND:                 0.000
REMARK SMILES Cc1cc(O)c2c(c1)C(=O)c1cc(O)cc(O)c1C2=O
REMARK SMILES IDX 1 1 2 2 8 3 7 4 6 5 4 6 3 7 19 8 20 9 18 10 11 11 9 12 10 13
REMARK SMILES IDX 12 14 13 15 15 16 16 17 5 18 17 20 14 22
REMARK H PARENT 5 19 17 21 14 23
REMARK Flexibility Score: inf
ROOT
ATOM      1  C   UNL     1     -16.121 -21.567 -37.483  1.00  0.00     0.044 C 
ATOM      2  C   UNL     1     -15.855 -20.378 -36.607  1.00  0.00    -0.047 A 
ATOM      3  C   UNL     1     -15.184 -19.262 -37.120  1.00  0.00     0.016 A 
ATOM      4  C   UNL     1     -14.968 -18.126 -36.322  1.00  0.00     0.038 A 
ATOM      5  C   UNL     1     -15.456 -18.095 -34.997  1.00  0.00     0.076 A 
ATOM      6  C   UNL     1     -16.095 -19.245 -34.468  1.00  0.00     0.127 A 
ATOM      7  C   UNL     1     -16.316 -20.357 -35.287  1.00  0.00     0.050 A 
ATOM      8  C   UNL     1     -15.339 -16.824 -34.236  1.00  0.00     0.201 C 
ATOM      9  O   UNL     1     -16.195 -16.537 -33.357  1.00  0.00    -0.288 OA
ATOM     10  C   UNL     1     -14.329 -15.812 -34.640  1.00  0.00     0.076 A 
ATOM     11  C   UNL     1     -13.843 -15.847 -35.968  1.00  0.00     0.041 A 
ATOM     12  C   UNL     1     -14.229 -16.962 -36.865  1.00  0.00     0.194 C 
ATOM     13  O   UNL     1     -13.904 -16.931 -38.084  1.00  0.00    -0.289 OA
ATOM     14  C   UNL     1     -12.994 -14.827 -36.428  1.00  0.00     0.059 A 
ATOM     15  C   UNL     1     -12.611 -13.785 -35.579  1.00  0.00     0.120 A 
ATOM     16  C   UNL     1     -13.057 -13.768 -34.257  1.00  0.00     0.093 A 
ATOM     17  C   UNL     1     -13.886 -14.783 -33.768  1.00  0.00     0.131 A 
ENDROOT
BRANCH   6  18
ATOM     18  O   UNL     1     -16.496 -19.340 -33.133  1.00  0.00    -0.507 OA
ATOM     19  H   UNL     1     -17.168 -18.719 -32.706  1.00  0.00     0.293 HD
ENDBRANCH   6  18
BRANCH  17  20
ATOM     20  O   UNL     1     -14.215 -14.748 -32.412  1.00  0.00    -0.507 OA
ATOM     21  H   UNL     1     -13.896 -15.433 -31.742  1.00  0.00     0.293 HD
ENDBRANCH  17  20
BRANCH  15  22
ATOM     22  O   UNL     1     -11.780 -12.765 -36.036  1.00  0.00    -0.508 OA
ATOM     23  H   UNL     1     -12.111 -12.062 -36.686  1.00  0.00     0.293 HD
ENDBRANCH  15  22
TORSDOF 3
ENDMDL
MODEL 2
REMARK VINA RESULT:    -4.758      6.133     10.302
REMARK INTER + INTRA:          -5.175
REMARK INTER:                  -5.175
REMARK INTRA:                   0.000
REMARK UNBOUND:                 0.000
REMARK SMILES Cc1cc(O)c2c(c1)C(=O)c1cc(O)cc(O)c1C2=O
REMARK SMILES IDX 1 1 2 2 8 3 7 4 6 5 4 6 3 7 19 8 20 9 18 10 11 11 9 12 10 13
REMARK SMILES IDX 12 14 13 15 15 16 16 17 5 18 17 20 14 22
REMARK H PARENT 5 19 17 21 14 23
REMARK Flexibility Score: inf
ROOT
ATOM      1  C   UNL     1     -13.502  -3.413 -35.267  1.00  0.00     0.044 C 
ATOM      2  C   UNL     1     -13.363  -4.751 -34.603  1.00  0.00    -0.047 A 
ATOM      3  C   UNL     1     -13.633  -5.923 -35.318  1.00  0.00     0.016 A 
ATOM      4  C   UNL     1     -13.463  -7.183 -34.720  1.00  0.00     0.038 A 
ATOM      5  C   UNL     1     -12.989  -7.273 -33.392  1.00  0.00     0.076 A 
ATOM      6  C   UNL     1     -12.760  -6.081 -32.658  1.00  0.00     0.127 A 
ATOM      7  C   UNL     1     -12.916  -4.839 -33.281  1.00  0.00     0.050 A 
ATOM      8  C   UNL     1     -12.682  -8.620 -32.847  1.00  0.00     0.201 C 
ATOM      9  O   UNL     1     -11.777  -8.756 -31.980  1.00  0.00    -0.288 OA
ATOM     10  C   UNL     1     -13.307  -9.823 -33.455  1.00  0.00     0.076 A 
ATOM     11  C   UNL     1     -13.781  -9.729 -34.784  1.00  0.00     0.041 A 
ATOM     12  C   UNL     1     -13.783  -8.418 -35.475  1.00  0.00     0.194 C 
ATOM     13  O   UNL     1     -14.082  -8.351 -36.699  1.00  0.00    -0.289 OA
ATOM     14  C   UNL     1     -14.251 -10.878 -35.441  1.00  0.00     0.059 A 
ATOM     15  C   UNL     1     -14.269 -12.113 -34.786  1.00  0.00     0.120 A 
ATOM     16  C   UNL     1     -13.840 -12.202 -33.462  1.00  0.00     0.093 A 
ATOM     17  C   UNL     1     -13.386 -11.069 -32.779  1.00  0.00     0.131 A 
ENDROOT
BRANCH   6  18
ATOM     18  O   UNL     1     -12.409  -6.083 -31.305  1.00  0.00    -0.507 OA
ATOM     19  H   UNL     1     -11.866  -5.352 -30.868  1.00  0.00     0.293 HD
ENDBRANCH   6  18
BRANCH  17  20
ATOM     20  O   UNL     1     -13.060 -11.218 -31.429  1.00  0.00    -0.507 OA
ATOM     21  H   UNL     1     -13.098 -10.463 -30.759  1.00  0.00     0.293 HD
ENDBRANCH  17  20
BRANCH  15  22
ATOM     22  O   UNL     1     -14.723 -13.257 -35.439  1.00  0.00    -0.508 OA
ATOM     23  H   UNL     1     -14.081 -13.964 -35.777  1.00  0.00     0.293 HD
ENDBRANCH  15  22
TORSDOF 3
ENDMDL
MODEL 3
REMARK VINA RESULT:    -4.643      1.874      5.524
REMARK INTER + INTRA:          -5.050
REMARK INTER:                  -5.050
REMARK INTRA:                   0.000
REMARK UNBOUND:                 0.000
REMARK SMILES Cc1cc(O)c2c(c1)C(=O)c1cc(O)cc(O)c1C2=O
REMARK SMILES IDX 1 1 2 2 8 3 7 4 6 5 4 6 3 7 19 8 20 9 18 10 11 11 9 12 10 13
REMARK SMILES IDX 12 14 13 15 15 16 16 17 5 18 17 20 14 22
REMARK H PARENT 5 19 17 21 14 23
REMARK Flexibility Score: inf
ROOT
ATOM      1  C   UNL     1     -13.887 -11.282 -32.421  1.00  0.00     0.044 C 
ATOM      2  C   UNL     1     -14.439 -12.609 -32.851  1.00  0.00    -0.047 A 
ATOM      3  C   UNL     1     -13.663 -13.475 -33.630  1.00  0.00     0.016 A 
ATOM      4  C   UNL     1     -14.154 -14.738 -34.001  1.00  0.00     0.038 A 
ATOM      5  C   UNL     1     -15.432 -15.153 -33.563  1.00  0.00     0.076 A 
ATOM      6  C   UNL     1     -16.231 -14.254 -32.813  1.00  0.00     0.127 A 
ATOM      7  C   UNL     1     -15.714 -13.009 -32.438  1.00  0.00     0.050 A 
ATOM      8  C   UNL     1     -15.852 -16.549 -33.851  1.00  0.00     0.201 C 
ATOM      9  O   UNL     1     -16.635 -17.144 -33.063  1.00  0.00    -0.288 OA
ATOM     10  C   UNL     1     -15.207 -17.301 -34.958  1.00  0.00     0.076 A 
ATOM     11  C   UNL     1     -13.928 -16.882 -35.394  1.00  0.00     0.041 A 
ATOM     12  C   UNL     1     -13.337 -15.635 -34.852  1.00  0.00     0.194 C 
ATOM     13  O   UNL     1     -12.148 -15.326 -35.138  1.00  0.00    -0.289 OA
ATOM     14  C   UNL     1     -13.227 -17.648 -36.340  1.00  0.00     0.059 A 
ATOM     15  C   UNL     1     -13.790 -18.813 -36.867  1.00  0.00     0.120 A 
ATOM     16  C   UNL     1     -15.067 -19.208 -36.470  1.00  0.00     0.093 A 
ATOM     17  C   UNL     1     -15.795 -18.452 -35.545  1.00  0.00     0.131 A 
ENDROOT
BRANCH   6  18
ATOM     18  O   UNL     1     -17.549 -14.539 -32.448  1.00  0.00    -0.507 OA
ATOM     19  H   UNL     1     -18.283 -14.736 -33.113  1.00  0.00     0.293 HD
ENDBRANCH   6  18
BRANCH  17  20
ATOM     20  O   UNL     1     -17.101 -18.859 -35.266  1.00  0.00    -0.507 OA
ATOM     21  H   UNL     1     -17.828 -18.230 -34.957  1.00  0.00     0.293 HD
ENDBRANCH  17  20
BRANCH  15  22
ATOM     22  O   UNL     1     -13.092 -19.582 -37.796  1.00  0.00    -0.508 OA
ATOM     23  H   UNL     1     -12.192 -19.287 -38.159  1.00  0.00     0.293 HD
ENDBRANCH  15  22
TORSDOF 3
ENDMDL
MODEL 4
REMARK VINA RESULT:    -4.447      9.980     12.120
REMARK INTER + INTRA:          -4.837
REMARK INTER:                  -4.837
REMARK INTRA:                   0.000
REMARK UNBOUND:                 0.000
REMARK SMILES Cc1cc(O)c2c(c1)C(=O)c1cc(O)cc(O)c1C2=O
REMARK SMILES IDX 1 1 2 2 8 3 7 4 6 5 4 6 3 7 19 8 20 9 18 10 11 11 9 12 10 13
REMARK SMILES IDX 12 14 13 15 15 16 16 17 5 18 17 20 14 22
REMARK H PARENT 5 19 17 21 14 23
REMARK Flexibility Score: inf
ROOT
ATOM      1  C   UNL     1     -15.132  -2.875 -39.121  1.00  0.00     0.044 C 
ATOM      2  C   UNL     1     -14.593  -3.973 -38.251  1.00  0.00    -0.047 A 
ATOM      3  C   UNL     1     -14.327  -3.733 -36.899  1.00  0.00     0.016 A 
ATOM      4  C   UNL     1     -13.864  -4.765 -36.066  1.00  0.00     0.038 A 
ATOM      5  C   UNL     1     -13.690  -6.066 -36.588  1.00  0.00     0.076 A 
ATOM      6  C   UNL     1     -13.917  -6.293 -37.970  1.00  0.00     0.127 A 
ATOM      7  C   UNL     1     -14.397  -5.255 -38.775  1.00  0.00     0.050 A 
ATOM      8  C   UNL     1     -13.342  -7.160 -35.644  1.00  0.00     0.201 C 
ATOM      9  O   UNL     1     -13.719  -8.338 -35.883  1.00  0.00    -0.288 OA
ATOM     10  C   UNL     1     -12.717  -6.836 -34.336  1.00  0.00     0.076 A 
ATOM     11  C   UNL     1     -12.894  -5.533 -33.816  1.00  0.00     0.041 A 
ATOM     12  C   UNL     1     -13.555  -4.493 -34.641  1.00  0.00     0.194 C 
ATOM     13  O   UNL     1     -13.831  -3.370 -34.138  1.00  0.00    -0.289 OA
ATOM     14  C   UNL     1     -12.439  -5.229 -32.523  1.00  0.00     0.059 A 
ATOM     15  C   UNL     1     -11.797  -6.200 -31.750  1.00  0.00     0.120 A 
ATOM     16  C   UNL     1     -11.586  -7.474 -32.274  1.00  0.00     0.093 A 
ATOM     17  C   UNL     1     -12.011  -7.797 -33.566  1.00  0.00     0.131 A 
ENDROOT
BRANCH   6  18
ATOM     18  O   UNL     1     -13.650  -7.517 -38.588  1.00  0.00    -0.507 OA
ATOM     19  H   UNL     1     -14.079  -8.388 -38.310  1.00  0.00     0.293 HD
ENDBRANCH   6  18
BRANCH  17  20
ATOM     20  O   UNL     1     -11.682  -9.063 -34.056  1.00  0.00    -0.507 OA
ATOM     21  H   UNL     1     -10.999  -9.669 -33.624  1.00  0.00     0.293 HD
ENDBRANCH  17  20
BRANCH  15  22
ATOM     22  O   UNL     1     -11.356  -5.905 -30.462  1.00  0.00    -0.508 OA
ATOM     23  H   UNL     1     -10.374  -5.955 -30.213  1.00  0.00     0.293 HD
ENDBRANCH  15  22
TORSDOF 3
ENDMDL
MODEL 5
REMARK VINA RESULT:    -4.353      1.354      3.295
REMARK INTER + INTRA:          -4.734
REMARK INTER:                  -4.734
REMARK INTRA:                   0.000
REMARK UNBOUND:                 0.000
REMARK SMILES Cc1cc(O)c2c(c1)C(=O)c1cc(O)cc(O)c1C2=O
REMARK SMILES IDX 1 1 2 2 8 3 7 4 6 5 4 6 3 7 19 8 20 9 18 10 11 11 9 12 10 13
REMARK SMILES IDX 12 14 13 15 15 16 16 17 5 18 17 20 14 22
REMARK H PARENT 5 19 17 21 14 23
REMARK Flexibility Score: inf
ROOT
ATOM      1  C   UNL     1     -17.621 -20.475 -36.123  1.00  0.00     0.044 C 
ATOM      2  C   UNL     1     -16.621 -19.358 -36.091  1.00  0.00    -0.047 A 
ATOM      3  C   UNL     1     -16.625 -18.438 -35.037  1.00  0.00     0.016 A 
ATOM      4  C   UNL     1     -15.665 -17.414 -34.975  1.00  0.00     0.038 A 
ATOM      5  C   UNL     1     -14.666 -17.325 -35.971  1.00  0.00     0.076 A 
ATOM      6  C   UNL     1     -14.694 -18.232 -37.061  1.00  0.00     0.127 A 
ATOM      7  C   UNL     1     -15.647 -19.255 -37.090  1.00  0.00     0.050 A 
ATOM      8  C   UNL     1     -13.584 -16.323 -35.790  1.00  0.00     0.201 C 
ATOM      9  O   UNL     1     -12.436 -16.548 -36.258  1.00  0.00    -0.288 OA
ATOM     10  C   UNL     1     -13.803 -15.151 -34.904  1.00  0.00     0.076 A 
ATOM     11  C   UNL     1     -14.803 -15.244 -33.909  1.00  0.00     0.041 A 
ATOM     12  C   UNL     1     -15.698 -16.426 -33.871  1.00  0.00     0.194 C 
ATOM     13  O   UNL     1     -16.504 -16.575 -32.912  1.00  0.00    -0.289 OA
ATOM     14  C   UNL     1     -14.947 -14.214 -32.965  1.00  0.00     0.059 A 
ATOM     15  C   UNL     1     -14.120 -13.089 -33.010  1.00  0.00     0.120 A 
ATOM     16  C   UNL     1     -13.159 -12.976 -34.014  1.00  0.00     0.093 A 
ATOM     17  C   UNL     1     -13.008 -13.977 -34.978  1.00  0.00     0.131 A 
ENDROOT
BRANCH   6  18
ATOM     18  O   UNL     1     -13.820 -18.135 -38.146  1.00  0.00    -0.507 OA
ATOM     19  H   UNL     1     -13.054 -17.478 -38.190  1.00  0.00     0.293 HD
ENDBRANCH   6  18
BRANCH  17  20
ATOM     20  O   UNL     1     -12.089 -13.751 -36.005  1.00  0.00    -0.507 OA
ATOM     21  H   UNL     1     -11.326 -13.093 -35.937  1.00  0.00     0.293 HD
ENDBRANCH  17  20
BRANCH  15  22
ATOM     22  O   UNL     1     -14.252 -12.072 -32.067  1.00  0.00    -0.508 OA
ATOM     23  H   UNL     1     -14.324 -12.273 -31.076  1.00  0.00     0.293 HD
ENDBRANCH  15  22
TORSDOF 3
ENDMDL
MODEL 6
REMARK VINA RESULT:    -4.287      1.720      3.738
REMARK INTER + INTRA:          -4.663
REMARK INTER:                  -4.663
REMARK INTRA:                   0.000
REMARK UNBOUND:                 0.000
REMARK SMILES Cc1cc(O)c2c(c1)C(=O)c1cc(O)cc(O)c1C2=O
REMARK SMILES IDX 1 1 2 2 8 3 7 4 6 5 4 6 3 7 19 8 20 9 18 10 11 11 9 12 10 13
REMARK SMILES IDX 12 14 13 15 15 16 16 17 5 18 17 20 14 22
REMARK H PARENT 5 19 17 21 14 23
REMARK Flexibility Score: inf
ROOT
ATOM      1  C   UNL     1     -16.125 -23.124 -37.626  1.00  0.00     0.044 C 
ATOM      2  C   UNL     1     -15.576 -21.785 -37.228  1.00  0.00    -0.047 A 
ATOM      3  C   UNL     1     -16.164 -21.066 -36.181  1.00  0.00     0.016 A 
ATOM      4  C   UNL     1     -15.631 -19.832 -35.772  1.00  0.00     0.038 A 
ATOM      5  C   UNL     1     -14.474 -19.322 -36.402  1.00  0.00     0.076 A 
ATOM      6  C   UNL     1     -13.909 -20.033 -37.491  1.00  0.00     0.127 A 
ATOM      7  C   UNL     1     -14.445 -21.269 -37.868  1.00  0.00     0.050 A 
ATOM      8  C   UNL     1     -13.857 -18.091 -35.843  1.00  0.00     0.201 C 
ATOM      9  O   UNL     1     -12.613 -17.912 -35.941  1.00  0.00    -0.288 OA
ATOM     10  C   UNL     1     -14.671 -17.169 -35.010  1.00  0.00     0.076 A 
ATOM     11  C   UNL     1     -15.828 -17.684 -34.382  1.00  0.00     0.041 A 
ATOM     12  C   UNL     1     -16.280 -19.063 -34.683  1.00  0.00     0.194 C 
ATOM     13  O   UNL     1     -17.233 -19.571 -34.032  1.00  0.00    -0.289 OA
ATOM     14  C   UNL     1     -16.546 -16.884 -33.478  1.00  0.00     0.059 A 
ATOM     15  C   UNL     1     -16.135 -15.576 -33.205  1.00  0.00     0.120 A 
ATOM     16  C   UNL     1     -15.018 -15.052 -33.853  1.00  0.00     0.093 A 
ATOM     17  C   UNL     1     -14.297 -15.820 -34.773  1.00  0.00     0.131 A 
ENDROOT
BRANCH   6  18
ATOM     18  O   UNL     1     -12.842 -19.537 -38.245  1.00  0.00    -0.507 OA
ATOM     19  H   UNL     1     -12.941 -19.177 -39.183  1.00  0.00     0.293 HD
ENDBRANCH   6  18
BRANCH  17  20
ATOM     20  O   UNL     1     -13.246 -15.198 -35.451  1.00  0.00    -0.507 OA
ATOM     21  H   UNL     1     -13.379 -14.484 -36.152  1.00  0.00     0.293 HD
ENDBRANCH  17  20
BRANCH  15  22
ATOM     22  O   UNL     1     -16.838 -14.784 -32.300  1.00  0.00    -0.508 OA
ATOM     23  H   UNL     1     -16.845 -14.993 -31.308  1.00  0.00     0.293 HD
ENDBRANCH  15  22
TORSDOF 3
ENDMDL
MODEL 7
REMARK VINA RESULT:    -4.268      2.209      3.697
REMARK INTER + INTRA:          -4.643
REMARK INTER:                  -4.643
REMARK INTRA:                   0.000
REMARK UNBOUND:                 0.000
REMARK SMILES Cc1cc(O)c2c(c1)C(=O)c1cc(O)cc(O)c1C2=O
REMARK SMILES IDX 1 1 2 2 8 3 7 4 6 5 4 6 3 7 19 8 20 9 18 10 11 11 9 12 10 13
REMARK SMILES IDX 12 14 13 15 15 16 16 17 5 18 17 20 14 22
REMARK H PARENT 5 19 17 21 14 23
REMARK Flexibility Score: inf
ROOT
ATOM      1  C   UNL     1     -14.824 -18.531 -35.911  1.00  0.00     0.044 C 
ATOM      2  C   UNL     1     -14.870 -17.242 -35.146  1.00  0.00    -0.047 A 
ATOM      3  C   UNL     1     -13.963 -16.217 -35.438  1.00  0.00     0.016 A 
ATOM      4  C   UNL     1     -14.026 -14.989 -34.758  1.00  0.00     0.038 A 
ATOM      5  C   UNL     1     -15.030 -14.772 -33.788  1.00  0.00     0.076 A 
ATOM      6  C   UNL     1     -15.917 -15.830 -33.463  1.00  0.00     0.127 A 
ATOM      7  C   UNL     1     -15.849 -17.037 -34.168  1.00  0.00     0.050 A 
ATOM      8  C   UNL     1     -15.155 -13.414 -33.199  1.00  0.00     0.201 C 
ATOM      9  O   UNL     1     -16.280 -12.997 -32.816  1.00  0.00    -0.288 OA
ATOM     10  C   UNL     1     -13.997 -12.484 -33.235  1.00  0.00     0.076 A 
ATOM     11  C   UNL     1     -12.994 -12.704 -34.208  1.00  0.00     0.041 A 
ATOM     12  C   UNL     1     -13.041 -13.921 -35.053  1.00  0.00     0.194 C 
ATOM     13  O   UNL     1     -12.225 -14.058 -36.006  1.00  0.00    -0.289 OA
ATOM     14  C   UNL     1     -11.957 -11.770 -34.365  1.00  0.00     0.059 A 
ATOM     15  C   UNL     1     -11.898 -10.632 -33.557  1.00  0.00     0.120 A 
ATOM     16  C   UNL     1     -12.863 -10.432 -32.570  1.00  0.00     0.093 A 
ATOM     17  C   UNL     1     -13.894 -11.356 -32.379  1.00  0.00     0.131 A 
ENDROOT
BRANCH   6  18
ATOM     18  O   UNL     1     -16.856 -15.740 -32.433  1.00  0.00    -0.507 OA
ATOM     19  H   UNL     1     -17.000 -16.463 -31.743  1.00  0.00     0.293 HD
ENDBRANCH   6  18
BRANCH  17  20
ATOM     20  O   UNL     1     -14.769 -11.136 -31.312  1.00  0.00    -0.507 OA
ATOM     21  H   UNL     1     -15.402 -10.351 -31.263  1.00  0.00     0.293 HD
ENDBRANCH  17  20
BRANCH  15  22
ATOM     22  O   UNL     1     -10.877  -9.697 -33.719  1.00  0.00    -0.508 OA
ATOM     23  H   UNL     1     -10.525  -9.450 -34.637  1.00  0.00     0.293 HD
ENDBRANCH  15  22
TORSDOF 3
ENDMDL
MODEL 8
REMARK VINA RESULT:    -4.092      1.536      6.416
REMARK INTER + INTRA:          -4.451
REMARK INTER:                  -4.451
REMARK INTRA:                   0.000
REMARK UNBOUND:                 0.000
REMARK SMILES Cc1cc(O)c2c(c1)C(=O)c1cc(O)cc(O)c1C2=O
REMARK SMILES IDX 1 1 2 2 8 3 7 4 6 5 4 6 3 7 19 8 20 9 18 10 11 11 9 12 10 13
REMARK SMILES IDX 12 14 13 15 15 16 16 17 5 18 17 20 14 22
REMARK H PARENT 5 19 17 21 14 23
REMARK Flexibility Score: inf
ROOT
ATOM      1  C   UNL     1     -14.228 -11.169 -31.933  1.00  0.00     0.044 C 
ATOM      2  C   UNL     1     -14.048 -12.334 -32.861  1.00  0.00    -0.047 A 
ATOM      3  C   UNL     1     -14.913 -13.432 -32.788  1.00  0.00     0.016 A 
ATOM      4  C   UNL     1     -14.781 -14.508 -33.682  1.00  0.00     0.038 A 
ATOM      5  C   UNL     1     -13.785 -14.473 -34.683  1.00  0.00     0.076 A 
ATOM      6  C   UNL     1     -12.883 -13.379 -34.724  1.00  0.00     0.127 A 
ATOM      7  C   UNL     1     -13.046 -12.310 -33.837  1.00  0.00     0.050 A 
ATOM      8  C   UNL     1     -13.774 -15.558 -35.699  1.00  0.00     0.201 C 
ATOM      9  O   UNL     1     -13.355 -15.323 -36.863  1.00  0.00    -0.288 OA
ATOM     10  C   UNL     1     -14.426 -16.858 -35.398  1.00  0.00     0.076 A 
ATOM     11  C   UNL     1     -15.422 -16.889 -34.395  1.00  0.00     0.041 A 
ATOM     12  C   UNL     1     -15.682 -15.681 -33.576  1.00  0.00     0.194 C 
ATOM     13  O   UNL     1     -16.653 -15.662 -32.771  1.00  0.00    -0.289 OA
ATOM     14  C   UNL     1     -16.158 -18.065 -34.177  1.00  0.00     0.059 A 
ATOM     15  C   UNL     1     -15.903 -19.213 -34.933  1.00  0.00     0.120 A 
ATOM     16  C   UNL     1     -14.894 -19.198 -35.896  1.00  0.00     0.093 A 
ATOM     17  C   UNL     1     -14.133 -18.046 -36.118  1.00  0.00     0.131 A 
ENDROOT
BRANCH   6  18
ATOM     18  O   UNL     1     -11.798 -13.327 -35.601  1.00  0.00    -0.507 OA
ATOM     19  H   UNL     1     -10.868 -13.640 -35.359  1.00  0.00     0.293 HD
ENDBRANCH   6  18
BRANCH  17  20
ATOM     20  O   UNL     1     -13.081 -18.135 -37.032  1.00  0.00    -0.507 OA
ATOM     21  H   UNL     1     -12.123 -17.908 -36.805  1.00  0.00     0.293 HD
ENDBRANCH  17  20
BRANCH  15  22
ATOM     22  O   UNL     1     -16.639 -20.377 -34.728  1.00  0.00    -0.508 OA
ATOM     23  H   UNL     1     -16.411 -21.024 -33.981  1.00  0.00     0.293 HD
ENDBRANCH  15  22
TORSDOF 3
ENDMDL
MODEL 9
REMARK VINA RESULT:    -4.031      1.670      6.347
REMARK INTER + INTRA:          -4.384
REMARK INTER:                  -4.384
REMARK INTRA:                   0.000
REMARK UNBOUND:                 0.000
REMARK SMILES Cc1cc(O)c2c(c1)C(=O)c1cc(O)cc(O)c1C2=O
REMARK SMILES IDX 1 1 2 2 8 3 7 4 6 5 4 6 3 7 19 8 20 9 18 10 11 11 9 12 10 13
REMARK SMILES IDX 12 14 13 15 15 16 16 17 5 18 17 20 14 22
REMARK H PARENT 5 19 17 21 14 23
REMARK Flexibility Score: inf
ROOT
ATOM      1  C   UNL     1     -14.734 -13.814 -32.990  1.00  0.00     0.044 C 
ATOM      2  C   UNL     1     -14.571 -14.866 -34.047  1.00  0.00    -0.047 A 
ATOM      3  C   UNL     1     -15.197 -16.109 -33.906  1.00  0.00     0.016 A 
ATOM      4  C   UNL     1     -15.086 -17.085 -34.911  1.00  0.00     0.038 A 
ATOM      5  C   UNL     1     -14.360 -16.803 -36.089  1.00  0.00     0.076 A 
ATOM      6  C   UNL     1     -13.690 -15.558 -36.207  1.00  0.00     0.127 A 
ATOM      7  C   UNL     1     -13.831 -14.595 -35.203  1.00  0.00     0.050 A 
ATOM      8  C   UNL     1     -14.390 -17.802 -37.188  1.00  0.00     0.201 C 
ATOM      9  O   UNL     1     -14.288 -17.422 -38.385  1.00  0.00    -0.288 OA
ATOM     10  C   UNL     1     -14.727 -19.218 -36.890  1.00  0.00     0.076 A 
ATOM     11  C   UNL     1     -15.454 -19.497 -35.710  1.00  0.00     0.041 A 
ATOM     12  C   UNL     1     -15.726 -18.411 -34.738  1.00  0.00     0.194 C 
ATOM     13  O   UNL     1     -16.482 -18.624 -33.750  1.00  0.00    -0.289 OA
ATOM     14  C   UNL     1     -15.910 -20.802 -35.462  1.00  0.00     0.059 A 
ATOM     15  C   UNL     1     -15.639 -21.832 -36.366  1.00  0.00     0.120 A 
ATOM     16  C   UNL     1     -14.888 -21.569 -37.511  1.00  0.00     0.093 A 
ATOM     17  C   UNL     1     -14.404 -20.283 -37.771  1.00  0.00     0.131 A 
ENDROOT
BRANCH   6  18
ATOM     18  O   UNL     1     -12.852 -15.249 -37.282  1.00  0.00    -0.507 OA
ATOM     19  H   UNL     1     -13.178 -14.831 -38.142  1.00  0.00     0.293 HD
ENDBRANCH   6  18
BRANCH  17  20
ATOM     20  O   UNL     1     -13.583 -20.117 -38.889  1.00  0.00    -0.507 OA
ATOM     21  H   UNL     1     -13.891 -20.275 -39.837  1.00  0.00     0.293 HD
ENDBRANCH  17  20
BRANCH  15  22
ATOM     22  O   UNL     1     -16.101 -23.125 -36.130  1.00  0.00    -0.508 OA
ATOM     23  H   UNL     1     -16.995 -23.442 -36.488  1.00  0.00     0.293 HD
ENDBRANCH  15  22
TORSDOF 3
ENDMDL
