MODEL 1
REMARK VINA RESULT:    -4.921      0.000      0.000
REMARK INTER + INTRA:          -8.011
REMARK INTER:                  -7.079
REMARK INTRA:                  -0.933
REMARK UNBOUND:                -0.933
REMARK SMILES O=c1cc(-c2ccc(O)c(O)c2)oc2cc(O[C@H]3O[C@@H](CO)[C@@H](O)[C@@H](O)[C@H]3O)cc(O)c12
REMARK SMILES IDX 17 1 16 2 4 3 3 4 13 5 2 6 14 7 1 8 32 9 15 10 30 11 29 12
REMARK SMILES IDX 5 13 6 14 7 15 8 16 12 17 10 18 9 19 11 21 31 23 18 25 27 26
REMARK SMILES IDX 19 27 25 28 20 29 23 30 28 31 26 33 21 35 22 36 24 38
REMARK H PARENT 9 20 11 22 31 24 28 32 26 34 22 37 24 39
REMARK Flexibility Score: inf
ROOT
ATOM      1  O   UNL     1       1.386  -1.818   9.474  1.00  0.00    -0.462 OA
ENDROOT
BRANCH   1   2
ATOM      2  C   UNL     1       1.701  -0.834  10.427  1.00  0.00     0.130 A 
ATOM      3  C   UNL     1      -0.319   3.409  10.473  1.00  0.00     0.138 A 
ATOM      4  C   UNL     1      -1.169   3.014  11.507  1.00  0.00     0.100 A 
ATOM      5  O   UNL     1       0.694   2.606  10.098  1.00  0.00    -0.456 OA
ATOM      6  C   UNL     1      -0.910   1.802  12.196  1.00  0.00     0.197 A 
ATOM      7  C   UNL     1       0.919   1.425  10.633  1.00  0.00     0.146 A 
ATOM      8  O   UNL     1      -1.670   1.450  13.130  1.00  0.00    -0.289 OA
ATOM      9  C   UNL     1       0.176   0.990  11.767  1.00  0.00     0.107 A 
ATOM     10  C   UNL     1       1.759   0.500   9.979  1.00  0.00     0.094 A 
ATOM     11  C   UNL     1       0.525  -0.247  12.385  1.00  0.00     0.134 A 
ATOM     12  C   UNL     1       1.516  -1.050  11.795  1.00  0.00     0.093 A 
BRANCH   3  13
ATOM     13  C   UNL     1      -0.586   4.657   9.705  1.00  0.00     0.021 A 
ATOM     14  C   UNL     1       0.373   5.692   9.649  1.00  0.00     0.016 A 
ATOM     15  C   UNL     1       0.076   6.885   9.000  1.00  0.00     0.051 A 
ATOM     16  C   UNL     1      -1.154   7.034   8.373  1.00  0.00     0.157 A 
ATOM     17  C   UNL     1      -1.829   4.811   9.048  1.00  0.00     0.062 A 
ATOM     18  C   UNL     1      -2.118   6.013   8.393  1.00  0.00     0.158 A 
BRANCH  16  19
ATOM     19  O   UNL     1      -1.429   8.150   7.637  1.00  0.00    -0.504 OA
ATOM     20  H   UNL     1      -1.502   9.081   8.047  1.00  0.00     0.293 HD
ENDBRANCH  16  19
BRANCH  18  21
ATOM     21  O   UNL     1      -3.371   6.171   7.779  1.00  0.00    -0.504 OA
ATOM     22  H   UNL     1      -4.142   6.694   8.232  1.00  0.00     0.293 HD
ENDBRANCH  18  21
ENDBRANCH   3  13
BRANCH  11  23
ATOM     23  O   UNL     1      -0.084  -0.646  13.589  1.00  0.00    -0.507 OA
ATOM     24  H   UNL     1      -0.748  -1.412  13.603  1.00  0.00     0.293 HD
ENDBRANCH  11  23
ENDBRANCH   1   2
BRANCH   1  25
ATOM     25  C   UNL     1       1.842  -3.174   9.492  1.00  0.00     0.339 C 
ATOM     26  C   UNL     1       3.089  -3.314   8.589  1.00  0.00     0.214 C 
ATOM     27  O   UNL     1       0.798  -3.994   9.013  1.00  0.00    -0.332 OA
ATOM     28  C   UNL     1       3.469  -4.819   8.383  1.00  0.00     0.180 C 
ATOM     29  C   UNL     1       1.132  -5.354   9.116  1.00  0.00     0.179 C 
ATOM     30  C   UNL     1       2.239  -5.700   8.095  1.00  0.00     0.177 C 
BRANCH  26  31
ATOM     31  O   UNL     1       2.899  -2.646   7.361  1.00  0.00    -0.384 OA
ATOM     32  H   UNL     1       3.770  -2.653   6.866  1.00  0.00     0.211 HD
ENDBRANCH  26  31
BRANCH  28  33
ATOM     33  O   UNL     1       4.381  -4.936   7.311  1.00  0.00    -0.387 OA
ATOM     34  H   UNL     1       4.741  -4.059   7.168  1.00  0.00     0.211 HD
ENDBRANCH  28  33
BRANCH  29  35
ATOM     35  C   UNL     1      -0.126  -6.226   8.978  1.00  0.00     0.191 C 
BRANCH  35  36
ATOM     36  O   UNL     1      -0.970  -5.923   7.896  1.00  0.00    -0.394 OA
ATOM     37  H   UNL     1      -1.893  -5.856   8.287  1.00  0.00     0.210 HD
ENDBRANCH  35  36
ENDBRANCH  29  35
BRANCH  30  38
ATOM     38  O   UNL     1       1.800  -5.531   6.761  1.00  0.00    -0.387 OA
ATOM     39  H   UNL     1       0.928  -5.037   6.830  1.00  0.00     0.211 HD
ENDBRANCH  30  38
ENDBRANCH   1  25
TORSDOF 11
ENDMDL
MODEL 2
REMARK VINA RESULT:    -4.754      3.813      5.347
REMARK INTER + INTRA:          -7.771
REMARK INTER:                  -6.917
REMARK INTRA:                  -0.854
REMARK UNBOUND:                -0.933
REMARK SMILES O=c1cc(-c2ccc(O)c(O)c2)oc2cc(O[C@H]3O[C@@H](CO)[C@@H](O)[C@@H](O)[C@H]3O)cc(O)c12
REMARK SMILES IDX 17 1 16 2 4 3 3 4 13 5 2 6 14 7 1 8 32 9 15 10 30 11 29 12
REMARK SMILES IDX 5 13 6 14 7 15 8 16 12 17 10 18 9 19 11 21 31 23 18 25 27 26
REMARK SMILES IDX 19 27 25 28 20 29 23 30 28 31 26 33 21 35 22 36 24 38
REMARK H PARENT 9 20 11 22 31 24 28 32 26 34 22 37 24 39
REMARK Flexibility Score: inf
ROOT
ATOM      1  O   UNL     1       4.952   3.722   7.204  1.00  0.00    -0.462 OA
ENDROOT
BRANCH   1   2
ATOM      2  C   UNL     1       4.632   3.787   8.571  1.00  0.00     0.130 A 
ATOM      3  C   UNL     1       0.224   3.471  10.171  1.00  0.00     0.138 A 
ATOM      4  C   UNL     1       0.427   2.137  10.524  1.00  0.00     0.100 A 
ATOM      5  O   UNL     1       1.268   4.224   9.774  1.00  0.00    -0.456 OA
ATOM      6  C   UNL     1       1.744   1.611  10.526  1.00  0.00     0.197 A 
ATOM      7  C   UNL     1       2.493   3.759   9.660  1.00  0.00     0.146 A 
ATOM      8  O   UNL     1       1.928   0.413  10.850  1.00  0.00    -0.289 OA
ATOM      9  C   UNL     1       2.815   2.446  10.105  1.00  0.00     0.107 A 
ATOM     10  C   UNL     1       3.457   4.480   8.923  1.00  0.00     0.094 A 
ATOM     11  C   UNL     1       4.175   2.020  10.065  1.00  0.00     0.134 A 
ATOM     12  C   UNL     1       5.140   2.866   9.490  1.00  0.00     0.093 A 
BRANCH   3  13
ATOM     13  C   UNL     1      -1.150   4.044  10.123  1.00  0.00     0.021 A 
ATOM     14  C   UNL     1      -2.094   3.750  11.131  1.00  0.00     0.016 A 
ATOM     15  C   UNL     1      -3.397   4.223  11.028  1.00  0.00     0.051 A 
ATOM     16  C   UNL     1      -3.752   5.019   9.946  1.00  0.00     0.157 A 
ATOM     17  C   UNL     1      -1.515   4.870   9.035  1.00  0.00     0.062 A 
ATOM     18  C   UNL     1      -2.828   5.346   8.940  1.00  0.00     0.158 A 
BRANCH  16  19
ATOM     19  O   UNL     1      -4.992   5.585   9.876  1.00  0.00    -0.504 OA
ATOM     20  H   UNL     1      -5.170   6.472   9.405  1.00  0.00     0.293 HD
ENDBRANCH  16  19
BRANCH  18  21
ATOM     21  O   UNL     1      -3.191   6.132   7.835  1.00  0.00    -0.504 OA
ATOM     22  H   UNL     1      -3.992   5.884   7.225  1.00  0.00     0.293 HD
ENDBRANCH  18  21
ENDBRANCH   3  13
BRANCH  11  23
ATOM     23  O   UNL     1       4.560   0.789  10.626  1.00  0.00    -0.507 OA
ATOM     24  H   UNL     1       4.403  -0.079  10.125  1.00  0.00     0.293 HD
ENDBRANCH  11  23
ENDBRANCH   1   2
BRANCH   1  25
ATOM     25  C   UNL     1       5.585   2.621   6.547  1.00  0.00     0.339 C 
ATOM     26  C   UNL     1       5.402   2.755   5.018  1.00  0.00     0.214 C 
ATOM     27  O   UNL     1       4.983   1.430   7.007  1.00  0.00    -0.332 OA
ATOM     28  C   UNL     1       5.860   1.452   4.279  1.00  0.00     0.180 C 
ATOM     29  C   UNL     1       5.637   0.298   6.493  1.00  0.00     0.179 C 
ATOM     30  C   UNL     1       5.357   0.175   4.978  1.00  0.00     0.177 C 
BRANCH  26  31
ATOM     31  O   UNL     1       4.073   3.102   4.698  1.00  0.00    -0.384 OA
ATOM     32  H   UNL     1       3.822   3.905   5.242  1.00  0.00     0.211 HD
ENDBRANCH  26  31
BRANCH  28  33
ATOM     33  O   UNL     1       5.382   1.467   2.950  1.00  0.00    -0.387 OA
ATOM     34  H   UNL     1       5.665   2.301   2.572  1.00  0.00     0.211 HD
ENDBRANCH  28  33
BRANCH  29  35
ATOM     35  C   UNL     1       5.248  -0.954   7.294  1.00  0.00     0.191 C 
BRANCH  35  36
ATOM     36  O   UNL     1       4.133  -0.822   8.141  1.00  0.00    -0.394 OA
ATOM     37  H   UNL     1       3.662  -1.708   8.102  1.00  0.00     0.210 HD
ENDBRANCH  35  36
ENDBRANCH  29  35
BRANCH  30  38
ATOM     38  O   UNL     1       3.986  -0.041   4.709  1.00  0.00    -0.387 OA
ATOM     39  H   UNL     1       3.502   0.690   5.199  1.00  0.00     0.211 HD
ENDBRANCH  30  38
ENDBRANCH   1  25
TORSDOF 11
ENDMDL
MODEL 3
REMARK VINA RESULT:    -4.677      2.517      3.565
REMARK INTER + INTRA:          -7.660
REMARK INTER:                  -6.450
REMARK INTRA:                  -1.210
REMARK UNBOUND:                -0.933
REMARK SMILES O=c1cc(-c2ccc(O)c(O)c2)oc2cc(O[C@H]3O[C@@H](CO)[C@@H](O)[C@@H](O)[C@H]3O)cc(O)c12
REMARK SMILES IDX 17 1 16 2 4 3 3 4 13 5 2 6 14 7 1 8 32 9 15 10 30 11 29 12
REMARK SMILES IDX 5 13 6 14 7 15 8 16 12 17 10 18 9 19 11 21 31 23 18 25 27 26
REMARK SMILES IDX 19 27 25 28 20 29 23 30 28 31 26 33 21 35 22 36 24 38
REMARK H PARENT 9 20 11 22 31 24 28 32 26 34 22 37 24 39
REMARK Flexibility Score: inf
ROOT
ATOM      1  O   UNL     1       5.133   1.149   8.422  1.00  0.00    -0.462 OA
ENDROOT
BRANCH   1   2
ATOM      2  C   UNL     1       5.012   2.297   9.223  1.00  0.00     0.130 A 
ATOM      3  C   UNL     1       0.887   4.373  10.095  1.00  0.00     0.138 A 
ATOM      4  C   UNL     1       0.831   3.778  11.355  1.00  0.00     0.100 A 
ATOM      5  O   UNL     1       2.012   4.281   9.361  1.00  0.00    -0.456 OA
ATOM      6  C   UNL     1       1.988   3.141  11.875  1.00  0.00     0.197 A 
ATOM      7  C   UNL     1       3.078   3.617   9.751  1.00  0.00     0.146 A 
ATOM      8  O   UNL     1       1.940   2.612  13.011  1.00  0.00    -0.289 OA
ATOM      9  C   UNL     1       3.154   3.075  11.065  1.00  0.00     0.107 A 
ATOM     10  C   UNL     1       4.076   3.268   8.816  1.00  0.00     0.094 A 
ATOM     11  C   UNL     1       4.369   2.458  11.486  1.00  0.00     0.134 A 
ATOM     12  C   UNL     1       5.417   2.308  10.560  1.00  0.00     0.093 A 
BRANCH   3  13
ATOM     13  C   UNL     1      -0.320   5.016   9.504  1.00  0.00     0.021 A 
ATOM     14  C   UNL     1      -1.535   4.306   9.385  1.00  0.00     0.016 A 
ATOM     15  C   UNL     1      -2.628   4.891   8.755  1.00  0.00     0.051 A 
ATOM     16  C   UNL     1      -2.527   6.192   8.280  1.00  0.00     0.157 A 
ATOM     17  C   UNL     1      -0.232   6.348   9.035  1.00  0.00     0.062 A 
ATOM     18  C   UNL     1      -1.338   6.931   8.406  1.00  0.00     0.158 A 
BRANCH  16  19
ATOM     19  O   UNL     1      -3.615   6.828   7.757  1.00  0.00    -0.504 OA
ATOM     20  H   UNL     1      -3.670   7.121   6.782  1.00  0.00     0.293 HD
ENDBRANCH  16  19
BRANCH  18  21
ATOM     21  O   UNL     1      -1.229   8.239   7.907  1.00  0.00    -0.504 OA
ATOM     22  H   UNL     1      -2.062   8.800   7.653  1.00  0.00     0.293 HD
ENDBRANCH  18  21
ENDBRANCH   3  13
BRANCH  11  23
ATOM     23  O   UNL     1       4.539   2.039  12.818  1.00  0.00    -0.507 OA
ATOM     24  H   UNL     1       5.026   1.175  13.030  1.00  0.00     0.293 HD
ENDBRANCH  11  23
ENDBRANCH   1   2
BRANCH   1  25
ATOM     25  C   UNL     1       5.021  -0.203   8.879  1.00  0.00     0.339 C 
ATOM     26  C   UNL     1       5.590  -1.161   7.808  1.00  0.00     0.214 C 
ATOM     27  O   UNL     1       3.656  -0.478   9.105  1.00  0.00    -0.332 OA
ATOM     28  C   UNL     1       5.263  -2.653   8.156  1.00  0.00     0.180 C 
ATOM     29  C   UNL     1       3.481  -1.752   9.671  1.00  0.00     0.179 C 
ATOM     30  C   UNL     1       3.808  -2.839   8.624  1.00  0.00     0.177 C 
BRANCH  26  31
ATOM     31  O   UNL     1       5.130  -0.808   6.521  1.00  0.00    -0.384 OA
ATOM     32  H   UNL     1       5.110  -1.637   5.960  1.00  0.00     0.211 HD
ENDBRANCH  26  31
BRANCH  28  33
ATOM     33  O   UNL     1       5.490  -3.465   7.023  1.00  0.00    -0.387 OA
ATOM     34  H   UNL     1       5.943  -2.913   6.383  1.00  0.00     0.211 HD
ENDBRANCH  28  33
BRANCH  29  35
ATOM     35  C   UNL     1       2.073  -1.881  10.274  1.00  0.00     0.191 C 
BRANCH  35  36
ATOM     36  O   UNL     1       1.022  -1.361   9.500  1.00  0.00    -0.394 OA
ATOM     37  H   UNL     1       1.136  -1.765   8.588  1.00  0.00     0.210 HD
ENDBRANCH  35  36
ENDBRANCH  29  35
BRANCH  30  38
ATOM     38  O   UNL     1       2.916  -2.802   7.526  1.00  0.00    -0.387 OA
ATOM     39  H   UNL     1       2.053  -3.179   7.875  1.00  0.00     0.211 HD
ENDBRANCH  30  38
ENDBRANCH   1  25
TORSDOF 11
ENDMDL
MODEL 4
REMARK VINA RESULT:    -4.599      3.244     10.780
REMARK INTER + INTRA:          -7.548
REMARK INTER:                  -6.633
REMARK INTRA:                  -0.915
REMARK UNBOUND:                -0.933
REMARK SMILES O=c1cc(-c2ccc(O)c(O)c2)oc2cc(O[C@H]3O[C@@H](CO)[C@@H](O)[C@@H](O)[C@H]3O)cc(O)c12
REMARK SMILES IDX 17 1 16 2 4 3 3 4 13 5 2 6 14 7 1 8 32 9 15 10 30 11 29 12
REMARK SMILES IDX 5 13 6 14 7 15 8 16 12 17 10 18 9 19 11 21 31 23 18 25 27 26
REMARK SMILES IDX 19 27 25 28 20 29 23 30 28 31 26 33 21 35 22 36 24 38
REMARK H PARENT 9 20 11 22 31 24 28 32 26 34 22 37 24 39
REMARK Flexibility Score: inf
ROOT
ATOM      1  O   UNL     1      -3.364   6.758   6.961  1.00  0.00    -0.462 OA
ENDROOT
BRANCH   1   2
ATOM      2  C   UNL     1      -2.803   6.902   8.241  1.00  0.00     0.130 A 
ATOM      3  C   UNL     1       0.074   3.708  10.138  1.00  0.00     0.138 A 
ATOM      4  C   UNL     1       1.184   4.491   9.822  1.00  0.00     0.100 A 
ATOM      5  O   UNL     1      -1.165   4.208   9.977  1.00  0.00    -0.456 OA
ATOM      6  C   UNL     1       0.992   5.832   9.400  1.00  0.00     0.197 A 
ATOM      7  C   UNL     1      -1.404   5.408   9.493  1.00  0.00     0.146 A 
ATOM      8  O   UNL     1       1.990   6.539   9.123  1.00  0.00    -0.289 OA
ATOM      9  C   UNL     1      -0.336   6.318   9.251  1.00  0.00     0.107 A 
ATOM     10  C   UNL     1      -2.694   5.740   9.030  1.00  0.00     0.094 A 
ATOM     11  C   UNL     1      -0.645   7.645   8.832  1.00  0.00     0.134 A 
ATOM     12  C   UNL     1      -1.983   7.985   8.567  1.00  0.00     0.093 A 
BRANCH   3  13
ATOM     13  C   UNL     1       0.240   2.285  10.548  1.00  0.00     0.021 A 
ATOM     14  C   UNL     1      -0.380   1.789  11.715  1.00  0.00     0.016 A 
ATOM     15  C   UNL     1      -0.147   0.483  12.130  1.00  0.00     0.051 A 
ATOM     16  C   UNL     1       0.668  -0.341  11.365  1.00  0.00     0.157 A 
ATOM     17  C   UNL     1       1.054   1.433   9.765  1.00  0.00     0.062 A 
ATOM     18  C   UNL     1       1.280   0.118  10.187  1.00  0.00     0.158 A 
BRANCH  16  19
ATOM     19  O   UNL     1       0.826  -1.658  11.689  1.00  0.00    -0.504 OA
ATOM     20  H   UNL     1       0.291  -2.405  11.248  1.00  0.00     0.293 HD
ENDBRANCH  16  19
BRANCH  18  21
ATOM     21  O   UNL     1       2.123  -0.708   9.426  1.00  0.00    -0.504 OA
ATOM     22  H   UNL     1       2.279  -1.704   9.667  1.00  0.00     0.293 HD
ENDBRANCH  18  21
ENDBRANCH   3  13
BRANCH  11  23
ATOM     23  O   UNL     1       0.366   8.617   8.720  1.00  0.00    -0.507 OA
ATOM     24  H   UNL     1       1.008   8.786   9.486  1.00  0.00     0.293 HD
ENDBRANCH  11  23
ENDBRANCH   1   2
BRANCH   1  25
ATOM     25  C   UNL     1      -3.680   7.826   6.063  1.00  0.00     0.339 C 
ATOM     26  C   UNL     1      -4.926   8.583   6.575  1.00  0.00     0.214 C 
ATOM     27  O   UNL     1      -3.937   7.268   4.791  1.00  0.00    -0.332 OA
ATOM     28  C   UNL     1      -5.452   9.595   5.502  1.00  0.00     0.180 C 
ATOM     29  C   UNL     1      -4.138   8.270   3.828  1.00  0.00     0.179 C 
ATOM     30  C   UNL     1      -5.483   8.985   4.088  1.00  0.00     0.177 C 
BRANCH  26  31
ATOM     31  O   UNL     1      -5.931   7.681   6.986  1.00  0.00    -0.384 OA
ATOM     32  H   UNL     1      -6.586   8.184   7.553  1.00  0.00     0.211 HD
ENDBRANCH  26  31
BRANCH  28  33
ATOM     33  O   UNL     1      -6.754  10.020   5.848  1.00  0.00    -0.387 OA
ATOM     34  H   UNL     1      -7.332   9.273   5.687  1.00  0.00     0.211 HD
ENDBRANCH  28  33
BRANCH  29  35
ATOM     35  C   UNL     1      -4.016   7.684   2.413  1.00  0.00     0.191 C 
BRANCH  35  36
ATOM     36  O   UNL     1      -4.821   6.564   2.138  1.00  0.00    -0.394 OA
ATOM     37  H   UNL     1      -4.353   6.074   1.397  1.00  0.00     0.210 HD
ENDBRANCH  35  36
ENDBRANCH  29  35
BRANCH  30  38
ATOM     38  O   UNL     1      -6.584   8.110   3.940  1.00  0.00    -0.387 OA
ATOM     39  H   UNL     1      -6.696   7.672   4.837  1.00  0.00     0.211 HD
ENDBRANCH  30  38
ENDBRANCH   1  25
TORSDOF 11
ENDMDL
MODEL 5
REMARK VINA RESULT:    -4.466      5.208      7.330
REMARK INTER + INTRA:          -7.357
REMARK INTER:                  -6.518
REMARK INTRA:                  -0.839
REMARK UNBOUND:                -0.933
REMARK SMILES O=c1cc(-c2ccc(O)c(O)c2)oc2cc(O[C@H]3O[C@@H](CO)[C@@H](O)[C@@H](O)[C@H]3O)cc(O)c12
REMARK SMILES IDX 17 1 16 2 4 3 3 4 13 5 2 6 14 7 1 8 32 9 15 10 30 11 29 12
REMARK SMILES IDX 5 13 6 14 7 15 8 16 12 17 10 18 9 19 11 21 31 23 18 25 27 26
REMARK SMILES IDX 19 27 25 28 20 29 23 30 28 31 26 33 21 35 22 36 24 38
REMARK H PARENT 9 20 11 22 31 24 28 32 26 34 22 37 24 39
REMARK Flexibility Score: inf
ROOT
ATOM      1  O   UNL     1      -0.527  -3.088   9.928  1.00  0.00    -0.462 OA
ENDROOT
BRANCH   1   2
ATOM      2  C   UNL     1      -1.588  -3.985  10.135  1.00  0.00     0.130 A 
ATOM      3  C   UNL     1      -5.997  -3.071   8.788  1.00  0.00     0.138 A 
ATOM      4  C   UNL     1      -5.842  -3.881   7.664  1.00  0.00     0.100 A 
ATOM      5  O   UNL     1      -5.043  -3.056   9.738  1.00  0.00    -0.456 OA
ATOM      6  C   UNL     1      -4.712  -4.734   7.571  1.00  0.00     0.197 A 
ATOM      7  C   UNL     1      -3.928  -3.749   9.655  1.00  0.00     0.146 A 
ATOM      8  O   UNL     1      -4.576  -5.468   6.563  1.00  0.00    -0.289 OA
ATOM      9  C   UNL     1      -3.735  -4.688   8.602  1.00  0.00     0.107 A 
ATOM     10  C   UNL     1      -2.835  -3.434  10.490  1.00  0.00     0.094 A 
ATOM     11  C   UNL     1      -2.561  -5.497   8.610  1.00  0.00     0.134 A 
ATOM     12  C   UNL     1      -1.580  -5.272   9.591  1.00  0.00     0.093 A 
BRANCH   3  13
ATOM     13  C   UNL     1      -7.152  -2.137   8.899  1.00  0.00     0.021 A 
ATOM     14  C   UNL     1      -7.594  -1.675  10.157  1.00  0.00     0.016 A 
ATOM     15  C   UNL     1      -8.725  -0.872  10.251  1.00  0.00     0.051 A 
ATOM     16  C   UNL     1      -9.394  -0.497   9.092  1.00  0.00     0.157 A 
ATOM     17  C   UNL     1      -7.828  -1.734   7.723  1.00  0.00     0.062 A 
ATOM     18  C   UNL     1      -8.964  -0.922   7.825  1.00  0.00     0.158 A 
BRANCH  16  19
ATOM     19  O   UNL     1     -10.440   0.378   9.146  1.00  0.00    -0.504 OA
ATOM     20  H   UNL     1     -11.300   0.183   9.658  1.00  0.00     0.293 HD
ENDBRANCH  16  19
BRANCH  18  21
ATOM     21  O   UNL     1      -9.651  -0.561   6.655  1.00  0.00    -0.504 OA
ATOM     22  H   UNL     1     -10.678  -0.670   6.566  1.00  0.00     0.293 HD
ENDBRANCH  18  21
ENDBRANCH   3  13
BRANCH  11  23
ATOM     23  O   UNL     1      -2.397  -6.535   7.673  1.00  0.00    -0.507 OA
ATOM     24  H   UNL     1      -3.199  -6.934   7.199  1.00  0.00     0.293 HD
ENDBRANCH  11  23
ENDBRANCH   1   2
BRANCH   1  25
ATOM     25  C   UNL     1       0.863  -3.424   9.930  1.00  0.00     0.339 C 
ATOM     26  C   UNL     1       1.705  -2.154  10.187  1.00  0.00     0.214 C 
ATOM     27  O   UNL     1       1.184  -3.976   8.671  1.00  0.00    -0.332 OA
ATOM     28  C   UNL     1       3.229  -2.429   9.952  1.00  0.00     0.180 C 
ATOM     29  C   UNL     1       2.508  -4.442   8.642  1.00  0.00     0.179 C 
ATOM     30  C   UNL     1       3.485  -3.245   8.671  1.00  0.00     0.177 C 
BRANCH  26  31
ATOM     31  O   UNL     1       1.238  -1.075   9.406  1.00  0.00    -0.384 OA
ATOM     32  H   UNL     1       1.961  -0.381   9.372  1.00  0.00     0.211 HD
ENDBRANCH  26  31
BRANCH  28  33
ATOM     33  O   UNL     1       3.925  -1.203   9.864  1.00  0.00    -0.387 OA
ATOM     34  H   UNL     1       4.100  -1.061   8.932  1.00  0.00     0.211 HD
ENDBRANCH  28  33
BRANCH  29  35
ATOM     35  C   UNL     1       2.719  -5.380   7.444  1.00  0.00     0.191 C 
BRANCH  35  36
ATOM     36  O   UNL     1       4.002  -5.367   6.870  1.00  0.00    -0.394 OA
ATOM     37  H   UNL     1       4.408  -4.490   7.142  1.00  0.00     0.210 HD
ENDBRANCH  35  36
ENDBRANCH  29  35
BRANCH  30  38
ATOM     38  O   UNL     1       3.359  -2.431   7.521  1.00  0.00    -0.387 OA
ATOM     39  H   UNL     1       3.045  -1.540   7.861  1.00  0.00     0.211 HD
ENDBRANCH  30  38
ENDBRANCH   1  25
TORSDOF 11
ENDMDL
MODEL 6
REMARK VINA RESULT:    -4.424      3.873      7.397
REMARK INTER + INTRA:          -7.297
REMARK INTER:                  -5.980
REMARK INTRA:                  -1.316
REMARK UNBOUND:                -0.933
REMARK SMILES O=c1cc(-c2ccc(O)c(O)c2)oc2cc(O[C@H]3O[C@@H](CO)[C@@H](O)[C@@H](O)[C@H]3O)cc(O)c12
REMARK SMILES IDX 17 1 16 2 4 3 3 4 13 5 2 6 14 7 1 8 32 9 15 10 30 11 29 12
REMARK SMILES IDX 5 13 6 14 7 15 8 16 12 17 10 18 9 19 11 21 31 23 18 25 27 26
REMARK SMILES IDX 19 27 25 28 20 29 23 30 28 31 26 33 21 35 22 36 24 38
REMARK H PARENT 9 20 11 22 31 24 28 32 26 34 22 37 24 39
REMARK Flexibility Score: inf
ROOT
ATOM      1  O   UNL     1       4.502   3.276   7.711  1.00  0.00    -0.462 OA
ENDROOT
BRANCH   1   2
ATOM      2  C   UNL     1       4.053   3.058   9.024  1.00  0.00     0.130 A 
ATOM      3  C   UNL     1       2.171  -1.010  10.435  1.00  0.00     0.138 A 
ATOM      4  C   UNL     1       3.374  -1.381  11.036  1.00  0.00     0.100 A 
ATOM      5  O   UNL     1       2.019   0.240   9.958  1.00  0.00    -0.456 OA
ATOM      6  C   UNL     1       4.397  -0.412  11.200  1.00  0.00     0.197 A 
ATOM      7  C   UNL     1       2.970   1.148   9.992  1.00  0.00     0.146 A 
ATOM      8  O   UNL     1       5.476  -0.743  11.747  1.00  0.00    -0.289 OA
ATOM      9  C   UNL     1       4.187   0.897  10.686  1.00  0.00     0.107 A 
ATOM     10  C   UNL     1       2.876   2.301   9.185  1.00  0.00     0.094 A 
ATOM     11  C   UNL     1       5.147   1.947  10.793  1.00  0.00     0.134 A 
ATOM     12  C   UNL     1       4.913   3.159  10.121  1.00  0.00     0.093 A 
BRANCH   3  13
ATOM     13  C   UNL     1       1.092  -2.012  10.214  1.00  0.00     0.021 A 
ATOM     14  C   UNL     1      -0.132  -1.927  10.912  1.00  0.00     0.016 A 
ATOM     15  C   UNL     1      -1.097  -2.917  10.759  1.00  0.00     0.051 A 
ATOM     16  C   UNL     1      -0.862  -3.969   9.883  1.00  0.00     0.157 A 
ATOM     17  C   UNL     1       1.314  -3.078   9.310  1.00  0.00     0.062 A 
ATOM     18  C   UNL     1       0.337  -4.068   9.158  1.00  0.00     0.158 A 
BRANCH  16  19
ATOM     19  O   UNL     1      -1.833  -4.894   9.631  1.00  0.00    -0.504 OA
ATOM     20  H   UNL     1      -1.757  -5.589   8.888  1.00  0.00     0.293 HD
ENDBRANCH  16  19
BRANCH  18  21
ATOM     21  O   UNL     1       0.584  -5.143   8.289  1.00  0.00    -0.504 OA
ATOM     22  H   UNL     1       1.504  -5.619   8.253  1.00  0.00     0.293 HD
ENDBRANCH  18  21
ENDBRANCH   3  13
BRANCH  11  23
ATOM     23  O   UNL     1       6.297   1.791  11.589  1.00  0.00    -0.507 OA
ATOM     24  H   UNL     1       6.578   2.516  12.239  1.00  0.00     0.293 HD
ENDBRANCH  11  23
ENDBRANCH   1   2
BRANCH   1  25
ATOM     25  C   UNL     1       5.304   2.374   6.943  1.00  0.00     0.339 C 
ATOM     26  C   UNL     1       5.138   2.684   5.438  1.00  0.00     0.214 C 
ATOM     27  O   UNL     1       4.874   1.058   7.220  1.00  0.00    -0.332 OA
ATOM     28  C   UNL     1       5.799   1.571   4.556  1.00  0.00     0.180 C 
ATOM     29  C   UNL     1       5.698   0.111   6.591  1.00  0.00     0.179 C 
ATOM     30  C   UNL     1       5.474   0.154   5.063  1.00  0.00     0.177 C 
BRANCH  26  31
ATOM     31  O   UNL     1       3.780   2.878   5.110  1.00  0.00    -0.384 OA
ATOM     32  H   UNL     1       3.285   2.034   5.325  1.00  0.00     0.211 HD
ENDBRANCH  26  31
BRANCH  28  33
ATOM     33  O   UNL     1       5.353   1.696   3.221  1.00  0.00    -0.387 OA
ATOM     34  H   UNL     1       4.840   2.505   3.185  1.00  0.00     0.211 HD
ENDBRANCH  28  33
BRANCH  29  35
ATOM     35  C   UNL     1       5.479  -1.280   7.207  1.00  0.00     0.191 C 
BRANCH  35  36
ATOM     36  O   UNL     1       4.141  -1.691   7.341  1.00  0.00    -0.394 OA
ATOM     37  H   UNL     1       4.022  -1.898   8.316  1.00  0.00     0.210 HD
ENDBRANCH  35  36
ENDBRANCH  29  35
BRANCH  30  38
ATOM     38  O   UNL     1       4.155  -0.218   4.711  1.00  0.00    -0.387 OA
ATOM     39  H   UNL     1       3.695   0.641   4.466  1.00  0.00     0.211 HD
ENDBRANCH  30  38
ENDBRANCH   1  25
TORSDOF 11
ENDMDL
MODEL 7
REMARK VINA RESULT:    -4.368      2.430      3.823
REMARK INTER + INTRA:          -7.216
REMARK INTER:                  -6.253
REMARK INTRA:                  -0.963
REMARK UNBOUND:                -0.933
REMARK SMILES O=c1cc(-c2ccc(O)c(O)c2)oc2cc(O[C@H]3O[C@@H](CO)[C@@H](O)[C@@H](O)[C@H]3O)cc(O)c12
REMARK SMILES IDX 17 1 16 2 4 3 3 4 13 5 2 6 14 7 1 8 32 9 15 10 30 11 29 12
REMARK SMILES IDX 5 13 6 14 7 15 8 16 12 17 10 18 9 19 11 21 31 23 18 25 27 26
REMARK SMILES IDX 19 27 25 28 20 29 23 30 28 31 26 33 21 35 22 36 24 38
REMARK H PARENT 9 20 11 22 31 24 28 32 26 34 22 37 24 39
REMARK Flexibility Score: inf
ROOT
ATOM      1  O   UNL     1       2.155   1.248   9.660  1.00  0.00    -0.462 OA
ENDROOT
BRANCH   1   2
ATOM      2  C   UNL     1       1.805   2.290  10.536  1.00  0.00     0.130 A 
ATOM      3  C   UNL     1      -1.306   5.628   9.410  1.00  0.00     0.138 A 
ATOM      4  C   UNL     1      -2.294   4.986  10.157  1.00  0.00     0.100 A 
ATOM      5  O   UNL     1      -0.031   5.201   9.481  1.00  0.00    -0.456 OA
ATOM      6  C   UNL     1      -1.928   3.934  11.036  1.00  0.00     0.197 A 
ATOM      7  C   UNL     1       0.347   4.166  10.201  1.00  0.00     0.146 A 
ATOM      8  O   UNL     1      -2.816   3.362  11.713  1.00  0.00    -0.289 OA
ATOM      9  C   UNL     1      -0.568   3.523  11.081  1.00  0.00     0.107 A 
ATOM     10  C   UNL     1       1.602   3.564   9.970  1.00  0.00     0.094 A 
ATOM     11  C   UNL     1      -0.091   2.477  11.925  1.00  0.00     0.134 A 
ATOM     12  C   UNL     1       1.238   2.040  11.788  1.00  0.00     0.093 A 
BRANCH   3  13
ATOM     13  C   UNL     1      -1.661   6.710   8.451  1.00  0.00     0.021 A 
ATOM     14  C   UNL     1      -0.808   7.818   8.258  1.00  0.00     0.016 A 
ATOM     15  C   UNL     1      -1.194   8.861   7.423  1.00  0.00     0.051 A 
ATOM     16  C   UNL     1      -2.406   8.785   6.749  1.00  0.00     0.157 A 
ATOM     17  C   UNL     1      -2.886   6.632   7.746  1.00  0.00     0.062 A 
ATOM     18  C   UNL     1      -3.265   7.684   6.904  1.00  0.00     0.158 A 
BRANCH  16  19
ATOM     19  O   UNL     1      -2.759   9.740   5.841  1.00  0.00    -0.504 OA
ATOM     20  H   UNL     1      -3.680  10.177   5.826  1.00  0.00     0.293 HD
ENDBRANCH  16  19
BRANCH  18  21
ATOM     21  O   UNL     1      -4.500   7.616   6.240  1.00  0.00    -0.504 OA
ATOM     22  H   UNL     1      -5.325   8.154   6.562  1.00  0.00     0.293 HD
ENDBRANCH  18  21
ENDBRANCH   3  13
BRANCH  11  23
ATOM     23  O   UNL     1      -0.922   1.912  12.909  1.00  0.00    -0.507 OA
ATOM     24  H   UNL     1      -0.798   0.948  13.201  1.00  0.00     0.293 HD
ENDBRANCH  11  23
ENDBRANCH   1   2
BRANCH   1  25
ATOM     25  C   UNL     1       3.440   0.625   9.575  1.00  0.00     0.339 C 
ATOM     26  C   UNL     1       4.363   1.462   8.660  1.00  0.00     0.214 C 
ATOM     27  O   UNL     1       3.266  -0.669   9.040  1.00  0.00    -0.332 OA
ATOM     28  C   UNL     1       5.689   0.692   8.341  1.00  0.00     0.180 C 
ATOM     29  C   UNL     1       4.474  -1.385   9.040  1.00  0.00     0.179 C 
ATOM     30  C   UNL     1       5.438  -0.786   7.992  1.00  0.00     0.177 C 
BRANCH  26  31
ATOM     31  O   UNL     1       3.686   1.854   7.485  1.00  0.00    -0.384 OA
ATOM     32  H   UNL     1       4.371   2.015   6.772  1.00  0.00     0.211 HD
ENDBRANCH  26  31
BRANCH  28  33
ATOM     33  O   UNL     1       6.351   1.315   7.259  1.00  0.00    -0.387 OA
ATOM     34  H   UNL     1       7.287   1.283   7.463  1.00  0.00     0.211 HD
ENDBRANCH  28  33
BRANCH  29  35
ATOM     35  C   UNL     1       4.205  -2.886   8.843  1.00  0.00     0.191 C 
BRANCH  35  36
ATOM     36  O   UNL     1       3.396  -3.228   7.745  1.00  0.00    -0.394 OA
ATOM     37  H   UNL     1       2.452  -3.171   8.081  1.00  0.00     0.210 HD
ENDBRANCH  35  36
ENDBRANCH  29  35
BRANCH  30  38
ATOM     38  O   UNL     1       4.936  -0.916   6.676  1.00  0.00    -0.387 OA
ATOM     39  H   UNL     1       5.256  -1.814   6.359  1.00  0.00     0.211 HD
ENDBRANCH  30  38
ENDBRANCH   1  25
TORSDOF 11
ENDMDL
MODEL 8
REMARK VINA RESULT:    -4.367      1.416      2.172
REMARK INTER + INTRA:          -7.214
REMARK INTER:                  -6.311
REMARK INTRA:                  -0.902
REMARK UNBOUND:                -0.933
REMARK SMILES O=c1cc(-c2ccc(O)c(O)c2)oc2cc(O[C@H]3O[C@@H](CO)[C@@H](O)[C@@H](O)[C@H]3O)cc(O)c12
REMARK SMILES IDX 17 1 16 2 4 3 3 4 13 5 2 6 14 7 1 8 32 9 15 10 30 11 29 12
REMARK SMILES IDX 5 13 6 14 7 15 8 16 12 17 10 18 9 19 11 21 31 23 18 25 27 26
REMARK SMILES IDX 19 27 25 28 20 29 23 30 28 31 26 33 21 35 22 36 24 38
REMARK H PARENT 9 20 11 22 31 24 28 32 26 34 22 37 24 39
REMARK Flexibility Score: inf
ROOT
ATOM      1  O   UNL     1       1.219  -0.016   9.864  1.00  0.00    -0.462 OA
ENDROOT
BRANCH   1   2
ATOM      2  C   UNL     1       1.197   1.082  10.740  1.00  0.00     0.130 A 
ATOM      3  C   UNL     1      -1.266   4.988   9.870  1.00  0.00     0.138 A 
ATOM      4  C   UNL     1      -2.271   4.573  10.744  1.00  0.00     0.100 A 
ATOM      5  O   UNL     1      -0.108   4.305   9.810  1.00  0.00    -0.456 OA
ATOM      6  C   UNL     1      -2.031   3.474  11.608  1.00  0.00     0.197 A 
ATOM      7  C   UNL     1       0.129   3.219  10.514  1.00  0.00     0.146 A 
ATOM      8  O   UNL     1      -2.931   3.104  12.399  1.00  0.00    -0.289 OA
ATOM      9  C   UNL     1      -0.789   2.788  11.512  1.00  0.00     0.107 A 
ATOM     10  C   UNL     1       1.196   2.367  10.161  1.00  0.00     0.094 A 
ATOM     11  C   UNL     1      -0.443   1.671  12.329  1.00  0.00     0.134 A 
ATOM     12  C   UNL     1       0.741   0.965  12.056  1.00  0.00     0.093 A 
BRANCH   3  13
ATOM     13  C   UNL     1      -1.501   6.114   8.924  1.00  0.00     0.021 A 
ATOM     14  C   UNL     1      -0.561   7.160   8.792  1.00  0.00     0.016 A 
ATOM     15  C   UNL     1      -0.833   8.246   7.968  1.00  0.00     0.051 A 
ATOM     16  C   UNL     1      -2.018   8.274   7.245  1.00  0.00     0.157 A 
ATOM     17  C   UNL     1      -2.697   6.143   8.169  1.00  0.00     0.062 A 
ATOM     18  C   UNL     1      -2.962   7.238   7.338  1.00  0.00     0.158 A 
BRANCH  16  19
ATOM     19  O   UNL     1      -2.261   9.273   6.346  1.00  0.00    -0.504 OA
ATOM     20  H   UNL     1      -1.951  10.234   6.489  1.00  0.00     0.293 HD
ENDBRANCH  16  19
BRANCH  18  21
ATOM     21  O   UNL     1      -4.170   7.276   6.624  1.00  0.00    -0.504 OA
ATOM     22  H   UNL     1      -4.198   7.218   5.590  1.00  0.00     0.293 HD
ENDBRANCH  18  21
ENDBRANCH   3  13
BRANCH  11  23
ATOM     23  O   UNL     1      -1.252   1.299  13.418  1.00  0.00    -0.507 OA
ATOM     24  H   UNL     1      -1.809   0.452  13.384  1.00  0.00     0.293 HD
ENDBRANCH  11  23
ENDBRANCH   1   2
BRANCH   1  25
ATOM     25  C   UNL     1       1.840  -1.278  10.122  1.00  0.00     0.339 C 
ATOM     26  C   UNL     1       3.364  -1.163   9.891  1.00  0.00     0.214 C 
ATOM     27  O   UNL     1       1.284  -2.230   9.242  1.00  0.00    -0.332 OA
ATOM     28  C   UNL     1       4.047  -2.572   9.920  1.00  0.00     0.180 C 
ATOM     29  C   UNL     1       1.762  -3.521   9.520  1.00  0.00     0.179 C 
ATOM     30  C   UNL     1       3.252  -3.624   9.125  1.00  0.00     0.177 C 
BRANCH  26  31
ATOM     31  O   UNL     1       3.641  -0.469   8.694  1.00  0.00    -0.384 OA
ATOM     32  H   UNL     1       2.989  -0.777   7.999  1.00  0.00     0.211 HD
ENDBRANCH  26  31
BRANCH  28  33
ATOM     33  O   UNL     1       5.351  -2.479   9.385  1.00  0.00    -0.387 OA
ATOM     34  H   UNL     1       5.869  -3.156   9.823  1.00  0.00     0.211 HD
ENDBRANCH  28  33
BRANCH  29  35
ATOM     35  C   UNL     1       0.871  -4.578   8.847  1.00  0.00     0.191 C 
BRANCH  35  36
ATOM     36  O   UNL     1       1.453  -5.283   7.778  1.00  0.00    -0.394 OA
ATOM     37  H   UNL     1       1.250  -6.250   7.955  1.00  0.00     0.210 HD
ENDBRANCH  35  36
ENDBRANCH  29  35
BRANCH  30  38
ATOM     38  O   UNL     1       3.443  -3.457   7.734  1.00  0.00    -0.387 OA
ATOM     39  H   UNL     1       3.905  -2.570   7.636  1.00  0.00     0.211 HD
ENDBRANCH  30  38
ENDBRANCH   1  25
TORSDOF 11
ENDMDL
MODEL 9
REMARK VINA RESULT:    -4.345      5.802     11.453
REMARK INTER + INTRA:          -7.183
REMARK INTER:                  -5.980
REMARK INTRA:                  -1.202
REMARK UNBOUND:                -0.933
REMARK SMILES O=c1cc(-c2ccc(O)c(O)c2)oc2cc(O[C@H]3O[C@@H](CO)[C@@H](O)[C@@H](O)[C@H]3O)cc(O)c12
REMARK SMILES IDX 17 1 16 2 4 3 3 4 13 5 2 6 14 7 1 8 32 9 15 10 30 11 29 12
REMARK SMILES IDX 5 13 6 14 7 15 8 16 12 17 10 18 9 19 11 21 31 23 18 25 27 26
REMARK SMILES IDX 19 27 25 28 20 29 23 30 28 31 26 33 21 35 22 36 24 38
REMARK H PARENT 9 20 11 22 31 24 28 32 26 34 22 37 24 39
REMARK Flexibility Score: inf
ROOT
ATOM      1  O   UNL     1      -5.314   8.585   4.042  1.00  0.00    -0.462 OA
ENDROOT
BRANCH   1   2
ATOM      2  C   UNL     1      -5.025   9.106   5.315  1.00  0.00     0.130 A 
ATOM      3  C   UNL     1      -1.624   7.384   8.063  1.00  0.00     0.138 A 
ATOM      4  C   UNL     1      -0.776   8.430   7.702  1.00  0.00     0.100 A 
ATOM      5  O   UNL     1      -2.918   7.415   7.693  1.00  0.00    -0.456 OA
ATOM      6  C   UNL     1      -1.305   9.548   7.007  1.00  0.00     0.197 A 
ATOM      7  C   UNL     1      -3.439   8.376   6.961  1.00  0.00     0.146 A 
ATOM      8  O   UNL     1      -0.544  10.492   6.687  1.00  0.00    -0.289 OA
ATOM      9  C   UNL     1      -2.680   9.537   6.643  1.00  0.00     0.107 A 
ATOM     10  C   UNL     1      -4.684   8.185   6.325  1.00  0.00     0.094 A 
ATOM     11  C   UNL     1      -3.316  10.604   5.942  1.00  0.00     0.134 A 
ATOM     12  C   UNL     1      -4.637  10.437   5.493  1.00  0.00     0.093 A 
BRANCH   3  13
ATOM     13  C   UNL     1      -1.092   6.180   8.760  1.00  0.00     0.021 A 
ATOM     14  C   UNL     1      -1.897   5.035   8.948  1.00  0.00     0.016 A 
ATOM     15  C   UNL     1      -1.414   3.952   9.673  1.00  0.00     0.051 A 
ATOM     16  C   UNL     1      -0.121   3.990  10.178  1.00  0.00     0.157 A 
ATOM     17  C   UNL     1       0.231   6.202   9.261  1.00  0.00     0.062 A 
ATOM     18  C   UNL     1       0.711   5.106   9.987  1.00  0.00     0.158 A 
BRANCH  16  19
ATOM     19  O   UNL     1       0.416   2.899  10.799  1.00  0.00    -0.504 OA
ATOM     20  H   UNL     1       0.154   1.942  10.562  1.00  0.00     0.293 HD
ENDBRANCH  16  19
BRANCH  18  21
ATOM     21  O   UNL     1       2.011   5.153  10.515  1.00  0.00    -0.504 OA
ATOM     22  H   UNL     1       2.394   4.388  11.099  1.00  0.00     0.293 HD
ENDBRANCH  18  21
ENDBRANCH   3  13
BRANCH  11  23
ATOM     23  O   UNL     1      -2.648  11.825   5.733  1.00  0.00    -0.507 OA
ATOM     24  H   UNL     1      -2.335  12.385   6.519  1.00  0.00     0.293 HD
ENDBRANCH  11  23
ENDBRANCH   1   2
BRANCH   1  25
ATOM     25  C   UNL     1      -4.349   8.149   3.080  1.00  0.00     0.339 C 
ATOM     26  C   UNL     1      -4.618   8.844   1.726  1.00  0.00     0.214 C 
ATOM     27  O   UNL     1      -4.466   6.750   2.942  1.00  0.00    -0.332 OA
ATOM     28  C   UNL     1      -3.747   8.214   0.586  1.00  0.00     0.180 C 
ATOM     29  C   UNL     1      -3.467   6.236   2.100  1.00  0.00     0.179 C 
ATOM     30  C   UNL     1      -3.733   6.675   0.643  1.00  0.00     0.177 C 
BRANCH  26  31
ATOM     31  O   UNL     1      -5.993   8.819   1.411  1.00  0.00    -0.384 OA
ATOM     32  H   UNL     1      -6.283   9.758   1.214  1.00  0.00     0.211 HD
ENDBRANCH  26  31
BRANCH  28  33
ATOM     33  O   UNL     1      -4.242   8.624  -0.672  1.00  0.00    -0.387 OA
ATOM     34  H   UNL     1      -5.155   8.336  -0.707  1.00  0.00     0.211 HD
ENDBRANCH  28  33
BRANCH  29  35
ATOM     35  C   UNL     1      -3.353   4.713   2.273  1.00  0.00     0.191 C 
BRANCH  35  36
ATOM     36  O   UNL     1      -4.564   4.019   2.439  1.00  0.00    -0.394 OA
ATOM     37  H   UNL     1      -5.285   4.707   2.311  1.00  0.00     0.210 HD
ENDBRANCH  35  36
ENDBRANCH  29  35
BRANCH  30  38
ATOM     38  O   UNL     1      -4.943   6.141   0.142  1.00  0.00    -0.387 OA
ATOM     39  H   UNL     1      -4.669   5.501  -0.583  1.00  0.00     0.211 HD
ENDBRANCH  30  38
ENDBRANCH   1  25
TORSDOF 11
ENDMDL
