MODEL 1
REMARK VINA RESULT:    -3.998      0.000      0.000
REMARK INTER + INTRA:          -7.813
REMARK INTER:                  -6.803
REMARK INTRA:                  -1.010
REMARK UNBOUND:                -1.010
REMARK SMILES CCCCCCCCCCCCCC(=O)[O-]
REMARK SMILES IDX 8 1 9 2 10 3 11 4 12 5 13 6 14 7 15 8 16 9 7 10 6 11 5 12
REMARK SMILES IDX 4 13 3 14 2 15 1 16
REMARK H PARENT
REMARK Flexibility Score: inf
ROOT
ATOM      1  C   UNL     1      -7.612  -8.844  -0.224  1.00  0.00     0.000 C 
ENDROOT
BRANCH   1   2
ATOM      2  C   UNL     1      -6.765  -7.561  -0.309  1.00  0.00     0.000 C 
BRANCH   2   3
ATOM      3  C   UNL     1      -7.222  -6.486   0.689  1.00  0.00     0.000 C 
BRANCH   3   4
ATOM      4  C   UNL     1      -7.689  -7.082   2.029  1.00  0.00     0.000 C 
BRANCH   4   5
ATOM      5  C   UNL     1      -8.193  -6.008   3.012  1.00  0.00     0.006 C 
BRANCH   5   6
ATOM      6  C   UNL     1      -8.374  -4.616   2.386  1.00  0.00     0.053 C 
BRANCH   6   7
ATOM      7  C   UNL     1      -9.807  -4.184   2.385  1.00  0.00     0.041 C 
ATOM      8  O   UNL     1     -10.713  -4.990   2.045  1.00  0.00    -0.550 OA
ATOM      9  O   UNL     1     -10.139  -2.879   2.726  1.00  0.00    -0.550 OA
ENDBRANCH   6   7
ENDBRANCH   5   6
ENDBRANCH   4   5
ENDBRANCH   3   4
ENDBRANCH   2   3
ENDBRANCH   1   2
BRANCH   1  10
ATOM     10  C   UNL     1      -6.757 -10.120  -0.287  1.00  0.00     0.000 C 
BRANCH  10  11
ATOM     11  C   UNL     1      -5.714 -10.186   0.843  1.00  0.00    -0.000 C 
BRANCH  11  12
ATOM     12  C   UNL     1      -6.305 -10.684   2.175  1.00  0.00    -0.000 C 
BRANCH  12  13
ATOM     13  C   UNL     1      -6.426 -12.213   2.300  1.00  0.00    -0.000 C 
BRANCH  13  14
ATOM     14  C   UNL     1      -5.348 -12.967   1.503  1.00  0.00    -0.000 C 
BRANCH  14  15
ATOM     15  C   UNL     1      -5.941 -13.818   0.370  1.00  0.00    -0.003 C 
ATOM     16  C   UNL     1      -6.723 -15.025   0.887  1.00  0.00     0.004 C 
ENDBRANCH  14  15
ENDBRANCH  13  14
ENDBRANCH  12  13
ENDBRANCH  11  12
ENDBRANCH  10  11
ENDBRANCH   1  10
TORSDOF 12
ENDMDL
MODEL 2
REMARK VINA RESULT:    -3.987     20.281     21.705
REMARK INTER + INTRA:          -7.794
REMARK INTER:                  -5.962
REMARK INTRA:                  -1.832
REMARK UNBOUND:                -1.010
REMARK SMILES CCCCCCCCCCCCCC(=O)[O-]
REMARK SMILES IDX 8 1 9 2 10 3 11 4 12 5 13 6 14 7 15 8 16 9 7 10 6 11 5 12
REMARK SMILES IDX 4 13 3 14 2 15 1 16
REMARK H PARENT
REMARK Flexibility Score: inf
ROOT
ATOM      1  C   UNL     1     -23.824  -5.375 -15.543  1.00  0.00     0.000 C 
ENDROOT
BRANCH   1   2
ATOM      2  C   UNL     1     -23.817  -4.174 -14.580  1.00  0.00     0.000 C 
BRANCH   2   3
ATOM      3  C   UNL     1     -23.243  -4.530 -13.200  1.00  0.00     0.000 C 
BRANCH   3   4
ATOM      4  C   UNL     1     -22.058  -3.633 -12.801  1.00  0.00     0.000 C 
BRANCH   4   5
ATOM      5  C   UNL     1     -21.401  -2.945 -14.012  1.00  0.00     0.006 C 
BRANCH   5   6
ATOM      6  C   UNL     1     -20.124  -3.637 -14.513  1.00  0.00     0.053 C 
BRANCH   6   7
ATOM      7  C   UNL     1     -19.558  -2.961 -15.724  1.00  0.00     0.041 C 
ATOM      8  O   UNL     1     -19.398  -3.606 -16.793  1.00  0.00    -0.550 OA
ATOM      9  O   UNL     1     -19.174  -1.628 -15.659  1.00  0.00    -0.550 OA
ENDBRANCH   6   7
ENDBRANCH   5   6
ENDBRANCH   4   5
ENDBRANCH   3   4
ENDBRANCH   2   3
ENDBRANCH   1   2
BRANCH   1  10
ATOM     10  C   UNL     1     -22.760  -5.253 -16.646  1.00  0.00     0.000 C 
BRANCH  10  11
ATOM     11  C   UNL     1     -21.682  -6.347 -16.547  1.00  0.00    -0.000 C 
BRANCH  11  12
ATOM     12  C   UNL     1     -21.716  -7.101 -15.205  1.00  0.00    -0.000 C 
BRANCH  12  13
ATOM     13  C   UNL     1     -20.363  -7.193 -14.477  1.00  0.00    -0.000 C 
BRANCH  13  14
ATOM     14  C   UNL     1     -20.491  -7.033 -12.952  1.00  0.00    -0.000 C 
BRANCH  14  15
ATOM     15  C   UNL     1     -20.684  -8.377 -12.233  1.00  0.00    -0.003 C 
ATOM     16  C   UNL     1     -20.099  -9.552 -13.015  1.00  0.00     0.004 C 
ENDBRANCH  14  15
ENDBRANCH  13  14
ENDBRANCH  12  13
ENDBRANCH  11  12
ENDBRANCH  10  11
ENDBRANCH   1  10
TORSDOF 12
ENDMDL
MODEL 3
REMARK VINA RESULT:    -3.959     20.041     21.481
REMARK INTER + INTRA:          -7.748
REMARK INTER:                  -5.869
REMARK INTRA:                  -1.879
REMARK UNBOUND:                -1.010
REMARK SMILES CCCCCCCCCCCCCC(=O)[O-]
REMARK SMILES IDX 8 1 9 2 10 3 11 4 12 5 13 6 14 7 15 8 16 9 7 10 6 11 5 12
REMARK SMILES IDX 4 13 3 14 2 15 1 16
REMARK H PARENT
REMARK Flexibility Score: inf
ROOT
ATOM      1  C   UNL     1     -21.061  -5.474 -16.800  1.00  0.00     0.000 C 
ENDROOT
BRANCH   1   2
ATOM      2  C   UNL     1     -22.600  -5.467 -16.837  1.00  0.00     0.000 C 
BRANCH   2   3
ATOM      3  C   UNL     1     -23.223  -5.892 -15.498  1.00  0.00     0.000 C 
BRANCH   3   4
ATOM      4  C   UNL     1     -24.183  -4.834 -14.927  1.00  0.00     0.000 C 
BRANCH   4   5
ATOM      5  C   UNL     1     -23.444  -3.621 -14.333  1.00  0.00     0.006 C 
BRANCH   5   6
ATOM      6  C   UNL     1     -23.147  -3.739 -12.830  1.00  0.00     0.053 C 
BRANCH   6   7
ATOM      7  C   UNL     1     -22.298  -2.608 -12.336  1.00  0.00     0.041 C 
ATOM      8  O   UNL     1     -21.993  -2.530 -11.117  1.00  0.00    -0.550 OA
ATOM      9  O   UNL     1     -21.874  -1.621 -13.217  1.00  0.00    -0.550 OA
ENDBRANCH   6   7
ENDBRANCH   5   6
ENDBRANCH   4   5
ENDBRANCH   3   4
ENDBRANCH   2   3
ENDBRANCH   1   2
BRANCH   1  10
ATOM     10  C   UNL     1     -20.474  -4.093 -16.464  1.00  0.00     0.000 C 
BRANCH  10  11
ATOM     11  C   UNL     1     -19.844  -4.048 -15.060  1.00  0.00    -0.000 C 
BRANCH  11  12
ATOM     12  C   UNL     1     -19.643  -5.446 -14.449  1.00  0.00    -0.000 C 
BRANCH  12  13
ATOM     13  C   UNL     1     -20.188  -5.615 -13.019  1.00  0.00    -0.000 C 
BRANCH  13  14
ATOM     14  C   UNL     1     -20.831  -6.993 -12.781  1.00  0.00    -0.000 C 
BRANCH  14  15
ATOM     15  C   UNL     1     -20.190  -8.097 -13.637  1.00  0.00    -0.003 C 
ATOM     16  C   UNL     1     -20.153  -9.448 -12.923  1.00  0.00     0.004 C 
ENDBRANCH  14  15
ENDBRANCH  13  14
ENDBRANCH  12  13
ENDBRANCH  11  12
ENDBRANCH  10  11
ENDBRANCH   1  10
TORSDOF 12
ENDMDL
MODEL 4
REMARK VINA RESULT:    -3.902      4.001      7.523
REMARK INTER + INTRA:          -7.649
REMARK INTER:                  -6.691
REMARK INTRA:                  -0.959
REMARK UNBOUND:                -1.010
REMARK SMILES CCCCCCCCCCCCCC(=O)[O-]
REMARK SMILES IDX 8 1 9 2 10 3 11 4 12 5 13 6 14 7 15 8 16 9 7 10 6 11 5 12
REMARK SMILES IDX 4 13 3 14 2 15 1 16
REMARK H PARENT
REMARK Flexibility Score: inf
ROOT
ATOM      1  C   UNL     1      -7.709  -9.156  -0.303  1.00  0.00     0.000 C 
ENDROOT
BRANCH   1   2
ATOM      2  C   UNL     1      -6.665 -10.286  -0.350  1.00  0.00     0.000 C 
BRANCH   2   3
ATOM      3  C   UNL     1      -5.680 -10.226   0.828  1.00  0.00     0.000 C 
BRANCH   3   4
ATOM      4  C   UNL     1      -6.388 -10.206   2.194  1.00  0.00     0.000 C 
BRANCH   4   5
ATOM      5  C   UNL     1      -6.555 -11.613   2.796  1.00  0.00     0.006 C 
BRANCH   5   6
ATOM      6  C   UNL     1      -5.520 -12.637   2.303  1.00  0.00     0.053 C 
BRANCH   6   7
ATOM      7  C   UNL     1      -6.167 -13.813   1.639  1.00  0.00     0.041 C 
ATOM      8  O   UNL     1      -6.636 -14.754   2.333  1.00  0.00    -0.550 OA
ATOM      9  O   UNL     1      -6.219 -13.887   0.253  1.00  0.00    -0.550 OA
ENDBRANCH   6   7
ENDBRANCH   5   6
ENDBRANCH   4   5
ENDBRANCH   3   4
ENDBRANCH   2   3
ENDBRANCH   1   2
BRANCH   1  10
ATOM     10  C   UNL     1      -7.073  -7.762  -0.426  1.00  0.00     0.000 C 
BRANCH  10  11
ATOM     11  C   UNL     1      -7.765  -6.718   0.470  1.00  0.00    -0.000 C 
BRANCH  11  12
ATOM     12  C   UNL     1      -6.803  -6.060   1.475  1.00  0.00    -0.000 C 
BRANCH  12  13
ATOM     13  C   UNL     1      -7.473  -5.487   2.736  1.00  0.00    -0.000 C 
BRANCH  13  14
ATOM     14  C   UNL     1      -9.007  -5.597   2.703  1.00  0.00    -0.000 C 
BRANCH  14  15
ATOM     15  C   UNL     1      -9.686  -4.263   2.356  1.00  0.00    -0.003 C 
ATOM     16  C   UNL     1     -11.157  -4.430   1.977  1.00  0.00     0.004 C 
ENDBRANCH  14  15
ENDBRANCH  13  14
ENDBRANCH  12  13
ENDBRANCH  11  12
ENDBRANCH  10  11
ENDBRANCH   1  10
TORSDOF 12
ENDMDL
MODEL 5
REMARK VINA RESULT:    -3.802      4.086      7.474
REMARK INTER + INTRA:          -7.480
REMARK INTER:                  -6.259
REMARK INTRA:                  -1.222
REMARK UNBOUND:                -1.010
REMARK SMILES CCCCCCCCCCCCCC(=O)[O-]
REMARK SMILES IDX 8 1 9 2 10 3 11 4 12 5 13 6 14 7 15 8 16 9 7 10 6 11 5 12
REMARK SMILES IDX 4 13 3 14 2 15 1 16
REMARK H PARENT
REMARK Flexibility Score: inf
ROOT
ATOM      1  C   UNL     1      -7.651  -9.202  -0.458  1.00  0.00     0.000 C 
ENDROOT
BRANCH   1   2
ATOM      2  C   UNL     1      -6.688 -10.390  -0.281  1.00  0.00     0.000 C 
BRANCH   2   3
ATOM      3  C   UNL     1      -5.717 -10.190   0.893  1.00  0.00     0.000 C 
BRANCH   3   4
ATOM      4  C   UNL     1      -6.354 -10.526   2.253  1.00  0.00     0.000 C 
BRANCH   4   5
ATOM      5  C   UNL     1      -5.797 -11.825   2.864  1.00  0.00     0.006 C 
BRANCH   5   6
ATOM      6  C   UNL     1      -6.779 -13.007   2.833  1.00  0.00     0.053 C 
BRANCH   6   7
ATOM      7  C   UNL     1      -6.352 -14.067   1.864  1.00  0.00     0.041 C 
ATOM      8  O   UNL     1      -6.185 -13.783   0.649  1.00  0.00    -0.550 OA
ATOM      9  O   UNL     1      -6.174 -15.374   2.298  1.00  0.00    -0.550 OA
ENDBRANCH   6   7
ENDBRANCH   5   6
ENDBRANCH   4   5
ENDBRANCH   3   4
ENDBRANCH   2   3
ENDBRANCH   1   2
BRANCH   1  10
ATOM     10  C   UNL     1      -6.940  -7.844  -0.339  1.00  0.00     0.000 C 
BRANCH  10  11
ATOM     11  C   UNL     1      -7.727  -6.841   0.524  1.00  0.00    -0.000 C 
BRANCH  11  12
ATOM     12  C   UNL     1      -7.262  -6.820   1.992  1.00  0.00    -0.000 C 
BRANCH  12  13
ATOM     13  C   UNL     1      -6.275  -5.692   2.344  1.00  0.00    -0.000 C 
BRANCH  13  14
ATOM     14  C   UNL     1      -6.422  -4.461   1.433  1.00  0.00    -0.000 C 
BRANCH  14  15
ATOM     15  C   UNL     1      -5.112  -4.103   0.713  1.00  0.00    -0.003 C 
ATOM     16  C   UNL     1      -5.070  -4.619  -0.725  1.00  0.00     0.004 C 
ENDBRANCH  14  15
ENDBRANCH  13  14
ENDBRANCH  12  13
ENDBRANCH  11  12
ENDBRANCH  10  11
ENDBRANCH   1  10
TORSDOF 12
ENDMDL
MODEL 6
REMARK VINA RESULT:    -3.775      2.774      4.771
REMARK INTER + INTRA:          -7.433
REMARK INTER:                  -6.900
REMARK INTRA:                  -0.533
REMARK UNBOUND:                -1.010
REMARK SMILES CCCCCCCCCCCCCC(=O)[O-]
REMARK SMILES IDX 8 1 9 2 10 3 11 4 12 5 13 6 14 7 15 8 16 9 7 10 6 11 5 12
REMARK SMILES IDX 4 13 3 14 2 15 1 16
REMARK H PARENT
REMARK Flexibility Score: inf
ROOT
ATOM      1  C   UNL     1      -4.895 -12.571  -0.359  1.00  0.00     0.000 C 
ENDROOT
BRANCH   1   2
ATOM      2  C   UNL     1      -5.018 -11.255   0.431  1.00  0.00     0.000 C 
BRANCH   2   3
ATOM      3  C   UNL     1      -6.471 -10.766   0.536  1.00  0.00     0.000 C 
BRANCH   3   4
ATOM      4  C   UNL     1      -6.865  -9.823  -0.615  1.00  0.00     0.000 C 
BRANCH   4   5
ATOM      5  C   UNL     1      -7.602  -8.564  -0.124  1.00  0.00     0.006 C 
BRANCH   5   6
ATOM      6  C   UNL     1      -6.784  -7.268  -0.245  1.00  0.00     0.053 C 
BRANCH   6   7
ATOM      7  C   UNL     1      -6.342  -6.756   1.092  1.00  0.00     0.041 C 
ATOM      8  O   UNL     1      -6.003  -5.552   1.228  1.00  0.00    -0.550 OA
ATOM      9  O   UNL     1      -6.272  -7.620   2.178  1.00  0.00    -0.550 OA
ENDBRANCH   6   7
ENDBRANCH   5   6
ENDBRANCH   4   5
ENDBRANCH   3   4
ENDBRANCH   2   3
ENDBRANCH   1   2
BRANCH   1  10
ATOM     10  C   UNL     1      -5.002 -13.812   0.542  1.00  0.00     0.000 C 
BRANCH  10  11
ATOM     11  C   UNL     1      -6.375 -14.498   0.438  1.00  0.00    -0.000 C 
BRANCH  11  12
ATOM     12  C   UNL     1      -6.471 -15.777   1.289  1.00  0.00    -0.000 C 
BRANCH  12  13
ATOM     13  C   UNL     1      -5.650 -16.969   0.766  1.00  0.00    -0.000 C 
BRANCH  13  14
ATOM     14  C   UNL     1      -6.380 -18.315   0.920  1.00  0.00    -0.000 C 
BRANCH  14  15
ATOM     15  C   UNL     1      -6.252 -19.201  -0.328  1.00  0.00    -0.003 C 
ATOM     16  C   UNL     1      -7.442 -20.143  -0.507  1.00  0.00     0.004 C 
ENDBRANCH  14  15
ENDBRANCH  13  14
ENDBRANCH  12  13
ENDBRANCH  11  12
ENDBRANCH  10  11
ENDBRANCH   1  10
TORSDOF 12
ENDMDL
MODEL 7
REMARK VINA RESULT:    -3.725     20.117     21.527
REMARK INTER + INTRA:          -7.349
REMARK INTER:                  -5.784
REMARK INTRA:                  -1.565
REMARK UNBOUND:                -1.010
REMARK SMILES CCCCCCCCCCCCCC(=O)[O-]
REMARK SMILES IDX 8 1 9 2 10 3 11 4 12 5 13 6 14 7 15 8 16 9 7 10 6 11 5 12
REMARK SMILES IDX 4 13 3 14 2 15 1 16
REMARK H PARENT
REMARK Flexibility Score: inf
ROOT
ATOM      1  C   UNL     1     -19.739  -3.959 -16.278  1.00  0.00     0.000 C 
ENDROOT
BRANCH   1   2
ATOM      2  C   UNL     1     -19.974  -2.714 -15.403  1.00  0.00     0.000 C 
BRANCH   2   3
ATOM      3  C   UNL     1     -21.264  -2.814 -14.573  1.00  0.00     0.000 C 
BRANCH   3   4
ATOM      4  C   UNL     1     -21.049  -3.529 -13.227  1.00  0.00     0.000 C 
BRANCH   4   5
ATOM      5  C   UNL     1     -22.324  -3.564 -12.365  1.00  0.00     0.006 C 
BRANCH   5   6
ATOM      6  C   UNL     1     -23.300  -4.694 -12.729  1.00  0.00     0.053 C 
BRANCH   6   7
ATOM      7  C   UNL     1     -24.314  -4.256 -13.740  1.00  0.00     0.041 C 
ATOM      8  O   UNL     1     -25.092  -3.299 -13.484  1.00  0.00    -0.550 OA
ATOM      9  O   UNL     1     -24.423  -4.927 -14.951  1.00  0.00    -0.550 OA
ENDBRANCH   6   7
ENDBRANCH   5   6
ENDBRANCH   4   5
ENDBRANCH   3   4
ENDBRANCH   2   3
ENDBRANCH   1   2
BRANCH   1  10
ATOM     10  C   UNL     1     -21.052  -4.638 -16.702  1.00  0.00     0.000 C 
BRANCH  10  11
ATOM     11  C   UNL     1     -20.992  -6.170 -16.565  1.00  0.00    -0.000 C 
BRANCH  11  12
ATOM     12  C   UNL     1     -21.245  -6.652 -15.125  1.00  0.00    -0.000 C 
BRANCH  12  13
ATOM     13  C   UNL     1     -19.975  -6.946 -14.306  1.00  0.00    -0.000 C 
BRANCH  13  14
ATOM     14  C   UNL     1     -20.238  -6.993 -12.790  1.00  0.00    -0.000 C 
BRANCH  14  15
ATOM     15  C   UNL     1     -20.803  -8.346 -12.332  1.00  0.00    -0.003 C 
ATOM     16  C   UNL     1     -20.089  -9.533 -12.979  1.00  0.00     0.004 C 
ENDBRANCH  14  15
ENDBRANCH  13  14
ENDBRANCH  12  13
ENDBRANCH  11  12
ENDBRANCH  10  11
ENDBRANCH   1  10
TORSDOF 12
ENDMDL
MODEL 8
REMARK VINA RESULT:    -3.669      3.500      6.502
REMARK INTER + INTRA:          -7.254
REMARK INTER:                  -6.664
REMARK INTRA:                  -0.590
REMARK UNBOUND:                -1.010
REMARK SMILES CCCCCCCCCCCCCC(=O)[O-]
REMARK SMILES IDX 8 1 9 2 10 3 11 4 12 5 13 6 14 7 15 8 16 9 7 10 6 11 5 12
REMARK SMILES IDX 4 13 3 14 2 15 1 16
REMARK H PARENT
REMARK Flexibility Score: inf
ROOT
ATOM      1  C   UNL     1      -6.679 -14.882   0.892  1.00  0.00     0.000 C 
ENDROOT
BRANCH   1   2
ATOM      2  C   UNL     1      -6.529 -13.977   2.128  1.00  0.00     0.000 C 
BRANCH   2   3
ATOM      3  C   UNL     1      -5.890 -12.621   1.792  1.00  0.00     0.000 C 
BRANCH   3   4
ATOM      4  C   UNL     1      -6.020 -12.257   0.302  1.00  0.00     0.000 C 
BRANCH   4   5
ATOM      5  C   UNL     1      -5.797 -10.758   0.036  1.00  0.00     0.006 C 
BRANCH   5   6
ATOM      6  C   UNL     1      -7.039 -10.020  -0.490  1.00  0.00     0.053 C 
BRANCH   6   7
ATOM      7  C   UNL     1      -7.289  -8.743   0.253  1.00  0.00     0.041 C 
ATOM      8  O   UNL     1      -7.581  -7.692  -0.375  1.00  0.00    -0.550 OA
ATOM      9  O   UNL     1      -7.163  -8.708   1.636  1.00  0.00    -0.550 OA
ENDBRANCH   6   7
ENDBRANCH   5   6
ENDBRANCH   4   5
ENDBRANCH   3   4
ENDBRANCH   2   3
ENDBRANCH   1   2
BRANCH   1  10
ATOM     10  C   UNL     1      -5.627 -16.003   0.852  1.00  0.00     0.000 C 
BRANCH  10  11
ATOM     11  C   UNL     1      -5.969 -17.164   1.803  1.00  0.00    -0.000 C 
BRANCH  11  12
ATOM     12  C   UNL     1      -5.222 -18.464   1.452  1.00  0.00    -0.000 C 
BRANCH  12  13
ATOM     13  C   UNL     1      -5.625 -19.104   0.112  1.00  0.00    -0.000 C 
BRANCH  13  14
ATOM     14  C   UNL     1      -7.030 -19.731   0.146  1.00  0.00    -0.000 C 
BRANCH  14  15
ATOM     15  C   UNL     1      -7.388 -20.445  -1.167  1.00  0.00    -0.003 C 
ATOM     16  C   UNL     1      -6.160 -20.759  -2.021  1.00  0.00     0.004 C 
ENDBRANCH  14  15
ENDBRANCH  13  14
ENDBRANCH  12  13
ENDBRANCH  11  12
ENDBRANCH  10  11
ENDBRANCH   1  10
TORSDOF 12
ENDMDL
MODEL 9
REMARK VINA RESULT:    -3.644     20.119     22.206
REMARK INTER + INTRA:          -7.210
REMARK INTER:                  -5.230
REMARK INTRA:                  -1.980
REMARK UNBOUND:                -1.010
REMARK SMILES CCCCCCCCCCCCCC(=O)[O-]
REMARK SMILES IDX 8 1 9 2 10 3 11 4 12 5 13 6 14 7 15 8 16 9 7 10 6 11 5 12
REMARK SMILES IDX 4 13 3 14 2 15 1 16
REMARK H PARENT
REMARK Flexibility Score: inf
ROOT
ATOM      1  C   UNL     1     -23.127  -5.755 -15.252  1.00  0.00     0.000 C 
ENDROOT
BRANCH   1   2
ATOM      2  C   UNL     1     -22.138  -5.295 -16.339  1.00  0.00     0.000 C 
BRANCH   2   3
ATOM      3  C   UNL     1     -20.721  -5.849 -16.118  1.00  0.00     0.000 C 
BRANCH   3   4
ATOM      4  C   UNL     1     -20.049  -5.273 -14.859  1.00  0.00     0.000 C 
BRANCH   4   5
ATOM      5  C   UNL     1     -19.956  -6.298 -13.715  1.00  0.00     0.006 C 
BRANCH   5   6
ATOM      6  C   UNL     1     -19.900  -7.761 -14.182  1.00  0.00     0.053 C 
BRANCH   6   7
ATOM      7  C   UNL     1     -20.302  -8.713 -13.098  1.00  0.00     0.041 C 
ATOM      8  O   UNL     1     -20.083  -9.946 -13.224  1.00  0.00    -0.550 OA
ATOM      9  O   UNL     1     -20.951  -8.240 -11.964  1.00  0.00    -0.550 OA
ENDBRANCH   6   7
ENDBRANCH   5   6
ENDBRANCH   4   5
ENDBRANCH   3   4
ENDBRANCH   2   3
ENDBRANCH   1   2
BRANCH   1  10
ATOM     10  C   UNL     1     -24.249  -4.733 -15.007  1.00  0.00     0.000 C 
BRANCH  10  11
ATOM     11  C   UNL     1     -24.256  -4.202 -13.563  1.00  0.00    -0.000 C 
BRANCH  11  12
ATOM     12  C   UNL     1     -23.036  -4.667 -12.748  1.00  0.00    -0.000 C 
BRANCH  12  13
ATOM     13  C   UNL     1     -22.098  -3.539 -12.281  1.00  0.00    -0.000 C 
BRANCH  13  14
ATOM     14  C   UNL     1     -22.377  -2.199 -12.983  1.00  0.00    -0.000 C 
BRANCH  14  15
ATOM     15  C   UNL     1     -21.386  -1.913 -14.122  1.00  0.00    -0.003 C 
ATOM     16  C   UNL     1     -22.074  -1.773 -15.479  1.00  0.00     0.004 C 
ENDBRANCH  14  15
ENDBRANCH  13  14
ENDBRANCH  12  13
ENDBRANCH  11  12
ENDBRANCH  10  11
ENDBRANCH   1  10
TORSDOF 12
ENDMDL
