MODEL 1
REMARK VINA RESULT:    -4.150      0.000      0.000
REMARK INTER + INTRA:          -4.363
REMARK INTER:                  -5.120
REMARK INTRA:                   0.758
REMARK UNBOUND:                 0.758
REMARK SMILES CC1=CC=CC(C)(C)CC1=O
REMARK SMILES IDX 1 1 2 2 3 3 10 4 11 5 9 6 4 8 5 9 6 10 7 11 8 12
REMARK H PARENT
REMARK Flexibility Score: 80.00
ROOT
ATOM      1  C   UNL     1      31.832  40.928  83.822  1.00  0.00     0.048 C 
ATOM      2  C   UNL     1      33.269  40.905  84.284  1.00  0.00    -0.008 C 
ATOM      3  C   UNL     1      33.499  40.745  85.606  1.00  0.00     0.007 C 
ENDROOT
BRANCH   2   4
ATOM      4  C   UNL     1      34.318  40.983  83.237  1.00  0.00     0.159 C 
ATOM      5  O   UNL     1      33.978  40.876  82.027  1.00  0.00    -0.295 OA
BRANCH   4   6
ATOM      6  C   UNL     1      35.770  41.198  83.536  1.00  0.00     0.091 CG0
ATOM      7  G   UNL     1      36.375  40.100  84.439  1.00  0.00     0.000 G0
ENDBRANCH   4   6
ENDBRANCH   2   4
BRANCH   3   8
ATOM      8  C   UNL     1      34.781  40.656  86.345  1.00  0.00    -0.003 C 
ATOM      9  C   UNL     1      36.006  40.377  85.881  1.00  0.00    -0.020 C 
BRANCH   9  10
ATOM     10  C   UNL     1      36.380  40.106  84.443  1.00  0.00    -0.010 CG0
ATOM     11  C   UNL     1      35.944  38.677  84.045  1.00  0.00     0.016 C 
ATOM     12  C   UNL     1      37.918  40.187  84.320  1.00  0.00     0.016 C 
ATOM     13  G   UNL     1      35.767  41.192  83.532  1.00  0.00     0.000 G0
ENDBRANCH   9  10
ENDBRANCH   3   8
TORSDOF 0
ENDMDL
MODEL 2
REMARK VINA RESULT:    -4.087      1.876      2.480
REMARK INTER + INTRA:          -4.285
REMARK INTER:                  -5.046
REMARK INTRA:                   0.761
REMARK UNBOUND:                 0.758
REMARK SMILES CC1=CC=CC(C)(C)CC1=O
REMARK SMILES IDX 1 1 2 2 3 3 10 4 11 5 9 6 4 8 5 9 6 10 7 11 8 12
REMARK H PARENT
REMARK Flexibility Score: 80.00
ROOT
ATOM      1  C   UNL     1      32.320  40.132  85.298  1.00  0.00     0.048 C 
ATOM      2  C   UNL     1      33.807  40.381  85.209  1.00  0.00    -0.008 C 
ATOM      3  C   UNL     1      34.578  39.391  84.709  1.00  0.00     0.007 C 
ENDROOT
BRANCH   2   4
ATOM      4  C   UNL     1      34.293  41.725  85.609  1.00  0.00     0.159 C 
ATOM      5  O   UNL     1      33.450  42.642  85.806  1.00  0.00    -0.295 OA
BRANCH   4   6
ATOM      6  C   UNL     1      35.741  42.055  85.807  1.00  0.00     0.091 CG0
ATOM      7  G   UNL     1      36.597  41.824  84.543  1.00  0.00     0.000 G0
ENDBRANCH   4   6
ENDBRANCH   2   4
BRANCH   3   8
ATOM      8  C   UNL     1      36.041  39.349  84.476  1.00  0.00    -0.003 C 
ATOM      9  C   UNL     1      36.911  40.364  84.388  1.00  0.00    -0.020 C 
BRANCH   9  10
ATOM     10  C   UNL     1      36.594  41.833  84.537  1.00  0.00    -0.010 CG0
ATOM     11  C   UNL     1      35.911  42.359  83.254  1.00  0.00     0.016 C 
ATOM     12  C   UNL     1      37.924  42.599  84.717  1.00  0.00     0.016 C 
ATOM     13  G   UNL     1      35.736  42.055  85.802  1.00  0.00     0.000 G0
ENDBRANCH   9  10
ENDBRANCH   3   8
TORSDOF 0
ENDMDL
MODEL 3
REMARK VINA RESULT:    -3.956      2.158      4.145
REMARK INTER + INTRA:          -4.124
REMARK INTER:                  -4.881
REMARK INTRA:                   0.757
REMARK UNBOUND:                 0.758
REMARK SMILES CC1=CC=CC(C)(C)CC1=O
REMARK SMILES IDX 1 1 2 2 3 3 10 4 11 5 9 6 4 8 5 9 6 10 7 11 8 12
REMARK H PARENT
REMARK Flexibility Score: 80.00
ROOT
ATOM      1  C   UNL     1      36.397  39.354  84.131  1.00  0.00     0.048 C 
ATOM      2  C   UNL     1      35.151  40.203  84.060  1.00  0.00    -0.008 C 
ATOM      3  C   UNL     1      34.441  40.176  82.911  1.00  0.00     0.007 C 
ENDROOT
BRANCH   2   4
ATOM      4  C   UNL     1      34.765  40.943  85.287  1.00  0.00     0.159 C 
ATOM      5  O   UNL     1      35.346  40.664  86.372  1.00  0.00    -0.295 OA
BRANCH   4   6
ATOM      6  C   UNL     1      33.725  42.020  85.311  1.00  0.00     0.091 CG0
ATOM      7  G   UNL     1      32.325  41.525  84.885  1.00  0.00     0.000 G0
ENDBRANCH   4   6
ENDBRANCH   2   4
BRANCH   3   8
ATOM      8  C   UNL     1      33.181  40.871  82.556  1.00  0.00    -0.003 C 
ATOM      9  C   UNL     1      32.269  41.432  83.361  1.00  0.00    -0.020 C 
BRANCH   9  10
ATOM     10  C   UNL     1      32.332  41.512  84.868  1.00  0.00    -0.010 CG0
ATOM     11  C   UNL     1      31.970  40.142  85.485  1.00  0.00     0.016 C 
ATOM     12  C   UNL     1      31.281  42.541  85.342  1.00  0.00     0.016 C 
ATOM     13  G   UNL     1      33.726  42.013  85.304  1.00  0.00     0.000 G0
ENDBRANCH   9  10
ENDBRANCH   3   8
TORSDOF 0
ENDMDL
MODEL 4
REMARK VINA RESULT:    -3.898      2.028      3.946
REMARK INTER + INTRA:          -4.052
REMARK INTER:                  -4.798
REMARK INTRA:                   0.746
REMARK UNBOUND:                 0.758
REMARK SMILES CC1=CC=CC(C)(C)CC1=O
REMARK SMILES IDX 1 1 2 2 3 3 10 4 11 5 9 6 4 8 5 9 6 10 7 11 8 12
REMARK H PARENT
REMARK Flexibility Score: 80.00
ROOT
ATOM      1  C   UNL     1      35.580  39.285  84.247  1.00  0.00     0.048 C 
ATOM      2  C   UNL     1      34.293  40.075  84.255  1.00  0.00    -0.008 C 
ATOM      3  C   UNL     1      33.380  39.775  85.205  1.00  0.00     0.007 C 
ENDROOT
BRANCH   2   4
ATOM      4  C   UNL     1      34.166  41.173  83.265  1.00  0.00     0.159 C 
ATOM      5  O   UNL     1      35.190  41.529  82.618  1.00  0.00    -0.295 OA
BRANCH   4   6
ATOM      6  C   UNL     1      32.878  41.880  82.974  1.00  0.00     0.091 CG0
ATOM      7  G   UNL     1      32.282  42.592  84.208  1.00  0.00     0.000 G0
ENDBRANCH   4   6
ENDBRANCH   2   4
BRANCH   3   8
ATOM      8  C   UNL     1      32.057  40.384  85.479  1.00  0.00    -0.003 C 
ATOM      9  C   UNL     1      31.575  41.569  85.085  1.00  0.00    -0.020 C 
BRANCH   9  10
ATOM     10  C   UNL     1      32.283  42.582  84.217  1.00  0.00    -0.010 CG0
ATOM     11  C   UNL     1      33.338  43.346  85.049  1.00  0.00     0.016 C 
ATOM     12  C   UNL     1      31.239  43.605  83.716  1.00  0.00     0.016 C 
ATOM     13  G   UNL     1      32.893  41.876  82.986  1.00  0.00     0.000 G0
ENDBRANCH   9  10
ENDBRANCH   3   8
TORSDOF 0
ENDMDL
MODEL 5
REMARK VINA RESULT:    -3.888      1.776      2.785
REMARK INTER + INTRA:          -4.039
REMARK INTER:                  -4.796
REMARK INTRA:                   0.757
REMARK UNBOUND:                 0.758
REMARK SMILES CC1=CC=CC(C)(C)CC1=O
REMARK SMILES IDX 1 1 2 2 3 3 10 4 11 5 9 6 4 8 5 9 6 10 7 11 8 12
REMARK H PARENT
REMARK Flexibility Score: 80.00
ROOT
ATOM      1  C   UNL     1      30.991  42.405  84.447  1.00  0.00     0.048 C 
ATOM      2  C   UNL     1      32.190  41.539  84.138  1.00  0.00    -0.008 C 
ATOM      3  C   UNL     1      32.460  41.286  82.839  1.00  0.00     0.007 C 
ENDROOT
BRANCH   2   4
ATOM      4  C   UNL     1      33.020  41.098  85.287  1.00  0.00     0.159 C 
ATOM      5  O   UNL     1      32.830  41.632  86.414  1.00  0.00    -0.295 OA
BRANCH   4   6
ATOM      6  C   UNL     1      34.071  40.036  85.187  1.00  0.00     0.091 CG0
ATOM      7  G   UNL     1      35.195  40.383  84.186  1.00  0.00     0.000 G0
ENDBRANCH   4   6
ENDBRANCH   2   4
BRANCH   3   8
ATOM      8  C   UNL     1      33.564  40.506  82.232  1.00  0.00    -0.003 C 
ATOM      9  C   UNL     1      34.731  40.130  82.773  1.00  0.00    -0.020 C 
BRANCH   9  10
ATOM     10  C   UNL     1      35.193  40.403  84.186  1.00  0.00    -0.010 CG0
ATOM     11  C   UNL     1      35.658  41.871  84.315  1.00  0.00     0.016 C 
ATOM     12  C   UNL     1      36.405  39.491  84.482  1.00  0.00     0.016 C 
ATOM     13  G   UNL     1      34.067  40.044  85.180  1.00  0.00     0.000 G0
ENDBRANCH   9  10
ENDBRANCH   3   8
TORSDOF 0
ENDMDL
MODEL 6
REMARK VINA RESULT:    -3.817      2.103      3.703
REMARK INTER + INTRA:          -3.952
REMARK INTER:                  -4.706
REMARK INTRA:                   0.755
REMARK UNBOUND:                 0.758
REMARK SMILES CC1=CC=CC(C)(C)CC1=O
REMARK SMILES IDX 1 1 2 2 3 3 10 4 11 5 9 6 4 8 5 9 6 10 7 11 8 12
REMARK H PARENT
REMARK Flexibility Score: 80.00
ROOT
ATOM      1  C   UNL     1      36.822  39.412  84.370  1.00  0.00     0.048 C 
ATOM      2  C   UNL     1      35.542  40.186  84.570  1.00  0.00    -0.008 C 
ATOM      3  C   UNL     1      34.436  39.490  84.915  1.00  0.00     0.007 C 
ENDROOT
BRANCH   2   4
ATOM      4  C   UNL     1      35.618  41.663  84.447  1.00  0.00     0.159 C 
ATOM      5  O   UNL     1      36.754  42.210  84.381  1.00  0.00    -0.295 OA
BRANCH   4   6
ATOM      6  C   UNL     1      34.413  42.551  84.381  1.00  0.00     0.091 CG0
ATOM      7  G   UNL     1      33.499  42.429  85.620  1.00  0.00     0.000 G0
ENDBRANCH   4   6
ENDBRANCH   2   4
BRANCH   3   8
ATOM      8  C   UNL     1      33.063  39.967  85.201  1.00  0.00    -0.003 C 
ATOM      9  C   UNL     1      32.644  41.200  85.514  1.00  0.00    -0.020 C 
BRANCH   9  10
ATOM     10  C   UNL     1      33.504  42.438  85.624  1.00  0.00    -0.010 CG0
ATOM     11  C   UNL     1      34.293  42.416  86.952  1.00  0.00     0.016 C 
ATOM     12  C   UNL     1      32.574  43.672  85.641  1.00  0.00     0.016 C 
ATOM     13  G   UNL     1      34.422  42.545  84.386  1.00  0.00     0.000 G0
ENDBRANCH   9  10
ENDBRANCH   3   8
TORSDOF 0
ENDMDL
MODEL 7
REMARK VINA RESULT:    -3.742      1.956      2.858
REMARK INTER + INTRA:          -3.859
REMARK INTER:                  -4.610
REMARK INTRA:                   0.751
REMARK UNBOUND:                 0.758
REMARK SMILES CC1=CC=CC(C)(C)CC1=O
REMARK SMILES IDX 1 1 2 2 3 3 10 4 11 5 9 6 4 8 5 9 6 10 7 11 8 12
REMARK H PARENT
REMARK Flexibility Score: 80.00
ROOT
ATOM      1  C   UNL     1      32.128  40.123  85.181  1.00  0.00     0.048 C 
ATOM      2  C   UNL     1      33.248  40.875  84.504  1.00  0.00    -0.008 C 
ATOM      3  C   UNL     1      32.909  41.865  83.648  1.00  0.00     0.007 C 
ENDROOT
BRANCH   2   4
ATOM      4  C   UNL     1      34.635  40.517  84.891  1.00  0.00     0.159 C 
ATOM      5  O   UNL     1      34.811  39.740  85.870  1.00  0.00    -0.295 OA
BRANCH   4   6
ATOM      6  C   UNL     1      35.850  41.019  84.173  1.00  0.00     0.091 CG0
ATOM      7  G   UNL     1      35.948  42.560  84.146  1.00  0.00     0.000 G0
ENDBRANCH   4   6
ENDBRANCH   2   4
BRANCH   3   8
ATOM      8  C   UNL     1      33.771  42.783  82.867  1.00  0.00    -0.003 C 
ATOM      9  C   UNL     1      35.058  43.102  83.058  1.00  0.00    -0.020 C 
BRANCH   9  10
ATOM     10  C   UNL     1      35.966  42.558  84.136  1.00  0.00    -0.010 CG0
ATOM     11  C   UNL     1      35.639  43.230  85.489  1.00  0.00     0.016 C 
ATOM     12  C   UNL     1      37.423  42.916  83.767  1.00  0.00     0.016 C 
ATOM     13  G   UNL     1      35.847  41.019  84.190  1.00  0.00     0.000 G0
ENDBRANCH   9  10
ENDBRANCH   3   8
TORSDOF 0
ENDMDL
MODEL 8
REMARK VINA RESULT:    -3.718      1.852      2.447
REMARK INTER + INTRA:          -3.830
REMARK INTER:                  -4.600
REMARK INTRA:                   0.770
REMARK UNBOUND:                 0.758
REMARK SMILES CC1=CC=CC(C)(C)CC1=O
REMARK SMILES IDX 1 1 2 2 3 3 10 4 11 5 9 6 4 8 5 9 6 10 7 11 8 12
REMARK H PARENT
REMARK Flexibility Score: 80.00
ROOT
ATOM      1  C   UNL     1      34.007  40.619  81.875  1.00  0.00     0.048 C 
ATOM      2  C   UNL     1      34.473  40.848  83.293  1.00  0.00    -0.008 C 
ATOM      3  C   UNL     1      34.739  39.760  84.048  1.00  0.00     0.007 C 
ENDROOT
BRANCH   2   4
ATOM      4  C   UNL     1      34.674  42.256  83.719  1.00  0.00     0.159 C 
ATOM      5  O   UNL     1      34.624  43.168  82.848  1.00  0.00    -0.295 OA
BRANCH   4   6
ATOM      6  C   UNL     1      34.921  42.662  85.140  1.00  0.00     0.091 CG0
ATOM      7  G   UNL     1      36.169  41.991  85.756  1.00  0.00     0.000 G0
ENDBRANCH   4   6
ENDBRANCH   2   4
BRANCH   3   8
ATOM      8  C   UNL     1      35.230  39.668  85.443  1.00  0.00    -0.003 C 
ATOM      9  C   UNL     1      35.850  40.595  86.184  1.00  0.00    -0.020 C 
BRANCH   9  10
ATOM     10  C   UNL     1      36.180  42.008  85.761  1.00  0.00    -0.010 CG0
ATOM     11  C   UNL     1      37.389  42.002  84.798  1.00  0.00     0.016 C 
ATOM     12  C   UNL     1      36.577  42.809  87.021  1.00  0.00     0.016 C 
ATOM     13  G   UNL     1      34.929  42.671  85.143  1.00  0.00     0.000 G0
ENDBRANCH   9  10
ENDBRANCH   3   8
TORSDOF 0
ENDMDL
MODEL 9
REMARK VINA RESULT:    -3.647      1.628      2.068
REMARK INTER + INTRA:          -3.742
REMARK INTER:                  -4.499
REMARK INTRA:                   0.757
REMARK UNBOUND:                 0.758
REMARK SMILES CC1=CC=CC(C)(C)CC1=O
REMARK SMILES IDX 1 1 2 2 3 3 10 4 11 5 9 6 4 8 5 9 6 10 7 11 8 12
REMARK H PARENT
REMARK Flexibility Score: 80.00
ROOT
ATOM      1  C   UNL     1      31.285  43.479  83.809  1.00  0.00     0.048 C 
ATOM      2  C   UNL     1      32.334  42.486  84.249  1.00  0.00    -0.008 C 
ATOM      3  C   UNL     1      31.914  41.378  84.897  1.00  0.00     0.007 C 
ENDROOT
BRANCH   2   4
ATOM      4  C   UNL     1      33.740  42.772  83.867  1.00  0.00     0.159 C 
ATOM      5  O   UNL     1      33.967  43.691  83.032  1.00  0.00    -0.295 OA
BRANCH   4   6
ATOM      6  C   UNL     1      34.916  42.035  84.429  1.00  0.00     0.091 CG0
ATOM      7  G   UNL     1      34.882  40.519  84.137  1.00  0.00     0.000 G0
ENDBRANCH   4   6
ENDBRANCH   2   4
BRANCH   3   8
ATOM      8  C   UNL     1      32.691  40.229  85.419  1.00  0.00    -0.003 C 
ATOM      9  C   UNL     1      33.935  39.840  85.111  1.00  0.00    -0.020 C 
BRANCH   9  10
ATOM     10  C   UNL     1      34.875  40.524  84.145  1.00  0.00    -0.010 CG0
ATOM     11  C   UNL     1      34.461  40.206  82.691  1.00  0.00     0.016 C 
ATOM     12  C   UNL     1      36.296  39.959  84.371  1.00  0.00     0.016 C 
ATOM     13  G   UNL     1      34.909  42.040  84.438  1.00  0.00     0.000 G0
ENDBRANCH   9  10
ENDBRANCH   3   8
TORSDOF 0
ENDMDL
