MODEL 1
REMARK VINA RESULT:    -4.777      0.000      0.000
REMARK INTER + INTRA:          -5.513
REMARK INTER:                  -5.755
REMARK INTRA:                   0.241
REMARK UNBOUND:                 0.241
REMARK SMILES O=c1c(O)c(-c2ccc(O)c(O)c2)oc2cc(O)cc(O)c12
REMARK SMILES IDX 5 1 3 2 2 3 1 4 22 5 20 6 19 7 17 8 16 9 15 10 14 11 6 12
REMARK SMILES IDX 7 13 8 14 9 15 13 16 11 17 10 18 12 20 4 22 21 24 18 26
REMARK H PARENT 10 19 12 21 4 23 21 25 18 27
REMARK Flexibility Score: inf
ROOT
ATOM      1  C   UNL     1       4.918 -13.464  23.989  1.00  0.00     0.180 A 
ATOM      2  C   UNL     1       5.217 -13.733  22.643  1.00  0.00     0.208 A 
ATOM      3  C   UNL     1       5.368 -15.067  22.233  1.00  0.00     0.238 A 
ATOM      4  O   UNL     1       5.583 -15.305  21.015  1.00  0.00    -0.285 OA
ATOM      5  C   UNL     1       5.236 -16.114  23.176  1.00  0.00     0.111 A 
ATOM      6  C   UNL     1       5.408 -17.500  22.880  1.00  0.00     0.134 A 
ATOM      7  C   UNL     1       5.124 -18.456  23.862  1.00  0.00     0.093 A 
ATOM      8  C   UNL     1       4.737 -18.075  25.149  1.00  0.00     0.123 A 
ATOM      9  C   UNL     1       4.623 -16.724  25.464  1.00  0.00     0.094 A 
ATOM     10  C   UNL     1       4.865 -15.746  24.495  1.00  0.00     0.146 A 
ATOM     11  O   UNL     1       4.735 -14.470  24.837  1.00  0.00    -0.452 OA
ENDROOT
BRANCH   1  12
ATOM     12  C   UNL     1       4.768 -12.083  24.501  1.00  0.00     0.025 A 
ATOM     13  C   UNL     1       3.944 -11.843  25.612  1.00  0.00     0.016 A 
ATOM     14  C   UNL     1       3.804 -10.551  26.125  1.00  0.00     0.051 A 
ATOM     15  C   UNL     1       4.497  -9.483  25.548  1.00  0.00     0.157 A 
ATOM     16  C   UNL     1       5.481 -11.010  23.936  1.00  0.00     0.062 A 
ATOM     17  C   UNL     1       5.344  -9.713  24.450  1.00  0.00     0.158 A 
BRANCH  15  18
ATOM     18  O   UNL     1       4.336  -8.204  26.080  1.00  0.00    -0.504 OA
ATOM     19  H   UNL     1       3.437  -7.736  26.094  1.00  0.00     0.293 HD
ENDBRANCH  15  18
BRANCH  17  20
ATOM     20  O   UNL     1       6.048  -8.654  23.879  1.00  0.00    -0.504 OA
ATOM     21  H   UNL     1       6.302  -7.834  24.418  1.00  0.00     0.293 HD
ENDBRANCH  17  20
ENDBRANCH   1  12
BRANCH   2  22
ATOM     22  O   UNL     1       5.322 -12.686  21.723  1.00  0.00    -0.502 OA
ATOM     23  H   UNL     1       5.752 -12.802  20.812  1.00  0.00     0.293 HD
ENDBRANCH   2  22
BRANCH   6  24
ATOM     24  O   UNL     1       5.879 -17.983  21.656  1.00  0.00    -0.507 OA
ATOM     25  H   UNL     1       6.671 -17.608  21.156  1.00  0.00     0.293 HD
ENDBRANCH   6  24
BRANCH   8  26
ATOM     26  O   UNL     1       4.471 -19.034  26.125  1.00  0.00    -0.508 OA
ATOM     27  H   UNL     1       5.074 -19.837  26.256  1.00  0.00     0.293 HD
ENDBRANCH   8  26
TORSDOF 6
ENDMDL
MODEL 2
REMARK VINA RESULT:    -4.674      1.364      2.021
REMARK INTER + INTRA:          -5.389
REMARK INTER:                  -5.207
REMARK INTRA:                  -0.181
REMARK UNBOUND:                 0.241
REMARK SMILES O=c1c(O)c(-c2ccc(O)c(O)c2)oc2cc(O)cc(O)c12
REMARK SMILES IDX 5 1 3 2 2 3 1 4 22 5 20 6 19 7 17 8 16 9 15 10 14 11 6 12
REMARK SMILES IDX 7 13 8 14 9 15 13 16 11 17 10 18 12 20 4 22 21 24 18 26
REMARK H PARENT 10 19 12 21 4 23 21 25 18 27
REMARK Flexibility Score: inf
ROOT
ATOM      1  C   UNL     1       4.978 -11.935  24.110  1.00  0.00     0.180 A 
ATOM      2  C   UNL     1       5.236 -12.182  22.751  1.00  0.00     0.208 A 
ATOM      3  C   UNL     1       5.329 -13.510  22.306  1.00  0.00     0.238 A 
ATOM      4  O   UNL     1       5.506 -13.725  21.078  1.00  0.00    -0.285 OA
ATOM      5  C   UNL     1       5.182 -14.574  23.228  1.00  0.00     0.111 A 
ATOM      6  C   UNL     1       5.298 -15.958  22.895  1.00  0.00     0.134 A 
ATOM      7  C   UNL     1       5.003 -16.927  23.861  1.00  0.00     0.093 A 
ATOM      8  C   UNL     1       4.659 -16.564  25.165  1.00  0.00     0.123 A 
ATOM      9  C   UNL     1       4.601 -15.217  25.515  1.00  0.00     0.094 A 
ATOM     10  C   UNL     1       4.855 -14.226  24.564  1.00  0.00     0.146 A 
ATOM     11  O   UNL     1       4.779 -12.954  24.938  1.00  0.00    -0.452 OA
ENDROOT
BRANCH   1  12
ATOM     12  C   UNL     1       4.890 -10.562  24.658  1.00  0.00     0.025 A 
ATOM     13  C   UNL     1       6.031  -9.745  24.663  1.00  0.00     0.016 A 
ATOM     14  C   UNL     1       5.966  -8.440  25.157  1.00  0.00     0.051 A 
ATOM     15  C   UNL     1       4.758  -7.925  25.636  1.00  0.00     0.157 A 
ATOM     16  C   UNL     1       3.671 -10.035  25.121  1.00  0.00     0.062 A 
ATOM     17  C   UNL     1       3.602  -8.724  25.615  1.00  0.00     0.158 A 
BRANCH  15  18
ATOM     18  O   UNL     1       4.723  -6.619  26.125  1.00  0.00    -0.504 OA
ATOM     19  H   UNL     1       4.625  -6.417  27.113  1.00  0.00     0.293 HD
ENDBRANCH  15  18
BRANCH  17  20
ATOM     20  O   UNL     1       2.392  -8.212  26.078  1.00  0.00    -0.504 OA
ATOM     21  H   UNL     1       2.283  -7.231  26.308  1.00  0.00     0.293 HD
ENDBRANCH  17  20
ENDBRANCH   1  12
BRANCH   2  22
ATOM     22  O   UNL     1       5.356 -11.117  21.853  1.00  0.00    -0.502 OA
ATOM     23  H   UNL     1       4.771 -10.292  21.905  1.00  0.00     0.293 HD
ENDBRANCH   2  22
BRANCH   6  24
ATOM     24  O   UNL     1       5.722 -16.427  21.649  1.00  0.00    -0.507 OA
ATOM     25  H   UNL     1       6.546 -16.106  21.163  1.00  0.00     0.293 HD
ENDBRANCH   6  24
BRANCH   8  26
ATOM     26  O   UNL     1       4.383 -17.536  26.125  1.00  0.00    -0.508 OA
ATOM     27  H   UNL     1       3.707 -18.271  25.954  1.00  0.00     0.293 HD
ENDBRANCH   8  26
TORSDOF 6
ENDMDL
MODEL 3
REMARK VINA RESULT:    -4.159      1.563      3.434
REMARK INTER + INTRA:          -4.769
REMARK INTER:                  -5.156
REMARK INTRA:                   0.388
REMARK UNBOUND:                 0.241
REMARK SMILES O=c1c(O)c(-c2ccc(O)c(O)c2)oc2cc(O)cc(O)c12
REMARK SMILES IDX 5 1 3 2 2 3 1 4 22 5 20 6 19 7 17 8 16 9 15 10 14 11 6 12
REMARK SMILES IDX 7 13 8 14 9 15 13 16 11 17 10 18 12 20 4 22 21 24 18 26
REMARK H PARENT 10 19 12 21 4 23 21 25 18 27
REMARK Flexibility Score: inf
ROOT
ATOM      1  C   UNL     1       5.028 -15.080  23.791  1.00  0.00     0.180 A 
ATOM      2  C   UNL     1       4.630 -15.743  24.965  1.00  0.00     0.208 A 
ATOM      3  C   UNL     1       4.552 -17.145  24.962  1.00  0.00     0.238 A 
ATOM      4  O   UNL     1       4.247 -17.735  26.031  1.00  0.00    -0.285 OA
ATOM      5  C   UNL     1       4.856 -17.866  23.782  1.00  0.00     0.111 A 
ATOM      6  C   UNL     1       4.771 -19.285  23.654  1.00  0.00     0.134 A 
ATOM      7  C   UNL     1       5.222 -19.901  22.481  1.00  0.00     0.093 A 
ATOM      8  C   UNL     1       5.693 -19.144  21.405  1.00  0.00     0.123 A 
ATOM      9  C   UNL     1       5.724 -17.755  21.498  1.00  0.00     0.094 A 
ATOM     10  C   UNL     1       5.315 -17.113  22.670  1.00  0.00     0.146 A 
ATOM     11  O   UNL     1       5.371 -15.788  22.720  1.00  0.00    -0.452 OA
ENDROOT
BRANCH   1  12
ATOM     12  C   UNL     1       5.111 -13.605  23.709  1.00  0.00     0.025 A 
ATOM     13  C   UNL     1       5.020 -12.975  22.457  1.00  0.00     0.016 A 
ATOM     14  C   UNL     1       5.075 -11.583  22.358  1.00  0.00     0.051 A 
ATOM     15  C   UNL     1       5.204 -10.797  23.507  1.00  0.00     0.157 A 
ATOM     16  C   UNL     1       5.219 -12.812  24.865  1.00  0.00     0.062 A 
ATOM     17  C   UNL     1       5.272 -11.413  24.769  1.00  0.00     0.158 A 
BRANCH  15  18
ATOM     18  O   UNL     1       5.258  -9.410  23.377  1.00  0.00    -0.504 OA
ATOM     19  H   UNL     1       4.747  -8.792  23.996  1.00  0.00     0.293 HD
ENDBRANCH  15  18
BRANCH  17  20
ATOM     20  O   UNL     1       5.386 -10.635  25.919  1.00  0.00    -0.504 OA
ATOM     21  H   UNL     1       4.789 -10.786  26.724  1.00  0.00     0.293 HD
ENDBRANCH  17  20
ENDBRANCH   1  12
BRANCH   2  22
ATOM     22  O   UNL     1       4.356 -15.014  26.125  1.00  0.00    -0.502 OA
ATOM     23  H   UNL     1       4.216 -14.010  26.117  1.00  0.00     0.293 HD
ENDBRANCH   2  22
BRANCH   6  24
ATOM     24  O   UNL     1       4.231 -20.125  24.632  1.00  0.00    -0.507 OA
ATOM     25  H   UNL     1       3.663 -19.816  25.407  1.00  0.00     0.293 HD
ENDBRANCH   6  24
BRANCH   8  26
ATOM     26  O   UNL     1       6.125 -19.764  20.234  1.00  0.00    -0.508 OA
ATOM     27  H   UNL     1       5.854 -20.714  20.007  1.00  0.00     0.293 HD
ENDBRANCH   8  26
TORSDOF 6
ENDMDL
MODEL 4
REMARK VINA RESULT:    -2.363      1.985      3.600
REMARK INTER + INTRA:          -2.605
REMARK INTER:                  -2.766
REMARK INTRA:                   0.162
REMARK UNBOUND:                 0.241
REMARK SMILES O=c1c(O)c(-c2ccc(O)c(O)c2)oc2cc(O)cc(O)c12
REMARK SMILES IDX 5 1 3 2 2 3 1 4 22 5 20 6 19 7 17 8 16 9 15 10 14 11 6 12
REMARK SMILES IDX 7 13 8 14 9 15 13 16 11 17 10 18 12 20 4 22 21 24 18 26
REMARK H PARENT 10 19 12 21 4 23 21 25 18 27
REMARK Flexibility Score: inf
ROOT
ATOM      1  C   UNL     1       5.063 -11.403  23.777  1.00  0.00     0.180 A 
ATOM      2  C   UNL     1       5.473 -12.132  24.906  1.00  0.00     0.208 A 
ATOM      3  C   UNL     1       5.706 -13.511  24.778  1.00  0.00     0.238 A 
ATOM      4  O   UNL     1       6.125 -14.149  25.779  1.00  0.00    -0.285 OA
ATOM      5  C   UNL     1       5.508 -14.146  23.528  1.00  0.00     0.111 A 
ATOM      6  C   UNL     1       5.675 -15.544  23.293  1.00  0.00     0.134 A 
ATOM      7  C   UNL     1       5.580 -16.042  21.988  1.00  0.00     0.093 A 
ATOM      8  C   UNL     1       5.260 -15.202  20.918  1.00  0.00     0.123 A 
ATOM      9  C   UNL     1       5.038 -13.846  21.146  1.00  0.00     0.094 A 
ATOM     10  C   UNL     1       5.161 -13.314  22.433  1.00  0.00     0.146 A 
ATOM     11  O   UNL     1       4.950 -12.014  22.603  1.00  0.00    -0.452 OA
ENDROOT
BRANCH   1  12
ATOM     12  C   UNL     1       4.775  -9.952  23.839  1.00  0.00     0.025 A 
ATOM     13  C   UNL     1       3.650  -9.440  23.172  1.00  0.00     0.016 A 
ATOM     14  C   UNL     1       3.349  -8.078  23.234  1.00  0.00     0.051 A 
ATOM     15  C   UNL     1       4.154  -7.208  23.975  1.00  0.00     0.157 A 
ATOM     16  C   UNL     1       5.571  -9.079  24.602  1.00  0.00     0.062 A 
ATOM     17  C   UNL     1       5.269  -7.711  24.668  1.00  0.00     0.158 A 
BRANCH  15  18
ATOM     18  O   UNL     1       3.829  -5.853  24.017  1.00  0.00    -0.504 OA
ATOM     19  H   UNL     1       3.423  -5.372  23.223  1.00  0.00     0.293 HD
ENDBRANCH  15  18
BRANCH  17  20
ATOM     20  O   UNL     1       6.067  -6.852  25.420  1.00  0.00    -0.504 OA
ATOM     21  H   UNL     1       7.077  -6.942  25.436  1.00  0.00     0.293 HD
ENDBRANCH  17  20
ENDBRANCH   1  12
BRANCH   2  22
ATOM     22  O   UNL     1       5.684 -11.482  26.125  1.00  0.00    -0.502 OA
ATOM     23  H   UNL     1       5.605 -11.957  27.016  1.00  0.00     0.293 HD
ENDBRANCH   2  22
BRANCH   6  24
ATOM     24  O   UNL     1       5.905 -16.482  24.304  1.00  0.00    -0.507 OA
ATOM     25  H   UNL     1       5.223 -17.146  24.638  1.00  0.00     0.293 HD
ENDBRANCH   6  24
BRANCH   8  26
ATOM     26  O   UNL     1       5.153 -15.708  19.625  1.00  0.00    -0.508 OA
ATOM     27  H   UNL     1       5.956 -15.768  19.011  1.00  0.00     0.293 HD
ENDBRANCH   8  26
TORSDOF 6
ENDMDL
