MODEL 1
REMARK VINA RESULT:    -3.592      0.000      0.000
REMARK INTER + INTRA:          -5.030
REMARK INTER:                  -4.853
REMARK INTRA:                  -0.178
REMARK UNBOUND:                -0.178
REMARK SMILES CCCCCCCC(=O)[O-]
REMARK SMILES IDX 5 1 6 2 7 3 8 4 9 5 10 6 4 7 3 8 2 9 1 10
REMARK H PARENT
REMARK Flexibility Score: inf
ROOT
ATOM      1  C   UNL     1      -1.570   6.913  -4.835  1.00  0.00     0.000 C 
ENDROOT
BRANCH   1   2
ATOM      2  C   UNL     1      -2.548   8.097  -4.838  1.00  0.00     0.006 C 
BRANCH   2   3
ATOM      3  C   UNL     1      -3.948   7.654  -4.401  1.00  0.00     0.053 C 
BRANCH   3   4
ATOM      4  C   UNL     1      -4.257   8.174  -3.033  1.00  0.00     0.041 C 
ATOM      5  O   UNL     1      -5.340   8.779  -2.816  1.00  0.00    -0.550 OA
ATOM      6  O   UNL     1      -3.372   7.948  -1.987  1.00  0.00    -0.550 OA
ENDBRANCH   3   4
ENDBRANCH   2   3
ENDBRANCH   1   2
BRANCH   1   7
ATOM      7  C   UNL     1      -2.085   5.708  -5.643  1.00  0.00     0.000 C 
BRANCH   7   8
ATOM      8  C   UNL     1      -1.051   4.588  -5.877  1.00  0.00    -0.000 C 
BRANCH   8   9
ATOM      9  C   UNL     1      -1.643   3.176  -6.023  1.00  0.00    -0.003 C 
ATOM     10  C   UNL     1      -1.176   2.217  -4.929  1.00  0.00     0.004 C 
ENDBRANCH   8   9
ENDBRANCH   7   8
ENDBRANCH   1   7
TORSDOF 6
ENDMDL
MODEL 2
REMARK VINA RESULT:    -3.483      4.236      6.932
REMARK INTER + INTRA:          -4.882
REMARK INTER:                  -4.575
REMARK INTRA:                  -0.307
REMARK UNBOUND:                -0.178
REMARK SMILES CCCCCCCC(=O)[O-]
REMARK SMILES IDX 5 1 6 2 7 3 8 4 9 5 10 6 4 7 3 8 2 9 1 10
REMARK H PARENT
REMARK Flexibility Score: inf
ROOT
ATOM      1  C   UNL     1      -1.415   8.173   0.161  1.00  0.00     0.000 C 
ENDROOT
BRANCH   1   2
ATOM      2  C   UNL     1      -2.822   8.477  -0.373  1.00  0.00     0.006 C 
BRANCH   2   3
ATOM      3  C   UNL     1      -2.955   8.057  -1.840  1.00  0.00     0.053 C 
BRANCH   3   4
ATOM      4  C   UNL     1      -4.392   8.054  -2.255  1.00  0.00     0.041 C 
ATOM      5  O   UNL     1      -5.297   8.271  -1.406  1.00  0.00    -0.550 OA
ATOM      6  O   UNL     1      -4.730   7.860  -3.588  1.00  0.00    -0.550 OA
ENDBRANCH   3   4
ENDBRANCH   2   3
ENDBRANCH   1   2
BRANCH   1   7
ATOM      7  C   UNL     1      -1.117   8.872   1.499  1.00  0.00     0.000 C 
BRANCH   7   8
ATOM      8  C   UNL     1      -1.552  10.350   1.574  1.00  0.00    -0.000 C 
BRANCH   8   9
ATOM      9  C   UNL     1      -2.437  10.707   2.781  1.00  0.00    -0.003 C 
ATOM     10  C   UNL     1      -3.931  10.632   2.466  1.00  0.00     0.004 C 
ENDBRANCH   8   9
ENDBRANCH   7   8
ENDBRANCH   1   7
TORSDOF 6
ENDMDL
MODEL 3
REMARK VINA RESULT:    -3.451      1.255      1.937
REMARK INTER + INTRA:          -4.840
REMARK INTER:                  -4.579
REMARK INTRA:                  -0.260
REMARK UNBOUND:                -0.178
REMARK SMILES CCCCCCCC(=O)[O-]
REMARK SMILES IDX 5 1 6 2 7 3 8 4 9 5 10 6 4 7 3 8 2 9 1 10
REMARK H PARENT
REMARK Flexibility Score: inf
ROOT
ATOM      1  C   UNL     1      -3.755   6.980  -4.882  1.00  0.00     0.000 C 
ENDROOT
BRANCH   1   2
ATOM      2  C   UNL     1      -4.533   7.747  -3.802  1.00  0.00     0.006 C 
BRANCH   2   3
ATOM      3  C   UNL     1      -3.579   8.497  -2.868  1.00  0.00     0.053 C 
BRANCH   3   4
ATOM      4  C   UNL     1      -4.050   8.400  -1.451  1.00  0.00     0.041 C 
ATOM      5  O   UNL     1      -5.282   8.360  -1.195  1.00  0.00    -0.550 OA
ATOM      6  O   UNL     1      -3.128   8.305  -0.417  1.00  0.00    -0.550 OA
ENDBRANCH   3   4
ENDBRANCH   2   3
ENDBRANCH   1   2
BRANCH   1   7
ATOM      7  C   UNL     1      -2.256   7.329  -4.902  1.00  0.00     0.000 C 
BRANCH   7   8
ATOM      8  C   UNL     1      -1.306   6.122  -5.036  1.00  0.00    -0.000 C 
BRANCH   8   9
ATOM      9  C   UNL     1      -1.375   5.386  -6.385  1.00  0.00    -0.003 C 
ATOM     10  C   UNL     1      -1.750   3.911  -6.242  1.00  0.00     0.004 C 
ENDBRANCH   8   9
ENDBRANCH   7   8
ENDBRANCH   1   7
TORSDOF 6
ENDMDL
MODEL 4
REMARK VINA RESULT:    -3.437      2.941      5.407
REMARK INTER + INTRA:          -4.820
REMARK INTER:                  -4.478
REMARK INTRA:                  -0.341
REMARK UNBOUND:                -0.178
REMARK SMILES CCCCCCCC(=O)[O-]
REMARK SMILES IDX 5 1 6 2 7 3 8 4 9 5 10 6 4 7 3 8 2 9 1 10
REMARK H PARENT
REMARK Flexibility Score: inf
ROOT
ATOM      1  C   UNL     1      -4.992   8.626  -2.783  1.00  0.00     0.000 C 
ENDROOT
BRANCH   1   2
ATOM      2  C   UNL     1      -4.540   7.666  -3.893  1.00  0.00     0.006 C 
BRANCH   2   3
ATOM      3  C   UNL     1      -3.258   8.169  -4.564  1.00  0.00     0.053 C 
BRANCH   3   4
ATOM      4  C   UNL     1      -2.221   7.091  -4.585  1.00  0.00     0.041 C 
ATOM      5  O   UNL     1      -2.249   6.202  -5.476  1.00  0.00    -0.550 OA
ATOM      6  O   UNL     1      -1.196   7.094  -3.647  1.00  0.00    -0.550 OA
ENDBRANCH   3   4
ENDBRANCH   2   3
ENDBRANCH   1   2
BRANCH   1   7
ATOM      7  C   UNL     1      -4.636   8.122  -1.373  1.00  0.00     0.000 C 
BRANCH   7   8
ATOM      8  C   UNL     1      -4.354   9.228  -0.336  1.00  0.00    -0.000 C 
BRANCH   8   9
ATOM      9  C   UNL     1      -2.967   9.161   0.325  1.00  0.00    -0.003 C 
ATOM     10  C   UNL     1      -2.047   8.127  -0.323  1.00  0.00     0.004 C 
ENDBRANCH   8   9
ENDBRANCH   7   8
ENDBRANCH   1   7
TORSDOF 6
ENDMDL
MODEL 5
REMARK VINA RESULT:    -3.357      1.871      3.100
REMARK INTER + INTRA:          -4.713
REMARK INTER:                  -4.392
REMARK INTRA:                  -0.321
REMARK UNBOUND:                -0.178
REMARK SMILES CCCCCCCC(=O)[O-]
REMARK SMILES IDX 5 1 6 2 7 3 8 4 9 5 10 6 4 7 3 8 2 9 1 10
REMARK H PARENT
REMARK Flexibility Score: inf
ROOT
ATOM      1  C   UNL     1      -4.390   7.766  -3.873  1.00  0.00     0.000 C 
ENDROOT
BRANCH   1   2
ATOM      2  C   UNL     1      -4.985   8.739  -2.843  1.00  0.00     0.006 C 
BRANCH   2   3
ATOM      3  C   UNL     1      -5.015   8.109  -1.447  1.00  0.00     0.053 C 
BRANCH   3   4
ATOM      4  C   UNL     1      -3.953   8.708  -0.581  1.00  0.00     0.041 C 
ATOM      5  O   UNL     1      -4.245   9.613   0.245  1.00  0.00    -0.550 OA
ATOM      6  O   UNL     1      -2.649   8.234  -0.650  1.00  0.00    -0.550 OA
ENDBRANCH   3   4
ENDBRANCH   2   3
ENDBRANCH   1   2
BRANCH   1   7
ATOM      7  C   UNL     1      -3.082   8.283  -4.499  1.00  0.00     0.000 C 
BRANCH   7   8
ATOM      8  C   UNL     1      -1.825   7.457  -4.161  1.00  0.00    -0.000 C 
BRANCH   8   9
ATOM      9  C   UNL     1      -1.177   6.741  -5.358  1.00  0.00    -0.003 C 
ATOM     10  C   UNL     1      -1.933   5.482  -5.780  1.00  0.00     0.004 C 
ENDBRANCH   8   9
ENDBRANCH   7   8
ENDBRANCH   1   7
TORSDOF 6
ENDMDL
MODEL 6
REMARK VINA RESULT:    -3.332      3.442      5.156
REMARK INTER + INTRA:          -4.679
REMARK INTER:                  -4.109
REMARK INTRA:                  -0.569
REMARK UNBOUND:                -0.178
REMARK SMILES CCCCCCCC(=O)[O-]
REMARK SMILES IDX 5 1 6 2 7 3 8 4 9 5 10 6 4 7 3 8 2 9 1 10
REMARK H PARENT
REMARK Flexibility Score: inf
ROOT
ATOM      1  C   UNL     1      -4.968   8.417  -1.201  1.00  0.00     0.000 C 
ENDROOT
BRANCH   1   2
ATOM      2  C   UNL     1      -4.974   8.893  -2.662  1.00  0.00     0.006 C 
BRANCH   2   3
ATOM      3  C   UNL     1      -4.616   7.747  -3.613  1.00  0.00     0.053 C 
BRANCH   3   4
ATOM      4  C   UNL     1      -3.298   8.007  -4.271  1.00  0.00     0.041 C 
ATOM      5  O   UNL     1      -2.701   7.080  -4.881  1.00  0.00    -0.550 OA
ATOM      6  O   UNL     1      -2.750   9.283  -4.252  1.00  0.00    -0.550 OA
ENDBRANCH   3   4
ENDBRANCH   2   3
ENDBRANCH   1   2
BRANCH   1   7
ATOM      7  C   UNL     1      -4.187   9.358  -0.268  1.00  0.00     0.000 C 
BRANCH   7   8
ATOM      8  C   UNL     1      -2.824   8.819   0.213  1.00  0.00    -0.000 C 
BRANCH   8   9
ATOM      9  C   UNL     1      -1.732   8.755  -0.868  1.00  0.00    -0.003 C 
ATOM     10  C   UNL     1      -1.295   7.327  -1.191  1.00  0.00     0.004 C 
ENDBRANCH   8   9
ENDBRANCH   7   8
ENDBRANCH   1   7
TORSDOF 6
ENDMDL
MODEL 7
REMARK VINA RESULT:    -3.266      3.442      5.762
REMARK INTER + INTRA:          -4.589
REMARK INTER:                  -4.294
REMARK INTRA:                  -0.296
REMARK UNBOUND:                -0.178
REMARK SMILES CCCCCCCC(=O)[O-]
REMARK SMILES IDX 5 1 6 2 7 3 8 4 9 5 10 6 4 7 3 8 2 9 1 10
REMARK H PARENT
REMARK Flexibility Score: inf
ROOT
ATOM      1  C   UNL     1      -4.918   8.336  -1.189  1.00  0.00     0.000 C 
ENDROOT
BRANCH   1   2
ATOM      2  C   UNL     1      -5.018   8.884  -2.620  1.00  0.00     0.006 C 
BRANCH   2   3
ATOM      3  C   UNL     1      -4.675   7.801  -3.647  1.00  0.00     0.053 C 
BRANCH   3   4
ATOM      4  C   UNL     1      -3.313   8.037  -4.220  1.00  0.00     0.041 C 
ATOM      5  O   UNL     1      -2.705   9.115  -3.985  1.00  0.00    -0.550 OA
ATOM      6  O   UNL     1      -2.696   7.049  -4.976  1.00  0.00    -0.550 OA
ENDBRANCH   3   4
ENDBRANCH   2   3
ENDBRANCH   1   2
BRANCH   1   7
ATOM      7  C   UNL     1      -4.180   9.290  -0.233  1.00  0.00     0.000 C 
BRANCH   7   8
ATOM      8  C   UNL     1      -2.658   9.395  -0.461  1.00  0.00    -0.000 C 
BRANCH   8   9
ATOM      9  C   UNL     1      -1.794   8.621   0.550  1.00  0.00    -0.003 C 
ATOM     10  C   UNL     1      -1.427   9.451   1.779  1.00  0.00     0.004 C 
ENDBRANCH   8   9
ENDBRANCH   7   8
ENDBRANCH   1   7
TORSDOF 6
ENDMDL
MODEL 8
REMARK VINA RESULT:    -3.235      4.135      5.838
REMARK INTER + INTRA:          -4.547
REMARK INTER:                  -4.311
REMARK INTRA:                  -0.236
REMARK UNBOUND:                -0.178
REMARK SMILES CCCCCCCC(=O)[O-]
REMARK SMILES IDX 5 1 6 2 7 3 8 4 9 5 10 6 4 7 3 8 2 9 1 10
REMARK H PARENT
REMARK Flexibility Score: inf
ROOT
ATOM      1  C   UNL     1      -3.243   8.167  -0.903  1.00  0.00     0.000 C 
ENDROOT
BRANCH   1   2
ATOM      2  C   UNL     1      -2.722   8.970   0.298  1.00  0.00     0.006 C 
BRANCH   2   3
ATOM      3  C   UNL     1      -3.794   9.932   0.821  1.00  0.00     0.053 C 
BRANCH   3   4
ATOM      4  C   UNL     1      -3.463  10.379   2.209  1.00  0.00     0.041 C 
ATOM      5  O   UNL     1      -2.264  10.409   2.596  1.00  0.00    -0.550 OA
ATOM      6  O   UNL     1      -4.472  10.810   3.061  1.00  0.00    -0.550 OA
ENDBRANCH   3   4
ENDBRANCH   2   3
ENDBRANCH   1   2
BRANCH   1   7
ATOM      7  C   UNL     1      -4.724   8.445  -1.213  1.00  0.00     0.000 C 
BRANCH   7   8
ATOM      8  C   UNL     1      -5.028   8.799  -2.683  1.00  0.00    -0.000 C 
BRANCH   8   9
ATOM      9  C   UNL     1      -4.651   7.713  -3.705  1.00  0.00    -0.003 C 
ATOM     10  C   UNL     1      -3.397   8.059  -4.507  1.00  0.00     0.004 C 
ENDBRANCH   8   9
ENDBRANCH   7   8
ENDBRANCH   1   7
TORSDOF 6
ENDMDL
MODEL 9
REMARK VINA RESULT:    -3.179      2.712      3.939
REMARK INTER + INTRA:          -4.472
REMARK INTER:                  -3.984
REMARK INTRA:                  -0.487
REMARK UNBOUND:                -0.178
REMARK SMILES CCCCCCCC(=O)[O-]
REMARK SMILES IDX 5 1 6 2 7 3 8 4 9 5 10 6 4 7 3 8 2 9 1 10
REMARK H PARENT
REMARK Flexibility Score: inf
ROOT
ATOM      1  C   UNL     1      -1.554   8.527  -1.861  1.00  0.00     0.000 C 
ENDROOT
BRANCH   1   2
ATOM      2  C   UNL     1      -2.075   8.019  -0.508  1.00  0.00     0.006 C 
BRANCH   2   3
ATOM      3  C   UNL     1      -3.157   8.950   0.047  1.00  0.00     0.053 C 
BRANCH   3   4
ATOM      4  C   UNL     1      -4.299   9.055  -0.913  1.00  0.00     0.041 C 
ATOM      5  O   UNL     1      -4.556  10.154  -1.473  1.00  0.00    -0.550 OA
ATOM      6  O   UNL     1      -5.050   7.930  -1.227  1.00  0.00    -0.550 OA
ENDBRANCH   3   4
ENDBRANCH   2   3
ENDBRANCH   1   2
BRANCH   1   7
ATOM      7  C   UNL     1      -1.035   7.396  -2.767  1.00  0.00     0.000 C 
BRANCH   7   8
ATOM      8  C   UNL     1      -1.724   7.293  -4.142  1.00  0.00    -0.000 C 
BRANCH   8   9
ATOM      9  C   UNL     1      -2.947   8.207  -4.327  1.00  0.00    -0.003 C 
ATOM     10  C   UNL     1      -4.249   7.430  -4.523  1.00  0.00     0.004 C 
ENDBRANCH   8   9
ENDBRANCH   7   8
ENDBRANCH   1   7
TORSDOF 6
ENDMDL
