MODEL 1
REMARK VINA RESULT:    -5.305      0.000      0.000
REMARK INTER + INTRA:          -7.427
REMARK INTER:                  -7.166
REMARK INTRA:                  -0.261
REMARK UNBOUND:                -0.261
REMARK SMILES O=c1c(-c2ccc(O)cc2)coc2c([C@H]3O[C@H](CO)[C@@H](O)[C@@H](O)[C@@H]3O)c(O)ccc12
REMARK SMILES IDX 3 1 11 2 12 3 13 4 30 5 2 6 1 7 29 8 28 9 26 10 14 11 4 12
REMARK SMILES IDX 5 13 6 14 7 15 10 16 9 17 8 18 15 20 24 21 16 22 22 23 17 24
REMARK SMILES IDX 20 25 25 26 23 28 18 30 19 31 21 33 27 35
REMARK H PARENT 8 19 25 27 23 29 19 32 21 34 27 36
REMARK Flexibility Score: inf
ROOT
ATOM      1  C   UNL     1      -7.822  29.396  37.183  1.00  0.00     0.065 A 
ATOM      2  C   UNL     1      -8.556  28.353  36.617  1.00  0.00     0.208 A 
ATOM      3  O   UNL     1      -8.313  27.092  36.955  1.00  0.00    -0.463 OA
ATOM      4  C   UNL     1      -7.360  26.733  37.813  1.00  0.00     0.147 A 
ATOM      5  C   UNL     1      -6.570  27.736  38.427  1.00  0.00     0.066 A 
ATOM      6  C   UNL     1      -6.818  29.084  38.108  1.00  0.00     0.200 A 
ATOM      7  O   UNL     1      -6.126  30.008  38.624  1.00  0.00    -0.288 OA
ATOM      8  C   UNL     1      -5.551  27.371  39.308  1.00  0.00     0.020 A 
ATOM      9  C   UNL     1      -5.270  26.031  39.537  1.00  0.00     0.047 A 
ATOM     10  C   UNL     1      -5.983  25.020  38.891  1.00  0.00     0.125 A 
ATOM     11  C   UNL     1      -7.120  25.354  38.077  1.00  0.00     0.069 A 
ENDROOT
BRANCH   1  12
ATOM     12  C   UNL     1      -8.039  30.784  36.737  1.00  0.00    -0.011 A 
ATOM     13  C   UNL     1      -8.969  31.608  37.387  1.00  0.00     0.013 A 
ATOM     14  C   UNL     1      -9.122  32.942  36.993  1.00  0.00     0.047 A 
ATOM     15  C   UNL     1      -8.379  33.447  35.919  1.00  0.00     0.115 A 
ATOM     16  C   UNL     1      -7.338  31.274  35.623  1.00  0.00     0.013 A 
ATOM     17  C   UNL     1      -7.501  32.600  35.221  1.00  0.00     0.047 A 
BRANCH  15  18
ATOM     18  O   UNL     1      -8.506  34.784  35.551  1.00  0.00    -0.508 OA
ATOM     19  H   UNL     1      -8.676  35.031  34.587  1.00  0.00     0.293 HD
ENDBRANCH  15  18
ENDBRANCH   1  12
BRANCH  11  20
ATOM     20  C   UNL     1      -8.016  24.340  37.341  1.00  0.00     0.188 C 
ATOM     21  C   UNL     1      -7.980  22.839  37.787  1.00  0.00     0.179 C 
ATOM     22  O   UNL     1      -7.993  24.548  35.939  1.00  0.00    -0.362 OA
ATOM     23  C   UNL     1      -8.044  21.905  36.552  1.00  0.00     0.177 C 
ATOM     24  C   UNL     1      -6.918  23.881  35.319  1.00  0.00     0.176 C 
ATOM     25  C   UNL     1      -7.071  22.333  35.419  1.00  0.00     0.177 C 
BRANCH  21  26
ATOM     26  O   UNL     1      -9.071  22.594  38.649  1.00  0.00    -0.387 OA
ATOM     27  H   UNL     1      -9.121  21.620  38.838  1.00  0.00     0.211 HD
ENDBRANCH  21  26
BRANCH  23  28
ATOM     28  O   UNL     1      -7.774  20.584  36.954  1.00  0.00    -0.387 OA
ATOM     29  H   UNL     1      -7.982  19.997  36.187  1.00  0.00     0.211 HD
ENDBRANCH  23  28
BRANCH  24  30
ATOM     30  C   UNL     1      -6.828  24.355  33.867  1.00  0.00     0.191 C 
BRANCH  30  31
ATOM     31  O   UNL     1      -5.661  25.107  33.671  1.00  0.00    -0.394 OA
ATOM     32  H   UNL     1      -5.887  25.802  32.999  1.00  0.00     0.210 HD
ENDBRANCH  30  31
ENDBRANCH  24  30
BRANCH  25  33
ATOM     33  O   UNL     1      -5.812  21.736  35.603  1.00  0.00    -0.388 OA
ATOM     34  H   UNL     1      -5.758  21.477  36.559  1.00  0.00     0.211 HD
ENDBRANCH  25  33
ENDBRANCH  11  20
BRANCH  10  35
ATOM     35  O   UNL     1      -5.487  23.731  39.096  1.00  0.00    -0.507 OA
ATOM     36  H   UNL     1      -5.842  23.052  39.751  1.00  0.00     0.293 HD
ENDBRANCH  10  35
TORSDOF 9
ENDMDL
MODEL 2
REMARK VINA RESULT:    -4.089      1.988      3.976
REMARK INTER + INTRA:          -5.784
REMARK INTER:                  -5.392
REMARK INTRA:                  -0.392
REMARK UNBOUND:                -0.261
REMARK SMILES O=c1c(-c2ccc(O)cc2)coc2c([C@H]3O[C@H](CO)[C@@H](O)[C@@H](O)[C@@H]3O)c(O)ccc12
REMARK SMILES IDX 3 1 11 2 12 3 13 4 30 5 2 6 1 7 29 8 28 9 26 10 14 11 4 12
REMARK SMILES IDX 5 13 6 14 7 15 10 16 9 17 8 18 15 20 24 21 16 22 22 23 17 24
REMARK SMILES IDX 20 25 25 26 23 28 18 30 19 31 21 33 27 35
REMARK H PARENT 8 19 25 27 23 29 19 32 21 34 27 36
REMARK Flexibility Score: inf
ROOT
ATOM      1  C   UNL     1      -7.485  28.565  37.243  1.00  0.00     0.065 A 
ATOM      2  C   UNL     1      -7.060  28.130  38.499  1.00  0.00     0.208 A 
ATOM      3  O   UNL     1      -6.807  26.845  38.722  1.00  0.00    -0.463 OA
ATOM      4  C   UNL     1      -6.964  25.897  37.801  1.00  0.00     0.147 A 
ATOM      5  C   UNL     1      -7.397  26.260  36.502  1.00  0.00     0.066 A 
ATOM      6  C   UNL     1      -7.651  27.616  36.226  1.00  0.00     0.200 A 
ATOM      7  O   UNL     1      -8.052  27.979  35.084  1.00  0.00    -0.288 OA
ATOM      8  C   UNL     1      -7.590  25.271  35.535  1.00  0.00     0.020 A 
ATOM      9  C   UNL     1      -7.419  23.932  35.859  1.00  0.00     0.047 A 
ATOM     10  C   UNL     1      -7.062  23.539  37.150  1.00  0.00     0.125 A 
ATOM     11  C   UNL     1      -6.731  24.532  38.136  1.00  0.00     0.069 A 
ENDROOT
BRANCH   1  12
ATOM     12  C   UNL     1      -7.847  29.978  37.030  1.00  0.00    -0.011 A 
ATOM     13  C   UNL     1      -8.834  30.590  37.814  1.00  0.00     0.013 A 
ATOM     14  C   UNL     1      -9.125  31.949  37.643  1.00  0.00     0.047 A 
ATOM     15  C   UNL     1      -8.462  32.690  36.656  1.00  0.00     0.115 A 
ATOM     16  C   UNL     1      -7.225  30.706  36.002  1.00  0.00     0.013 A 
ATOM     17  C   UNL     1      -7.526  32.057  35.822  1.00  0.00     0.047 A 
BRANCH  15  18
ATOM     18  O   UNL     1      -8.728  34.049  36.511  1.00  0.00    -0.508 OA
ATOM     19  H   UNL     1      -8.099  34.635  35.981  1.00  0.00     0.293 HD
ENDBRANCH  15  18
ENDBRANCH   1  12
BRANCH  11  20
ATOM     20  C   UNL     1      -6.287  24.237  39.581  1.00  0.00     0.188 C 
ATOM     21  C   UNL     1      -4.949  23.458  39.815  1.00  0.00     0.179 C 
ATOM     22  O   UNL     1      -7.376  23.810  40.382  1.00  0.00    -0.362 OA
ATOM     23  C   UNL     1      -5.106  22.449  40.981  1.00  0.00     0.177 C 
ATOM     24  C   UNL     1      -7.596  22.422  40.284  1.00  0.00     0.176 C 
ATOM     25  C   UNL     1      -6.409  21.610  40.884  1.00  0.00     0.177 C 
BRANCH  21  26
ATOM     26  O   UNL     1      -3.924  24.387  40.098  1.00  0.00    -0.387 OA
ATOM     27  H   UNL     1      -3.044  23.938  39.999  1.00  0.00     0.211 HD
ENDBRANCH  21  26
BRANCH  23  28
ATOM     28  O   UNL     1      -3.981  21.604  41.018  1.00  0.00    -0.387 OA
ATOM     29  H   UNL     1      -3.931  21.226  41.930  1.00  0.00     0.211 HD
ENDBRANCH  23  28
BRANCH  24  30
ATOM     30  C   UNL     1      -8.922  22.094  40.976  1.00  0.00     0.191 C 
BRANCH  30  31
ATOM     31  O   UNL     1      -9.122  20.707  41.012  1.00  0.00    -0.394 OA
ATOM     32  H   UNL     1      -8.345  20.301  40.546  1.00  0.00     0.210 HD
ENDBRANCH  30  31
ENDBRANCH  24  30
BRANCH  25  33
ATOM     33  O   UNL     1      -6.188  20.449  40.124  1.00  0.00    -0.388 OA
ATOM     34  H   UNL     1      -5.759  20.740  39.278  1.00  0.00     0.211 HD
ENDBRANCH  25  33
ENDBRANCH  11  20
BRANCH  10  35
ATOM     35  O   UNL     1      -7.082  22.159  37.367  1.00  0.00    -0.507 OA
ATOM     36  H   UNL     1      -7.181  21.697  38.257  1.00  0.00     0.293 HD
ENDBRANCH  10  35
TORSDOF 9
ENDMDL
MODEL 3
REMARK VINA RESULT:    -3.820      1.900      3.259
REMARK INTER + INTRA:          -5.421
REMARK INTER:                  -5.614
REMARK INTRA:                   0.193
REMARK UNBOUND:                -0.261
REMARK SMILES O=c1c(-c2ccc(O)cc2)coc2c([C@H]3O[C@H](CO)[C@@H](O)[C@@H](O)[C@@H]3O)c(O)ccc12
REMARK SMILES IDX 3 1 11 2 12 3 13 4 30 5 2 6 1 7 29 8 28 9 26 10 14 11 4 12
REMARK SMILES IDX 5 13 6 14 7 15 10 16 9 17 8 18 15 20 24 21 16 22 22 23 17 24
REMARK SMILES IDX 20 25 25 26 23 28 18 30 19 31 21 33 27 35
REMARK H PARENT 8 19 25 27 23 29 19 32 21 34 27 36
REMARK Flexibility Score: inf
ROOT
ATOM      1  C   UNL     1      -8.293  31.295  36.259  1.00  0.00     0.065 A 
ATOM      2  C   UNL     1      -7.821  30.178  35.570  1.00  0.00     0.208 A 
ATOM      3  O   UNL     1      -7.777  28.988  36.157  1.00  0.00    -0.463 OA
ATOM      4  C   UNL     1      -8.141  28.779  37.421  1.00  0.00     0.147 A 
ATOM      5  C   UNL     1      -8.627  29.867  38.187  1.00  0.00     0.066 A 
ATOM      6  C   UNL     1      -8.709  31.137  37.587  1.00  0.00     0.200 A 
ATOM      7  O   UNL     1      -9.125  32.135  38.241  1.00  0.00    -0.288 OA
ATOM      8  C   UNL     1      -8.988  29.667  39.521  1.00  0.00     0.020 A 
ATOM      9  C   UNL     1      -8.814  28.424  40.114  1.00  0.00     0.047 A 
ATOM     10  C   UNL     1      -8.269  27.352  39.405  1.00  0.00     0.125 A 
ATOM     11  C   UNL     1      -8.006  27.484  37.998  1.00  0.00     0.069 A 
ENDROOT
BRANCH   1  12
ATOM     12  C   UNL     1      -8.256  32.627  35.629  1.00  0.00    -0.011 A 
ATOM     13  C   UNL     1      -7.588  32.825  34.412  1.00  0.00     0.013 A 
ATOM     14  C   UNL     1      -7.612  34.080  33.793  1.00  0.00     0.047 A 
ATOM     15  C   UNL     1      -8.266  35.155  34.409  1.00  0.00     0.115 A 
ATOM     16  C   UNL     1      -8.861  33.719  36.274  1.00  0.00     0.013 A 
ATOM     17  C   UNL     1      -8.873  34.973  35.664  1.00  0.00     0.047 A 
BRANCH  15  18
ATOM     18  O   UNL     1      -8.319  36.393  33.775  1.00  0.00    -0.508 OA
ATOM     19  H   UNL     1      -7.467  36.896  33.574  1.00  0.00     0.293 HD
ENDBRANCH  15  18
ENDBRANCH   1  12
BRANCH  11  20
ATOM     20  C   UNL     1      -7.444  26.374  37.090  1.00  0.00     0.188 C 
ATOM     21  C   UNL     1      -8.081  24.945  37.163  1.00  0.00     0.179 C 
ATOM     22  O   UNL     1      -6.026  26.396  37.059  1.00  0.00    -0.362 OA
ATOM     23  C   UNL     1      -6.982  23.856  37.067  1.00  0.00     0.177 C 
ATOM     24  C   UNL     1      -5.460  25.662  38.120  1.00  0.00     0.176 C 
ATOM     25  C   UNL     1      -5.767  24.140  37.992  1.00  0.00     0.177 C 
BRANCH  21  26
ATOM     26  O   UNL     1      -9.009  24.806  36.107  1.00  0.00    -0.387 OA
ATOM     27  H   UNL     1      -8.791  23.986  35.591  1.00  0.00     0.211 HD
ENDBRANCH  21  26
BRANCH  23  28
ATOM     28  O   UNL     1      -7.545  22.602  37.368  1.00  0.00    -0.387 OA
ATOM     29  H   UNL     1      -7.951  22.257  36.536  1.00  0.00     0.211 HD
ENDBRANCH  23  28
BRANCH  24  30
ATOM     30  C   UNL     1      -3.955  25.942  38.150  1.00  0.00     0.191 C 
BRANCH  30  31
ATOM     31  O   UNL     1      -3.682  27.051  38.963  1.00  0.00    -0.394 OA
ATOM     32  H   UNL     1      -4.227  27.800  38.603  1.00  0.00     0.210 HD
ENDBRANCH  30  31
ENDBRANCH  24  30
BRANCH  25  33
ATOM     33  O   UNL     1      -5.980  23.584  39.264  1.00  0.00    -0.388 OA
ATOM     34  H   UNL     1      -5.241  22.942  39.421  1.00  0.00     0.211 HD
ENDBRANCH  25  33
ENDBRANCH  11  20
BRANCH  10  35
ATOM     35  O   UNL     1      -8.008  26.215  40.173  1.00  0.00    -0.507 OA
ATOM     36  H   UNL     1      -7.100  25.826  40.373  1.00  0.00     0.293 HD
ENDBRANCH  10  35
TORSDOF 9
ENDMDL
MODEL 4
REMARK VINA RESULT:    -3.755      1.631      2.894
REMARK INTER + INTRA:          -5.333
REMARK INTER:                  -5.737
REMARK INTRA:                   0.404
REMARK UNBOUND:                -0.261
REMARK SMILES O=c1c(-c2ccc(O)cc2)coc2c([C@H]3O[C@H](CO)[C@@H](O)[C@@H](O)[C@@H]3O)c(O)ccc12
REMARK SMILES IDX 3 1 11 2 12 3 13 4 30 5 2 6 1 7 29 8 28 9 26 10 14 11 4 12
REMARK SMILES IDX 5 13 6 14 7 15 10 16 9 17 8 18 15 20 24 21 16 22 22 23 17 24
REMARK SMILES IDX 20 25 25 26 23 28 18 30 19 31 21 33 27 35
REMARK H PARENT 8 19 25 27 23 29 19 32 21 34 27 36
REMARK Flexibility Score: inf
ROOT
ATOM      1  C   UNL     1      -8.015  29.432  37.346  1.00  0.00     0.065 A 
ATOM      2  C   UNL     1      -7.351  28.414  36.662  1.00  0.00     0.208 A 
ATOM      3  O   UNL     1      -7.221  27.207  37.201  1.00  0.00    -0.463 OA
ATOM      4  C   UNL     1      -7.675  26.892  38.412  1.00  0.00     0.147 A 
ATOM      5  C   UNL     1      -8.358  27.874  39.171  1.00  0.00     0.066 A 
ATOM      6  C   UNL     1      -8.534  29.157  38.618  1.00  0.00     0.200 A 
ATOM      7  O   UNL     1      -9.125  30.065  39.269  1.00  0.00    -0.288 OA
ATOM      8  C   UNL     1      -8.816  27.564  40.452  1.00  0.00     0.020 A 
ATOM      9  C   UNL     1      -8.552  26.320  41.008  1.00  0.00     0.047 A 
ATOM     10  C   UNL     1      -7.819  25.356  40.313  1.00  0.00     0.125 A 
ATOM     11  C   UNL     1      -7.442  25.592  38.946  1.00  0.00     0.069 A 
ENDROOT
BRANCH   1  12
ATOM     12  C   UNL     1      -8.078  30.791  36.778  1.00  0.00    -0.011 A 
ATOM     13  C   UNL     1      -7.265  31.152  35.695  1.00  0.00     0.013 A 
ATOM     14  C   UNL     1      -7.378  32.425  35.126  1.00  0.00     0.047 A 
ATOM     15  C   UNL     1      -8.272  33.359  35.665  1.00  0.00     0.115 A 
ATOM     16  C   UNL     1      -8.931  31.746  37.355  1.00  0.00     0.013 A 
ATOM     17  C   UNL     1      -9.033  33.020  36.797  1.00  0.00     0.047 A 
BRANCH  15  18
ATOM     18  O   UNL     1      -8.408  34.613  35.075  1.00  0.00    -0.508 OA
ATOM     19  H   UNL     1      -7.725  35.335  35.255  1.00  0.00     0.293 HD
ENDBRANCH  15  18
ENDBRANCH   1  12
BRANCH  11  20
ATOM     20  C   UNL     1      -6.668  24.603  38.053  1.00  0.00     0.188 C 
ATOM     21  C   UNL     1      -6.540  24.910  36.523  1.00  0.00     0.179 C 
ATOM     22  O   UNL     1      -6.989  23.258  38.369  1.00  0.00    -0.362 OA
ATOM     23  C   UNL     1      -6.687  23.607  35.695  1.00  0.00     0.177 C 
ATOM     24  C   UNL     1      -8.134  22.809  37.684  1.00  0.00     0.176 C 
ATOM     25  C   UNL     1      -7.890  22.736  36.147  1.00  0.00     0.177 C 
BRANCH  21  26
ATOM     26  O   UNL     1      -5.285  25.510  36.283  1.00  0.00    -0.387 OA
ATOM     27  H   UNL     1      -4.792  25.584  37.142  1.00  0.00     0.211 HD
ENDBRANCH  21  26
BRANCH  23  28
ATOM     28  O   UNL     1      -6.804  23.935  34.332  1.00  0.00    -0.387 OA
ATOM     29  H   UNL     1      -5.930  24.295  34.042  1.00  0.00     0.211 HD
ENDBRANCH  23  28
BRANCH  24  30
ATOM     30  C   UNL     1      -8.543  21.453  38.264  1.00  0.00     0.191 C 
BRANCH  30  31
ATOM     31  O   UNL     1      -8.837  20.550  37.233  1.00  0.00    -0.394 OA
ATOM     32  H   UNL     1      -8.253  20.801  36.469  1.00  0.00     0.210 HD
ENDBRANCH  30  31
ENDBRANCH  24  30
BRANCH  25  33
ATOM     33  O   UNL     1      -9.054  23.114  35.456  1.00  0.00    -0.388 OA
ATOM     34  H   UNL     1      -9.312  22.341  34.890  1.00  0.00     0.211 HD
ENDBRANCH  25  33
ENDBRANCH  11  20
BRANCH  10  35
ATOM     35  O   UNL     1      -7.498  24.218  41.055  1.00  0.00    -0.507 OA
ATOM     36  H   UNL     1      -7.525  24.134  42.059  1.00  0.00     0.293 HD
ENDBRANCH  10  35
TORSDOF 9
ENDMDL
MODEL 5
REMARK VINA RESULT:    -3.269      1.846      3.999
REMARK INTER + INTRA:          -4.676
REMARK INTER:                  -4.879
REMARK INTRA:                   0.203
REMARK UNBOUND:                -0.261
REMARK SMILES O=c1c(-c2ccc(O)cc2)coc2c([C@H]3O[C@H](CO)[C@@H](O)[C@@H](O)[C@@H]3O)c(O)ccc12
REMARK SMILES IDX 3 1 11 2 12 3 13 4 30 5 2 6 1 7 29 8 28 9 26 10 14 11 4 12
REMARK SMILES IDX 5 13 6 14 7 15 10 16 9 17 8 18 15 20 24 21 16 22 22 23 17 24
REMARK SMILES IDX 20 25 25 26 23 28 18 30 19 31 21 33 27 35
REMARK H PARENT 8 19 25 27 23 29 19 32 21 34 27 36
REMARK Flexibility Score: inf
ROOT
ATOM      1  C   UNL     1      -7.656  28.944  37.058  1.00  0.00     0.065 A 
ATOM      2  C   UNL     1      -7.278  28.528  38.335  1.00  0.00     0.208 A 
ATOM      3  O   UNL     1      -7.131  27.238  38.611  1.00  0.00    -0.463 OA
ATOM      4  C   UNL     1      -7.353  26.268  37.726  1.00  0.00     0.147 A 
ATOM      5  C   UNL     1      -7.743  26.611  36.409  1.00  0.00     0.066 A 
ATOM      6  C   UNL     1      -7.886  27.972  36.076  1.00  0.00     0.200 A 
ATOM      7  O   UNL     1      -8.246  28.319  34.916  1.00  0.00    -0.288 OA
ATOM      8  C   UNL     1      -8.004  25.603  35.479  1.00  0.00     0.020 A 
ATOM      9  C   UNL     1      -7.943  24.269  35.858  1.00  0.00     0.047 A 
ATOM     10  C   UNL     1      -7.631  23.901  37.168  1.00  0.00     0.125 A 
ATOM     11  C   UNL     1      -7.232  24.903  38.118  1.00  0.00     0.069 A 
ENDROOT
BRANCH   1  12
ATOM     12  C   UNL     1      -7.902  30.372  36.784  1.00  0.00    -0.011 A 
ATOM     13  C   UNL     1      -7.170  31.048  35.798  1.00  0.00     0.013 A 
ATOM     14  C   UNL     1      -7.456  32.386  35.506  1.00  0.00     0.047 A 
ATOM     15  C   UNL     1      -8.443  33.069  36.228  1.00  0.00     0.115 A 
ATOM     16  C   UNL     1      -8.850  31.072  37.548  1.00  0.00     0.013 A 
ATOM     17  C   UNL     1      -9.125  32.410  37.266  1.00  0.00     0.047 A 
BRANCH  15  18
ATOM     18  O   UNL     1      -8.749  34.390  35.912  1.00  0.00    -0.508 OA
ATOM     19  H   UNL     1      -8.020  35.088  35.893  1.00  0.00     0.293 HD
ENDBRANCH  15  18
ENDBRANCH   1  12
BRANCH  11  20
ATOM     20  C   UNL     1      -6.827  24.633  39.579  1.00  0.00     0.188 C 
ATOM     21  C   UNL     1      -5.315  24.735  39.974  1.00  0.00     0.179 C 
ATOM     22  O   UNL     1      -7.508  23.507  40.107  1.00  0.00    -0.362 OA
ATOM     23  C   UNL     1      -4.938  23.609  40.970  1.00  0.00     0.177 C 
ATOM     24  C   UNL     1      -6.845  22.299  39.816  1.00  0.00     0.176 C 
ATOM     25  C   UNL     1      -5.466  22.215  40.535  1.00  0.00     0.177 C 
BRANCH  21  26
ATOM     26  O   UNL     1      -5.079  26.004  40.548  1.00  0.00    -0.387 OA
ATOM     27  H   UNL     1      -5.414  26.705  39.929  1.00  0.00     0.211 HD
ENDBRANCH  21  26
BRANCH  23  28
ATOM     28  O   UNL     1      -3.539  23.576  41.125  1.00  0.00    -0.387 OA
ATOM     29  H   UNL     1      -3.251  22.644  40.970  1.00  0.00     0.211 HD
ENDBRANCH  23  28
BRANCH  24  30
ATOM     30  C   UNL     1      -7.765  21.138  40.204  1.00  0.00     0.191 C 
BRANCH  30  31
ATOM     31  O   UNL     1      -7.022  20.100  40.782  1.00  0.00    -0.394 OA
ATOM     32  H   UNL     1      -6.569  19.631  40.032  1.00  0.00     0.210 HD
ENDBRANCH  30  31
ENDBRANCH  24  30
BRANCH  25  33
ATOM     33  O   UNL     1      -4.530  21.573  39.707  1.00  0.00    -0.388 OA
ATOM     34  H   UNL     1      -3.789  22.217  39.564  1.00  0.00     0.211 HD
ENDBRANCH  25  33
ENDBRANCH  11  20
BRANCH  10  35
ATOM     35  O   UNL     1      -7.762  22.537  37.439  1.00  0.00    -0.507 OA
ATOM     36  H   UNL     1      -8.506  21.935  37.123  1.00  0.00     0.293 HD
ENDBRANCH  10  35
TORSDOF 9
ENDMDL
MODEL 6
REMARK VINA RESULT:    -2.707      1.830      3.697
REMARK INTER + INTRA:          -3.917
REMARK INTER:                  -4.594
REMARK INTRA:                   0.677
REMARK UNBOUND:                -0.261
REMARK SMILES O=c1c(-c2ccc(O)cc2)coc2c([C@H]3O[C@H](CO)[C@@H](O)[C@@H](O)[C@@H]3O)c(O)ccc12
REMARK SMILES IDX 3 1 11 2 12 3 13 4 30 5 2 6 1 7 29 8 28 9 26 10 14 11 4 12
REMARK SMILES IDX 5 13 6 14 7 15 10 16 9 17 8 18 15 20 24 21 16 22 22 23 17 24
REMARK SMILES IDX 20 25 25 26 23 28 18 30 19 31 21 33 27 35
REMARK H PARENT 8 19 25 27 23 29 19 32 21 34 27 36
REMARK Flexibility Score: inf
ROOT
ATOM      1  C   UNL     1      -7.891  30.421  37.231  1.00  0.00     0.065 A 
ATOM      2  C   UNL     1      -7.722  29.845  38.491  1.00  0.00     0.208 A 
ATOM      3  O   UNL     1      -7.511  28.541  38.617  1.00  0.00    -0.463 OA
ATOM      4  C   UNL     1      -7.474  27.701  37.585  1.00  0.00     0.147 A 
ATOM      5  C   UNL     1      -7.641  28.210  36.273  1.00  0.00     0.066 A 
ATOM      6  C   UNL     1      -7.843  29.593  36.104  1.00  0.00     0.200 A 
ATOM      7  O   UNL     1      -8.010  30.084  34.951  1.00  0.00    -0.288 OA
ATOM      8  C   UNL     1      -7.630  27.336  35.185  1.00  0.00     0.020 A 
ATOM      9  C   UNL     1      -7.518  25.968  35.387  1.00  0.00     0.047 A 
ATOM     10  C   UNL     1      -7.425  25.430  36.672  1.00  0.00     0.125 A 
ATOM     11  C   UNL     1      -7.304  26.304  37.807  1.00  0.00     0.069 A 
ENDROOT
BRANCH   1  12
ATOM     12  C   UNL     1      -8.211  31.855  37.107  1.00  0.00    -0.011 A 
ATOM     13  C   UNL     1      -8.778  32.557  38.180  1.00  0.00     0.013 A 
ATOM     14  C   UNL     1      -9.021  33.931  38.070  1.00  0.00     0.047 A 
ATOM     15  C   UNL     1      -8.741  34.601  36.872  1.00  0.00     0.115 A 
ATOM     16  C   UNL     1      -7.985  32.514  35.888  1.00  0.00     0.013 A 
ATOM     17  C   UNL     1      -8.241  33.881  35.774  1.00  0.00     0.047 A 
BRANCH  15  18
ATOM     18  O   UNL     1      -8.950  35.974  36.777  1.00  0.00    -0.508 OA
ATOM     19  H   UNL     1      -9.859  36.331  36.519  1.00  0.00     0.293 HD
ENDBRANCH  15  18
ENDBRANCH   1  12
BRANCH  11  20
ATOM     20  C   UNL     1      -7.156  25.846  39.270  1.00  0.00     0.188 C 
ATOM     21  C   UNL     1      -5.718  25.690  39.870  1.00  0.00     0.179 C 
ATOM     22  O   UNL     1      -8.050  24.789  39.577  1.00  0.00    -0.362 OA
ATOM     23  C   UNL     1      -5.642  24.436  40.778  1.00  0.00     0.177 C 
ATOM     24  C   UNL     1      -7.516  23.528  39.245  1.00  0.00     0.176 C 
ATOM     25  C   UNL     1      -6.281  23.179  40.126  1.00  0.00     0.177 C 
BRANCH  21  26
ATOM     26  O   UNL     1      -5.403  26.854  40.606  1.00  0.00    -0.387 OA
ATOM     27  H   UNL     1      -5.508  26.661  41.575  1.00  0.00     0.211 HD
ENDBRANCH  21  26
BRANCH  23  28
ATOM     28  O   UNL     1      -4.298  24.186  41.112  1.00  0.00    -0.387 OA
ATOM     29  H   UNL     1      -4.196  23.206  41.192  1.00  0.00     0.211 HD
ENDBRANCH  23  28
BRANCH  24  30
ATOM     30  C   UNL     1      -8.628  22.484  39.377  1.00  0.00     0.191 C 
BRANCH  30  31
ATOM     31  O   UNL     1      -8.081  21.194  39.425  1.00  0.00    -0.394 OA
ATOM     32  H   UNL     1      -8.150  20.828  38.504  1.00  0.00     0.210 HD
ENDBRANCH  30  31
ENDBRANCH  24  30
BRANCH  25  33
ATOM     33  O   UNL     1      -5.326  22.485  39.363  1.00  0.00    -0.388 OA
ATOM     34  H   UNL     1      -4.923  21.805  39.962  1.00  0.00     0.211 HD
ENDBRANCH  25  33
ENDBRANCH  11  20
BRANCH  10  35
ATOM     35  O   UNL     1      -7.478  24.035  36.727  1.00  0.00    -0.507 OA
ATOM     36  H   UNL     1      -7.768  23.419  35.984  1.00  0.00     0.293 HD
ENDBRANCH  10  35
TORSDOF 9
ENDMDL
MODEL 7
REMARK VINA RESULT:    -2.623      1.776      3.475
REMARK INTER + INTRA:          -3.804
REMARK INTER:                  -4.180
REMARK INTRA:                   0.376
REMARK UNBOUND:                -0.261
REMARK SMILES O=c1c(-c2ccc(O)cc2)coc2c([C@H]3O[C@H](CO)[C@@H](O)[C@@H](O)[C@@H]3O)c(O)ccc12
REMARK SMILES IDX 3 1 11 2 12 3 13 4 30 5 2 6 1 7 29 8 28 9 26 10 14 11 4 12
REMARK SMILES IDX 5 13 6 14 7 15 10 16 9 17 8 18 15 20 24 21 16 22 22 23 17 24
REMARK SMILES IDX 20 25 25 26 23 28 18 30 19 31 21 33 27 35
REMARK H PARENT 8 19 25 27 23 29 19 32 21 34 27 36
REMARK Flexibility Score: inf
ROOT
ATOM      1  C   UNL     1      -7.745  28.470  36.340  1.00  0.00     0.065 A 
ATOM      2  C   UNL     1      -7.955  27.652  37.451  1.00  0.00     0.208 A 
ATOM      3  O   UNL     1      -7.802  26.336  37.363  1.00  0.00    -0.463 OA
ATOM      4  C   UNL     1      -7.473  25.710  36.235  1.00  0.00     0.147 A 
ATOM      5  C   UNL     1      -7.246  26.472  35.063  1.00  0.00     0.066 A 
ATOM      6  C   UNL     1      -7.377  27.872  35.128  1.00  0.00     0.200 A 
ATOM      7  O   UNL     1      -7.197  28.586  34.101  1.00  0.00    -0.288 OA
ATOM      8  C   UNL     1      -6.926  25.825  33.868  1.00  0.00     0.020 A 
ATOM      9  C   UNL     1      -6.890  24.438  33.811  1.00  0.00     0.047 A 
ATOM     10  C   UNL     1      -7.179  23.658  34.932  1.00  0.00     0.125 A 
ATOM     11  C   UNL     1      -7.387  24.288  36.208  1.00  0.00     0.069 A 
ENDROOT
BRANCH   1  12
ATOM     12  C   UNL     1      -8.002  29.919  36.424  1.00  0.00    -0.011 A 
ATOM     13  C   UNL     1      -8.934  30.428  37.340  1.00  0.00     0.013 A 
ATOM     14  C   UNL     1      -9.125  31.810  37.453  1.00  0.00     0.047 A 
ATOM     15  C   UNL     1      -8.419  32.687  36.620  1.00  0.00     0.115 A 
ATOM     16  C   UNL     1      -7.339  30.794  35.549  1.00  0.00     0.013 A 
ATOM     17  C   UNL     1      -7.541  32.171  35.652  1.00  0.00     0.047 A 
BRANCH  15  18
ATOM     18  O   UNL     1      -8.585  34.063  36.758  1.00  0.00    -0.508 OA
ATOM     19  H   UNL     1      -7.778  34.669  36.790  1.00  0.00     0.293 HD
ENDBRANCH  15  18
ENDBRANCH   1  12
BRANCH  11  20
ATOM     20  C   UNL     1      -7.676  23.549  37.528  1.00  0.00     0.188 C 
ATOM     21  C   UNL     1      -7.720  24.372  38.859  1.00  0.00     0.179 C 
ATOM     22  O   UNL     1      -6.963  22.325  37.605  1.00  0.00    -0.362 OA
ATOM     23  C   UNL     1      -7.052  23.578  40.010  1.00  0.00     0.177 C 
ATOM     24  C   UNL     1      -5.661  22.499  38.115  1.00  0.00     0.176 C 
ATOM     25  C   UNL     1      -5.687  22.958  39.604  1.00  0.00     0.177 C 
BRANCH  21  26
ATOM     26  O   UNL     1      -9.068  24.658  39.173  1.00  0.00    -0.387 OA
ATOM     27  H   UNL     1      -9.550  24.894  38.337  1.00  0.00     0.211 HD
ENDBRANCH  21  26
BRANCH  23  28
ATOM     28  O   UNL     1      -6.894  24.422  41.125  1.00  0.00    -0.387 OA
ATOM     29  H   UNL     1      -5.923  24.501  41.295  1.00  0.00     0.211 HD
ENDBRANCH  23  28
BRANCH  24  30
ATOM     30  C   UNL     1      -4.893  21.188  37.933  1.00  0.00     0.191 C 
BRANCH  30  31
ATOM     31  O   UNL     1      -4.923  20.788  36.590  1.00  0.00    -0.394 OA
ATOM     32  H   UNL     1      -5.874  20.595  36.379  1.00  0.00     0.210 HD
ENDBRANCH  30  31
ENDBRANCH  24  30
BRANCH  25  33
ATOM     33  O   UNL     1      -4.645  23.870  39.844  1.00  0.00    -0.388 OA
ATOM     34  H   UNL     1      -4.413  24.274  38.968  1.00  0.00     0.211 HD
ENDBRANCH  25  33
ENDBRANCH  11  20
BRANCH  10  35
ATOM     35  O   UNL     1      -7.259  22.286  34.685  1.00  0.00    -0.507 OA
ATOM     36  H   UNL     1      -6.491  21.634  34.691  1.00  0.00     0.293 HD
ENDBRANCH  10  35
TORSDOF 9
ENDMDL
