MODEL 1
REMARK VINA RESULT:    -1.361      0.000      0.000
REMARK INTER + INTRA:          -1.618
REMARK INTER:                  -1.560
REMARK INTRA:                  -0.058
REMARK UNBOUND:                -0.058
REMARK SMILES CC(C)[C@H]([NH3+])C(=O)[O-]
REMARK SMILES IDX 4 1 5 2 6 6 7 7 8 8 2 9 1 10 3 11
REMARK H PARENT 5 3 5 4 5 5
REMARK Flexibility Score: inf
ROOT
ATOM      1  C   UNL     1     152.967 136.489  96.516  1.00  0.00     0.230 C 
ENDROOT
BRANCH   1   2
ATOM      2  N   UNL     1     152.971 135.020  96.570  1.00  0.00    -0.350 N 
ATOM      3  H   UNL     1     152.230 134.645  95.933  1.00  0.00     0.345 HD
ATOM      4  H   UNL     1     152.757 134.696  97.541  1.00  0.00     0.345 HD
ATOM      5  H   UNL     1     153.893 134.628  96.272  1.00  0.00     0.345 HD
ENDBRANCH   1   2
BRANCH   1   6
ATOM      6  C   UNL     1     152.764 136.973  95.100  1.00  0.00     0.099 C 
ATOM      7  O   UNL     1     153.660 137.633  94.509  1.00  0.00    -0.544 OA
ATOM      8  O   UNL     1     151.564 136.717  94.448  1.00  0.00    -0.544 OA
ENDBRANCH   1   6
BRANCH   1   9
ATOM      9  C   UNL     1     154.237 137.095  97.185  1.00  0.00     0.047 C 
ATOM     10  C   UNL     1     155.038 136.022  97.938  1.00  0.00     0.014 C 
ATOM     11  C   UNL     1     153.936 138.279  98.120  1.00  0.00     0.014 C 
ENDBRANCH   1   9
TORSDOF 3
ENDMDL
MODEL 2
REMARK VINA RESULT:    -1.353      2.516      3.719
REMARK INTER + INTRA:          -1.608
REMARK INTER:                  -1.561
REMARK INTRA:                  -0.047
REMARK UNBOUND:                -0.058
REMARK SMILES CC(C)[C@H]([NH3+])C(=O)[O-]
REMARK SMILES IDX 4 1 5 2 6 6 7 7 8 8 2 9 1 10 3 11
REMARK H PARENT 5 3 5 4 5 5
REMARK Flexibility Score: inf
ROOT
ATOM      1  C   UNL     1     153.201 137.696  96.204  1.00  0.00     0.230 C 
ENDROOT
BRANCH   1   2
ATOM      2  N   UNL     1     153.647 138.968  96.789  1.00  0.00    -0.350 N 
ATOM      3  H   UNL     1     154.492 139.312  96.275  1.00  0.00     0.345 HD
ATOM      4  H   UNL     1     153.913 138.829  97.791  1.00  0.00     0.345 HD
ATOM      5  H   UNL     1     152.903 139.699  96.729  1.00  0.00     0.345 HD
ENDBRANCH   1   2
BRANCH   1   6
ATOM      6  C   UNL     1     153.673 136.527  97.037  1.00  0.00     0.099 C 
ATOM      7  O   UNL     1     152.913 135.549  97.266  1.00  0.00    -0.544 OA
ATOM      8  O   UNL     1     154.951 136.540  97.583  1.00  0.00    -0.544 OA
ENDBRANCH   1   6
BRANCH   1   9
ATOM      9  C   UNL     1     153.609 137.573  94.706  1.00  0.00     0.047 C 
ATOM     10  C   UNL     1     153.750 138.956  94.051  1.00  0.00     0.014 C 
ATOM     11  C   UNL     1     152.657 136.694  93.876  1.00  0.00     0.014 C 
ENDBRANCH   1   9
TORSDOF 3
ENDMDL
MODEL 3
REMARK VINA RESULT:    -1.341      2.525      3.557
REMARK INTER + INTRA:          -1.595
REMARK INTER:                  -1.540
REMARK INTRA:                  -0.055
REMARK UNBOUND:                -0.058
REMARK SMILES CC(C)[C@H]([NH3+])C(=O)[O-]
REMARK SMILES IDX 4 1 5 2 6 6 7 7 8 8 2 9 1 10 3 11
REMARK H PARENT 5 3 5 4 5 5
REMARK Flexibility Score: inf
ROOT
ATOM      1  C   UNL     1     152.881 136.760  96.045  1.00  0.00     0.230 C 
ENDROOT
BRANCH   1   2
ATOM      2  N   UNL     1     153.727 137.232  94.939  1.00  0.00    -0.350 N 
ATOM      3  H   UNL     1     153.176 137.880  94.330  1.00  0.00     0.345 HD
ATOM      4  H   UNL     1     154.037 136.423  94.354  1.00  0.00     0.345 HD
ATOM      5  H   UNL     1     154.568 137.744  95.291  1.00  0.00     0.345 HD
ENDBRANCH   1   2
BRANCH   1   6
ATOM      6  C   UNL     1     153.718 136.429  97.258  1.00  0.00     0.099 C 
ATOM      7  O   UNL     1     154.421 137.312  97.817  1.00  0.00    -0.544 OA
ATOM      8  O   UNL     1     153.739 135.129  97.749  1.00  0.00    -0.544 OA
ENDBRANCH   1   6
BRANCH   1   9
ATOM      9  C   UNL     1     151.962 135.581  95.606  1.00  0.00     0.047 C 
ATOM     10  C   UNL     1     151.912 135.451  94.076  1.00  0.00     0.014 C 
ATOM     11  C   UNL     1     150.533 135.668  96.172  1.00  0.00     0.014 C 
ENDBRANCH   1   9
TORSDOF 3
ENDMDL
MODEL 4
REMARK VINA RESULT:    -1.263      2.205      3.281
REMARK INTER + INTRA:          -1.506
REMARK INTER:                  -1.447
REMARK INTRA:                  -0.059
REMARK UNBOUND:                -0.058
REMARK SMILES CC(C)[C@H]([NH3+])C(=O)[O-]
REMARK SMILES IDX 4 1 5 2 6 6 7 7 8 8 2 9 1 10 3 11
REMARK H PARENT 5 3 5 4 5 5
REMARK Flexibility Score: inf
ROOT
ATOM      1  C   UNL     1     153.598 137.412  95.959  1.00  0.00     0.230 C 
ENDROOT
BRANCH   1   2
ATOM      2  N   UNL     1     154.443 136.569  96.818  1.00  0.00    -0.350 N 
ATOM      3  H   UNL     1     154.364 135.570  96.514  1.00  0.00     0.345 HD
ATOM      4  H   UNL     1     154.118 136.630  97.811  1.00  0.00     0.345 HD
ATOM      5  H   UNL     1     155.447 136.853  96.766  1.00  0.00     0.345 HD
ENDBRANCH   1   2
BRANCH   1   6
ATOM      6  C   UNL     1     153.192 138.675  96.680  1.00  0.00     0.099 C 
ATOM      7  O   UNL     1     152.034 139.152  96.543  1.00  0.00    -0.544 OA
ATOM      8  O   UNL     1     154.112 139.340  97.481  1.00  0.00    -0.544 OA
ENDBRANCH   1   6
BRANCH   1   9
ATOM      9  C   UNL     1     152.381 136.623  95.391  1.00  0.00     0.047 C 
ATOM     10  C   UNL     1     152.163 135.307  96.155  1.00  0.00     0.014 C 
ATOM     11  C   UNL     1     152.476 136.344  93.881  1.00  0.00     0.014 C 
ENDBRANCH   1   9
TORSDOF 3
ENDMDL
MODEL 5
REMARK VINA RESULT:    -1.213      2.129      2.703
REMARK INTER + INTRA:          -1.449
REMARK INTER:                  -1.401
REMARK INTRA:                  -0.048
REMARK UNBOUND:                -0.058
REMARK SMILES CC(C)[C@H]([NH3+])C(=O)[O-]
REMARK SMILES IDX 4 1 5 2 6 6 7 7 8 8 2 9 1 10 3 11
REMARK H PARENT 5 3 5 4 5 5
REMARK Flexibility Score: inf
ROOT
ATOM      1  C   UNL     1     152.156 136.087  95.495  1.00  0.00     0.230 C 
ENDROOT
BRANCH   1   2
ATOM      2  N   UNL     1     152.413 135.659  94.112  1.00  0.00    -0.350 N 
ATOM      3  H   UNL     1     153.415 135.842  93.871  1.00  0.00     0.345 HD
ATOM      4  H   UNL     1     151.817 136.206  93.451  1.00  0.00     0.345 HD
ATOM      5  H   UNL     1     152.223 134.639  93.985  1.00  0.00     0.345 HD
ENDBRANCH   1   2
BRANCH   1   6
ATOM      6  C   UNL     1     150.676 136.276  95.732  1.00  0.00     0.099 C 
ATOM      7  O   UNL     1     150.258 136.864  96.764  1.00  0.00    -0.544 OA
ATOM      8  O   UNL     1     149.760 135.769  94.818  1.00  0.00    -0.544 OA
ENDBRANCH   1   6
BRANCH   1   9
ATOM      9  C   UNL     1     152.994 137.344  95.877  1.00  0.00     0.047 C 
ATOM     10  C   UNL     1     153.622 137.994  94.634  1.00  0.00     0.014 C 
ATOM     11  C   UNL     1     154.080 137.066  96.930  1.00  0.00     0.014 C 
ENDBRANCH   1   9
TORSDOF 3
ENDMDL
MODEL 6
REMARK VINA RESULT:    -1.194      1.366      2.093
REMARK INTER + INTRA:          -1.426
REMARK INTER:                  -1.351
REMARK INTRA:                  -0.075
REMARK UNBOUND:                -0.058
REMARK SMILES CC(C)[C@H]([NH3+])C(=O)[O-]
REMARK SMILES IDX 4 1 5 2 6 6 7 7 8 8 2 9 1 10 3 11
REMARK H PARENT 5 3 5 4 5 5
REMARK Flexibility Score: inf
ROOT
ATOM      1  C   UNL     1     153.380 137.254  96.675  1.00  0.00     0.230 C 
ENDROOT
BRANCH   1   2
ATOM      2  N   UNL     1     154.591 136.452  96.905  1.00  0.00    -0.350 N 
ATOM      3  H   UNL     1     154.372 135.439  96.755  1.00  0.00     0.345 HD
ATOM      4  H   UNL     1     154.917 136.569  97.891  1.00  0.00     0.345 HD
ATOM      5  H   UNL     1     155.360 136.725  96.252  1.00  0.00     0.345 HD
ENDBRANCH   1   2
BRANCH   1   6
ATOM      6  C   UNL     1     152.828 137.009  95.291  1.00  0.00     0.099 C 
ATOM      7  O   UNL     1     151.727 136.418  95.130  1.00  0.00    -0.544 OA
ATOM      8  O   UNL     1     153.554 137.412  94.177  1.00  0.00    -0.544 OA
ENDBRANCH   1   6
BRANCH   1   9
ATOM      9  C   UNL     1     153.622 138.764  96.970  1.00  0.00     0.047 C 
ATOM     10  C   UNL     1     154.110 138.980  98.411  1.00  0.00     0.014 C 
ATOM     11  C   UNL     1     152.397 139.652  96.692  1.00  0.00     0.014 C 
ENDBRANCH   1   9
TORSDOF 3
ENDMDL
MODEL 7
REMARK VINA RESULT:    -1.176      2.648      3.829
REMARK INTER + INTRA:          -1.406
REMARK INTER:                  -1.395
REMARK INTRA:                  -0.012
REMARK UNBOUND:                -0.058
REMARK SMILES CC(C)[C@H]([NH3+])C(=O)[O-]
REMARK SMILES IDX 4 1 5 2 6 6 7 7 8 8 2 9 1 10 3 11
REMARK H PARENT 5 3 5 4 5 5
REMARK Flexibility Score: inf
ROOT
ATOM      1  C   UNL     1     152.515 136.810  95.802  1.00  0.00     0.230 C 
ENDROOT
BRANCH   1   2
ATOM      2  N   UNL     1     153.959 137.040  95.644  1.00  0.00    -0.350 N 
ATOM      3  H   UNL     1     154.250 136.779  94.673  1.00  0.00     0.345 HD
ATOM      4  H   UNL     1     154.493 136.440  96.314  1.00  0.00     0.345 HD
ATOM      5  H   UNL     1     154.207 138.042  95.805  1.00  0.00     0.345 HD
ENDBRANCH   1   2
BRANCH   1   6
ATOM      6  C   UNL     1     152.247 135.826  96.916  1.00  0.00     0.099 C 
ATOM      7  O   UNL     1     153.143 135.029  97.303  1.00  0.00    -0.544 OA
ATOM      8  O   UNL     1     150.989 135.775  97.504  1.00  0.00    -0.544 OA
ENDBRANCH   1   6
BRANCH   1   9
ATOM      9  C   UNL     1     151.845 136.397  94.457  1.00  0.00     0.047 C 
ATOM     10  C   UNL     1     150.481 137.081  94.280  1.00  0.00     0.014 C 
ATOM     11  C   UNL     1     151.696 134.876  94.283  1.00  0.00     0.014 C 
ENDBRANCH   1   9
TORSDOF 3
ENDMDL
MODEL 8
REMARK VINA RESULT:    -1.146     23.117     23.720
REMARK INTER + INTRA:          -1.372
REMARK INTER:                  -1.306
REMARK INTRA:                  -0.066
REMARK UNBOUND:                -0.058
REMARK SMILES CC(C)[C@H]([NH3+])C(=O)[O-]
REMARK SMILES IDX 4 1 5 2 6 6 7 7 8 8 2 9 1 10 3 11
REMARK H PARENT 5 3 5 4 5 5
REMARK Flexibility Score: inf
ROOT
ATOM      1  C   UNL     1     136.790 152.992  96.120  1.00  0.00     0.230 C 
ENDROOT
BRANCH   1   2
ATOM      2  N   UNL     1     135.631 152.498  95.364  1.00  0.00    -0.350 N 
ATOM      3  H   UNL     1     134.763 152.976  95.703  1.00  0.00     0.345 HD
ATOM      4  H   UNL     1     135.514 151.470  95.517  1.00  0.00     0.345 HD
ATOM      5  H   UNL     1     135.733 152.685  94.341  1.00  0.00     0.345 HD
ENDBRANCH   1   2
BRANCH   1   6
ATOM      6  C   UNL     1     136.404 153.317  97.544  1.00  0.00     0.099 C 
ATOM      7  O   UNL     1     136.789 152.593  98.499  1.00  0.00    -0.544 OA
ATOM      8  O   UNL     1     135.588 154.412  97.805  1.00  0.00    -0.544 OA
ENDBRANCH   1   6
BRANCH   1   9
ATOM      9  C   UNL     1     137.488 154.183  95.397  1.00  0.00     0.047 C 
ATOM     10  C   UNL     1     137.515 153.973  93.875  1.00  0.00     0.014 C 
ATOM     11  C   UNL     1     138.908 154.472  95.913  1.00  0.00     0.014 C 
ENDBRANCH   1   9
TORSDOF 3
ENDMDL
