MODEL 1
REMARK VINA RESULT:    -2.051      0.000      0.000
REMARK INTER + INTRA:          -4.033
REMARK INTER:                  -2.530
REMARK INTRA:                  -1.502
REMARK UNBOUND:                -1.502
REMARK SMILES CC(C)=CCC[C@@H](C)c1ccc(C)cc1
REMARK SMILES IDX 6 1 7 2 8 3 9 4 13 5 12 6 11 7 14 8 10 9 15 10 5 11 4 12
REMARK SMILES IDX 2 13 1 14 3 15
REMARK H PARENT
REMARK Flexibility Score: inf
ROOT
ATOM      1  C   UNL     1       1.049  -9.697  25.884  1.00  0.00     0.012 C 
ENDROOT
BRANCH   1   2
ATOM      2  C   UNL     1       1.239 -11.188  26.258  1.00  0.00     0.016 C 
ATOM      3  C   UNL     1       0.928 -12.123  25.078  1.00  0.00     0.013 C 
BRANCH   2   4
ATOM      4  C   UNL     1       2.650 -11.436  26.762  1.00  0.00    -0.045 A 
ATOM      5  C   UNL     1       6.652 -12.125  28.231  1.00  0.00     0.044 C 
ATOM      6  C   UNL     1       5.262 -11.915  27.711  1.00  0.00    -0.051 A 
ATOM      7  C   UNL     1       4.155 -12.124  28.547  1.00  0.00     0.004 A 
ATOM      8  C   UNL     1       5.059 -11.441  26.407  1.00  0.00     0.004 A 
ATOM      9  C   UNL     1       2.860 -11.894  28.074  1.00  0.00     0.004 A 
ATOM     10  C   UNL     1       3.764 -11.210  25.933  1.00  0.00     0.004 A 
ENDBRANCH   2   4
ENDBRANCH   1   2
BRANCH   1  11
ATOM     11  C   UNL     1       1.308  -8.733  27.054  1.00  0.00     0.028 C 
BRANCH  11  12
ATOM     12  C   UNL     1       2.521  -7.869  26.794  1.00  0.00    -0.028 C 
ATOM     13  C   UNL     1       3.578  -7.745  27.627  1.00  0.00    -0.080 C 
ATOM     14  C   UNL     1       3.647  -8.464  28.953  1.00  0.00     0.039 C 
ATOM     15  C   UNL     1       4.720  -6.856  27.207  1.00  0.00     0.039 C 
ENDBRANCH  11  12
ENDBRANCH   1  11
TORSDOF 4
ENDMDL
MODEL 2
REMARK VINA RESULT:    -2.037      1.061      2.054
REMARK INTER + INTRA:          -4.016
REMARK INTER:                  -2.465
REMARK INTRA:                  -1.551
REMARK UNBOUND:                -1.502
REMARK SMILES CC(C)=CCC[C@@H](C)c1ccc(C)cc1
REMARK SMILES IDX 6 1 7 2 8 3 9 4 13 5 12 6 11 7 14 8 10 9 15 10 5 11 4 12
REMARK SMILES IDX 2 13 1 14 3 15
REMARK H PARENT
REMARK Flexibility Score: inf
ROOT
ATOM      1  C   UNL     1       1.217 -11.353  26.266  1.00  0.00     0.012 C 
ENDROOT
BRANCH   1   2
ATOM      2  C   UNL     1       2.502 -12.125  25.874  1.00  0.00     0.016 C 
ATOM      3  C   UNL     1       3.103 -11.613  24.556  1.00  0.00     0.013 C 
BRANCH   2   4
ATOM      4  C   UNL     1       3.534 -12.039  26.985  1.00  0.00    -0.045 A 
ATOM      5  C   UNL     1       6.493 -11.825  30.123  1.00  0.00     0.044 C 
ATOM      6  C   UNL     1       5.466 -11.869  29.031  1.00  0.00    -0.051 A 
ATOM      7  C   UNL     1       5.863 -12.004  27.693  1.00  0.00     0.004 A 
ATOM      8  C   UNL     1       4.099 -11.844  29.345  1.00  0.00     0.004 A 
ATOM      9  C   UNL     1       4.905 -12.082  26.677  1.00  0.00     0.004 A 
ATOM     10  C   UNL     1       3.141 -11.921  28.331  1.00  0.00     0.004 A 
ENDBRANCH   2   4
ENDBRANCH   1   2
BRANCH   1  11
ATOM     11  C   UNL     1       1.240  -9.873  25.853  1.00  0.00     0.028 C 
BRANCH  11  12
ATOM     12  C   UNL     1       1.374  -8.969  27.058  1.00  0.00    -0.028 C 
ATOM     13  C   UNL     1       2.510  -8.342  27.434  1.00  0.00    -0.080 C 
ATOM     14  C   UNL     1       3.806  -8.500  26.677  1.00  0.00     0.039 C 
ATOM     15  C   UNL     1       2.468  -7.455  28.653  1.00  0.00     0.039 C 
ENDBRANCH  11  12
ENDBRANCH   1  11
TORSDOF 4
ENDMDL
MODEL 3
REMARK VINA RESULT:    -2.015      1.951      4.113
REMARK INTER + INTRA:          -3.989
REMARK INTER:                  -2.429
REMARK INTRA:                  -1.560
REMARK UNBOUND:                -1.502
REMARK SMILES CC(C)=CCC[C@@H](C)c1ccc(C)cc1
REMARK SMILES IDX 6 1 7 2 8 3 9 4 13 5 12 6 11 7 14 8 10 9 15 10 5 11 4 12
REMARK SMILES IDX 2 13 1 14 3 15
REMARK H PARENT
REMARK Flexibility Score: inf
ROOT
ATOM      1  C   UNL     1       4.170 -10.849  26.986  1.00  0.00     0.012 C 
ENDROOT
BRANCH   1   2
ATOM      2  C   UNL     1       3.219 -12.002  26.578  1.00  0.00     0.016 C 
ATOM      3  C   UNL     1       2.020 -12.125  27.531  1.00  0.00     0.013 C 
BRANCH   2   4
ATOM      4  C   UNL     1       2.733 -11.812  25.152  1.00  0.00    -0.045 A 
ATOM      5  C   UNL     1       1.329 -11.310  21.099  1.00  0.00     0.044 C 
ATOM      6  C   UNL     1       1.808 -11.455  22.512  1.00  0.00    -0.051 A 
ATOM      7  C   UNL     1       0.948 -11.952  23.502  1.00  0.00     0.004 A 
ATOM      8  C   UNL     1       3.139 -11.161  22.841  1.00  0.00     0.004 A 
ATOM      9  C   UNL     1       1.405 -12.123  24.813  1.00  0.00     0.004 A 
ATOM     10  C   UNL     1       3.596 -11.331  24.151  1.00  0.00     0.004 A 
ENDBRANCH   2   4
ENDBRANCH   1   2
BRANCH   1  11
ATOM     11  C   UNL     1       3.435  -9.603  27.508  1.00  0.00     0.028 C 
BRANCH  11  12
ATOM     12  C   UNL     1       3.383  -8.516  26.459  1.00  0.00    -0.028 C 
ATOM     13  C   UNL     1       2.273  -8.142  25.784  1.00  0.00    -0.080 C 
ATOM     14  C   UNL     1       0.935  -8.806  26.005  1.00  0.00     0.039 C 
ATOM     15  C   UNL     1       2.387  -7.022  24.783  1.00  0.00     0.039 C 
ENDBRANCH  11  12
ENDBRANCH   1  11
TORSDOF 4
ENDMDL
MODEL 4
REMARK VINA RESULT:    -2.012      1.866      4.407
REMARK INTER + INTRA:          -3.984
REMARK INTER:                  -2.406
REMARK INTRA:                  -1.578
REMARK UNBOUND:                -1.502
REMARK SMILES CC(C)=CCC[C@@H](C)c1ccc(C)cc1
REMARK SMILES IDX 6 1 7 2 8 3 9 4 13 5 12 6 11 7 14 8 10 9 15 10 5 11 4 12
REMARK SMILES IDX 2 13 1 14 3 15
REMARK H PARENT
REMARK Flexibility Score: inf
ROOT
ATOM      1  C   UNL     1       2.902  -8.144  28.393  1.00  0.00     0.012 C 
ENDROOT
BRANCH   1   2
ATOM      2  C   UNL     1       1.646  -7.853  27.534  1.00  0.00     0.016 C 
ATOM      3  C   UNL     1       1.716  -6.473  26.861  1.00  0.00     0.013 C 
BRANCH   2   4
ATOM      4  C   UNL     1       1.454  -8.935  26.486  1.00  0.00    -0.045 A 
ATOM      5  C   UNL     1       0.875 -11.991  23.490  1.00  0.00     0.044 C 
ATOM      6  C   UNL     1       1.106 -10.928  24.523  1.00  0.00    -0.051 A 
ATOM      7  C   UNL     1       0.906  -9.577  24.203  1.00  0.00     0.004 A 
ATOM      8  C   UNL     1       1.456 -11.281  25.834  1.00  0.00     0.004 A 
ATOM      9  C   UNL     1       1.085  -8.588  25.175  1.00  0.00     0.004 A 
ATOM     10  C   UNL     1       1.636 -10.293  26.806  1.00  0.00     0.004 A 
ENDBRANCH   2   4
ENDBRANCH   1   2
BRANCH   1  11
ATOM     11  C   UNL     1       4.217  -7.717  27.721  1.00  0.00     0.028 C 
BRANCH  11  12
ATOM     12  C   UNL     1       5.014  -8.918  27.262  1.00  0.00    -0.028 C 
ATOM     13  C   UNL     1       5.247  -9.246  25.972  1.00  0.00    -0.080 C 
ATOM     14  C   UNL     1       4.703  -8.431  24.823  1.00  0.00     0.039 C 
ATOM     15  C   UNL     1       6.082 -10.467  25.683  1.00  0.00     0.039 C 
ENDBRANCH  11  12
ENDBRANCH   1  11
TORSDOF 4
ENDMDL
MODEL 5
REMARK VINA RESULT:    -2.002      1.888      4.426
REMARK INTER + INTRA:          -3.973
REMARK INTER:                  -2.400
REMARK INTRA:                  -1.573
REMARK UNBOUND:                -1.502
REMARK SMILES CC(C)=CCC[C@@H](C)c1ccc(C)cc1
REMARK SMILES IDX 6 1 7 2 8 3 9 4 13 5 12 6 11 7 14 8 10 9 15 10 5 11 4 12
REMARK SMILES IDX 2 13 1 14 3 15
REMARK H PARENT
REMARK Flexibility Score: inf
ROOT
ATOM      1  C   UNL     1       2.507 -11.908  24.561  1.00  0.00     0.012 C 
ENDROOT
BRANCH   1   2
ATOM      2  C   UNL     1       1.490 -11.429  25.626  1.00  0.00     0.016 C 
ATOM      3  C   UNL     1       1.709 -12.117  26.983  1.00  0.00     0.013 C 
BRANCH   2   4
ATOM      4  C   UNL     1       1.560  -9.921  25.789  1.00  0.00    -0.045 A 
ATOM      5  C   UNL     1       1.785  -5.630  26.221  1.00  0.00     0.044 C 
ATOM      6  C   UNL     1       1.676  -7.118  26.071  1.00  0.00    -0.051 A 
ATOM      7  C   UNL     1       1.683  -7.702  24.796  1.00  0.00     0.004 A 
ATOM      8  C   UNL     1       1.636  -7.942  27.205  1.00  0.00     0.004 A 
ATOM      9  C   UNL     1       1.618  -9.092  24.656  1.00  0.00     0.004 A 
ATOM     10  C   UNL     1       1.571  -9.331  27.066  1.00  0.00     0.004 A 
ENDBRANCH   2   4
ENDBRANCH   1   2
BRANCH   1  11
ATOM     11  C   UNL     1       3.943 -12.034  25.096  1.00  0.00     0.028 C 
BRANCH  11  12
ATOM     12  C   UNL     1       4.795 -10.863  24.660  1.00  0.00    -0.028 C 
ATOM     13  C   UNL     1       5.321  -9.935  25.490  1.00  0.00    -0.080 C 
ATOM     14  C   UNL     1       5.088  -9.964  26.981  1.00  0.00     0.039 C 
ATOM     15  C   UNL     1       6.170  -8.841  24.894  1.00  0.00     0.039 C 
ENDBRANCH  11  12
ENDBRANCH   1  11
TORSDOF 4
ENDMDL
MODEL 6
REMARK VINA RESULT:    -1.945      2.260      3.529
REMARK INTER + INTRA:          -3.902
REMARK INTER:                  -2.324
REMARK INTRA:                  -1.578
REMARK UNBOUND:                -1.502
REMARK SMILES CC(C)=CCC[C@@H](C)c1ccc(C)cc1
REMARK SMILES IDX 6 1 7 2 8 3 9 4 13 5 12 6 11 7 14 8 10 9 15 10 5 11 4 12
REMARK SMILES IDX 2 13 1 14 3 15
REMARK H PARENT
REMARK Flexibility Score: inf
ROOT
ATOM      1  C   UNL     1       1.952  -9.664  27.110  1.00  0.00     0.012 C 
ENDROOT
BRANCH   1   2
ATOM      2  C   UNL     1       2.474 -11.105  26.886  1.00  0.00     0.016 C 
ATOM      3  C   UNL     1       1.329 -12.106  26.661  1.00  0.00     0.013 C 
BRANCH   2   4
ATOM      4  C   UNL     1       3.439 -11.146  25.714  1.00  0.00    -0.045 A 
ATOM      5  C   UNL     1       6.179 -11.305  22.380  1.00  0.00     0.044 C 
ATOM      6  C   UNL     1       5.211 -11.229  23.522  1.00  0.00    -0.051 A 
ATOM      7  C   UNL     1       4.134 -12.125  23.596  1.00  0.00     0.004 A 
ATOM      8  C   UNL     1       5.412 -10.308  24.560  1.00  0.00     0.004 A 
ATOM      9  C   UNL     1       3.251 -12.080  24.679  1.00  0.00     0.004 A 
ATOM     10  C   UNL     1       4.530 -10.262  25.643  1.00  0.00     0.004 A 
ENDBRANCH   2   4
ENDBRANCH   1   2
BRANCH   1  11
ATOM     11  C   UNL     1       1.006  -9.175  26.001  1.00  0.00     0.028 C 
BRANCH  11  12
ATOM     12  C   UNL     1       1.627  -8.047  25.209  1.00  0.00    -0.028 C 
ATOM     13  C   UNL     1       1.889  -8.083  23.883  1.00  0.00    -0.080 C 
ATOM     14  C   UNL     1       1.595  -9.299  23.037  1.00  0.00     0.039 C 
ATOM     15  C   UNL     1       2.492  -6.861  23.239  1.00  0.00     0.039 C 
ENDBRANCH  11  12
ENDBRANCH   1  11
TORSDOF 4
ENDMDL
MODEL 7
REMARK VINA RESULT:    -1.894      2.094      3.108
REMARK INTER + INTRA:          -3.840
REMARK INTER:                  -2.272
REMARK INTRA:                  -1.568
REMARK UNBOUND:                -1.502
REMARK SMILES CC(C)=CCC[C@@H](C)c1ccc(C)cc1
REMARK SMILES IDX 6 1 7 2 8 3 9 4 13 5 12 6 11 7 14 8 10 9 15 10 5 11 4 12
REMARK SMILES IDX 2 13 1 14 3 15
REMARK H PARENT
REMARK Flexibility Score: inf
ROOT
ATOM      1  C   UNL     1       1.344  -9.581  23.333  1.00  0.00     0.012 C 
ENDROOT
BRANCH   1   2
ATOM      2  C   UNL     1       0.876 -10.808  24.155  1.00  0.00     0.016 C 
ATOM      3  C   UNL     1       1.055 -12.123  23.379  1.00  0.00     0.013 C 
BRANCH   2   4
ATOM      4  C   UNL     1       1.619 -10.879  25.477  1.00  0.00    -0.045 A 
ATOM      5  C   UNL     1       3.745 -11.040  29.233  1.00  0.00     0.044 C 
ATOM      6  C   UNL     1       2.981 -10.993  27.944  1.00  0.00    -0.051 A 
ATOM      7  C   UNL     1       2.381  -9.798  27.521  1.00  0.00     0.004 A 
ATOM      8  C   UNL     1       2.918 -12.124  27.117  1.00  0.00     0.004 A 
ATOM      9  C   UNL     1       1.700  -9.743  26.301  1.00  0.00     0.004 A 
ATOM     10  C   UNL     1       2.237 -12.070  25.898  1.00  0.00     0.004 A 
ENDBRANCH   2   4
ENDBRANCH   1   2
BRANCH   1  11
ATOM     11  C   UNL     1       2.781  -9.709  22.803  1.00  0.00     0.028 C 
BRANCH  11  12
ATOM     12  C   UNL     1       3.713  -8.747  23.506  1.00  0.00    -0.028 C 
ATOM     13  C   UNL     1       4.789  -9.106  24.240  1.00  0.00    -0.080 C 
ATOM     14  C   UNL     1       5.170 -10.551  24.455  1.00  0.00     0.039 C 
ATOM     15  C   UNL     1       5.630  -8.019  24.858  1.00  0.00     0.039 C 
ENDBRANCH  11  12
ENDBRANCH   1  11
TORSDOF 4
ENDMDL
MODEL 8
REMARK VINA RESULT:    -1.891      1.707      4.352
REMARK INTER + INTRA:          -3.835
REMARK INTER:                  -2.276
REMARK INTRA:                  -1.560
REMARK UNBOUND:                -1.502
REMARK SMILES CC(C)=CCC[C@@H](C)c1ccc(C)cc1
REMARK SMILES IDX 6 1 7 2 8 3 9 4 13 5 12 6 11 7 14 8 10 9 15 10 5 11 4 12
REMARK SMILES IDX 2 13 1 14 3 15
REMARK H PARENT
REMARK Flexibility Score: inf
ROOT
ATOM      1  C   UNL     1       2.969 -11.067  22.780  1.00  0.00     0.012 C 
ENDROOT
BRANCH   1   2
ATOM      2  C   UNL     1       1.648 -10.792  23.541  1.00  0.00     0.016 C 
ATOM      3  C   UNL     1       0.972 -12.091  24.009  1.00  0.00     0.013 C 
BRANCH   2   4
ATOM      4  C   UNL     1       1.897  -9.877  24.727  1.00  0.00    -0.045 A 
ATOM      5  C   UNL     1       2.642  -7.266  28.085  1.00  0.00     0.044 C 
ATOM      6  C   UNL     1       2.357  -8.158  26.914  1.00  0.00    -0.051 A 
ATOM      7  C   UNL     1       2.845  -7.830  25.641  1.00  0.00     0.004 A 
ATOM      8  C   UNL     1       1.659  -9.361  27.095  1.00  0.00     0.004 A 
ATOM      9  C   UNL     1       2.611  -8.679  24.555  1.00  0.00     0.004 A 
ATOM     10  C   UNL     1       1.425 -10.210  26.010  1.00  0.00     0.004 A 
ENDBRANCH   2   4
ENDBRANCH   1   2
BRANCH   1  11
ATOM     11  C   UNL     1       3.891 -12.071  23.492  1.00  0.00     0.028 C 
BRANCH  11  12
ATOM     12  C   UNL     1       5.050 -11.371  24.164  1.00  0.00    -0.028 C 
ATOM     13  C   UNL     1       5.296 -11.380  25.493  1.00  0.00    -0.080 C 
ATOM     14  C   UNL     1       4.399 -12.098  26.473  1.00  0.00     0.039 C 
ATOM     15  C   UNL     1       6.511 -10.648  26.001  1.00  0.00     0.039 C 
ENDBRANCH  11  12
ENDBRANCH   1  11
TORSDOF 4
ENDMDL
MODEL 9
REMARK VINA RESULT:     0.350      1.680      2.799
REMARK INTER + INTRA:          -1.070
REMARK INTER:                   0.502
REMARK INTRA:                  -1.572
REMARK UNBOUND:                -1.502
REMARK SMILES CC(C)=CCC[C@@H](C)c1ccc(C)cc1
REMARK SMILES IDX 6 1 7 2 8 3 9 4 13 5 12 6 11 7 14 8 10 9 15 10 5 11 4 12
REMARK SMILES IDX 2 13 1 14 3 15
REMARK H PARENT
REMARK Flexibility Score: inf
ROOT
ATOM      1  C   UNL     1       1.807 -11.180  23.432  1.00  0.00     0.012 C 
ENDROOT
BRANCH   1   2
ATOM      2  C   UNL     1       3.008 -12.048  23.883  1.00  0.00     0.016 C 
ATOM      3  C   UNL     1       4.331 -11.568  23.264  1.00  0.00     0.013 C 
BRANCH   2   4
ATOM      4  C   UNL     1       3.116 -12.064  25.397  1.00  0.00    -0.045 A 
ATOM      5  C   UNL     1       3.389 -12.084  29.707  1.00  0.00     0.044 C 
ATOM      6  C   UNL     1       3.296 -12.107  28.211  1.00  0.00    -0.051 A 
ATOM      7  C   UNL     1       2.043 -12.125  27.581  1.00  0.00     0.004 A 
ATOM      8  C   UNL     1       4.458 -12.043  27.429  1.00  0.00     0.004 A 
ATOM      9  C   UNL     1       1.954 -12.111  26.186  1.00  0.00     0.004 A 
ATOM     10  C   UNL     1       4.370 -12.028  26.034  1.00  0.00     0.004 A 
ENDBRANCH   2   4
ENDBRANCH   1   2
BRANCH   1  11
ATOM     11  C   UNL     1       2.140  -9.684  23.316  1.00  0.00     0.028 C 
BRANCH  11  12
ATOM     12  C   UNL     1       1.588  -8.907  24.490  1.00  0.00    -0.028 C 
ATOM     13  C   UNL     1       2.333  -8.343  25.466  1.00  0.00    -0.080 C 
ATOM     14  C   UNL     1       3.839  -8.452  25.494  1.00  0.00     0.039 C 
ATOM     15  C   UNL     1       1.626  -7.580  26.557  1.00  0.00     0.039 C 
ENDBRANCH  11  12
ENDBRANCH   1  11
TORSDOF 4
ENDMDL
