MODEL 1
REMARK VINA RESULT:    -4.226      0.000      0.000
REMARK INTER + INTRA:          -4.350
REMARK INTER:                  -4.350
REMARK INTRA:                   0.000
REMARK UNBOUND:                 0.000
REMARK SMILES O=c1ccc2ccc(O)cc2o1
REMARK SMILES IDX 6 1 7 2 8 3 10 4 11 5 5 6 4 7 3 8 2 9 1 10 12 11 9 12
REMARK H PARENT 9 13
REMARK Flexibility Score: inf
ROOT
ATOM      1  C   UNL     1      76.063  40.977  19.740  1.00  0.00     0.016 A 
ATOM      2  C   UNL     1      75.897  41.604  20.980  1.00  0.00     0.047 A 
ATOM      3  C   UNL     1      74.928  41.140  21.882  1.00  0.00     0.119 A 
ATOM      4  C   UNL     1      74.124  40.045  21.543  1.00  0.00     0.094 A 
ATOM      5  C   UNL     1      74.284  39.412  20.304  1.00  0.00     0.142 A 
ATOM      6  C   UNL     1      75.259  39.882  19.397  1.00  0.00     0.018 A 
ATOM      7  C   UNL     1      75.396  39.229  18.168  1.00  0.00     0.019 A 
ATOM      8  C   UNL     1      74.572  38.143  17.875  1.00  0.00     0.094 A 
ATOM      9  C   UNL     1      73.626  37.734  18.822  1.00  0.00     0.336 A 
ATOM     10  O   UNL     1      72.873  36.755  18.577  1.00  0.00    -0.246 OA
ATOM     11  O   UNL     1      73.517  38.372  19.985  1.00  0.00    -0.423 OA
ENDROOT
BRANCH   3  12
ATOM     12  O   UNL     1      74.756  41.758  23.118  1.00  0.00    -0.508 OA
ATOM     13  H   UNL     1      74.406  41.248  23.922  1.00  0.00     0.293 HD
ENDBRANCH   3  12
TORSDOF 1
ENDMDL
MODEL 2
REMARK VINA RESULT:    -4.018      1.736      4.554
REMARK INTER + INTRA:          -4.135
REMARK INTER:                  -4.135
REMARK INTRA:                   0.000
REMARK UNBOUND:                 0.000
REMARK SMILES O=c1ccc2ccc(O)cc2o1
REMARK SMILES IDX 6 1 7 2 8 3 10 4 11 5 5 6 4 7 3 8 2 9 1 10 12 11 9 12
REMARK H PARENT 9 13
REMARK Flexibility Score: inf
ROOT
ATOM      1  C   UNL     1      73.239  38.669  21.355  1.00  0.00     0.016 A 
ATOM      2  C   UNL     1      72.772  37.714  20.445  1.00  0.00     0.047 A 
ATOM      3  C   UNL     1      73.331  37.627  19.162  1.00  0.00     0.119 A 
ATOM      4  C   UNL     1      74.362  38.497  18.788  1.00  0.00     0.094 A 
ATOM      5  C   UNL     1      74.835  39.456  19.691  1.00  0.00     0.142 A 
ATOM      6  C   UNL     1      74.270  39.543  20.983  1.00  0.00     0.018 A 
ATOM      7  C   UNL     1      74.764  40.510  21.863  1.00  0.00     0.019 A 
ATOM      8  C   UNL     1      75.792  41.355  21.445  1.00  0.00     0.094 A 
ATOM      9  C   UNL     1      76.303  41.211  20.150  1.00  0.00     0.336 A 
ATOM     10  O   UNL     1      77.231  41.964  19.754  1.00  0.00    -0.246 OA
ATOM     11  O   UNL     1      75.815  40.282  19.332  1.00  0.00    -0.423 OA
ENDROOT
BRANCH   3  12
ATOM     12  O   UNL     1      72.871  36.678  18.251  1.00  0.00    -0.508 OA
ATOM     13  H   UNL     1      72.956  36.820  17.251  1.00  0.00     0.293 HD
ENDBRANCH   3  12
TORSDOF 1
ENDMDL
MODEL 3
REMARK VINA RESULT:    -3.982      1.910      2.401
REMARK INTER + INTRA:          -4.098
REMARK INTER:                  -4.098
REMARK INTRA:                   0.000
REMARK UNBOUND:                 0.000
REMARK SMILES O=c1ccc2ccc(O)cc2o1
REMARK SMILES IDX 6 1 7 2 8 3 10 4 11 5 5 6 4 7 3 8 2 9 1 10 12 11 9 12
REMARK H PARENT 9 13
REMARK Flexibility Score: inf
ROOT
ATOM      1  C   UNL     1      73.829  41.275  21.460  1.00  0.00     0.016 A 
ATOM      2  C   UNL     1      72.714  41.383  22.299  1.00  0.00     0.047 A 
ATOM      3  C   UNL     1      71.674  40.444  22.217  1.00  0.00     0.119 A 
ATOM      4  C   UNL     1      71.752  39.394  21.295  1.00  0.00     0.094 A 
ATOM      5  C   UNL     1      72.864  39.278  20.453  1.00  0.00     0.142 A 
ATOM      6  C   UNL     1      73.909  40.224  20.536  1.00  0.00     0.018 A 
ATOM      7  C   UNL     1      75.006  40.083  19.682  1.00  0.00     0.019 A 
ATOM      8  C   UNL     1      75.038  39.020  18.779  1.00  0.00     0.094 A 
ATOM      9  C   UNL     1      73.966  38.120  18.752  1.00  0.00     0.336 A 
ATOM     10  O   UNL     1      73.976  37.154  17.945  1.00  0.00    -0.246 OA
ATOM     11  O   UNL     1      72.933  38.278  19.576  1.00  0.00    -0.423 OA
ENDROOT
BRANCH   3  12
ATOM     12  O   UNL     1      70.561  40.545  23.048  1.00  0.00    -0.508 OA
ATOM     13  H   UNL     1      70.533  41.204  23.818  1.00  0.00     0.293 HD
ENDBRANCH   3  12
TORSDOF 1
ENDMDL
MODEL 4
REMARK VINA RESULT:    -3.941      1.235      4.110
REMARK INTER + INTRA:          -4.056
REMARK INTER:                  -4.056
REMARK INTRA:                   0.000
REMARK UNBOUND:                 0.000
REMARK SMILES O=c1ccc2ccc(O)cc2o1
REMARK SMILES IDX 6 1 7 2 8 3 10 4 11 5 5 6 4 7 3 8 2 9 1 10 12 11 9 12
REMARK H PARENT 9 13
REMARK Flexibility Score: inf
ROOT
ATOM      1  C   UNL     1      74.462  38.621  18.342  1.00  0.00     0.016 A 
ATOM      2  C   UNL     1      73.530  37.661  18.752  1.00  0.00     0.047 A 
ATOM      3  C   UNL     1      73.097  37.621  20.086  1.00  0.00     0.119 A 
ATOM      4  C   UNL     1      73.596  38.545  21.011  1.00  0.00     0.094 A 
ATOM      5  C   UNL     1      74.528  39.509  20.610  1.00  0.00     0.142 A 
ATOM      6  C   UNL     1      74.964  39.547  19.267  1.00  0.00     0.018 A 
ATOM      7  C   UNL     1      75.895  40.521  18.895  1.00  0.00     0.019 A 
ATOM      8  C   UNL     1      76.364  41.420  19.853  1.00  0.00     0.094 A 
ATOM      9  C   UNL     1      75.888  41.322  21.166  1.00  0.00     0.336 A 
ATOM     10  O   UNL     1      76.299  42.124  22.045  1.00  0.00    -0.246 OA
ATOM     11  O   UNL     1      75.002  40.385  21.493  1.00  0.00    -0.423 OA
ENDROOT
BRANCH   3  12
ATOM     12  O   UNL     1      72.169  36.668  20.502  1.00  0.00    -0.508 OA
ATOM     13  H   UNL     1      72.457  35.824  20.985  1.00  0.00     0.293 HD
ENDBRANCH   3  12
TORSDOF 1
ENDMDL
MODEL 5
REMARK VINA RESULT:    -3.900      1.941      2.330
REMARK INTER + INTRA:          -4.014
REMARK INTER:                  -4.014
REMARK INTRA:                   0.000
REMARK UNBOUND:                 0.000
REMARK SMILES O=c1ccc2ccc(O)cc2o1
REMARK SMILES IDX 6 1 7 2 8 3 10 4 11 5 5 6 4 7 3 8 2 9 1 10 12 11 9 12
REMARK H PARENT 9 13
REMARK Flexibility Score: inf
ROOT
ATOM      1  C   UNL     1      77.144  41.811  21.354  1.00  0.00     0.016 A 
ATOM      2  C   UNL     1      77.190  41.600  22.736  1.00  0.00     0.047 A 
ATOM      3  C   UNL     1      76.147  40.919  23.382  1.00  0.00     0.119 A 
ATOM      4  C   UNL     1      75.056  40.448  22.643  1.00  0.00     0.094 A 
ATOM      5  C   UNL     1      75.002  40.655  21.260  1.00  0.00     0.142 A 
ATOM      6  C   UNL     1      76.052  41.341  20.611  1.00  0.00     0.018 A 
ATOM      7  C   UNL     1      75.970  41.532  19.229  1.00  0.00     0.019 A 
ATOM      8  C   UNL     1      74.863  41.045  18.535  1.00  0.00     0.094 A 
ATOM      9  C   UNL     1      73.859  40.375  19.244  1.00  0.00     0.336 A 
ATOM     10  O   UNL     1      72.852  39.928  18.636  1.00  0.00    -0.246 OA
ATOM     11  O   UNL     1      73.962  40.207  20.560  1.00  0.00    -0.423 OA
ENDROOT
BRANCH   3  12
ATOM     12  O   UNL     1      76.186  40.705  24.759  1.00  0.00    -0.508 OA
ATOM     13  H   UNL     1      77.003  40.310  25.210  1.00  0.00     0.293 HD
ENDBRANCH   3  12
TORSDOF 1
ENDMDL
MODEL 6
REMARK VINA RESULT:    -3.824      1.755      2.593
REMARK INTER + INTRA:          -3.935
REMARK INTER:                  -3.935
REMARK INTRA:                   0.000
REMARK UNBOUND:                 0.000
REMARK SMILES O=c1ccc2ccc(O)cc2o1
REMARK SMILES IDX 6 1 7 2 8 3 10 4 11 5 5 6 4 7 3 8 2 9 1 10 12 11 9 12
REMARK H PARENT 9 13
REMARK Flexibility Score: inf
ROOT
ATOM      1  C   UNL     1      75.161  40.962  21.485  1.00  0.00     0.016 A 
ATOM      2  C   UNL     1      76.124  41.700  20.790  1.00  0.00     0.047 A 
ATOM      3  C   UNL     1      76.447  41.371  19.465  1.00  0.00     0.119 A 
ATOM      4  C   UNL     1      75.802  40.300  18.834  1.00  0.00     0.094 A 
ATOM      5  C   UNL     1      74.837  39.557  19.523  1.00  0.00     0.142 A 
ATOM      6  C   UNL     1      74.514  39.889  20.857  1.00  0.00     0.018 A 
ATOM      7  C   UNL     1      73.546  39.129  21.518  1.00  0.00     0.019 A 
ATOM      8  C   UNL     1      72.931  38.071  20.848  1.00  0.00     0.094 A 
ATOM      9  C   UNL     1      73.302  37.799  19.526  1.00  0.00     0.336 A 
ATOM     10  O   UNL     1      72.758  36.848  18.904  1.00  0.00    -0.246 OA
ATOM     11  O   UNL     1      74.226  38.539  18.920  1.00  0.00    -0.423 OA
ENDROOT
BRANCH   3  12
ATOM     12  O   UNL     1      77.405  42.101  18.766  1.00  0.00    -0.508 OA
ATOM     13  H   UNL     1      78.331  41.727  18.588  1.00  0.00     0.293 HD
ENDBRANCH   3  12
TORSDOF 1
ENDMDL
MODEL 7
REMARK VINA RESULT:    -3.703      3.823      5.147
REMARK INTER + INTRA:          -3.811
REMARK INTER:                  -3.811
REMARK INTRA:                   0.000
REMARK UNBOUND:                 0.000
REMARK SMILES O=c1ccc2ccc(O)cc2o1
REMARK SMILES IDX 6 1 7 2 8 3 10 4 11 5 5 6 4 7 3 8 2 9 1 10 12 11 9 12
REMARK H PARENT 9 13
REMARK Flexibility Score: inf
ROOT
ATOM      1  C   UNL     1      70.493  42.124  19.839  1.00  0.00     0.016 A 
ATOM      2  C   UNL     1      69.181  41.680  20.041  1.00  0.00     0.047 A 
ATOM      3  C   UNL     1      68.912  40.676  20.984  1.00  0.00     0.119 A 
ATOM      4  C   UNL     1      69.958  40.117  21.727  1.00  0.00     0.094 A 
ATOM      5  C   UNL     1      71.273  40.555  21.531  1.00  0.00     0.142 A 
ATOM      6  C   UNL     1      71.542  41.565  20.581  1.00  0.00     0.018 A 
ATOM      7  C   UNL     1      72.865  41.982  20.408  1.00  0.00     0.019 A 
ATOM      8  C   UNL     1      73.873  41.394  21.172  1.00  0.00     0.094 A 
ATOM      9  C   UNL     1      73.532  40.398  22.094  1.00  0.00     0.336 A 
ATOM     10  O   UNL     1      74.428  39.855  22.793  1.00  0.00    -0.246 OA
ATOM     11  O   UNL     1      72.265  40.020  22.239  1.00  0.00    -0.423 OA
ENDROOT
BRANCH   3  12
ATOM     12  O   UNL     1      67.609  40.229  21.190  1.00  0.00    -0.508 OA
ATOM     13  H   UNL     1      67.201  39.502  20.614  1.00  0.00     0.293 HD
ENDBRANCH   3  12
TORSDOF 1
ENDMDL
MODEL 8
REMARK VINA RESULT:    -3.671      3.912      4.518
REMARK INTER + INTRA:          -3.779
REMARK INTER:                  -3.779
REMARK INTRA:                   0.000
REMARK UNBOUND:                 0.000
REMARK SMILES O=c1ccc2ccc(O)cc2o1
REMARK SMILES IDX 6 1 7 2 8 3 10 4 11 5 5 6 4 7 3 8 2 9 1 10 12 11 9 12
REMARK H PARENT 9 13
REMARK Flexibility Score: inf
ROOT
ATOM      1  C   UNL     1      73.000  41.325  20.055  1.00  0.00     0.016 A 
ATOM      2  C   UNL     1      73.809  40.733  21.032  1.00  0.00     0.047 A 
ATOM      3  C   UNL     1      73.229  40.135  22.161  1.00  0.00     0.119 A 
ATOM      4  C   UNL     1      71.838  40.127  22.311  1.00  0.00     0.094 A 
ATOM      5  C   UNL     1      71.022  40.716  21.339  1.00  0.00     0.142 A 
ATOM      6  C   UNL     1      71.607  41.319  20.203  1.00  0.00     0.018 A 
ATOM      7  C   UNL     1      70.766  41.899  19.249  1.00  0.00     0.019 A 
ATOM      8  C   UNL     1      69.385  41.867  19.443  1.00  0.00     0.094 A 
ATOM      9  C   UNL     1      68.876  41.252  20.593  1.00  0.00     0.336 A 
ATOM     10  O   UNL     1      67.633  41.212  20.787  1.00  0.00    -0.246 OA
ATOM     11  O   UNL     1      69.699  40.707  21.486  1.00  0.00    -0.423 OA
ENDROOT
BRANCH   3  12
ATOM     12  O   UNL     1      74.028  39.544  23.138  1.00  0.00    -0.508 OA
ATOM     13  H   UNL     1      74.115  39.945  24.064  1.00  0.00     0.293 HD
ENDBRANCH   3  12
TORSDOF 1
ENDMDL
MODEL 9
REMARK VINA RESULT:    -3.669      2.273      3.669
REMARK INTER + INTRA:          -3.776
REMARK INTER:                  -3.776
REMARK INTRA:                   0.000
REMARK UNBOUND:                 0.000
REMARK SMILES O=c1ccc2ccc(O)cc2o1
REMARK SMILES IDX 6 1 7 2 8 3 10 4 11 5 5 6 4 7 3 8 2 9 1 10 12 11 9 12
REMARK H PARENT 9 13
REMARK Flexibility Score: inf
ROOT
ATOM      1  C   UNL     1      72.771  38.507  20.307  1.00  0.00     0.016 A 
ATOM      2  C   UNL     1      71.776  38.784  21.251  1.00  0.00     0.047 A 
ATOM      3  C   UNL     1      71.825  39.967  22.003  1.00  0.00     0.119 A 
ATOM      4  C   UNL     1      72.871  40.876  21.808  1.00  0.00     0.094 A 
ATOM      5  C   UNL     1      73.871  40.607  20.866  1.00  0.00     0.142 A 
ATOM      6  C   UNL     1      73.821  39.415  20.111  1.00  0.00     0.018 A 
ATOM      7  C   UNL     1      74.833  39.173  19.177  1.00  0.00     0.019 A 
ATOM      8  C   UNL     1      75.855  40.109  19.020  1.00  0.00     0.094 A 
ATOM      9  C   UNL     1      75.841  41.268  19.804  1.00  0.00     0.336 A 
ATOM     10  O   UNL     1      76.755  42.125  19.676  1.00  0.00    -0.246 OA
ATOM     11  O   UNL     1      74.865  41.473  20.685  1.00  0.00    -0.423 OA
ENDROOT
BRANCH   3  12
ATOM     12  O   UNL     1      70.838  40.250  22.944  1.00  0.00    -0.508 OA
ATOM     13  H   UNL     1      70.973  40.958  23.657  1.00  0.00     0.293 HD
ENDBRANCH   3  12
TORSDOF 1
ENDMDL
