MODEL 1
REMARK VINA RESULT:    -4.823      0.000      0.000
REMARK INTER + INTRA:          -8.503
REMARK INTER:                  -7.360
REMARK INTRA:                  -1.142
REMARK UNBOUND:                -1.142
REMARK SMILES OC[C@@H]1O[C@H](O[C@@]2(CO)O[C@@H](CO)[C@H](O)[C@@H]2O)[C@@H](O)[C@@H](O)[C@H]1O
REMARK SMILES IDX 6 1 5 2 3 3 22 4 4 5 20 6 18 7 2 8 1 9 23 11 21 13 19 15
REMARK SMILES IDX 7 17 16 18 10 19 14 20 11 21 8 22 9 23 17 25 15 27 12 29
REMARK SMILES IDX 13 30
REMARK H PARENT 1 10 23 12 21 14 19 16 9 24 17 26 15 28 13 31
REMARK Flexibility Score: inf
ROOT
ATOM      1  O   UNL     1      13.515  36.215  29.080  1.00  0.00    -0.313 OA
ENDROOT
BRANCH   1   2
ATOM      2  C   UNL     1      12.580  36.706  30.031  1.00  0.00     0.285 C 
ATOM      3  C   UNL     1      12.479  35.203  31.921  1.00  0.00     0.178 C 
ATOM      4  C   UNL     1      14.018  35.374  32.000  1.00  0.00     0.177 C 
ATOM      5  O   UNL     1      11.931  35.605  30.665  1.00  0.00    -0.341 OA
ATOM      6  C   UNL     1      14.423  36.854  31.744  1.00  0.00     0.179 C 
ATOM      7  C   UNL     1      13.320  37.642  31.003  1.00  0.00     0.202 C 
BRANCH   3   8
ATOM      8  C   UNL     1      12.077  33.741  32.170  1.00  0.00     0.191 C 
BRANCH   8   9
ATOM      9  O   UNL     1      13.103  32.878  31.752  1.00  0.00    -0.394 OA
ATOM     10  H   UNL     1      12.998  32.765  30.771  1.00  0.00     0.210 HD
ENDBRANCH   8   9
ENDBRANCH   3   8
BRANCH   4  11
ATOM     11  O   UNL     1      14.494  34.942  33.250  1.00  0.00    -0.387 OA
ATOM     12  H   UNL     1      14.550  35.747  33.827  1.00  0.00     0.211 HD
ENDBRANCH   4  11
BRANCH   6  13
ATOM     13  O   UNL     1      14.827  37.527  32.914  1.00  0.00    -0.387 OA
ATOM     14  H   UNL     1      14.796  36.878  33.669  1.00  0.00     0.211 HD
ENDBRANCH   6  13
BRANCH   7  15
ATOM     15  O   UNL     1      12.389  38.195  31.905  1.00  0.00    -0.385 OA
ATOM     16  H   UNL     1      12.876  38.390  32.748  1.00  0.00     0.211 HD
ENDBRANCH   7  15
ENDBRANCH   1   2
BRANCH   1  17
ATOM     17  C   UNL     1      12.924  35.713  27.889  1.00  0.00     0.224 C 
ATOM     18  C   UNL     1      13.414  36.538  26.684  1.00  0.00     0.208 C 
ATOM     19  O   UNL     1      11.509  35.788  27.929  1.00  0.00    -0.337 OA
ATOM     20  C   UNL     1      12.200  36.603  25.768  1.00  0.00     0.180 C 
ATOM     21  C   UNL     1      11.052  36.012  26.611  1.00  0.00     0.179 C 
BRANCH  17  22
ATOM     22  C   UNL     1      13.329  34.223  27.777  1.00  0.00     0.225 C 
BRANCH  22  23
ATOM     23  O   UNL     1      12.725  33.453  28.785  1.00  0.00    -0.391 OA
ATOM     24  H   UNL     1      11.743  33.488  28.632  1.00  0.00     0.210 HD
ENDBRANCH  22  23
ENDBRANCH  17  22
BRANCH  18  25
ATOM     25  O   UNL     1      14.539  35.968  26.057  1.00  0.00    -0.385 OA
ATOM     26  H   UNL     1      14.242  35.706  25.142  1.00  0.00     0.211 HD
ENDBRANCH  18  25
BRANCH  20  27
ATOM     27  O   UNL     1      12.381  35.895  24.563  1.00  0.00    -0.387 OA
ATOM     28  H   UNL     1      13.291  36.098  24.225  1.00  0.00     0.211 HD
ENDBRANCH  20  27
BRANCH  21  29
ATOM     29  C   UNL     1       9.828  36.938  26.661  1.00  0.00     0.191 C 
BRANCH  29  30
ATOM     30  O   UNL     1       9.201  37.010  25.408  1.00  0.00    -0.394 OA
ATOM     31  H   UNL     1       8.397  37.583  25.528  1.00  0.00     0.210 HD
ENDBRANCH  29  30
ENDBRANCH  21  29
ENDBRANCH   1  17
TORSDOF 13
ENDMDL
MODEL 2
REMARK VINA RESULT:    -4.753     11.077     14.132
REMARK INTER + INTRA:          -8.397
REMARK INTER:                  -7.152
REMARK INTRA:                  -1.245
REMARK UNBOUND:                -1.142
REMARK SMILES OC[C@@H]1O[C@H](O[C@@]2(CO)O[C@@H](CO)[C@H](O)[C@@H]2O)[C@@H](O)[C@@H](O)[C@H]1O
REMARK SMILES IDX 6 1 5 2 3 3 22 4 4 5 20 6 18 7 2 8 1 9 23 11 21 13 19 15
REMARK SMILES IDX 7 17 16 18 10 19 14 20 11 21 8 22 9 23 17 25 15 27 12 29
REMARK SMILES IDX 13 30
REMARK H PARENT 1 10 23 12 21 14 19 16 9 24 17 26 15 28 13 31
REMARK Flexibility Score: inf
ROOT
ATOM      1  O   UNL     1       6.444  46.092  33.811  1.00  0.00    -0.313 OA
ENDROOT
BRANCH   1   2
ATOM      2  C   UNL     1       6.629  45.104  32.807  1.00  0.00     0.285 C 
ATOM      3  C   UNL     1       5.058  45.473  31.007  1.00  0.00     0.178 C 
ATOM      4  C   UNL     1       5.616  46.918  30.962  1.00  0.00     0.177 C 
ATOM      5  O   UNL     1       5.367  44.786  32.221  1.00  0.00    -0.341 OA
ATOM      6  C   UNL     1       7.162  46.919  31.141  1.00  0.00     0.179 C 
ATOM      7  C   UNL     1       7.675  45.620  31.802  1.00  0.00     0.202 C 
BRANCH   3   8
ATOM      8  C   UNL     1       3.531  45.470  30.834  1.00  0.00     0.191 C 
BRANCH   8   9
ATOM      9  O   UNL     1       2.988  46.676  31.309  1.00  0.00    -0.394 OA
ATOM     10  H   UNL     1       3.750  47.297  31.446  1.00  0.00     0.210 HD
ENDBRANCH   8   9
ENDBRANCH   3   8
BRANCH   4  11
ATOM     11  O   UNL     1       5.260  47.542  29.754  1.00  0.00    -0.387 OA
ATOM     12  H   UNL     1       4.892  48.432  29.992  1.00  0.00     0.211 HD
ENDBRANCH   4  11
BRANCH   6  13
ATOM     13  O   UNL     1       7.857  47.186  29.945  1.00  0.00    -0.387 OA
ATOM     14  H   UNL     1       8.635  47.769  30.164  1.00  0.00     0.211 HD
ENDBRANCH   6  13
BRANCH   7  15
ATOM     15  O   UNL     1       7.921  44.617  30.843  1.00  0.00    -0.385 OA
ATOM     16  H   UNL     1       8.795  44.203  31.069  1.00  0.00     0.211 HD
ENDBRANCH   7  15
ENDBRANCH   1   2
BRANCH   1  17
ATOM     17  C   UNL     1       5.923  45.588  35.033  1.00  0.00     0.224 C 
ATOM     18  C   UNL     1       6.296  46.541  36.185  1.00  0.00     0.208 C 
ATOM     19  O   UNL     1       6.440  44.304  35.339  1.00  0.00    -0.337 OA
ATOM     20  C   UNL     1       6.550  45.611  37.361  1.00  0.00     0.180 C 
ATOM     21  C   UNL     1       6.526  44.197  36.745  1.00  0.00     0.179 C 
BRANCH  17  22
ATOM     22  C   UNL     1       4.390  45.465  34.854  1.00  0.00     0.225 C 
BRANCH  22  23
ATOM     23  O   UNL     1       3.867  46.572  34.164  1.00  0.00    -0.391 OA
ATOM     24  H   UNL     1       3.534  47.213  34.848  1.00  0.00     0.210 HD
ENDBRANCH  22  23
ENDBRANCH  17  22
BRANCH  18  25
ATOM     25  O   UNL     1       5.292  47.492  36.449  1.00  0.00    -0.385 OA
ATOM     26  H   UNL     1       4.893  47.726  35.566  1.00  0.00     0.211 HD
ENDBRANCH  18  25
BRANCH  20  27
ATOM     27  O   UNL     1       5.595  45.748  38.389  1.00  0.00    -0.387 OA
ATOM     28  H   UNL     1       5.934  45.266  39.186  1.00  0.00     0.211 HD
ENDBRANCH  20  27
BRANCH  21  29
ATOM     29  C   UNL     1       7.777  43.382  37.105  1.00  0.00     0.191 C 
BRANCH  29  30
ATOM     30  O   UNL     1       7.750  42.989  38.452  1.00  0.00    -0.394 OA
ATOM     31  H   UNL     1       7.127  43.611  38.915  1.00  0.00     0.210 HD
ENDBRANCH  29  30
ENDBRANCH  21  29
ENDBRANCH   1  17
TORSDOF 13
ENDMDL
MODEL 3
REMARK VINA RESULT:    -4.666     11.947     13.140
REMARK INTER + INTRA:          -8.264
REMARK INTER:                  -6.918
REMARK INTRA:                  -1.346
REMARK UNBOUND:                -1.142
REMARK SMILES OC[C@@H]1O[C@H](O[C@@]2(CO)O[C@@H](CO)[C@H](O)[C@@H]2O)[C@@H](O)[C@@H](O)[C@H]1O
REMARK SMILES IDX 6 1 5 2 3 3 22 4 4 5 20 6 18 7 2 8 1 9 23 11 21 13 19 15
REMARK SMILES IDX 7 17 16 18 10 19 14 20 11 21 8 22 9 23 17 25 15 27 12 29
REMARK SMILES IDX 13 30
REMARK H PARENT 1 10 23 12 21 14 19 16 9 24 17 26 15 28 13 31
REMARK Flexibility Score: inf
ROOT
ATOM      1  O   UNL     1       6.060  45.932  33.529  1.00  0.00    -0.313 OA
ENDROOT
BRANCH   1   2
ATOM      2  C   UNL     1       4.836  46.086  34.236  1.00  0.00     0.285 C 
ATOM      3  C   UNL     1       4.733  44.479  36.038  1.00  0.00     0.178 C 
ATOM      4  C   UNL     1       6.105  45.048  36.479  1.00  0.00     0.177 C 
ATOM      5  O   UNL     1       4.391  44.809  34.691  1.00  0.00    -0.341 OA
ATOM      6  C   UNL     1       6.132  46.598  36.336  1.00  0.00     0.179 C 
ATOM      7  C   UNL     1       5.050  47.114  35.361  1.00  0.00     0.202 C 
BRANCH   3   8
ATOM      8  C   UNL     1       4.705  42.948  36.175  1.00  0.00     0.191 C 
BRANCH   8   9
ATOM      9  O   UNL     1       4.333  42.585  37.479  1.00  0.00    -0.394 OA
ATOM     10  H   UNL     1       4.620  43.327  38.075  1.00  0.00     0.210 HD
ENDBRANCH   8   9
ENDBRANCH   3   8
BRANCH   4  11
ATOM     11  O   UNL     1       6.388  44.670  37.803  1.00  0.00    -0.387 OA
ATOM     12  H   UNL     1       5.607  44.946  38.350  1.00  0.00     0.211 HD
ENDBRANCH   4  11
BRANCH   6  13
ATOM     13  O   UNL     1       6.060  47.268  37.573  1.00  0.00    -0.387 OA
ATOM     14  H   UNL     1       6.591  48.108  37.500  1.00  0.00     0.211 HD
ENDBRANCH   6  13
BRANCH   7  15
ATOM     15  O   UNL     1       3.824  47.331  36.022  1.00  0.00    -0.385 OA
ATOM     16  H   UNL     1       3.545  46.462  36.415  1.00  0.00     0.211 HD
ENDBRANCH   7  15
ENDBRANCH   1   2
BRANCH   1  17
ATOM     17  C   UNL     1       5.901  45.710  32.134  1.00  0.00     0.224 C 
ATOM     18  C   UNL     1       4.877  46.711  31.566  1.00  0.00     0.208 C 
ATOM     19  O   UNL     1       5.437  44.400  31.857  1.00  0.00    -0.337 OA
ATOM     20  C   UNL     1       4.135  45.912  30.505  1.00  0.00     0.180 C 
ATOM     21  C   UNL     1       4.628  44.464  30.700  1.00  0.00     0.179 C 
BRANCH  17  22
ATOM     22  C   UNL     1       7.298  45.878  31.488  1.00  0.00     0.225 C 
BRANCH  22  23
ATOM     23  O   UNL     1       8.010  46.935  32.081  1.00  0.00    -0.391 OA
ATOM     24  H   UNL     1       7.340  47.543  32.494  1.00  0.00     0.210 HD
ENDBRANCH  22  23
ENDBRANCH  17  22
BRANCH  18  25
ATOM     25  O   UNL     1       5.483  47.872  31.049  1.00  0.00    -0.385 OA
ATOM     26  H   UNL     1       4.737  48.465  30.755  1.00  0.00     0.211 HD
ENDBRANCH  18  25
BRANCH  20  27
ATOM     27  O   UNL     1       4.379  46.375  29.197  1.00  0.00    -0.387 OA
ATOM     28  H   UNL     1       3.968  45.731  28.565  1.00  0.00     0.211 HD
ENDBRANCH  20  27
BRANCH  21  29
ATOM     29  C   UNL     1       3.470  43.467  30.848  1.00  0.00     0.191 C 
BRANCH  29  30
ATOM     30  O   UNL     1       2.955  43.485  32.153  1.00  0.00    -0.394 OA
ATOM     31  H   UNL     1       2.817  44.441  32.389  1.00  0.00     0.210 HD
ENDBRANCH  29  30
ENDBRANCH  21  29
ENDBRANCH   1  17
TORSDOF 13
ENDMDL
MODEL 4
REMARK VINA RESULT:    -4.657      6.725     10.740
REMARK INTER + INTRA:          -8.250
REMARK INTER:                  -6.785
REMARK INTRA:                  -1.465
REMARK UNBOUND:                -1.142
REMARK SMILES OC[C@@H]1O[C@H](O[C@@]2(CO)O[C@@H](CO)[C@H](O)[C@@H]2O)[C@@H](O)[C@@H](O)[C@H]1O
REMARK SMILES IDX 6 1 5 2 3 3 22 4 4 5 20 6 18 7 2 8 1 9 23 11 21 13 19 15
REMARK SMILES IDX 7 17 16 18 10 19 14 20 11 21 8 22 9 23 17 25 15 27 12 29
REMARK SMILES IDX 13 30
REMARK H PARENT 1 10 23 12 21 14 19 16 9 24 17 26 15 28 13 31
REMARK Flexibility Score: inf
ROOT
ATOM      1  O   UNL     1      19.230  39.896  33.487  1.00  0.00    -0.313 OA
ENDROOT
BRANCH   1   2
ATOM      2  C   UNL     1      18.433  40.737  32.663  1.00  0.00     0.285 C 
ATOM      3  C   UNL     1      18.780  40.164  30.341  1.00  0.00     0.178 C 
ATOM      4  C   UNL     1      18.425  38.714  30.759  1.00  0.00     0.177 C 
ATOM      5  O   UNL     1      19.128  41.000  31.446  1.00  0.00    -0.341 OA
ATOM      6  C   UNL     1      17.241  38.705  31.768  1.00  0.00     0.179 C 
ATOM      7  C   UNL     1      17.060  40.069  32.470  1.00  0.00     0.202 C 
BRANCH   3   8
ATOM      8  C   UNL     1      19.952  40.176  29.347  1.00  0.00     0.191 C 
BRANCH   8   9
ATOM      9  O   UNL     1      20.868  39.161  29.666  1.00  0.00    -0.394 OA
ATOM     10  H   UNL     1      21.439  39.512  30.399  1.00  0.00     0.210 HD
ENDBRANCH   8   9
ENDBRANCH   3   8
BRANCH   4  11
ATOM     11  O   UNL     1      18.113  37.942  29.626  1.00  0.00    -0.387 OA
ATOM     12  H   UNL     1      17.561  37.181  29.944  1.00  0.00     0.211 HD
ENDBRANCH   4  11
BRANCH   6  13
ATOM     13  O   UNL     1      16.031  38.265  31.196  1.00  0.00    -0.387 OA
ATOM     14  H   UNL     1      15.306  38.878  31.497  1.00  0.00     0.211 HD
ENDBRANCH   6  13
BRANCH   7  15
ATOM     15  O   UNL     1      16.234  40.929  31.717  1.00  0.00    -0.385 OA
ATOM     16  H   UNL     1      16.178  41.789  32.211  1.00  0.00     0.211 HD
ENDBRANCH   7  15
ENDBRANCH   1   2
BRANCH   1  17
ATOM     17  C   UNL     1      20.173  40.593  34.288  1.00  0.00     0.224 C 
ATOM     18  C   UNL     1      20.372  39.844  35.620  1.00  0.00     0.208 C 
ATOM     19  O   UNL     1      19.744  41.911  34.584  1.00  0.00    -0.337 OA
ATOM     20  C   UNL     1      20.564  40.956  36.640  1.00  0.00     0.180 C 
ATOM     21  C   UNL     1      20.238  42.248  35.864  1.00  0.00     0.179 C 
BRANCH  17  22
ATOM     22  C   UNL     1      21.485  40.680  33.470  1.00  0.00     0.225 C 
BRANCH  22  23
ATOM     23  O   UNL     1      21.598  39.604  32.573  1.00  0.00    -0.391 OA
ATOM     24  H   UNL     1      21.026  38.869  32.924  1.00  0.00     0.210 HD
ENDBRANCH  22  23
ENDBRANCH  17  22
BRANCH  18  25
ATOM     25  O   UNL     1      21.456  38.946  35.582  1.00  0.00    -0.385 OA
ATOM     26  H   UNL     1      21.621  38.672  36.526  1.00  0.00     0.211 HD
ENDBRANCH  18  25
BRANCH  20  27
ATOM     27  O   UNL     1      21.865  40.986  37.182  1.00  0.00    -0.387 OA
ATOM     28  H   UNL     1      21.846  41.571  37.983  1.00  0.00     0.211 HD
ENDBRANCH  20  27
BRANCH  21  29
ATOM     29  C   UNL     1      19.196  43.115  36.586  1.00  0.00     0.191 C 
BRANCH  29  30
ATOM     30  O   UNL     1      19.354  43.036  37.978  1.00  0.00    -0.394 OA
ATOM     31  H   UNL     1      18.970  43.873  38.353  1.00  0.00     0.210 HD
ENDBRANCH  29  30
ENDBRANCH  21  29
ENDBRANCH   1  17
TORSDOF 13
ENDMDL
MODEL 5
REMARK VINA RESULT:    -4.643     11.121     13.312
REMARK INTER + INTRA:          -8.229
REMARK INTER:                  -7.249
REMARK INTRA:                  -0.980
REMARK UNBOUND:                -1.142
REMARK SMILES OC[C@@H]1O[C@H](O[C@@]2(CO)O[C@@H](CO)[C@H](O)[C@@H]2O)[C@@H](O)[C@@H](O)[C@H]1O
REMARK SMILES IDX 6 1 5 2 3 3 22 4 4 5 20 6 18 7 2 8 1 9 23 11 21 13 19 15
REMARK SMILES IDX 7 17 16 18 10 19 14 20 11 21 8 22 9 23 17 25 15 27 12 29
REMARK SMILES IDX 13 30
REMARK H PARENT 1 10 23 12 21 14 19 16 9 24 17 26 15 28 13 31
REMARK Flexibility Score: inf
ROOT
ATOM      1  O   UNL     1       5.495  46.434  33.103  1.00  0.00    -0.313 OA
ENDROOT
BRANCH   1   2
ATOM      2  C   UNL     1       6.271  45.397  33.688  1.00  0.00     0.285 C 
ATOM      3  C   UNL     1       7.516  46.274  35.564  1.00  0.00     0.178 C 
ATOM      4  C   UNL     1       6.151  46.784  36.092  1.00  0.00     0.177 C 
ATOM      5  O   UNL     1       7.496  45.942  34.175  1.00  0.00    -0.341 OA
ATOM      6  C   UNL     1       5.038  45.721  35.862  1.00  0.00     0.179 C 
ATOM      7  C   UNL     1       5.420  44.702  34.766  1.00  0.00     0.202 C 
BRANCH   3   8
ATOM      8  C   UNL     1       8.616  47.324  35.786  1.00  0.00     0.191 C 
BRANCH   8   9
ATOM      9  O   UNL     1       8.044  48.589  35.992  1.00  0.00    -0.394 OA
ATOM     10  H   UNL     1       7.895  48.985  35.094  1.00  0.00     0.210 HD
ENDBRANCH   8   9
ENDBRANCH   3   8
BRANCH   4  11
ATOM     11  O   UNL     1       6.246  47.111  37.455  1.00  0.00    -0.387 OA
ATOM     12  H   UNL     1       6.649  46.326  37.909  1.00  0.00     0.211 HD
ENDBRANCH   4  11
BRANCH   6  13
ATOM     13  O   UNL     1       4.645  45.068  37.046  1.00  0.00    -0.387 OA
ATOM     14  H   UNL     1       3.904  45.593  37.457  1.00  0.00     0.211 HD
ENDBRANCH   6  13
BRANCH   7  15
ATOM     15  O   UNL     1       6.153  43.622  35.301  1.00  0.00    -0.385 OA
ATOM     16  H   UNL     1       6.653  43.206  34.551  1.00  0.00     0.211 HD
ENDBRANCH   7  15
ENDBRANCH   1   2
BRANCH   1  17
ATOM     17  C   UNL     1       5.202  46.235  31.727  1.00  0.00     0.224 C 
ATOM     18  C   UNL     1       3.687  46.016  31.549  1.00  0.00     0.208 C 
ATOM     19  O   UNL     1       5.875  45.104  31.201  1.00  0.00    -0.337 OA
ATOM     20  C   UNL     1       3.595  44.993  30.427  1.00  0.00     0.180 C 
ATOM     21  C   UNL     1       5.051  44.537  30.203  1.00  0.00     0.179 C 
BRANCH  17  22
ATOM     22  C   UNL     1       5.700  47.492  30.972  1.00  0.00     0.225 C 
BRANCH  22  23
ATOM     23  O   UNL     1       5.198  47.532  29.660  1.00  0.00    -0.391 OA
ATOM     24  H   UNL     1       5.434  46.666  29.231  1.00  0.00     0.210 HD
ENDBRANCH  22  23
ENDBRANCH  17  22
BRANCH  18  25
ATOM     25  O   UNL     1       2.997  47.209  31.257  1.00  0.00    -0.385 OA
ATOM     26  H   UNL     1       3.639  47.784  30.755  1.00  0.00     0.211 HD
ENDBRANCH  18  25
BRANCH  20  27
ATOM     27  O   UNL     1       3.025  45.518  29.249  1.00  0.00    -0.387 OA
ATOM     28  H   UNL     1       3.728  46.029  28.773  1.00  0.00     0.211 HD
ENDBRANCH  20  27
BRANCH  21  29
ATOM     29  C   UNL     1       5.197  43.009  30.248  1.00  0.00     0.191 C 
BRANCH  29  30
ATOM     30  O   UNL     1       5.458  42.568  31.554  1.00  0.00    -0.394 OA
ATOM     31  H   UNL     1       5.530  41.577  31.508  1.00  0.00     0.210 HD
ENDBRANCH  29  30
ENDBRANCH  21  29
ENDBRANCH   1  17
TORSDOF 13
ENDMDL
MODEL 6
REMARK VINA RESULT:    -4.642     11.653     14.322
REMARK INTER + INTRA:          -8.227
REMARK INTER:                  -7.473
REMARK INTRA:                  -0.754
REMARK UNBOUND:                -1.142
REMARK SMILES OC[C@@H]1O[C@H](O[C@@]2(CO)O[C@@H](CO)[C@H](O)[C@@H]2O)[C@@H](O)[C@@H](O)[C@H]1O
REMARK SMILES IDX 6 1 5 2 3 3 22 4 4 5 20 6 18 7 2 8 1 9 23 11 21 13 19 15
REMARK SMILES IDX 7 17 16 18 10 19 14 20 11 21 8 22 9 23 17 25 15 27 12 29
REMARK SMILES IDX 13 30
REMARK H PARENT 1 10 23 12 21 14 19 16 9 24 17 26 15 28 13 31
REMARK Flexibility Score: inf
ROOT
ATOM      1  O   UNL     1       5.373  46.423  33.909  1.00  0.00    -0.313 OA
ENDROOT
BRANCH   1   2
ATOM      2  C   UNL     1       5.801  45.375  33.051  1.00  0.00     0.285 C 
ATOM      3  C   UNL     1       4.667  45.552  30.924  1.00  0.00     0.178 C 
ATOM      4  C   UNL     1       5.187  47.011  30.891  1.00  0.00     0.177 C 
ATOM      5  O   UNL     1       4.712  44.966  32.226  1.00  0.00    -0.341 OA
ATOM      6  C   UNL     1       6.653  47.087  31.409  1.00  0.00     0.179 C 
ATOM      7  C   UNL     1       7.034  45.860  32.266  1.00  0.00     0.202 C 
BRANCH   3   8
ATOM      8  C   UNL     1       3.218  45.475  30.417  1.00  0.00     0.191 C 
BRANCH   8   9
ATOM      9  O   UNL     1       3.178  45.691  29.030  1.00  0.00    -0.394 OA
ATOM     10  H   UNL     1       2.391  45.193  28.686  1.00  0.00     0.210 HD
ENDBRANCH   8   9
ENDBRANCH   3   8
BRANCH   4  11
ATOM     11  O   UNL     1       5.097  47.533  29.589  1.00  0.00    -0.387 OA
ATOM     12  H   UNL     1       4.182  47.906  29.495  1.00  0.00     0.211 HD
ENDBRANCH   4  11
BRANCH   6  13
ATOM     13  O   UNL     1       7.592  47.297  30.380  1.00  0.00    -0.387 OA
ATOM     14  H   UNL     1       8.078  48.144  30.573  1.00  0.00     0.211 HD
ENDBRANCH   6  13
BRANCH   7  15
ATOM     15  O   UNL     1       7.513  44.802  31.467  1.00  0.00    -0.385 OA
ATOM     16  H   UNL     1       6.945  44.769  30.653  1.00  0.00     0.211 HD
ENDBRANCH   7  15
ENDBRANCH   1   2
BRANCH   1  17
ATOM     17  C   UNL     1       5.163  46.022  35.256  1.00  0.00     0.224 C 
ATOM     18  C   UNL     1       6.522  45.815  35.950  1.00  0.00     0.208 C 
ATOM     19  O   UNL     1       4.436  44.809  35.338  1.00  0.00    -0.337 OA
ATOM     20  C   UNL     1       6.281  44.634  36.879  1.00  0.00     0.180 C 
ATOM     21  C   UNL     1       4.884  44.115  36.485  1.00  0.00     0.179 C 
BRANCH  17  22
ATOM     22  C   UNL     1       4.328  47.137  35.934  1.00  0.00     0.225 C 
BRANCH  22  23
ATOM     23  O   UNL     1       4.351  47.011  37.333  1.00  0.00    -0.391 OA
ATOM     24  H   UNL     1       5.172  47.471  37.655  1.00  0.00     0.210 HD
ENDBRANCH  22  23
ENDBRANCH  17  22
BRANCH  18  25
ATOM     25  O   UNL     1       6.964  46.964  36.634  1.00  0.00    -0.385 OA
ATOM     26  H   UNL     1       7.331  47.576  35.937  1.00  0.00     0.211 HD
ENDBRANCH  18  25
BRANCH  20  27
ATOM     27  O   UNL     1       6.343  44.984  38.243  1.00  0.00    -0.387 OA
ATOM     28  H   UNL     1       5.664  44.446  38.726  1.00  0.00     0.211 HD
ENDBRANCH  20  27
BRANCH  21  29
ATOM     29  C   UNL     1       4.884  42.609  36.184  1.00  0.00     0.191 C 
BRANCH  29  30
ATOM     30  O   UNL     1       4.627  41.865  37.346  1.00  0.00    -0.394 OA
ATOM     31  H   UNL     1       3.702  41.511  37.255  1.00  0.00     0.210 HD
ENDBRANCH  29  30
ENDBRANCH  21  29
ENDBRANCH   1  17
TORSDOF 13
ENDMDL
MODEL 7
REMARK VINA RESULT:    -4.641     12.961     14.829
REMARK INTER + INTRA:          -8.225
REMARK INTER:                  -6.868
REMARK INTRA:                  -1.357
REMARK UNBOUND:                -1.142
REMARK SMILES OC[C@@H]1O[C@H](O[C@@]2(CO)O[C@@H](CO)[C@H](O)[C@@H]2O)[C@@H](O)[C@@H](O)[C@H]1O
REMARK SMILES IDX 6 1 5 2 3 3 22 4 4 5 20 6 18 7 2 8 1 9 23 11 21 13 19 15
REMARK SMILES IDX 7 17 16 18 10 19 14 20 11 21 8 22 9 23 17 25 15 27 12 29
REMARK SMILES IDX 13 30
REMARK H PARENT 1 10 23 12 21 14 19 16 9 24 17 26 15 28 13 31
REMARK Flexibility Score: inf
ROOT
ATOM      1  O   UNL     1      11.569  50.223  28.840  1.00  0.00    -0.313 OA
ENDROOT
BRANCH   1   2
ATOM      2  C   UNL     1      12.191  49.296  29.719  1.00  0.00     0.285 C 
ATOM      3  C   UNL     1      11.847  49.991  32.008  1.00  0.00     0.178 C 
ATOM      4  C   UNL     1      10.338  50.025  31.656  1.00  0.00     0.177 C 
ATOM      5  O   UNL     1      12.694  49.991  30.858  1.00  0.00    -0.341 OA
ATOM      6  C   UNL     1       9.950  48.809  30.766  1.00  0.00     0.179 C 
ATOM      7  C   UNL     1      11.175  48.190  30.057  1.00  0.00     0.202 C 
BRANCH   3   8
ATOM      8  C   UNL     1      12.233  51.193  32.884  1.00  0.00     0.191 C 
BRANCH   8   9
ATOM      9  O   UNL     1      11.478  52.320  32.520  1.00  0.00    -0.394 OA
ATOM     10  H   UNL     1      11.325  52.256  31.540  1.00  0.00     0.210 HD
ENDBRANCH   8   9
ENDBRANCH   3   8
BRANCH   4  11
ATOM     11  O   UNL     1       9.563  50.045  32.829  1.00  0.00    -0.387 OA
ATOM     12  H   UNL     1       8.717  49.572  32.618  1.00  0.00     0.211 HD
ENDBRANCH   4  11
BRANCH   6  13
ATOM     13  O   UNL     1       9.216  47.828  31.461  1.00  0.00    -0.387 OA
ATOM     14  H   UNL     1       9.852  47.123  31.762  1.00  0.00     0.211 HD
ENDBRANCH   6  13
BRANCH   7  15
ATOM     15  O   UNL     1      11.804  47.223  30.868  1.00  0.00    -0.385 OA
ATOM     16  H   UNL     1      11.088  46.656  31.258  1.00  0.00     0.211 HD
ENDBRANCH   7  15
ENDBRANCH   1   2
BRANCH   1  17
ATOM     17  C   UNL     1      12.440  50.765  27.857  1.00  0.00     0.224 C 
ATOM     18  C   UNL     1      11.645  51.057  26.569  1.00  0.00     0.208 C 
ATOM     19  O   UNL     1      13.492  49.873  27.532  1.00  0.00    -0.337 OA
ATOM     20  C   UNL     1      12.626  50.731  25.453  1.00  0.00     0.180 C 
ATOM     21  C   UNL     1      13.818  50.067  26.171  1.00  0.00     0.179 C 
BRANCH  17  22
ATOM     22  C   UNL     1      13.059  52.050  28.461  1.00  0.00     0.225 C 
BRANCH  22  23
ATOM     23  O   UNL     1      12.232  52.594  29.458  1.00  0.00    -0.391 OA
ATOM     24  H   UNL     1      11.883  51.834  29.996  1.00  0.00     0.210 HD
ENDBRANCH  22  23
ENDBRANCH  17  22
BRANCH  18  25
ATOM     25  O   UNL     1      11.175  52.383  26.510  1.00  0.00    -0.385 OA
ATOM     26  H   UNL     1      10.283  52.380  26.958  1.00  0.00     0.211 HD
ENDBRANCH  18  25
BRANCH  20  27
ATOM     27  O   UNL     1      13.025  51.868  24.721  1.00  0.00    -0.387 OA
ATOM     28  H   UNL     1      12.676  51.772  23.797  1.00  0.00     0.211 HD
ENDBRANCH  20  27
BRANCH  21  29
ATOM     29  C   UNL     1      14.192  48.713  25.552  1.00  0.00     0.191 C 
BRANCH  29  30
ATOM     30  O   UNL     1      14.669  48.873  24.242  1.00  0.00    -0.394 OA
ATOM     31  H   UNL     1      13.868  48.921  23.655  1.00  0.00     0.210 HD
ENDBRANCH  29  30
ENDBRANCH  21  29
ENDBRANCH   1  17
TORSDOF 13
ENDMDL
MODEL 8
REMARK VINA RESULT:    -4.622     12.815     15.555
REMARK INTER + INTRA:          -8.196
REMARK INTER:                  -6.923
REMARK INTRA:                  -1.274
REMARK UNBOUND:                -1.142
REMARK SMILES OC[C@@H]1O[C@H](O[C@@]2(CO)O[C@@H](CO)[C@H](O)[C@@H]2O)[C@@H](O)[C@@H](O)[C@H]1O
REMARK SMILES IDX 6 1 5 2 3 3 22 4 4 5 20 6 18 7 2 8 1 9 23 11 21 13 19 15
REMARK SMILES IDX 7 17 16 18 10 19 14 20 11 21 8 22 9 23 17 25 15 27 12 29
REMARK SMILES IDX 13 30
REMARK H PARENT 1 10 23 12 21 14 19 16 9 24 17 26 15 28 13 31
REMARK Flexibility Score: inf
ROOT
ATOM      1  O   UNL     1      11.622  50.487  29.974  1.00  0.00    -0.313 OA
ENDROOT
BRANCH   1   2
ATOM      2  C   UNL     1      12.028  49.274  29.356  1.00  0.00     0.285 C 
ATOM      3  C   UNL     1      10.109  48.179  28.376  1.00  0.00     0.178 C 
ATOM      4  C   UNL     1       9.855  49.521  27.644  1.00  0.00     0.177 C 
ATOM      5  O   UNL     1      10.991  48.304  29.494  1.00  0.00    -0.341 OA
ATOM      6  C   UNL     1      11.192  50.138  27.142  1.00  0.00     0.179 C 
ATOM      7  C   UNL     1      12.416  49.576  27.898  1.00  0.00     0.202 C 
BRANCH   3   8
ATOM      8  C   UNL     1       8.791  47.569  28.877  1.00  0.00     0.191 C 
BRANCH   8   9
ATOM      9  O   UNL     1       7.883  48.587  29.212  1.00  0.00    -0.394 OA
ATOM     10  H   UNL     1       8.421  49.347  29.555  1.00  0.00     0.210 HD
ENDBRANCH   8   9
ENDBRANCH   3   8
BRANCH   4  11
ATOM     11  O   UNL     1       8.966  49.330  26.571  1.00  0.00    -0.387 OA
ATOM     12  H   UNL     1       9.523  49.158  25.768  1.00  0.00     0.211 HD
ENDBRANCH   4  11
BRANCH   6  13
ATOM     13  O   UNL     1      11.363  50.027  25.748  1.00  0.00    -0.387 OA
ATOM     14  H   UNL     1      12.083  50.658  25.473  1.00  0.00     0.211 HD
ENDBRANCH   6  13
BRANCH   7  15
ATOM     15  O   UNL     1      12.893  48.393  27.297  1.00  0.00    -0.385 OA
ATOM     16  H   UNL     1      13.413  47.902  27.986  1.00  0.00     0.211 HD
ENDBRANCH   7  15
ENDBRANCH   1   2
BRANCH   1  17
ATOM     17  C   UNL     1      12.135  50.672  31.286  1.00  0.00     0.224 C 
ATOM     18  C   UNL     1      12.212  52.178  31.602  1.00  0.00     0.208 C 
ATOM     19  O   UNL     1      13.435  50.125  31.427  1.00  0.00    -0.337 OA
ATOM     20  C   UNL     1      13.473  52.311  32.442  1.00  0.00     0.180 C 
ATOM     21  C   UNL     1      14.140  50.923  32.355  1.00  0.00     0.179 C 
BRANCH  17  22
ATOM     22  C   UNL     1      11.184  49.924  32.252  1.00  0.00     0.225 C 
BRANCH  22  23
ATOM     23  O   UNL     1       9.853  49.982  31.805  1.00  0.00    -0.391 OA
ATOM     24  H   UNL     1       9.867  50.395  30.900  1.00  0.00     0.210 HD
ENDBRANCH  22  23
ENDBRANCH  17  22
BRANCH  18  25
ATOM     25  O   UNL     1      11.064  52.654  32.263  1.00  0.00    -0.385 OA
ATOM     26  H   UNL     1      11.372  52.973  33.157  1.00  0.00     0.211 HD
ENDBRANCH  18  25
BRANCH  20  27
ATOM     27  O   UNL     1      13.209  52.681  33.777  1.00  0.00    -0.387 OA
ATOM     28  H   UNL     1      13.348  53.659  33.854  1.00  0.00     0.211 HD
ENDBRANCH  20  27
BRANCH  21  29
ATOM     29  C   UNL     1      15.611  51.008  31.920  1.00  0.00     0.191 C 
BRANCH  29  30
ATOM     30  O   UNL     1      16.142  52.278  32.192  1.00  0.00    -0.394 OA
ATOM     31  H   UNL     1      16.264  52.328  33.177  1.00  0.00     0.210 HD
ENDBRANCH  29  30
ENDBRANCH  21  29
ENDBRANCH   1  17
TORSDOF 13
ENDMDL
MODEL 9
REMARK VINA RESULT:    -4.596     13.216     14.762
REMARK INTER + INTRA:          -8.156
REMARK INTER:                  -6.996
REMARK INTRA:                  -1.160
REMARK UNBOUND:                -1.142
REMARK SMILES OC[C@@H]1O[C@H](O[C@@]2(CO)O[C@@H](CO)[C@H](O)[C@@H]2O)[C@@H](O)[C@@H](O)[C@H]1O
REMARK SMILES IDX 6 1 5 2 3 3 22 4 4 5 20 6 18 7 2 8 1 9 23 11 21 13 19 15
REMARK SMILES IDX 7 17 16 18 10 19 14 20 11 21 8 22 9 23 17 25 15 27 12 29
REMARK SMILES IDX 13 30
REMARK H PARENT 1 10 23 12 21 14 19 16 9 24 17 26 15 28 13 31
REMARK Flexibility Score: inf
ROOT
ATOM      1  O   UNL     1      12.923  50.457  29.661  1.00  0.00    -0.313 OA
ENDROOT
BRANCH   1   2
ATOM      2  C   UNL     1      11.828  50.944  30.425  1.00  0.00     0.285 C 
ATOM      3  C   UNL     1      11.966  50.087  32.681  1.00  0.00     0.178 C 
ATOM      4  C   UNL     1      13.403  50.666  32.697  1.00  0.00     0.177 C 
ATOM      5  O   UNL     1      11.428  49.948  31.365  1.00  0.00    -0.341 OA
ATOM      6  C   UNL     1      13.445  52.059  32.004  1.00  0.00     0.179 C 
ATOM      7  C   UNL     1      12.238  52.282  31.066  1.00  0.00     0.202 C 
BRANCH   3   8
ATOM      8  C   UNL     1      11.922  48.710  33.360  1.00  0.00     0.191 C 
BRANCH   8   9
ATOM      9  O   UNL     1      13.150  48.048  33.193  1.00  0.00    -0.394 OA
ATOM     10  H   UNL     1      13.677  48.585  32.544  1.00  0.00     0.210 HD
ENDBRANCH   8   9
ENDBRANCH   3   8
BRANCH   4  11
ATOM     11  O   UNL     1      13.878  50.757  34.016  1.00  0.00    -0.387 OA
ATOM     12  H   UNL     1      14.061  51.718  34.187  1.00  0.00     0.211 HD
ENDBRANCH   4  11
BRANCH   6  13
ATOM     13  O   UNL     1      13.582  53.125  32.915  1.00  0.00    -0.387 OA
ATOM     14  H   UNL     1      14.128  53.835  32.479  1.00  0.00     0.211 HD
ENDBRANCH   6  13
BRANCH   7  15
ATOM     15  O   UNL     1      11.135  52.813  31.764  1.00  0.00    -0.385 OA
ATOM     16  H   UNL     1      10.429  53.008  31.093  1.00  0.00     0.211 HD
ENDBRANCH   7  15
ENDBRANCH   1   2
BRANCH   1  17
ATOM     17  C   UNL     1      12.595  50.128  28.319  1.00  0.00     0.224 C 
ATOM     18  C   UNL     1      12.196  51.407  27.558  1.00  0.00     0.208 C 
ATOM     19  O   UNL     1      11.511  49.217  28.247  1.00  0.00    -0.337 OA
ATOM     20  C   UNL     1      11.091  50.944  26.620  1.00  0.00     0.180 C 
ATOM     21  C   UNL     1      10.785  49.501  27.069  1.00  0.00     0.179 C 
BRANCH  17  22
ATOM     22  C   UNL     1      13.842  49.449  27.701  1.00  0.00     0.225 C 
BRANCH  22  23
ATOM     23  O   UNL     1      15.024  49.900  28.316  1.00  0.00    -0.391 OA
ATOM     24  H   UNL     1      15.067  50.884  28.179  1.00  0.00     0.210 HD
ENDBRANCH  22  23
ENDBRANCH  17  22
BRANCH  18  25
ATOM     25  O   UNL     1      13.279  51.993  26.876  1.00  0.00    -0.385 OA
ATOM     26  H   UNL     1      13.386  51.476  26.029  1.00  0.00     0.211 HD
ENDBRANCH  18  25
BRANCH  20  27
ATOM     27  O   UNL     1      11.463  51.000  25.261  1.00  0.00    -0.387 OA
ATOM     28  H   UNL     1      11.286  50.111  24.860  1.00  0.00     0.211 HD
ENDBRANCH  20  27
BRANCH  21  29
ATOM     29  C   UNL     1       9.291  49.278  27.341  1.00  0.00     0.191 C 
BRANCH  29  30
ATOM     30  O   UNL     1       8.503  50.113  26.533  1.00  0.00    -0.394 OA
ATOM     31  H   UNL     1       7.556  49.899  26.746  1.00  0.00     0.210 HD
ENDBRANCH  29  30
ENDBRANCH  21  29
ENDBRANCH   1  17
TORSDOF 13
ENDMDL
