MODEL 1
REMARK VINA RESULT:    -6.959      0.000      0.000
REMARK INTER + INTRA:          -8.467
REMARK INTER:                  -8.179
REMARK INTRA:                  -0.287
REMARK UNBOUND:                -0.287
REMARK SMILES O=c1c(O)c(-c2ccc(O)cc2)oc2cc(O)cc(O)c12
REMARK SMILES IDX 5 1 3 2 2 3 1 4 21 5 19 6 18 7 16 8 15 9 14 10 13 11 6 12
REMARK SMILES IDX 7 13 8 14 9 15 12 16 11 17 10 18 4 20 20 22 17 24
REMARK H PARENT 10 19 4 21 20 23 17 25
REMARK Flexibility Score: inf
ROOT
ATOM      1  C   UNL     1       1.264   1.834  -3.355  1.00  0.00     0.180 A 
ATOM      2  C   UNL     1       1.871   2.417  -2.225  1.00  0.00     0.208 A 
ATOM      3  C   UNL     1       3.269   2.363  -2.103  1.00  0.00     0.238 A 
ATOM      4  O   UNL     1       3.822   2.871  -1.090  1.00  0.00    -0.285 OA
ATOM      5  C   UNL     1       4.034   1.750  -3.115  1.00  0.00     0.111 A 
ATOM      6  C   UNL     1       5.446   1.656  -3.069  1.00  0.00     0.134 A 
ATOM      7  C   UNL     1       6.138   1.039  -4.122  1.00  0.00     0.093 A 
ATOM      8  C   UNL     1       5.447   0.513  -5.216  1.00  0.00     0.123 A 
ATOM      9  C   UNL     1       4.052   0.601  -5.267  1.00  0.00     0.094 A 
ATOM     10  C   UNL     1       3.345   1.213  -4.227  1.00  0.00     0.146 A 
ATOM     11  O   UNL     1       2.020   1.278  -4.297  1.00  0.00    -0.452 OA
ENDROOT
BRANCH   1  12
ATOM     12  C   UNL     1      -0.203   1.834  -3.548  1.00  0.00     0.021 A 
ATOM     13  C   UNL     1      -0.964   0.754  -3.070  1.00  0.00     0.016 A 
ATOM     14  C   UNL     1      -2.354   0.744  -3.222  1.00  0.00     0.047 A 
ATOM     15  C   UNL     1      -3.002   1.820  -3.837  1.00  0.00     0.115 A 
ATOM     16  C   UNL     1      -0.864   2.923  -4.148  1.00  0.00     0.016 A 
ATOM     17  C   UNL     1      -2.254   2.911  -4.297  1.00  0.00     0.047 A 
BRANCH  15  18
ATOM     18  O   UNL     1      -4.388   1.796  -3.980  1.00  0.00    -0.508 OA
ATOM     19  H   UNL     1      -4.945   2.636  -3.877  1.00  0.00     0.293 HD
ENDBRANCH  15  18
ENDBRANCH   1  12
BRANCH   2  20
ATOM     20  O   UNL     1       1.094   3.062  -1.260  1.00  0.00    -0.502 OA
ATOM     21  H   UNL     1       0.952   2.679  -0.333  1.00  0.00     0.293 HD
ENDBRANCH   2  20
BRANCH   6  22
ATOM     22  O   UNL     1       6.166   2.172  -1.991  1.00  0.00    -0.507 OA
ATOM     23  H   UNL     1       6.104   3.148  -1.727  1.00  0.00     0.293 HD
ENDBRANCH   6  22
BRANCH   8  24
ATOM     24  O   UNL     1       6.157  -0.095  -6.250  1.00  0.00    -0.508 OA
ATOM     25  H   UNL     1       6.502   0.437  -7.041  1.00  0.00     0.293 HD
ENDBRANCH   8  24
TORSDOF 5
ENDMDL
MODEL 2
REMARK VINA RESULT:    -6.944      5.467      7.191
REMARK INTER + INTRA:          -8.449
REMARK INTER:                  -8.205
REMARK INTRA:                  -0.244
REMARK UNBOUND:                -0.287
REMARK SMILES O=c1c(O)c(-c2ccc(O)cc2)oc2cc(O)cc(O)c12
REMARK SMILES IDX 5 1 3 2 2 3 1 4 21 5 19 6 18 7 16 8 15 9 14 10 13 11 6 12
REMARK SMILES IDX 7 13 8 14 9 15 12 16 11 17 10 18 4 20 20 22 17 24
REMARK H PARENT 10 19 4 21 20 23 17 25
REMARK Flexibility Score: inf
ROOT
ATOM      1  C   UNL     1      -3.134  -0.183  -3.257  1.00  0.00     0.180 A 
ATOM      2  C   UNL     1      -4.124  -0.512  -2.310  1.00  0.00     0.208 A 
ATOM      3  C   UNL     1      -4.245  -1.848  -1.893  1.00  0.00     0.238 A 
ATOM      4  O   UNL     1      -5.135  -2.156  -1.054  1.00  0.00    -0.285 OA
ATOM      5  C   UNL     1      -3.368  -2.822  -2.410  1.00  0.00     0.111 A 
ATOM      6  C   UNL     1      -3.422  -4.188  -2.039  1.00  0.00     0.134 A 
ATOM      7  C   UNL     1      -2.506  -5.095  -2.591  1.00  0.00     0.093 A 
ATOM      8  C   UNL     1      -1.541  -4.667  -3.505  1.00  0.00     0.123 A 
ATOM      9  C   UNL     1      -1.483  -3.320  -3.876  1.00  0.00     0.094 A 
ATOM     10  C   UNL     1      -2.388  -2.399  -3.337  1.00  0.00     0.146 A 
ATOM     11  O   UNL     1      -2.314  -1.127  -3.711  1.00  0.00    -0.452 OA
ENDROOT
BRANCH   1  12
ATOM     12  C   UNL     1      -2.955   1.197  -3.759  1.00  0.00     0.021 A 
ATOM     13  C   UNL     1      -1.834   1.942  -3.355  1.00  0.00     0.016 A 
ATOM     14  C   UNL     1      -1.633   3.239  -3.836  1.00  0.00     0.047 A 
ATOM     15  C   UNL     1      -2.541   3.803  -4.737  1.00  0.00     0.115 A 
ATOM     16  C   UNL     1      -3.854   1.764  -4.683  1.00  0.00     0.016 A 
ATOM     17  C   UNL     1      -3.650   3.062  -5.163  1.00  0.00     0.047 A 
BRANCH  15  18
ATOM     18  O   UNL     1      -2.328   5.098  -5.208  1.00  0.00    -0.508 OA
ATOM     19  H   UNL     1      -1.464   5.358  -5.668  1.00  0.00     0.293 HD
ENDBRANCH  15  18
ENDBRANCH   1  12
BRANCH   2  20
ATOM     20  O   UNL     1      -4.949   0.481  -1.776  1.00  0.00    -0.502 OA
ATOM     21  H   UNL     1      -5.658   0.281  -1.081  1.00  0.00     0.293 HD
ENDBRANCH   2  20
BRANCH   6  22
ATOM     22  O   UNL     1      -4.374  -4.648  -1.128  1.00  0.00    -0.507 OA
ATOM     23  H   UNL     1      -4.904  -4.012  -0.544  1.00  0.00     0.293 HD
ENDBRANCH   6  22
BRANCH   8  24
ATOM     24  O   UNL     1      -0.643  -5.588  -4.039  1.00  0.00    -0.508 OA
ATOM     25  H   UNL     1      -0.170  -6.268  -3.454  1.00  0.00     0.293 HD
ENDBRANCH   8  24
TORSDOF 5
ENDMDL
MODEL 3
REMARK VINA RESULT:    -6.927      6.261      7.218
REMARK INTER + INTRA:          -8.429
REMARK INTER:                  -8.181
REMARK INTRA:                  -0.247
REMARK UNBOUND:                -0.287
REMARK SMILES O=c1c(O)c(-c2ccc(O)cc2)oc2cc(O)cc(O)c12
REMARK SMILES IDX 5 1 3 2 2 3 1 4 21 5 19 6 18 7 16 8 15 9 14 10 13 11 6 12
REMARK SMILES IDX 7 13 8 14 9 15 12 16 11 17 10 18 4 20 20 22 17 24
REMARK H PARENT 10 19 4 21 20 23 17 25
REMARK Flexibility Score: inf
ROOT
ATOM      1  C   UNL     1      -3.681  -0.193  -3.729  1.00  0.00     0.180 A 
ATOM      2  C   UNL     1      -4.320  -0.345  -2.482  1.00  0.00     0.208 A 
ATOM      3  C   UNL     1      -4.159  -1.550  -1.780  1.00  0.00     0.238 A 
ATOM      4  O   UNL     1      -4.735  -1.702  -0.669  1.00  0.00    -0.285 OA
ATOM      5  C   UNL     1      -3.351  -2.570  -2.323  1.00  0.00     0.111 A 
ATOM      6  C   UNL     1      -3.135  -3.812  -1.678  1.00  0.00     0.134 A 
ATOM      7  C   UNL     1      -2.309  -4.774  -2.278  1.00  0.00     0.093 A 
ATOM      8  C   UNL     1      -1.696  -4.519  -3.507  1.00  0.00     0.123 A 
ATOM      9  C   UNL     1      -1.906  -3.295  -4.150  1.00  0.00     0.094 A 
ATOM     10  C   UNL     1      -2.727  -2.324  -3.567  1.00  0.00     0.146 A 
ATOM     11  O   UNL     1      -2.915  -1.172  -4.201  1.00  0.00    -0.452 OA
ENDROOT
BRANCH   1  12
ATOM     12  C   UNL     1      -3.817   1.040  -4.537  1.00  0.00     0.021 A 
ATOM     13  C   UNL     1      -3.062   2.176  -4.199  1.00  0.00     0.016 A 
ATOM     14  C   UNL     1      -3.158   3.343  -4.962  1.00  0.00     0.047 A 
ATOM     15  C   UNL     1      -3.995   3.385  -6.081  1.00  0.00     0.115 A 
ATOM     16  C   UNL     1      -4.642   1.082  -5.676  1.00  0.00     0.016 A 
ATOM     17  C   UNL     1      -4.736   2.251  -6.438  1.00  0.00     0.047 A 
BRANCH  15  18
ATOM     18  O   UNL     1      -4.080   4.556  -6.832  1.00  0.00    -0.508 OA
ATOM     19  H   UNL     1      -3.276   5.157  -6.968  1.00  0.00     0.293 HD
ENDBRANCH  15  18
ENDBRANCH   1  12
BRANCH   2  20
ATOM     20  O   UNL     1      -5.075   0.700  -1.944  1.00  0.00    -0.502 OA
ATOM     21  H   UNL     1      -4.906   1.070  -1.016  1.00  0.00     0.293 HD
ENDBRANCH   2  20
BRANCH   6  22
ATOM     22  O   UNL     1      -3.732  -4.097  -0.449  1.00  0.00    -0.507 OA
ATOM     23  H   UNL     1      -4.693  -3.844  -0.251  1.00  0.00     0.293 HD
ENDBRANCH   6  22
BRANCH   8  24
ATOM     24  O   UNL     1      -0.880  -5.490  -4.082  1.00  0.00    -0.508 OA
ATOM     25  H   UNL     1      -0.638  -6.341  -3.588  1.00  0.00     0.293 HD
ENDBRANCH   8  24
TORSDOF 5
ENDMDL
MODEL 4
REMARK VINA RESULT:    -6.893      5.028      7.382
REMARK INTER + INTRA:          -8.389
REMARK INTER:                  -8.117
REMARK INTRA:                  -0.273
REMARK UNBOUND:                -0.287
REMARK SMILES O=c1c(O)c(-c2ccc(O)cc2)oc2cc(O)cc(O)c12
REMARK SMILES IDX 5 1 3 2 2 3 1 4 21 5 19 6 18 7 16 8 15 9 14 10 13 11 6 12
REMARK SMILES IDX 7 13 8 14 9 15 12 16 11 17 10 18 4 20 20 22 17 24
REMARK H PARENT 10 19 4 21 20 23 17 25
REMARK Flexibility Score: inf
ROOT
ATOM      1  C   UNL     1      -2.805  -0.995  -3.114  1.00  0.00     0.180 A 
ATOM      2  C   UNL     1      -1.915  -0.024  -2.614  1.00  0.00     0.208 A 
ATOM      3  C   UNL     1      -1.922   1.260  -3.184  1.00  0.00     0.238 A 
ATOM      4  O   UNL     1      -1.122   2.134  -2.752  1.00  0.00    -0.285 OA
ATOM      5  C   UNL     1      -2.827   1.556  -4.224  1.00  0.00     0.111 A 
ATOM      6  C   UNL     1      -2.899   2.824  -4.849  1.00  0.00     0.134 A 
ATOM      7  C   UNL     1      -3.834   3.044  -5.871  1.00  0.00     0.093 A 
ATOM      8  C   UNL     1      -4.695   2.023  -6.280  1.00  0.00     0.123 A 
ATOM      9  C   UNL     1      -4.628   0.767  -5.668  1.00  0.00     0.094 A 
ATOM     10  C   UNL     1      -3.702   0.529  -4.647  1.00  0.00     0.146 A 
ATOM     11  O   UNL     1      -3.655  -0.674  -4.086  1.00  0.00    -0.452 OA
ENDROOT
BRANCH   1  12
ATOM     12  C   UNL     1      -2.846  -2.374  -2.579  1.00  0.00     0.021 A 
ATOM     13  C   UNL     1      -3.598  -2.647  -1.424  1.00  0.00     0.016 A 
ATOM     14  C   UNL     1      -3.668  -3.947  -0.914  1.00  0.00     0.047 A 
ATOM     15  C   UNL     1      -3.003  -4.992  -1.561  1.00  0.00     0.115 A 
ATOM     16  C   UNL     1      -2.195  -3.435  -3.236  1.00  0.00     0.016 A 
ATOM     17  C   UNL     1      -2.268  -4.735  -2.725  1.00  0.00     0.047 A 
BRANCH  15  18
ATOM     18  O   UNL     1      -3.082  -6.283  -1.041  1.00  0.00    -0.508 OA
ATOM     19  H   UNL     1      -2.349  -6.964  -1.201  1.00  0.00     0.293 HD
ENDBRANCH  15  18
ENDBRANCH   1  12
BRANCH   2  20
ATOM     20  O   UNL     1      -1.063  -0.328  -1.550  1.00  0.00    -0.502 OA
ATOM     21  H   UNL     1      -0.514   0.378  -1.076  1.00  0.00     0.293 HD
ENDBRANCH   2  20
BRANCH   6  22
ATOM     22  O   UNL     1      -2.054   3.865  -4.462  1.00  0.00    -0.507 OA
ATOM     23  H   UNL     1      -1.765   4.587  -5.112  1.00  0.00     0.293 HD
ENDBRANCH   6  22
BRANCH   8  24
ATOM     24  O   UNL     1      -5.615   2.266  -7.297  1.00  0.00    -0.508 OA
ATOM     25  H   UNL     1      -6.612   2.151  -7.150  1.00  0.00     0.293 HD
ENDBRANCH   8  24
TORSDOF 5
ENDMDL
MODEL 5
REMARK VINA RESULT:    -6.837      1.677      2.611
REMARK INTER + INTRA:          -8.323
REMARK INTER:                  -8.029
REMARK INTRA:                  -0.293
REMARK UNBOUND:                -0.287
REMARK SMILES O=c1c(O)c(-c2ccc(O)cc2)oc2cc(O)cc(O)c12
REMARK SMILES IDX 5 1 3 2 2 3 1 4 21 5 19 6 18 7 16 8 15 9 14 10 13 11 6 12
REMARK SMILES IDX 7 13 8 14 9 15 12 16 11 17 10 18 4 20 20 22 17 24
REMARK H PARENT 10 19 4 21 20 23 17 25
REMARK Flexibility Score: inf
ROOT
ATOM      1  C   UNL     1      -0.608   2.048  -4.301  1.00  0.00     0.180 A 
ATOM      2  C   UNL     1      -0.418   2.678  -3.055  1.00  0.00     0.208 A 
ATOM      3  C   UNL     1       0.839   2.592  -2.436  1.00  0.00     0.238 A 
ATOM      4  O   UNL     1       1.017   3.143  -1.315  1.00  0.00    -0.285 OA
ATOM      5  C   UNL     1       1.886   1.899  -3.077  1.00  0.00     0.111 A 
ATOM      6  C   UNL     1       3.182   1.768  -2.522  1.00  0.00     0.134 A 
ATOM      7  C   UNL     1       4.174   1.071  -3.227  1.00  0.00     0.093 A 
ATOM      8  C   UNL     1       3.896   0.502  -4.471  1.00  0.00     0.123 A 
ATOM      9  C   UNL     1       2.617   0.625  -5.025  1.00  0.00     0.094 A 
ATOM     10  C   UNL     1       1.615   1.317  -4.337  1.00  0.00     0.146 A 
ATOM     11  O   UNL     1       0.408   1.415  -4.882  1.00  0.00    -0.452 OA
ENDROOT
BRANCH   1  12
ATOM     12  C   UNL     1      -1.907   2.078  -5.008  1.00  0.00     0.021 A 
ATOM     13  C   UNL     1      -2.114   3.011  -6.038  1.00  0.00     0.016 A 
ATOM     14  C   UNL     1      -3.326   3.042  -6.734  1.00  0.00     0.047 A 
ATOM     15  C   UNL     1      -4.340   2.132  -6.422  1.00  0.00     0.115 A 
ATOM     16  C   UNL     1      -2.924   1.151  -4.712  1.00  0.00     0.016 A 
ATOM     17  C   UNL     1      -4.136   1.184  -5.411  1.00  0.00     0.047 A 
BRANCH  15  18
ATOM     18  O   UNL     1      -5.542   2.174  -7.124  1.00  0.00    -0.508 OA
ATOM     19  H   UNL     1      -5.590   2.535  -8.070  1.00  0.00     0.293 HD
ENDBRANCH  15  18
ENDBRANCH   1  12
BRANCH   2  20
ATOM     20  O   UNL     1      -1.458   3.400  -2.464  1.00  0.00    -0.502 OA
ATOM     21  H   UNL     1      -2.308   2.959  -2.138  1.00  0.00     0.293 HD
ENDBRANCH   2  20
BRANCH   6  22
ATOM     22  O   UNL     1       3.492   2.326  -1.281  1.00  0.00    -0.507 OA
ATOM     23  H   UNL     1       3.237   3.278  -1.045  1.00  0.00     0.293 HD
ENDBRANCH   6  22
BRANCH   8  24
ATOM     24  O   UNL     1       4.899  -0.186  -5.152  1.00  0.00    -0.508 OA
ATOM     25  H   UNL     1       4.969  -1.197  -5.114  1.00  0.00     0.293 HD
ENDBRANCH   8  24
TORSDOF 5
ENDMDL
MODEL 6
REMARK VINA RESULT:    -6.781      3.978      5.358
REMARK INTER + INTRA:          -8.257
REMARK INTER:                  -7.968
REMARK INTRA:                  -0.289
REMARK UNBOUND:                -0.287
REMARK SMILES O=c1c(O)c(-c2ccc(O)cc2)oc2cc(O)cc(O)c12
REMARK SMILES IDX 5 1 3 2 2 3 1 4 21 5 19 6 18 7 16 8 15 9 14 10 13 11 6 12
REMARK SMILES IDX 7 13 8 14 9 15 12 16 11 17 10 18 4 20 20 22 17 24
REMARK H PARENT 10 19 4 21 20 23 17 25
REMARK Flexibility Score: inf
ROOT
ATOM      1  C   UNL     1      -1.119   1.145  -3.747  1.00  0.00     0.180 A 
ATOM      2  C   UNL     1      -1.962   0.405  -2.894  1.00  0.00     0.208 A 
ATOM      3  C   UNL     1      -1.933  -0.998  -2.962  1.00  0.00     0.238 A 
ATOM      4  O   UNL     1      -2.691  -1.670  -2.212  1.00  0.00    -0.285 OA
ATOM      5  C   UNL     1      -1.052  -1.634  -3.861  1.00  0.00     0.111 A 
ATOM      6  C   UNL     1      -0.960  -3.041  -3.988  1.00  0.00     0.134 A 
ATOM      7  C   UNL     1      -0.051  -3.599  -4.898  1.00  0.00     0.093 A 
ATOM      8  C   UNL     1       0.765  -2.780  -5.683  1.00  0.00     0.123 A 
ATOM      9  C   UNL     1       0.677  -1.390  -5.564  1.00  0.00     0.094 A 
ATOM     10  C   UNL     1      -0.224  -0.814  -4.661  1.00  0.00     0.146 A 
ATOM     11  O   UNL     1      -0.291   0.509  -4.571  1.00  0.00    -0.452 OA
ENDROOT
BRANCH   1  12
ATOM     12  C   UNL     1      -1.105   2.625  -3.748  1.00  0.00     0.021 A 
ATOM     13  C   UNL     1      -0.256   3.310  -2.863  1.00  0.00     0.016 A 
ATOM     14  C   UNL     1      -0.210   4.707  -2.863  1.00  0.00     0.047 A 
ATOM     15  C   UNL     1      -0.999   5.436  -3.757  1.00  0.00     0.115 A 
ATOM     16  C   UNL     1      -1.881   3.364  -4.660  1.00  0.00     0.016 A 
ATOM     17  C   UNL     1      -1.833   4.762  -4.658  1.00  0.00     0.047 A 
BRANCH  15  18
ATOM     18  O   UNL     1      -0.943   6.829  -3.746  1.00  0.00    -0.508 OA
ATOM     19  H   UNL     1      -0.062   7.323  -3.826  1.00  0.00     0.293 HD
ENDBRANCH  15  18
ENDBRANCH   1  12
BRANCH   2  20
ATOM     20  O   UNL     1      -2.790   1.059  -1.979  1.00  0.00    -0.502 OA
ATOM     21  H   UNL     1      -2.593   1.993  -1.641  1.00  0.00     0.293 HD
ENDBRANCH   2  20
BRANCH   6  22
ATOM     22  O   UNL     1      -1.759  -3.886  -3.218  1.00  0.00    -0.507 OA
ATOM     23  H   UNL     1      -2.639  -3.575  -2.823  1.00  0.00     0.293 HD
ENDBRANCH   6  22
BRANCH   8  24
ATOM     24  O   UNL     1       1.660  -3.359  -6.580  1.00  0.00    -0.508 OA
ATOM     25  H   UNL     1       1.782  -2.994  -7.518  1.00  0.00     0.293 HD
ENDBRANCH   8  24
TORSDOF 5
ENDMDL
MODEL 7
REMARK VINA RESULT:    -6.761      2.712      5.142
REMARK INTER + INTRA:          -8.234
REMARK INTER:                  -7.985
REMARK INTRA:                  -0.249
REMARK UNBOUND:                -0.287
REMARK SMILES O=c1c(O)c(-c2ccc(O)cc2)oc2cc(O)cc(O)c12
REMARK SMILES IDX 5 1 3 2 2 3 1 4 21 5 19 6 18 7 16 8 15 9 14 10 13 11 6 12
REMARK SMILES IDX 7 13 8 14 9 15 12 16 11 17 10 18 4 20 20 22 17 24
REMARK H PARENT 10 19 4 21 20 23 17 25
REMARK Flexibility Score: inf
ROOT
ATOM      1  C   UNL     1       2.247   1.292  -3.614  1.00  0.00     0.180 A 
ATOM      2  C   UNL     1       3.394   1.431  -2.807  1.00  0.00     0.208 A 
ATOM      3  C   UNL     1       3.562   2.612  -2.065  1.00  0.00     0.238 A 
ATOM      4  O   UNL     1       4.590   2.752  -1.348  1.00  0.00    -0.285 OA
ATOM      5  C   UNL     1       2.576   3.618  -2.124  1.00  0.00     0.111 A 
ATOM      6  C   UNL     1       2.668   4.835  -1.405  1.00  0.00     0.134 A 
ATOM      7  C   UNL     1       1.641   5.784  -1.509  1.00  0.00     0.093 A 
ATOM      8  C   UNL     1       0.527   5.542  -2.317  1.00  0.00     0.123 A 
ATOM      9  C   UNL     1       0.431   4.343  -3.031  1.00  0.00     0.094 A 
ATOM     10  C   UNL     1       1.446   3.385  -2.940  1.00  0.00     0.146 A 
ATOM     11  O   UNL     1       1.332   2.257  -3.633  1.00  0.00    -0.452 OA
ENDROOT
BRANCH   1  12
ATOM     12  C   UNL     1       2.008   0.087  -4.439  1.00  0.00     0.021 A 
ATOM     13  C   UNL     1       2.710  -0.077  -5.645  1.00  0.00     0.016 A 
ATOM     14  C   UNL     1       2.515  -1.219  -6.429  1.00  0.00     0.047 A 
ATOM     15  C   UNL     1       1.630  -2.217  -6.010  1.00  0.00     0.115 A 
ATOM     16  C   UNL     1       1.134  -0.931  -4.013  1.00  0.00     0.016 A 
ATOM     17  C   UNL     1       0.942  -2.072  -4.799  1.00  0.00     0.047 A 
BRANCH  15  18
ATOM     18  O   UNL     1       1.447  -3.349  -6.801  1.00  0.00    -0.508 OA
ATOM     19  H   UNL     1       0.683  -3.413  -7.463  1.00  0.00     0.293 HD
ENDBRANCH  15  18
ENDBRANCH   1  12
BRANCH   2  20
ATOM     20  O   UNL     1       4.331   0.398  -2.727  1.00  0.00    -0.502 OA
ATOM     21  H   UNL     1       4.526  -0.218  -3.507  1.00  0.00     0.293 HD
ENDBRANCH   2  20
BRANCH   6  22
ATOM     22  O   UNL     1       3.767   5.106  -0.589  1.00  0.00    -0.507 OA
ATOM     23  H   UNL     1       3.775   4.862   0.394  1.00  0.00     0.293 HD
ENDBRANCH   6  22
BRANCH   8  24
ATOM     24  O   UNL     1      -0.480   6.501  -2.403  1.00  0.00    -0.508 OA
ATOM     25  H   UNL     1      -0.477   7.328  -1.817  1.00  0.00     0.293 HD
ENDBRANCH   8  24
TORSDOF 5
ENDMDL
MODEL 8
REMARK VINA RESULT:    -6.683      3.696      5.296
REMARK INTER + INTRA:          -8.142
REMARK INTER:                  -7.875
REMARK INTRA:                  -0.267
REMARK UNBOUND:                -0.287
REMARK SMILES O=c1c(O)c(-c2ccc(O)cc2)oc2cc(O)cc(O)c12
REMARK SMILES IDX 5 1 3 2 2 3 1 4 21 5 19 6 18 7 16 8 15 9 14 10 13 11 6 12
REMARK SMILES IDX 7 13 8 14 9 15 12 16 11 17 10 18 4 20 20 22 17 24
REMARK H PARENT 10 19 4 21 20 23 17 25
REMARK Flexibility Score: inf
ROOT
ATOM      1  C   UNL     1      -3.211  -0.754  -4.346  1.00  0.00     0.180 A 
ATOM      2  C   UNL     1      -2.590   0.009  -3.337  1.00  0.00     0.208 A 
ATOM      3  C   UNL     1      -1.196  -0.069  -3.190  1.00  0.00     0.238 A 
ATOM      4  O   UNL     1      -0.630   0.600  -2.283  1.00  0.00    -0.285 OA
ATOM      5  C   UNL     1      -0.447  -0.887  -4.061  1.00  0.00     0.111 A 
ATOM      6  C   UNL     1       0.960  -1.019  -3.982  1.00  0.00     0.134 A 
ATOM      7  C   UNL     1       1.635  -1.845  -4.892  1.00  0.00     0.093 A 
ATOM      8  C   UNL     1       0.931  -2.542  -5.877  1.00  0.00     0.123 A 
ATOM      9  C   UNL     1      -0.459  -2.418  -5.961  1.00  0.00     0.094 A 
ATOM     10  C   UNL     1      -1.150  -1.599  -5.061  1.00  0.00     0.146 A 
ATOM     11  O   UNL     1      -2.471  -1.502  -5.159  1.00  0.00    -0.452 OA
ENDROOT
BRANCH   1  12
ATOM     12  C   UNL     1      -4.677  -0.739  -4.553  1.00  0.00     0.021 A 
ATOM     13  C   UNL     1      -5.501  -1.516  -3.721  1.00  0.00     0.016 A 
ATOM     14  C   UNL     1      -6.890  -1.499  -3.884  1.00  0.00     0.047 A 
ATOM     15  C   UNL     1      -7.472  -0.696  -4.870  1.00  0.00     0.115 A 
ATOM     16  C   UNL     1      -5.271   0.082  -5.529  1.00  0.00     0.016 A 
ATOM     17  C   UNL     1      -6.661   0.097  -5.690  1.00  0.00     0.047 A 
BRANCH  15  18
ATOM     18  O   UNL     1      -8.858  -0.690  -5.021  1.00  0.00    -0.508 OA
ATOM     19  H   UNL     1      -9.331   0.048  -5.528  1.00  0.00     0.293 HD
ENDBRANCH  15  18
ENDBRANCH   1  12
BRANCH   2  20
ATOM     20  O   UNL     1      -3.349   0.849  -2.519  1.00  0.00    -0.502 OA
ATOM     21  H   UNL     1      -3.878   0.503  -1.728  1.00  0.00     0.293 HD
ENDBRANCH   2  20
BRANCH   6  22
ATOM     22  O   UNL     1       1.692  -0.335  -3.010  1.00  0.00    -0.507 OA
ATOM     23  H   UNL     1       2.691  -0.192  -3.097  1.00  0.00     0.293 HD
ENDBRANCH   6  22
BRANCH   8  24
ATOM     24  O   UNL     1       1.624  -3.357  -6.770  1.00  0.00    -0.508 OA
ATOM     25  H   UNL     1       2.391  -3.945  -6.466  1.00  0.00     0.293 HD
ENDBRANCH   8  24
TORSDOF 5
ENDMDL
MODEL 9
REMARK VINA RESULT:    -6.658      4.374      8.479
REMARK INTER + INTRA:          -8.113
REMARK INTER:                  -8.050
REMARK INTRA:                  -0.063
REMARK UNBOUND:                -0.287
REMARK SMILES O=c1c(O)c(-c2ccc(O)cc2)oc2cc(O)cc(O)c12
REMARK SMILES IDX 5 1 3 2 2 3 1 4 21 5 19 6 18 7 16 8 15 9 14 10 13 11 6 12
REMARK SMILES IDX 7 13 8 14 9 15 12 16 11 17 10 18 4 20 20 22 17 24
REMARK H PARENT 10 19 4 21 20 23 17 25
REMARK Flexibility Score: inf
ROOT
ATOM      1  C   UNL     1      -1.827  -1.766  -3.119  1.00  0.00     0.180 A 
ATOM      2  C   UNL     1      -2.676  -0.650  -2.980  1.00  0.00     0.208 A 
ATOM      3  C   UNL     1      -3.772  -0.737  -2.106  1.00  0.00     0.238 A 
ATOM      4  O   UNL     1      -4.546   0.251  -1.983  1.00  0.00    -0.285 OA
ATOM      5  C   UNL     1      -3.988  -1.922  -1.374  1.00  0.00     0.111 A 
ATOM      6  C   UNL     1      -5.066  -2.089  -0.471  1.00  0.00     0.134 A 
ATOM      7  C   UNL     1      -5.207  -3.296   0.229  1.00  0.00     0.093 A 
ATOM      8  C   UNL     1      -4.295  -4.338   0.043  1.00  0.00     0.123 A 
ATOM      9  C   UNL     1      -3.229  -4.180  -0.848  1.00  0.00     0.094 A 
ATOM     10  C   UNL     1      -3.072  -2.984  -1.555  1.00  0.00     0.146 A 
ATOM     11  O   UNL     1      -2.054  -2.862  -2.400  1.00  0.00    -0.452 OA
ENDROOT
BRANCH   1  12
ATOM     12  C   UNL     1      -0.663  -1.760  -4.032  1.00  0.00     0.021 A 
ATOM     13  C   UNL     1       0.368  -0.826  -3.834  1.00  0.00     0.016 A 
ATOM     14  C   UNL     1       1.488  -0.817  -4.672  1.00  0.00     0.047 A 
ATOM     15  C   UNL     1       1.598  -1.750  -5.707  1.00  0.00     0.115 A 
ATOM     16  C   UNL     1      -0.535  -2.709  -5.064  1.00  0.00     0.016 A 
ATOM     17  C   UNL     1       0.586  -2.699  -5.900  1.00  0.00     0.047 A 
BRANCH  15  18
ATOM     18  O   UNL     1       2.720  -1.730  -6.534  1.00  0.00    -0.508 OA
ATOM     19  H   UNL     1       2.654  -1.949  -7.521  1.00  0.00     0.293 HD
ENDBRANCH  15  18
ENDBRANCH   1  12
BRANCH   2  20
ATOM     20  O   UNL     1      -2.412   0.529  -3.680  1.00  0.00    -0.502 OA
ATOM     21  H   UNL     1      -1.470   0.834  -3.894  1.00  0.00     0.293 HD
ENDBRANCH   2  20
BRANCH   6  22
ATOM     22  O   UNL     1      -5.993  -1.067  -0.263  1.00  0.00    -0.507 OA
ATOM     23  H   UNL     1      -5.811  -0.114  -0.555  1.00  0.00     0.293 HD
ENDBRANCH   6  22
BRANCH   8  24
ATOM     24  O   UNL     1      -4.458  -5.527   0.750  1.00  0.00    -0.508 OA
ATOM     25  H   UNL     1      -4.944  -5.554   1.639  1.00  0.00     0.293 HD
ENDBRANCH   8  24
TORSDOF 5
ENDMDL
