MODEL 1
REMARK VINA RESULT:    -4.773      0.000      0.000
REMARK INTER + INTRA:          -5.778
REMARK INTER:                  -5.750
REMARK INTRA:                  -0.029
REMARK UNBOUND:                -0.029
REMARK SMILES CC[C@@H](C)[C@@H]([NH3+])C(=O)[O-]
REMARK SMILES IDX 3 1 4 2 5 3 6 4 7 8 8 9 9 10 2 11 1 12
REMARK H PARENT 6 5 6 6 6 7
REMARK Flexibility Score: inf
ROOT
ATOM      1  C   UNL     1     -36.094  -4.531  -7.632  1.00  0.00     0.050 C 
ATOM      2  C   UNL     1     -36.056  -5.686  -6.612  1.00  0.00     0.014 C 
ENDROOT
BRANCH   1   3
ATOM      3  C   UNL     1     -34.696  -3.850  -7.776  1.00  0.00     0.230 C 
BRANCH   3   4
ATOM      4  N   UNL     1     -34.437  -2.894  -6.690  1.00  0.00    -0.350 N 
ATOM      5  H   UNL     1     -34.030  -2.011  -7.071  1.00  0.00     0.345 HD
ATOM      6  H   UNL     1     -35.320  -2.676  -6.171  1.00  0.00     0.345 HD
ATOM      7  H   UNL     1     -33.739  -3.291  -6.020  1.00  0.00     0.345 HD
ENDBRANCH   3   4
BRANCH   3   8
ATOM      8  C   UNL     1     -33.601  -4.888  -7.797  1.00  0.00     0.099 C 
ATOM      9  O   UNL     1     -32.856  -5.044  -6.793  1.00  0.00    -0.544 OA
ATOM     10  O   UNL     1     -33.402  -5.674  -8.926  1.00  0.00    -0.544 OA
ENDBRANCH   3   8
ENDBRANCH   1   3
BRANCH   1  11
ATOM     11  C   UNL     1     -36.703  -5.008  -8.976  1.00  0.00     0.006 C 
ATOM     12  C   UNL     1     -36.607  -3.988 -10.116  1.00  0.00     0.004 C 
ENDBRANCH   1  11
TORSDOF 4
ENDMDL
MODEL 2
REMARK VINA RESULT:    -4.755      2.131      2.589
REMARK INTER + INTRA:          -5.756
REMARK INTER:                  -5.730
REMARK INTRA:                  -0.026
REMARK UNBOUND:                -0.029
REMARK SMILES CC[C@@H](C)[C@@H]([NH3+])C(=O)[O-]
REMARK SMILES IDX 3 1 4 2 5 3 6 4 7 8 8 9 9 10 2 11 1 12
REMARK H PARENT 6 5 6 6 6 7
REMARK Flexibility Score: inf
ROOT
ATOM      1  C   UNL     1     -34.181  -4.155  -8.617  1.00  0.00     0.050 C 
ATOM      2  C   UNL     1     -34.543  -2.950  -7.727  1.00  0.00     0.014 C 
ENDROOT
BRANCH   1   3
ATOM      3  C   UNL     1     -34.082  -5.472  -7.782  1.00  0.00     0.230 C 
BRANCH   3   4
ATOM      4  N   UNL     1     -32.724  -5.693  -7.265  1.00  0.00    -0.350 N 
ATOM      5  H   UNL     1     -32.089  -6.006  -8.032  1.00  0.00     0.345 HD
ATOM      6  H   UNL     1     -32.345  -4.817  -6.834  1.00  0.00     0.345 HD
ATOM      7  H   UNL     1     -32.733  -6.450  -6.543  1.00  0.00     0.345 HD
ENDBRANCH   3   4
BRANCH   3   8
ATOM      8  C   UNL     1     -35.055  -5.441  -6.629  1.00  0.00     0.099 C 
ATOM      9  O   UNL     1     -34.642  -5.236  -5.456  1.00  0.00    -0.544 OA
ATOM     10  O   UNL     1     -36.412  -5.647  -6.851  1.00  0.00    -0.544 OA
ENDBRANCH   3   8
ENDBRANCH   1   3
BRANCH   1  11
ATOM     11  C   UNL     1     -35.144  -4.250  -9.829  1.00  0.00     0.006 C 
ATOM     12  C   UNL     1     -35.314  -5.662 -10.398  1.00  0.00     0.004 C 
ENDBRANCH   1  11
TORSDOF 4
ENDMDL
MODEL 3
REMARK VINA RESULT:    -4.583      1.752      2.231
REMARK INTER + INTRA:          -5.549
REMARK INTER:                  -5.613
REMARK INTRA:                   0.064
REMARK UNBOUND:                -0.029
REMARK SMILES CC[C@@H](C)[C@@H]([NH3+])C(=O)[O-]
REMARK SMILES IDX 3 1 4 2 5 3 6 4 7 8 8 9 9 10 2 11 1 12
REMARK H PARENT 6 5 6 6 6 7
REMARK Flexibility Score: inf
ROOT
ATOM      1  C   UNL     1     -36.039  -5.382  -8.565  1.00  0.00     0.050 C 
ATOM      2  C   UNL     1     -34.628  -5.719  -9.088  1.00  0.00     0.014 C 
ENDROOT
BRANCH   1   3
ATOM      3  C   UNL     1     -35.986  -4.791  -7.121  1.00  0.00     0.230 C 
BRANCH   3   4
ATOM      4  N   UNL     1     -36.104  -5.838  -6.096  1.00  0.00    -0.350 N 
ATOM      5  H   UNL     1     -35.722  -5.500  -5.184  1.00  0.00     0.345 HD
ATOM      6  H   UNL     1     -37.103  -6.124  -5.972  1.00  0.00     0.345 HD
ATOM      7  H   UNL     1     -35.542  -6.677  -6.373  1.00  0.00     0.345 HD
ENDBRANCH   3   4
BRANCH   3   8
ATOM      8  C   UNL     1     -34.702  -4.028  -6.907  1.00  0.00     0.099 C 
ATOM      9  O   UNL     1     -34.613  -2.823  -7.266  1.00  0.00    -0.544 OA
ATOM     10  O   UNL     1     -33.606  -4.650  -6.321  1.00  0.00    -0.544 OA
ENDBRANCH   3   8
ENDBRANCH   1   3
BRANCH   1  11
ATOM     11  C   UNL     1     -36.800  -4.492  -9.582  1.00  0.00     0.006 C 
ATOM     12  C   UNL     1     -35.906  -3.565 -10.411  1.00  0.00     0.004 C 
ENDBRANCH   1  11
TORSDOF 4
ENDMDL
MODEL 4
REMARK VINA RESULT:    -4.538      1.839      2.311
REMARK INTER + INTRA:          -5.496
REMARK INTER:                  -5.399
REMARK INTRA:                  -0.097
REMARK UNBOUND:                -0.029
REMARK SMILES CC[C@@H](C)[C@@H]([NH3+])C(=O)[O-]
REMARK SMILES IDX 3 1 4 2 5 3 6 4 7 8 8 9 9 10 2 11 1 12
REMARK H PARENT 6 5 6 6 6 7
REMARK Flexibility Score: inf
ROOT
ATOM      1  C   UNL     1     -34.843  -4.360  -8.872  1.00  0.00     0.050 C 
ATOM      2  C   UNL     1     -34.145  -5.526  -9.599  1.00  0.00     0.014 C 
ENDROOT
BRANCH   1   3
ATOM      3  C   UNL     1     -34.287  -4.173  -7.425  1.00  0.00     0.230 C 
BRANCH   3   4
ATOM      4  N   UNL     1     -34.389  -2.778  -6.974  1.00  0.00    -0.350 N 
ATOM      5  H   UNL     1     -33.598  -2.212  -7.357  1.00  0.00     0.345 HD
ATOM      6  H   UNL     1     -35.298  -2.357  -7.277  1.00  0.00     0.345 HD
ATOM      7  H   UNL     1     -34.325  -2.731  -5.931  1.00  0.00     0.345 HD
ENDBRANCH   3   4
BRANCH   3   8
ATOM      8  C   UNL     1     -35.023  -5.065  -6.455  1.00  0.00     0.099 C 
ATOM      9  O   UNL     1     -34.455  -5.462  -5.403  1.00  0.00    -0.544 OA
ATOM     10  O   UNL     1     -36.329  -5.459  -6.720  1.00  0.00    -0.544 OA
ENDBRANCH   3   8
ENDBRANCH   1   3
BRANCH   1  11
ATOM     11  C   UNL     1     -34.798  -3.072  -9.735  1.00  0.00     0.006 C 
ATOM     12  C   UNL     1     -36.047  -2.833 -10.589  1.00  0.00     0.004 C 
ENDBRANCH   1  11
TORSDOF 4
ENDMDL
MODEL 5
REMARK VINA RESULT:    -4.528      1.461      1.828
REMARK INTER + INTRA:          -5.484
REMARK INTER:                  -5.538
REMARK INTRA:                   0.054
REMARK UNBOUND:                -0.029
REMARK SMILES CC[C@@H](C)[C@@H]([NH3+])C(=O)[O-]
REMARK SMILES IDX 3 1 4 2 5 3 6 4 7 8 8 9 9 10 2 11 1 12
REMARK H PARENT 6 5 6 6 6 7
REMARK Flexibility Score: inf
ROOT
ATOM      1  C   UNL     1     -35.853  -3.953  -7.911  1.00  0.00     0.050 C 
ATOM      2  C   UNL     1     -36.761  -4.881  -8.742  1.00  0.00     0.014 C 
ENDROOT
BRANCH   1   3
ATOM      3  C   UNL     1     -35.107  -4.741  -6.788  1.00  0.00     0.230 C 
BRANCH   3   4
ATOM      4  N   UNL     1     -35.963  -5.769  -6.178  1.00  0.00    -0.350 N 
ATOM      5  H   UNL     1     -36.921  -5.738  -6.593  1.00  0.00     0.345 HD
ATOM      6  H   UNL     1     -35.552  -6.722  -6.317  1.00  0.00     0.345 HD
ATOM      7  H   UNL     1     -36.065  -5.589  -5.152  1.00  0.00     0.345 HD
ENDBRANCH   3   4
BRANCH   3   8
ATOM      8  C   UNL     1     -33.861  -5.392  -7.337  1.00  0.00     0.099 C 
ATOM      9  O   UNL     1     -32.726  -5.050  -6.909  1.00  0.00    -0.544 OA
ATOM     10  O   UNL     1     -33.956  -6.367  -8.322  1.00  0.00    -0.544 OA
ENDBRANCH   3   8
ENDBRANCH   1   3
BRANCH   1  11
ATOM     11  C   UNL     1     -34.914  -3.135  -8.835  1.00  0.00     0.006 C 
ATOM     12  C   UNL     1     -35.520  -2.767 -10.193  1.00  0.00     0.004 C 
ENDBRANCH   1  11
TORSDOF 4
ENDMDL
MODEL 6
REMARK VINA RESULT:    -4.443      2.306      2.690
REMARK INTER + INTRA:          -5.381
REMARK INTER:                  -5.296
REMARK INTRA:                  -0.085
REMARK UNBOUND:                -0.029
REMARK SMILES CC[C@@H](C)[C@@H]([NH3+])C(=O)[O-]
REMARK SMILES IDX 3 1 4 2 5 3 6 4 7 8 8 9 9 10 2 11 1 12
REMARK H PARENT 6 5 6 6 6 7
REMARK Flexibility Score: inf
ROOT
ATOM      1  C   UNL     1     -35.003  -5.097  -9.061  1.00  0.00     0.050 C 
ATOM      2  C   UNL     1     -36.479  -5.486  -9.273  1.00  0.00     0.014 C 
ENDROOT
BRANCH   1   3
ATOM      3  C   UNL     1     -34.506  -5.497  -7.636  1.00  0.00     0.230 C 
BRANCH   3   4
ATOM      4  N   UNL     1     -33.065  -5.788  -7.620  1.00  0.00    -0.350 N 
ATOM      5  H   UNL     1     -32.802  -6.375  -8.443  1.00  0.00     0.345 HD
ATOM      6  H   UNL     1     -32.508  -4.902  -7.630  1.00  0.00     0.345 HD
ATOM      7  H   UNL     1     -32.818  -6.333  -6.761  1.00  0.00     0.345 HD
ENDBRANCH   3   4
BRANCH   3   8
ATOM      8  C   UNL     1     -34.802  -4.398  -6.644  1.00  0.00     0.099 C 
ATOM      9  O   UNL     1     -35.166  -4.683  -5.472  1.00  0.00    -0.544 OA
ATOM     10  O   UNL     1     -34.683  -3.065  -7.019  1.00  0.00    -0.544 OA
ENDBRANCH   3   8
ENDBRANCH   1   3
BRANCH   1  11
ATOM     11  C   UNL     1     -34.121  -5.648 -10.212  1.00  0.00     0.006 C 
ATOM     12  C   UNL     1     -34.905  -6.202 -11.406  1.00  0.00     0.004 C 
ENDBRANCH   1  11
TORSDOF 4
ENDMDL
MODEL 7
REMARK VINA RESULT:    -4.345      2.137      2.925
REMARK INTER + INTRA:          -5.263
REMARK INTER:                  -5.273
REMARK INTRA:                   0.010
REMARK UNBOUND:                -0.029
REMARK SMILES CC[C@@H](C)[C@@H]([NH3+])C(=O)[O-]
REMARK SMILES IDX 3 1 4 2 5 3 6 4 7 8 8 9 9 10 2 11 1 12
REMARK H PARENT 6 5 6 6 6 7
REMARK Flexibility Score: inf
ROOT
ATOM      1  C   UNL     1     -35.361  -4.970  -7.459  1.00  0.00     0.050 C 
ATOM      2  C   UNL     1     -34.940  -5.040  -5.978  1.00  0.00     0.014 C 
ENDROOT
BRANCH   1   3
ATOM      3  C   UNL     1     -35.391  -3.497  -7.976  1.00  0.00     0.230 C 
BRANCH   3   4
ATOM      4  N   UNL     1     -34.154  -2.775  -7.646  1.00  0.00    -0.350 N 
ATOM      5  H   UNL     1     -34.092  -1.888  -8.196  1.00  0.00     0.345 HD
ATOM      6  H   UNL     1     -34.115  -2.555  -6.624  1.00  0.00     0.345 HD
ATOM      7  H   UNL     1     -33.321  -3.354  -7.901  1.00  0.00     0.345 HD
ENDBRANCH   3   4
BRANCH   3   8
ATOM      8  C   UNL     1     -35.604  -3.464  -9.470  1.00  0.00     0.099 C 
ATOM      9  O   UNL     1     -36.691  -3.863  -9.965  1.00  0.00    -0.544 OA
ATOM     10  O   UNL     1     -34.598  -2.999 -10.310  1.00  0.00    -0.544 OA
ENDBRANCH   3   8
ENDBRANCH   1   3
BRANCH   1  11
ATOM     11  C   UNL     1     -34.490  -5.921  -8.321  1.00  0.00     0.006 C 
ATOM     12  C   UNL     1     -32.986  -5.837  -8.040  1.00  0.00     0.004 C 
ENDBRANCH   1  11
TORSDOF 4
ENDMDL
MODEL 8
REMARK VINA RESULT:    -4.284      2.530      3.317
REMARK INTER + INTRA:          -5.189
REMARK INTER:                  -5.182
REMARK INTRA:                  -0.007
REMARK UNBOUND:                -0.029
REMARK SMILES CC[C@@H](C)[C@@H]([NH3+])C(=O)[O-]
REMARK SMILES IDX 3 1 4 2 5 3 6 4 7 8 8 9 9 10 2 11 1 12
REMARK H PARENT 6 5 6 6 6 7
REMARK Flexibility Score: inf
ROOT
ATOM      1  C   UNL     1     -35.225  -4.321  -8.198  1.00  0.00     0.050 C 
ATOM      2  C   UNL     1     -34.667  -2.967  -7.716  1.00  0.00     0.014 C 
ENDROOT
BRANCH   1   3
ATOM      3  C   UNL     1     -34.180  -5.093  -9.064  1.00  0.00     0.230 C 
BRANCH   3   4
ATOM      4  N   UNL     1     -33.654  -6.274  -8.364  1.00  0.00    -0.350 N 
ATOM      5  H   UNL     1     -34.260  -6.514  -7.547  1.00  0.00     0.345 HD
ATOM      6  H   UNL     1     -33.601  -7.095  -9.011  1.00  0.00     0.345 HD
ATOM      7  H   UNL     1     -32.697  -6.074  -7.990  1.00  0.00     0.345 HD
ENDBRANCH   3   4
BRANCH   3   8
ATOM      8  C   UNL     1     -34.793  -5.524 -10.374  1.00  0.00     0.099 C 
ATOM      9  O   UNL     1     -34.080  -5.610 -11.409  1.00  0.00    -0.544 OA
ATOM     10  O   UNL     1     -36.149  -5.820 -10.449  1.00  0.00    -0.544 OA
ENDBRANCH   3   8
ENDBRANCH   1   3
BRANCH   1  11
ATOM     11  C   UNL     1     -35.781  -5.140  -7.004  1.00  0.00     0.006 C 
ATOM     12  C   UNL     1     -35.123  -4.827  -5.656  1.00  0.00     0.004 C 
ENDBRANCH   1  11
TORSDOF 4
ENDMDL
MODEL 9
REMARK VINA RESULT:    -4.194      2.326      3.064
REMARK INTER + INTRA:          -5.081
REMARK INTER:                  -5.063
REMARK INTRA:                  -0.018
REMARK UNBOUND:                -0.029
REMARK SMILES CC[C@@H](C)[C@@H]([NH3+])C(=O)[O-]
REMARK SMILES IDX 3 1 4 2 5 3 6 4 7 8 8 9 9 10 2 11 1 12
REMARK H PARENT 6 5 6 6 6 7
REMARK Flexibility Score: inf
ROOT
ATOM      1  C   UNL     1     -36.074  -5.431  -8.572  1.00  0.00     0.050 C 
ATOM      2  C   UNL     1     -37.157  -4.746  -9.428  1.00  0.00     0.014 C 
ENDROOT
BRANCH   1   3
ATOM      3  C   UNL     1     -34.649  -4.894  -8.917  1.00  0.00     0.230 C 
BRANCH   3   4
ATOM      4  N   UNL     1     -34.124  -5.488 -10.155  1.00  0.00    -0.350 N 
ATOM      5  H   UNL     1     -34.676  -6.335 -10.415  1.00  0.00     0.345 HD
ATOM      6  H   UNL     1     -34.154  -4.796 -10.939  1.00  0.00     0.345 HD
ATOM      7  H   UNL     1     -33.134  -5.798 -10.013  1.00  0.00     0.345 HD
ENDBRANCH   3   4
BRANCH   3   8
ATOM      8  C   UNL     1     -34.670  -3.391  -9.057  1.00  0.00     0.099 C 
ATOM      9  O   UNL     1     -34.709  -2.659  -8.032  1.00  0.00    -0.544 OA
ATOM     10  O   UNL     1     -34.653  -2.805 -10.317  1.00  0.00    -0.544 OA
ENDBRANCH   3   8
ENDBRANCH   1   3
BRANCH   1  11
ATOM     11  C   UNL     1     -36.431  -5.344  -7.065  1.00  0.00     0.006 C 
ATOM     12  C   UNL     1     -35.251  -5.572  -6.117  1.00  0.00     0.004 C 
ENDBRANCH   1  11
TORSDOF 4
ENDMDL
