MODEL 1
REMARK VINA RESULT:    -3.565      0.000      0.000
REMARK INTER + INTRA:          -4.276
REMARK INTER:                  -4.191
REMARK INTRA:                  -0.085
REMARK UNBOUND:                -0.085
REMARK SMILES CCCCC(=O)[O-]
REMARK SMILES IDX 4 1 5 2 6 3 7 4 3 5 2 6 1 7
REMARK H PARENT
REMARK Flexibility Score: inf
ROOT
ATOM      1  C   UNL     1      17.494 -37.795  -1.351  1.00  0.00     0.053 C 
ENDROOT
BRANCH   1   2
ATOM      2  C   UNL     1      18.456 -37.837  -0.202  1.00  0.00     0.041 C 
ATOM      3  O   UNL     1      19.273 -38.788  -0.093  1.00  0.00    -0.550 OA
ATOM      4  O   UNL     1      18.469 -36.808   0.731  1.00  0.00    -0.550 OA
ENDBRANCH   1   2
BRANCH   1   5
ATOM      5  C   UNL     1      17.761 -36.598  -2.271  1.00  0.00     0.006 C 
BRANCH   5   6
ATOM      6  C   UNL     1      16.765 -35.453  -2.037  1.00  0.00    -0.003 C 
ATOM      7  C   UNL     1      17.491 -34.122  -1.855  1.00  0.00     0.004 C 
ENDBRANCH   5   6
ENDBRANCH   1   5
TORSDOF 3
ENDMDL
MODEL 2
REMARK VINA RESULT:    -3.557      0.116      1.228
REMARK INTER + INTRA:          -4.266
REMARK INTER:                  -4.170
REMARK INTRA:                  -0.095
REMARK UNBOUND:                -0.085
REMARK SMILES CCCCC(=O)[O-]
REMARK SMILES IDX 4 1 5 2 6 3 7 4 3 5 2 6 1 7
REMARK H PARENT
REMARK Flexibility Score: inf
ROOT
ATOM      1  C   UNL     1      17.530 -37.778  -1.275  1.00  0.00     0.053 C 
ENDROOT
BRANCH   1   2
ATOM      2  C   UNL     1      18.508 -37.793  -0.140  1.00  0.00     0.041 C 
ATOM      3  O   UNL     1      18.480 -36.888   0.735  1.00  0.00    -0.550 OA
ATOM      4  O   UNL     1      19.431 -38.825  -0.033  1.00  0.00    -0.550 OA
ENDBRANCH   1   2
BRANCH   1   5
ATOM      5  C   UNL     1      17.785 -36.605  -2.229  1.00  0.00     0.006 C 
BRANCH   5   6
ATOM      6  C   UNL     1      16.803 -35.447  -2.001  1.00  0.00    -0.003 C 
ATOM      7  C   UNL     1      17.544 -34.154  -1.674  1.00  0.00     0.004 C 
ENDBRANCH   5   6
ENDBRANCH   1   5
TORSDOF 3
ENDMDL
MODEL 3
REMARK VINA RESULT:    -3.441      3.566      4.795
REMARK INTER + INTRA:          -4.130
REMARK INTER:                  -4.029
REMARK INTRA:                  -0.101
REMARK UNBOUND:                -0.085
REMARK SMILES CCCCC(=O)[O-]
REMARK SMILES IDX 4 1 5 2 6 3 7 4 3 5 2 6 1 7
REMARK H PARENT
REMARK Flexibility Score: inf
ROOT
ATOM      1  C   UNL     1      17.095 -33.634  -1.993  1.00  0.00     0.053 C 
ENDROOT
BRANCH   1   2
ATOM      2  C   UNL     1      15.660 -33.204  -2.013  1.00  0.00     0.041 C 
ATOM      3  O   UNL     1      15.360 -31.987  -1.893  1.00  0.00    -0.550 OA
ATOM      4  O   UNL     1      14.655 -34.146  -2.193  1.00  0.00    -0.550 OA
ENDBRANCH   1   2
BRANCH   1   5
ATOM      5  C   UNL     1      17.280 -34.964  -1.253  1.00  0.00     0.006 C 
BRANCH   5   6
ATOM      6  C   UNL     1      17.607 -36.119  -2.210  1.00  0.00    -0.003 C 
ATOM      7  C   UNL     1      16.505 -37.176  -2.193  1.00  0.00     0.004 C 
ENDBRANCH   5   6
ENDBRANCH   1   5
TORSDOF 3
ENDMDL
MODEL 4
REMARK VINA RESULT:    -3.418      1.726      2.291
REMARK INTER + INTRA:          -4.103
REMARK INTER:                  -4.087
REMARK INTRA:                  -0.016
REMARK UNBOUND:                -0.085
REMARK SMILES CCCCC(=O)[O-]
REMARK SMILES IDX 4 1 5 2 6 3 7 4 3 5 2 6 1 7
REMARK H PARENT
REMARK Flexibility Score: inf
ROOT
ATOM      1  C   UNL     1      17.868 -36.055  -2.333  1.00  0.00     0.053 C 
ENDROOT
BRANCH   1   2
ATOM      2  C   UNL     1      17.654 -37.494  -1.975  1.00  0.00     0.041 C 
ATOM      3  O   UNL     1      16.769 -38.170  -2.563  1.00  0.00    -0.550 OA
ATOM      4  O   UNL     1      18.455 -38.097  -1.014  1.00  0.00    -0.550 OA
ENDBRANCH   1   2
BRANCH   1   5
ATOM      5  C   UNL     1      16.692 -35.178  -1.886  1.00  0.00     0.006 C 
BRANCH   5   6
ATOM      6  C   UNL     1      17.015 -33.681  -1.982  1.00  0.00    -0.003 C 
ATOM      7  C   UNL     1      15.740 -32.849  -2.099  1.00  0.00     0.004 C 
ENDBRANCH   5   6
ENDBRANCH   1   5
TORSDOF 3
ENDMDL
MODEL 5
REMARK VINA RESULT:    -3.225      1.597      2.341
REMARK INTER + INTRA:          -3.876
REMARK INTER:                  -3.797
REMARK INTRA:                  -0.079
REMARK UNBOUND:                -0.085
REMARK SMILES CCCCC(=O)[O-]
REMARK SMILES IDX 4 1 5 2 6 3 7 4 3 5 2 6 1 7
REMARK H PARENT
REMARK Flexibility Score: inf
ROOT
ATOM      1  C   UNL     1      16.750 -35.684  -0.530  1.00  0.00     0.053 C 
ENDROOT
BRANCH   1   2
ATOM      2  C   UNL     1      17.815 -35.789   0.518  1.00  0.00     0.041 C 
ATOM      3  O   UNL     1      18.060 -34.812   1.274  1.00  0.00    -0.550 OA
ATOM      4  O   UNL     1      18.515 -36.977   0.680  1.00  0.00    -0.550 OA
ENDBRANCH   1   2
BRANCH   1   5
ATOM      5  C   UNL     1      17.332 -35.295  -1.894  1.00  0.00     0.006 C 
BRANCH   5   6
ATOM      6  C   UNL     1      17.449 -33.774  -2.064  1.00  0.00    -0.003 C 
ATOM      7  C   UNL     1      16.076 -33.109  -2.013  1.00  0.00     0.004 C 
ENDBRANCH   5   6
ENDBRANCH   1   5
TORSDOF 3
ENDMDL
MODEL 6
REMARK VINA RESULT:    -3.171      2.089      3.649
REMARK INTER + INTRA:          -3.812
REMARK INTER:                  -3.705
REMARK INTRA:                  -0.107
REMARK UNBOUND:                -0.085
REMARK SMILES CCCCC(=O)[O-]
REMARK SMILES IDX 4 1 5 2 6 3 7 4 3 5 2 6 1 7
REMARK H PARENT
REMARK Flexibility Score: inf
ROOT
ATOM      1  C   UNL     1      16.704 -35.731  -2.082  1.00  0.00     0.053 C 
ENDROOT
BRANCH   1   2
ATOM      2  C   UNL     1      17.182 -34.420  -1.537  1.00  0.00     0.041 C 
ATOM      3  O   UNL     1      17.005 -33.358  -2.189  1.00  0.00    -0.550 OA
ATOM      4  O   UNL     1      17.798 -34.368  -0.293  1.00  0.00    -0.550 OA
ENDBRANCH   1   2
BRANCH   1   5
ATOM      5  C   UNL     1      17.842 -36.753  -2.183  1.00  0.00     0.006 C 
BRANCH   5   6
ATOM      6  C   UNL     1      17.637 -37.945  -1.236  1.00  0.00    -0.003 C 
ATOM      7  C   UNL     1      18.595 -37.876  -0.050  1.00  0.00     0.004 C 
ENDBRANCH   5   6
ENDBRANCH   1   5
TORSDOF 3
ENDMDL
MODEL 7
REMARK VINA RESULT:    -3.044      2.118      3.041
REMARK INTER + INTRA:          -3.663
REMARK INTER:                  -3.570
REMARK INTRA:                  -0.093
REMARK UNBOUND:                -0.085
REMARK SMILES CCCCC(=O)[O-]
REMARK SMILES IDX 4 1 5 2 6 3 7 4 3 5 2 6 1 7
REMARK H PARENT
REMARK Flexibility Score: inf
ROOT
ATOM      1  C   UNL     1      17.312 -34.773  -1.376  1.00  0.00     0.053 C 
ENDROOT
BRANCH   1   2
ATOM      2  C   UNL     1      17.171 -34.860   0.113  1.00  0.00     0.041 C 
ATOM      3  O   UNL     1      18.183 -34.750   0.854  1.00  0.00    -0.550 OA
ATOM      4  O   UNL     1      15.916 -35.031   0.683  1.00  0.00    -0.550 OA
ENDBRANCH   1   2
BRANCH   1   5
ATOM      5  C   UNL     1      16.314 -35.688  -2.095  1.00  0.00     0.006 C 
BRANCH   5   6
ATOM      6  C   UNL     1      16.752 -37.159  -2.069  1.00  0.00    -0.003 C 
ATOM      7  C   UNL     1      18.216 -37.304  -2.475  1.00  0.00     0.004 C 
ENDBRANCH   5   6
ENDBRANCH   1   5
TORSDOF 3
ENDMDL
MODEL 8
REMARK VINA RESULT:    -2.920      2.586      3.155
REMARK INTER + INTRA:          -3.516
REMARK INTER:                  -3.401
REMARK INTRA:                  -0.115
REMARK UNBOUND:                -0.085
REMARK SMILES CCCCC(=O)[O-]
REMARK SMILES IDX 4 1 5 2 6 3 7 4 3 5 2 6 1 7
REMARK H PARENT
REMARK Flexibility Score: inf
ROOT
ATOM      1  C   UNL     1      17.512 -35.325  -2.092  1.00  0.00     0.053 C 
ENDROOT
BRANCH   1   2
ATOM      2  C   UNL     1      16.737 -36.603  -2.198  1.00  0.00     0.041 C 
ATOM      3  O   UNL     1      17.312 -37.666  -2.549  1.00  0.00    -0.550 OA
ATOM      4  O   UNL     1      15.385 -36.624  -1.880  1.00  0.00    -0.550 OA
ENDBRANCH   1   2
BRANCH   1   5
ATOM      5  C   UNL     1      17.043 -34.473  -0.907  1.00  0.00     0.006 C 
BRANCH   5   6
ATOM      6  C   UNL     1      17.797 -34.813   0.386  1.00  0.00    -0.003 C 
ATOM      7  C   UNL     1      16.865 -35.446   1.416  1.00  0.00     0.004 C 
ENDBRANCH   5   6
ENDBRANCH   1   5
TORSDOF 3
ENDMDL
MODEL 9
REMARK VINA RESULT:    -2.904      2.316      3.105
REMARK INTER + INTRA:          -3.498
REMARK INTER:                  -3.398
REMARK INTRA:                  -0.099
REMARK UNBOUND:                -0.085
REMARK SMILES CCCCC(=O)[O-]
REMARK SMILES IDX 4 1 5 2 6 3 7 4 3 5 2 6 1 7
REMARK H PARENT
REMARK Flexibility Score: inf
ROOT
ATOM      1  C   UNL     1      17.796 -35.076   0.446  1.00  0.00     0.053 C 
ENDROOT
BRANCH   1   2
ATOM      2  C   UNL     1      16.829 -35.631   1.448  1.00  0.00     0.041 C 
ATOM      3  O   UNL     1      16.927 -35.321   2.664  1.00  0.00    -0.550 OA
ATOM      4  O   UNL     1      15.801 -36.467   1.031  1.00  0.00    -0.550 OA
ENDBRANCH   1   2
BRANCH   1   5
ATOM      5  C   UNL     1      17.076 -34.350  -0.696  1.00  0.00     0.006 C 
BRANCH   5   6
ATOM      6  C   UNL     1      17.559 -34.817  -2.076  1.00  0.00    -0.003 C 
ATOM      7  C   UNL     1      17.535 -36.340  -2.180  1.00  0.00     0.004 C 
ENDBRANCH   5   6
ENDBRANCH   1   5
TORSDOF 3
ENDMDL
