MODEL 1
REMARK VINA RESULT:    -3.824      0.000      0.000
REMARK INTER + INTRA:          -8.222
REMARK INTER:                  -6.506
REMARK INTRA:                  -1.716
REMARK UNBOUND:                -1.716
REMARK SMILES CCCCCCCCCCCCCC(=O)[O-]
REMARK SMILES IDX 8 1 9 2 10 3 11 4 12 5 13 6 14 7 15 8 16 9 7 10 6 11 5 12
REMARK SMILES IDX 4 13 3 14 2 15 1 16
REMARK H PARENT
REMARK Flexibility Score: inf
ROOT
ATOM      1  C   UNL     1      -8.683  16.424  -3.200  1.00  0.00     0.000 C 
ENDROOT
BRANCH   1   2
ATOM      2  C   UNL     1      -9.245  14.997  -3.137  1.00  0.00     0.000 C 
BRANCH   2   3
ATOM      3  C   UNL     1      -8.305  14.000  -3.833  1.00  0.00     0.000 C 
BRANCH   3   4
ATOM      4  C   UNL     1      -6.909  14.602  -4.106  1.00  0.00     0.000 C 
BRANCH   4   5
ATOM      5  C   UNL     1      -6.448  14.461  -5.569  1.00  0.00     0.006 C 
BRANCH   5   6
ATOM      6  C   UNL     1      -7.314  15.227  -6.580  1.00  0.00     0.053 C 
BRANCH   6   7
ATOM      7  C   UNL     1      -7.789  14.344  -7.695  1.00  0.00     0.041 C 
ATOM      8  O   UNL     1      -8.285  14.852  -8.735  1.00  0.00    -0.550 OA
ATOM      9  O   UNL     1      -7.663  12.965  -7.596  1.00  0.00    -0.550 OA
ENDBRANCH   6   7
ENDBRANCH   5   6
ENDBRANCH   4   5
ENDBRANCH   3   4
ENDBRANCH   2   3
ENDBRANCH   1   2
BRANCH   1  10
ATOM     10  C   UNL     1      -9.029  17.260  -1.956  1.00  0.00     0.000 C 
BRANCH  10  11
ATOM     11  C   UNL     1      -9.762  16.459  -0.859  1.00  0.00    -0.000 C 
BRANCH  11  12
ATOM     12  C   UNL     1      -9.174  16.720   0.539  1.00  0.00    -0.000 C 
BRANCH  12  13
ATOM     13  C   UNL     1      -8.231  15.598   1.001  1.00  0.00    -0.000 C 
BRANCH  13  14
ATOM     14  C   UNL     1      -6.757  15.914   0.692  1.00  0.00    -0.000 C 
BRANCH  14  15
ATOM     15  C   UNL     1      -6.226  15.125  -0.514  1.00  0.00    -0.003 C 
ATOM     16  C   UNL     1      -6.660  13.659  -0.501  1.00  0.00     0.004 C 
ENDBRANCH  14  15
ENDBRANCH  13  14
ENDBRANCH  12  13
ENDBRANCH  11  12
ENDBRANCH  10  11
ENDBRANCH   1  10
TORSDOF 12
ENDMDL
MODEL 2
REMARK VINA RESULT:    -3.806      1.307      3.157
REMARK INTER + INTRA:          -8.192
REMARK INTER:                  -6.352
REMARK INTRA:                  -1.840
REMARK UNBOUND:                -1.716
REMARK SMILES CCCCCCCCCCCCCC(=O)[O-]
REMARK SMILES IDX 8 1 9 2 10 3 11 4 12 5 13 6 14 7 15 8 16 9 7 10 6 11 5 12
REMARK SMILES IDX 4 13 3 14 2 15 1 16
REMARK H PARENT
REMARK Flexibility Score: inf
ROOT
ATOM      1  C   UNL     1      -6.365  14.728   0.628  1.00  0.00     0.000 C 
ENDROOT
BRANCH   1   2
ATOM      2  C   UNL     1      -6.255  14.535  -0.891  1.00  0.00     0.000 C 
BRANCH   2   3
ATOM      3  C   UNL     1      -7.194  13.421  -1.377  1.00  0.00     0.000 C 
BRANCH   3   4
ATOM      4  C   UNL     1      -7.298  13.372  -2.917  1.00  0.00     0.000 C 
BRANCH   4   5
ATOM      5  C   UNL     1      -6.713  14.612  -3.620  1.00  0.00     0.006 C 
BRANCH   5   6
ATOM      6  C   UNL     1      -6.487  14.433  -5.129  1.00  0.00     0.053 C 
BRANCH   6   7
ATOM      7  C   UNL     1      -7.533  15.136  -5.940  1.00  0.00     0.041 C 
ATOM      8  O   UNL     1      -8.333  15.934  -5.383  1.00  0.00    -0.550 OA
ATOM      9  O   UNL     1      -7.612  14.929  -7.310  1.00  0.00    -0.550 OA
ENDBRANCH   6   7
ENDBRANCH   5   6
ENDBRANCH   4   5
ENDBRANCH   3   4
ENDBRANCH   2   3
ENDBRANCH   1   2
BRANCH   1  10
ATOM     10  C   UNL     1      -5.869  16.107   1.095  1.00  0.00     0.000 C 
BRANCH  10  11
ATOM     11  C   UNL     1      -7.007  17.115   1.361  1.00  0.00    -0.000 C 
BRANCH  11  12
ATOM     12  C   UNL     1      -8.335  16.411   1.695  1.00  0.00    -0.000 C 
BRANCH  12  13
ATOM     13  C   UNL     1      -9.471  16.813   0.741  1.00  0.00    -0.000 C 
BRANCH  13  14
ATOM     14  C   UNL     1      -9.863  15.668  -0.211  1.00  0.00    -0.000 C 
BRANCH  14  15
ATOM     15  C   UNL     1      -9.883  16.106  -1.683  1.00  0.00    -0.003 C 
ATOM     16  C   UNL     1      -8.829  17.168  -1.999  1.00  0.00     0.004 C 
ENDBRANCH  14  15
ENDBRANCH  13  14
ENDBRANCH  12  13
ENDBRANCH  11  12
ENDBRANCH  10  11
ENDBRANCH   1  10
TORSDOF 12
ENDMDL
MODEL 3
REMARK VINA RESULT:    -3.737      2.132      3.454
REMARK INTER + INTRA:          -8.074
REMARK INTER:                  -6.425
REMARK INTRA:                  -1.649
REMARK UNBOUND:                -1.716
REMARK SMILES CCCCCCCCCCCCCC(=O)[O-]
REMARK SMILES IDX 8 1 9 2 10 3 11 4 12 5 13 6 14 7 15 8 16 9 7 10 6 11 5 12
REMARK SMILES IDX 4 13 3 14 2 15 1 16
REMARK H PARENT
REMARK Flexibility Score: inf
ROOT
ATOM      1  C   UNL     1      -9.667  15.693   0.788  1.00  0.00     0.000 C 
ENDROOT
BRANCH   1   2
ATOM      2  C   UNL     1      -9.783  16.881  -0.176  1.00  0.00     0.000 C 
BRANCH   2   3
ATOM      3  C   UNL     1      -8.744  16.783  -1.304  1.00  0.00     0.000 C 
BRANCH   3   4
ATOM      4  C   UNL     1      -8.372  15.321  -1.633  1.00  0.00     0.000 C 
BRANCH   4   5
ATOM      5  C   UNL     1      -7.010  15.170  -2.338  1.00  0.00     0.006 C 
BRANCH   5   6
ATOM      6  C   UNL     1      -6.969  14.063  -3.401  1.00  0.00     0.053 C 
BRANCH   6   7
ATOM      7  C   UNL     1      -6.990  14.620  -4.792  1.00  0.00     0.041 C 
ATOM      8  O   UNL     1      -6.113  14.272  -5.625  1.00  0.00    -0.550 OA
ATOM      9  O   UNL     1      -7.989  15.505  -5.175  1.00  0.00    -0.550 OA
ENDBRANCH   6   7
ENDBRANCH   5   6
ENDBRANCH   4   5
ENDBRANCH   3   4
ENDBRANCH   2   3
ENDBRANCH   1   2
BRANCH   1  10
ATOM     10  C   UNL     1      -9.917  16.084   2.255  1.00  0.00     0.000 C 
BRANCH  10  11
ATOM     11  C   UNL     1     -10.098  17.602   2.466  1.00  0.00    -0.000 C 
BRANCH  11  12
ATOM     12  C   UNL     1      -8.992  18.198   3.355  1.00  0.00    -0.000 C 
BRANCH  12  13
ATOM     13  C   UNL     1      -7.871  17.192   3.657  1.00  0.00    -0.000 C 
BRANCH  13  14
ATOM     14  C   UNL     1      -6.518  17.634   3.071  1.00  0.00    -0.000 C 
BRANCH  14  15
ATOM     15  C   UNL     1      -6.378  17.281   1.583  1.00  0.00    -0.003 C 
ATOM     16  C   UNL     1      -5.936  15.835   1.356  1.00  0.00     0.004 C 
ENDBRANCH  14  15
ENDBRANCH  13  14
ENDBRANCH  12  13
ENDBRANCH  11  12
ENDBRANCH  10  11
ENDBRANCH   1  10
TORSDOF 12
ENDMDL
MODEL 4
REMARK VINA RESULT:    -3.728      2.611      4.770
REMARK INTER + INTRA:          -8.060
REMARK INTER:                  -6.419
REMARK INTRA:                  -1.641
REMARK UNBOUND:                -1.716
REMARK SMILES CCCCCCCCCCCCCC(=O)[O-]
REMARK SMILES IDX 8 1 9 2 10 3 11 4 12 5 13 6 14 7 15 8 16 9 7 10 6 11 5 12
REMARK SMILES IDX 4 13 3 14 2 15 1 16
REMARK H PARENT
REMARK Flexibility Score: inf
ROOT
ATOM      1  C   UNL     1      -8.082  14.937   1.140  1.00  0.00     0.000 C 
ENDROOT
BRANCH   1   2
ATOM      2  C   UNL     1      -9.472  15.503   0.817  1.00  0.00     0.000 C 
BRANCH   2   3
ATOM      3  C   UNL     1      -9.367  16.854   0.095  1.00  0.00     0.000 C 
BRANCH   3   4
ATOM      4  C   UNL     1      -9.854  16.778  -1.368  1.00  0.00     0.000 C 
BRANCH   4   5
ATOM      5  C   UNL     1      -8.743  17.023  -2.407  1.00  0.00     0.006 C 
BRANCH   5   6
ATOM      6  C   UNL     1      -8.700  15.988  -3.541  1.00  0.00     0.053 C 
BRANCH   6   7
ATOM      7  C   UNL     1      -7.698  14.906  -3.275  1.00  0.00     0.041 C 
ATOM      8  O   UNL     1      -7.792  14.199  -2.238  1.00  0.00    -0.550 OA
ATOM      9  O   UNL     1      -6.674  14.664  -4.181  1.00  0.00    -0.550 OA
ENDBRANCH   6   7
ENDBRANCH   5   6
ENDBRANCH   4   5
ENDBRANCH   3   4
ENDBRANCH   2   3
ENDBRANCH   1   2
BRANCH   1  10
ATOM     10  C   UNL     1      -6.942  15.905   0.778  1.00  0.00     0.000 C 
BRANCH  10  11
ATOM     11  C   UNL     1      -6.169  16.434   2.005  1.00  0.00    -0.000 C 
BRANCH  11  12
ATOM     12  C   UNL     1      -6.425  17.932   2.248  1.00  0.00    -0.000 C 
BRANCH  12  13
ATOM     13  C   UNL     1      -7.088  18.205   3.606  1.00  0.00    -0.000 C 
BRANCH  13  14
ATOM     14  C   UNL     1      -8.543  17.702   3.654  1.00  0.00    -0.000 C 
BRANCH  14  15
ATOM     15  C   UNL     1      -9.553  18.787   3.253  1.00  0.00    -0.003 C 
ATOM     16  C   UNL     1     -10.992  18.271   3.216  1.00  0.00     0.004 C 
ENDBRANCH  14  15
ENDBRANCH  13  14
ENDBRANCH  12  13
ENDBRANCH  11  12
ENDBRANCH  10  11
ENDBRANCH   1  10
TORSDOF 12
ENDMDL
MODEL 5
REMARK VINA RESULT:    -3.721      5.174      7.278
REMARK INTER + INTRA:          -8.048
REMARK INTER:                  -6.039
REMARK INTRA:                  -2.009
REMARK UNBOUND:                -1.716
REMARK SMILES CCCCCCCCCCCCCC(=O)[O-]
REMARK SMILES IDX 8 1 9 2 10 3 11 4 12 5 13 6 14 7 15 8 16 9 7 10 6 11 5 12
REMARK SMILES IDX 4 13 3 14 2 15 1 16
REMARK H PARENT
REMARK Flexibility Score: inf
ROOT
ATOM      1  C   UNL     1      -6.627  15.147  -1.545  1.00  0.00     0.000 C 
ENDROOT
BRANCH   1   2
ATOM      2  C   UNL     1      -6.676  14.081  -0.442  1.00  0.00     0.000 C 
BRANCH   2   3
ATOM      3  C   UNL     1      -6.455  14.706   0.943  1.00  0.00     0.000 C 
BRANCH   3   4
ATOM      4  C   UNL     1      -5.752  16.079   0.863  1.00  0.00     0.000 C 
BRANCH   4   5
ATOM      5  C   UNL     1      -6.314  17.123   1.846  1.00  0.00     0.006 C 
BRANCH   5   6
ATOM      6  C   UNL     1      -6.970  16.522   3.098  1.00  0.00     0.053 C 
BRANCH   6   7
ATOM      7  C   UNL     1      -6.473  17.167   4.356  1.00  0.00     0.041 C 
ATOM      8  O   UNL     1      -6.176  16.459   5.354  1.00  0.00    -0.550 OA
ATOM      9  O   UNL     1      -6.317  18.545   4.420  1.00  0.00    -0.550 OA
ENDBRANCH   6   7
ENDBRANCH   5   6
ENDBRANCH   4   5
ENDBRANCH   3   4
ENDBRANCH   2   3
ENDBRANCH   1   2
BRANCH   1  10
ATOM     10  C   UNL     1      -7.478  14.779  -2.773  1.00  0.00     0.000 C 
BRANCH  10  11
ATOM     11  C   UNL     1      -8.639  15.761  -3.035  1.00  0.00    -0.000 C 
BRANCH  11  12
ATOM     12  C   UNL     1      -8.675  16.903  -2.003  1.00  0.00    -0.000 C 
BRANCH  12  13
ATOM     13  C   UNL     1      -9.957  16.893  -1.158  1.00  0.00    -0.000 C 
BRANCH  13  14
ATOM     14  C   UNL     1      -9.658  16.830   0.351  1.00  0.00    -0.000 C 
BRANCH  14  15
ATOM     15  C   UNL     1      -9.963  15.451   0.955  1.00  0.00    -0.003 C 
ATOM     16  C   UNL     1     -10.609  14.495  -0.048  1.00  0.00     0.004 C 
ENDBRANCH  14  15
ENDBRANCH  13  14
ENDBRANCH  12  13
ENDBRANCH  11  12
ENDBRANCH  10  11
ENDBRANCH   1  10
TORSDOF 12
ENDMDL
MODEL 6
REMARK VINA RESULT:    -3.694      5.238      7.552
REMARK INTER + INTRA:          -8.001
REMARK INTER:                  -6.468
REMARK INTRA:                  -1.533
REMARK UNBOUND:                -1.716
REMARK SMILES CCCCCCCCCCCCCC(=O)[O-]
REMARK SMILES IDX 8 1 9 2 10 3 11 4 12 5 13 6 14 7 15 8 16 9 7 10 6 11 5 12
REMARK SMILES IDX 4 13 3 14 2 15 1 16
REMARK H PARENT
REMARK Flexibility Score: inf
ROOT
ATOM      1  C   UNL     1     -10.208  16.179  -1.020  1.00  0.00     0.000 C 
ENDROOT
BRANCH   1   2
ATOM      2  C   UNL     1     -10.026  15.671   0.417  1.00  0.00     0.000 C 
BRANCH   2   3
ATOM      3  C   UNL     1      -9.264  16.693   1.274  1.00  0.00     0.000 C 
BRANCH   3   4
ATOM      4  C   UNL     1     -10.204  17.515   2.183  1.00  0.00     0.000 C 
BRANCH   4   5
ATOM      5  C   UNL     1      -9.476  18.262   3.316  1.00  0.00     0.006 C 
BRANCH   5   6
ATOM      6  C   UNL     1      -7.971  17.965   3.402  1.00  0.00     0.053 C 
BRANCH   6   7
ATOM      7  C   UNL     1      -7.214  19.087   4.046  1.00  0.00     0.041 C 
ATOM      8  O   UNL     1      -7.577  20.279   3.865  1.00  0.00    -0.550 OA
ATOM      9  O   UNL     1      -6.124  18.816   4.863  1.00  0.00    -0.550 OA
ENDBRANCH   6   7
ENDBRANCH   5   6
ENDBRANCH   4   5
ENDBRANCH   3   4
ENDBRANCH   2   3
ENDBRANCH   1   2
BRANCH   1  10
ATOM     10  C   UNL     1      -8.925  16.797  -1.604  1.00  0.00     0.000 C 
BRANCH  10  11
ATOM     11  C   UNL     1      -8.450  16.115  -2.904  1.00  0.00    -0.000 C 
BRANCH  11  12
ATOM     12  C   UNL     1      -7.526  14.916  -2.624  1.00  0.00    -0.000 C 
BRANCH  12  13
ATOM     13  C   UNL     1      -6.564  15.173  -1.454  1.00  0.00    -0.000 C 
BRANCH  13  14
ATOM     14  C   UNL     1      -6.679  14.096  -0.360  1.00  0.00    -0.000 C 
BRANCH  14  15
ATOM     15  C   UNL     1      -6.146  14.577   0.998  1.00  0.00    -0.003 C 
ATOM     16  C   UNL     1      -5.753  16.054   0.991  1.00  0.00     0.004 C 
ENDBRANCH  14  15
ENDBRANCH  13  14
ENDBRANCH  12  13
ENDBRANCH  11  12
ENDBRANCH  10  11
ENDBRANCH   1  10
TORSDOF 12
ENDMDL
MODEL 7
REMARK VINA RESULT:    -3.677      2.956      6.439
REMARK INTER + INTRA:          -7.973
REMARK INTER:                  -6.313
REMARK INTRA:                  -1.660
REMARK UNBOUND:                -1.716
REMARK SMILES CCCCCCCCCCCCCC(=O)[O-]
REMARK SMILES IDX 8 1 9 2 10 3 11 4 12 5 13 6 14 7 15 8 16 9 7 10 6 11 5 12
REMARK SMILES IDX 4 13 3 14 2 15 1 16
REMARK H PARENT
REMARK Flexibility Score: inf
ROOT
ATOM      1  C   UNL     1      -9.132  14.991  -3.249  1.00  0.00     0.000 C 
ENDROOT
BRANCH   1   2
ATOM      2  C   UNL     1      -8.664  16.443  -3.422  1.00  0.00     0.000 C 
BRANCH   2   3
ATOM      3  C   UNL     1      -8.851  17.244  -2.125  1.00  0.00     0.000 C 
BRANCH   3   4
ATOM      4  C   UNL     1      -9.745  16.508  -1.103  1.00  0.00     0.000 C 
BRANCH   4   5
ATOM      5  C   UNL     1      -9.246  16.616   0.350  1.00  0.00     0.006 C 
BRANCH   5   6
ATOM      6  C   UNL     1      -7.717  16.584   0.497  1.00  0.00     0.053 C 
BRANCH   6   7
ATOM      7  C   UNL     1      -7.154  15.227   0.203  1.00  0.00     0.041 C 
ATOM      8  O   UNL     1      -7.729  14.196   0.640  1.00  0.00    -0.550 OA
ATOM      9  O   UNL     1      -6.008  15.098  -0.571  1.00  0.00    -0.550 OA
ENDBRANCH   6   7
ENDBRANCH   5   6
ENDBRANCH   4   5
ENDBRANCH   3   4
ENDBRANCH   2   3
ENDBRANCH   1   2
BRANCH   1  10
ATOM     10  C   UNL     1      -7.982  13.974  -3.352  1.00  0.00     0.000 C 
BRANCH  10  11
ATOM     11  C   UNL     1      -6.688  14.565  -3.949  1.00  0.00    -0.000 C 
BRANCH  11  12
ATOM     12  C   UNL     1      -6.474  14.132  -5.411  1.00  0.00    -0.000 C 
BRANCH  12  13
ATOM     13  C   UNL     1      -7.035  15.150  -6.415  1.00  0.00    -0.000 C 
BRANCH  13  14
ATOM     14  C   UNL     1      -7.947  14.489  -7.465  1.00  0.00    -0.000 C 
BRANCH  14  15
ATOM     15  C   UNL     1      -9.438  14.703  -7.168  1.00  0.00    -0.003 C 
ATOM     16  C   UNL     1     -10.102  13.472  -6.550  1.00  0.00     0.004 C 
ENDBRANCH  14  15
ENDBRANCH  13  14
ENDBRANCH  12  13
ENDBRANCH  11  12
ENDBRANCH  10  11
ENDBRANCH   1  10
TORSDOF 12
ENDMDL
MODEL 8
REMARK VINA RESULT:    -3.668      1.412      2.790
REMARK INTER + INTRA:          -7.957
REMARK INTER:                  -6.200
REMARK INTRA:                  -1.757
REMARK UNBOUND:                -1.716
REMARK SMILES CCCCCCCCCCCCCC(=O)[O-]
REMARK SMILES IDX 8 1 9 2 10 3 11 4 12 5 13 6 14 7 15 8 16 9 7 10 6 11 5 12
REMARK SMILES IDX 4 13 3 14 2 15 1 16
REMARK H PARENT
REMARK Flexibility Score: inf
ROOT
ATOM      1  C   UNL     1      -9.689  16.196   0.637  1.00  0.00     0.000 C 
ENDROOT
BRANCH   1   2
ATOM      2  C   UNL     1      -9.448  16.884  -0.714  1.00  0.00     0.000 C 
BRANCH   2   3
ATOM      3  C   UNL     1      -9.708  15.920  -1.881  1.00  0.00     0.000 C 
BRANCH   3   4
ATOM      4  C   UNL     1      -8.689  16.097  -3.028  1.00  0.00     0.000 C 
BRANCH   4   5
ATOM      5  C   UNL     1      -8.343  14.787  -3.760  1.00  0.00     0.006 C 
BRANCH   5   6
ATOM      6  C   UNL     1      -6.845  14.600  -4.044  1.00  0.00     0.053 C 
BRANCH   6   7
ATOM      7  C   UNL     1      -6.552  14.569  -5.513  1.00  0.00     0.041 C 
ATOM      8  O   UNL     1      -7.132  15.373  -6.289  1.00  0.00    -0.550 OA
ATOM      9  O   UNL     1      -5.625  13.670  -6.023  1.00  0.00    -0.550 OA
ENDBRANCH   6   7
ENDBRANCH   5   6
ENDBRANCH   4   5
ENDBRANCH   3   4
ENDBRANCH   2   3
ENDBRANCH   1   2
BRANCH   1  10
ATOM     10  C   UNL     1      -9.157  17.011   1.829  1.00  0.00     0.000 C 
BRANCH  10  11
ATOM     11  C   UNL     1      -7.859  16.438   2.437  1.00  0.00    -0.000 C 
BRANCH  11  12
ATOM     12  C   UNL     1      -6.609  16.876   1.652  1.00  0.00    -0.000 C 
BRANCH  12  13
ATOM     13  C   UNL     1      -5.784  15.683   1.146  1.00  0.00    -0.000 C 
BRANCH  13  14
ATOM     14  C   UNL     1      -6.135  15.306  -0.305  1.00  0.00    -0.000 C 
BRANCH  14  15
ATOM     15  C   UNL     1      -6.459  13.814  -0.464  1.00  0.00    -0.003 C 
ATOM     16  C   UNL     1      -7.362  13.281   0.649  1.00  0.00     0.004 C 
ENDBRANCH  14  15
ENDBRANCH  13  14
ENDBRANCH  12  13
ENDBRANCH  11  12
ENDBRANCH  10  11
ENDBRANCH   1  10
TORSDOF 12
ENDMDL
MODEL 9
REMARK VINA RESULT:    -3.666      5.317      7.711
REMARK INTER + INTRA:          -7.954
REMARK INTER:                  -6.573
REMARK INTRA:                  -1.380
REMARK UNBOUND:                -1.716
REMARK SMILES CCCCCCCCCCCCCC(=O)[O-]
REMARK SMILES IDX 8 1 9 2 10 3 11 4 12 5 13 6 14 7 15 8 16 9 7 10 6 11 5 12
REMARK SMILES IDX 4 13 3 14 2 15 1 16
REMARK H PARENT
REMARK Flexibility Score: inf
ROOT
ATOM      1  C   UNL     1      -9.631  15.966   0.104  1.00  0.00     0.000 C 
ENDROOT
BRANCH   1   2
ATOM      2  C   UNL     1     -10.154  16.537   1.429  1.00  0.00     0.000 C 
BRANCH   2   3
ATOM      3  C   UNL     1      -9.032  17.234   2.213  1.00  0.00     0.000 C 
BRANCH   3   4
ATOM      4  C   UNL     1      -7.631  16.898   1.658  1.00  0.00     0.000 C 
BRANCH   4   5
ATOM      5  C   UNL     1      -6.483  17.621   2.388  1.00  0.00     0.006 C 
BRANCH   5   6
ATOM      6  C   UNL     1      -6.588  17.584   3.920  1.00  0.00     0.053 C 
BRANCH   6   7
ATOM      7  C   UNL     1      -6.654  18.960   4.511  1.00  0.00     0.041 C 
ATOM      8  O   UNL     1      -6.096  19.201   5.613  1.00  0.00    -0.550 OA
ATOM      9  O   UNL     1      -7.312  19.979   3.836  1.00  0.00    -0.550 OA
ENDBRANCH   6   7
ENDBRANCH   5   6
ENDBRANCH   4   5
ENDBRANCH   3   4
ENDBRANCH   2   3
ENDBRANCH   1   2
BRANCH   1  10
ATOM     10  C   UNL     1     -10.006  16.833  -1.111  1.00  0.00     0.000 C 
BRANCH  10  11
ATOM     11  C   UNL     1      -8.822  17.103  -2.064  1.00  0.00    -0.000 C 
BRANCH  11  12
ATOM     12  C   UNL     1      -8.789  16.111  -3.241  1.00  0.00    -0.000 C 
BRANCH  12  13
ATOM     13  C   UNL     1      -7.584  15.160  -3.176  1.00  0.00    -0.000 C 
BRANCH  13  14
ATOM     14  C   UNL     1      -7.913  13.855  -2.428  1.00  0.00    -0.000 C 
BRANCH  14  15
ATOM     15  C   UNL     1      -7.055  13.666  -1.168  1.00  0.00    -0.003 C 
ATOM     16  C   UNL     1      -6.093  14.829  -0.926  1.00  0.00     0.004 C 
ENDBRANCH  14  15
ENDBRANCH  13  14
ENDBRANCH  12  13
ENDBRANCH  11  12
ENDBRANCH  10  11
ENDBRANCH   1  10
TORSDOF 12
ENDMDL
