MODEL 1
REMARK VINA RESULT:    -3.488      0.000      0.000
REMARK INTER + INTRA:          -8.408
REMARK INTER:                  -6.546
REMARK INTRA:                  -1.862
REMARK UNBOUND:                -1.862
REMARK SMILES CCCCCCCCC=CCCCCCCCC(=O)[O-]
REMARK SMILES IDX 10 1 9 2 11 3 12 4 13 5 14 6 15 7 16 8 17 9 18 10 19 11
REMARK SMILES IDX 20 12 8 13 7 14 6 15 5 16 4 17 3 18 2 19 1 20
REMARK H PARENT
REMARK Flexibility Score: inf
ROOT
ATOM      1  C   UNL     1       5.706  28.875 -12.022  1.00  0.00    -0.031 C 
ATOM      2  C   UNL     1       4.530  28.434 -12.512  1.00  0.00    -0.031 C 
ENDROOT
BRANCH   1   3
ATOM      3  C   UNL     1       6.182  28.688 -10.602  1.00  0.00     0.027 C 
BRANCH   3   4
ATOM      4  C   UNL     1       7.398  27.756 -10.569  1.00  0.00     0.004 C 
BRANCH   4   5
ATOM      5  C   UNL     1       7.098  26.484  -9.762  1.00  0.00     0.000 C 
BRANCH   5   6
ATOM      6  C   UNL     1       5.917  25.681 -10.351  1.00  0.00     0.000 C 
BRANCH   6   7
ATOM      7  C   UNL     1       5.550  24.424  -9.538  1.00  0.00     0.000 C 
BRANCH   7   8
ATOM      8  C   UNL     1       4.324  23.652 -10.056  1.00  0.00     0.006 C 
BRANCH   8   9
ATOM      9  C   UNL     1       4.704  22.369 -10.814  1.00  0.00     0.053 C 
BRANCH   9  10
ATOM     10  C   UNL     1       4.037  22.319 -12.154  1.00  0.00     0.041 C 
ATOM     11  O   UNL     1       4.143  21.296 -12.881  1.00  0.00    -0.550 OA
ATOM     12  O   UNL     1       3.251  23.383 -12.579  1.00  0.00    -0.550 OA
ENDBRANCH   9  10
ENDBRANCH   8   9
ENDBRANCH   7   8
ENDBRANCH   6   7
ENDBRANCH   5   6
ENDBRANCH   4   5
ENDBRANCH   3   4
ENDBRANCH   1   3
BRANCH   2  13
ATOM     13  C   UNL     1       3.509  27.640 -11.739  1.00  0.00     0.027 C 
BRANCH  13  14
ATOM     14  C   UNL     1       2.437  27.043 -12.665  1.00  0.00     0.004 C 
BRANCH  14  15
ATOM     15  C   UNL     1       1.076  27.740 -12.522  1.00  0.00     0.000 C 
BRANCH  15  16
ATOM     16  C   UNL     1       1.075  28.814 -11.423  1.00  0.00     0.000 C 
BRANCH  16  17
ATOM     17  C   UNL     1       0.988  30.220 -12.031  1.00  0.00    -0.000 C 
BRANCH  17  18
ATOM     18  C   UNL     1       1.773  31.233 -11.188  1.00  0.00    -0.000 C 
BRANCH  18  19
ATOM     19  C   UNL     1       2.550  30.529 -10.069  1.00  0.00    -0.003 C 
ATOM     20  C   UNL     1       3.777  31.337  -9.655  1.00  0.00     0.004 C 
ENDBRANCH  18  19
ENDBRANCH  17  18
ENDBRANCH  16  17
ENDBRANCH  15  16
ENDBRANCH  14  15
ENDBRANCH  13  14
ENDBRANCH   2  13
TORSDOF 15
ENDMDL
MODEL 2
REMARK VINA RESULT:    -3.444      3.242      7.163
REMARK INTER + INTRA:          -8.327
REMARK INTER:                  -6.310
REMARK INTRA:                  -2.016
REMARK UNBOUND:                -1.862
REMARK SMILES CCCCCCCCC=CCCCCCCCC(=O)[O-]
REMARK SMILES IDX 10 1 9 2 11 3 12 4 13 5 14 6 15 7 16 8 17 9 18 10 19 11
REMARK SMILES IDX 20 12 8 13 7 14 6 15 5 16 4 17 3 18 2 19 1 20
REMARK H PARENT
REMARK Flexibility Score: inf
ROOT
ATOM      1  C   UNL     1       4.463  28.410 -12.626  1.00  0.00    -0.031 C 
ATOM      2  C   UNL     1       5.522  28.928 -11.972  1.00  0.00    -0.031 C 
ENDROOT
BRANCH   1   3
ATOM      3  C   UNL     1       3.504  27.390 -12.061  1.00  0.00     0.027 C 
BRANCH   3   4
ATOM      4  C   UNL     1       2.411  27.068 -13.085  1.00  0.00     0.004 C 
BRANCH   4   5
ATOM      5  C   UNL     1       1.016  27.365 -12.516  1.00  0.00     0.000 C 
BRANCH   5   6
ATOM      6  C   UNL     1       1.039  28.503 -11.471  1.00  0.00     0.000 C 
BRANCH   6   7
ATOM      7  C   UNL     1       0.901  29.912 -12.079  1.00  0.00     0.000 C 
BRANCH   7   8
ATOM      8  C   UNL     1       1.899  30.951 -11.541  1.00  0.00     0.006 C 
BRANCH   8   9
ATOM      9  C   UNL     1       2.642  30.469 -10.283  1.00  0.00     0.053 C 
BRANCH   9  10
ATOM     10  C   UNL     1       3.134  31.628  -9.473  1.00  0.00     0.041 C 
ATOM     11  O   UNL     1       2.323  32.469  -9.004  1.00  0.00    -0.550 OA
ATOM     12  O   UNL     1       4.489  31.750  -9.186  1.00  0.00    -0.550 OA
ENDBRANCH   9  10
ENDBRANCH   8   9
ENDBRANCH   7   8
ENDBRANCH   6   7
ENDBRANCH   5   6
ENDBRANCH   4   5
ENDBRANCH   3   4
ENDBRANCH   1   3
BRANCH   2  13
ATOM     13  C   UNL     1       5.905  28.610 -10.549  1.00  0.00     0.027 C 
BRANCH  13  14
ATOM     14  C   UNL     1       7.158  27.722 -10.485  1.00  0.00     0.004 C 
BRANCH  14  15
ATOM     15  C   UNL     1       6.953  26.470  -9.619  1.00  0.00     0.000 C 
BRANCH  15  16
ATOM     16  C   UNL     1       5.974  25.468 -10.252  1.00  0.00     0.000 C 
BRANCH  16  17
ATOM     17  C   UNL     1       5.755  24.261  -9.332  1.00  0.00    -0.000 C 
BRANCH  17  18
ATOM     18  C   UNL     1       5.026  23.131 -10.070  1.00  0.00    -0.000 C 
BRANCH  18  19
ATOM     19  C   UNL     1       4.014  23.697 -11.074  1.00  0.00    -0.003 C 
ATOM     20  C   UNL     1       3.661  22.665 -12.143  1.00  0.00     0.004 C 
ENDBRANCH  18  19
ENDBRANCH  17  18
ENDBRANCH  16  17
ENDBRANCH  15  16
ENDBRANCH  14  15
ENDBRANCH  13  14
ENDBRANCH   2  13
TORSDOF 15
ENDMDL
MODEL 3
REMARK VINA RESULT:    -3.372      1.664      6.085
REMARK INTER + INTRA:          -8.192
REMARK INTER:                  -6.720
REMARK INTRA:                  -1.472
REMARK UNBOUND:                -1.862
REMARK SMILES CCCCCCCCC=CCCCCCCCC(=O)[O-]
REMARK SMILES IDX 10 1 9 2 11 3 12 4 13 5 14 6 15 7 16 8 17 9 18 10 19 11
REMARK SMILES IDX 20 12 8 13 7 14 6 15 5 16 4 17 3 18 2 19 1 20
REMARK H PARENT
REMARK Flexibility Score: inf
ROOT
ATOM      1  C   UNL     1       5.890  28.699 -12.896  1.00  0.00    -0.031 C 
ATOM      2  C   UNL     1       6.246  27.714 -12.047  1.00  0.00    -0.031 C 
ENDROOT
BRANCH   1   3
ATOM      3  C   UNL     1       5.921  30.174 -12.579  1.00  0.00     0.027 C 
BRANCH   3   4
ATOM      4  C   UNL     1       4.558  30.630 -12.048  1.00  0.00     0.004 C 
BRANCH   4   5
ATOM      5  C   UNL     1       4.573  30.756 -10.518  1.00  0.00     0.000 C 
BRANCH   5   6
ATOM      6  C   UNL     1       3.156  30.668  -9.908  1.00  0.00     0.000 C 
BRANCH   6   7
ATOM      7  C   UNL     1       2.023  30.879 -10.931  1.00  0.00     0.000 C 
BRANCH   7   8
ATOM      8  C   UNL     1       1.212  29.616 -11.269  1.00  0.00     0.006 C 
BRANCH   8   9
ATOM      9  C   UNL     1       1.713  28.907 -12.538  1.00  0.00     0.053 C 
BRANCH   9  10
ATOM     10  C   UNL     1       2.432  27.638 -12.196  1.00  0.00     0.041 C 
ATOM     11  O   UNL     1       3.163  27.575 -11.173  1.00  0.00    -0.550 OA
ATOM     12  O   UNL     1       2.251  26.504 -12.980  1.00  0.00    -0.550 OA
ENDBRANCH   9  10
ENDBRANCH   8   9
ENDBRANCH   7   8
ENDBRANCH   6   7
ENDBRANCH   5   6
ENDBRANCH   4   5
ENDBRANCH   3   4
ENDBRANCH   1   3
BRANCH   2  13
ATOM     13  C   UNL     1       6.779  27.918 -10.652  1.00  0.00     0.027 C 
BRANCH  13  14
ATOM     14  C   UNL     1       6.846  26.595  -9.873  1.00  0.00     0.004 C 
BRANCH  14  15
ATOM     15  C   UNL     1       5.712  25.629 -10.245  1.00  0.00     0.000 C 
BRANCH  15  16
ATOM     16  C   UNL     1       5.812  24.286  -9.504  1.00  0.00     0.000 C 
BRANCH  16  17
ATOM     17  C   UNL     1       4.928  23.225 -10.172  1.00  0.00    -0.000 C 
BRANCH  17  18
ATOM     18  C   UNL     1       3.991  23.860 -11.207  1.00  0.00    -0.000 C 
BRANCH  18  19
ATOM     19  C   UNL     1       3.441  22.801 -12.170  1.00  0.00    -0.003 C 
ATOM     20  C   UNL     1       4.405  21.625 -12.307  1.00  0.00     0.004 C 
ENDBRANCH  18  19
ENDBRANCH  17  18
ENDBRANCH  16  17
ENDBRANCH  15  16
ENDBRANCH  14  15
ENDBRANCH  13  14
ENDBRANCH   2  13
TORSDOF 15
ENDMDL
MODEL 4
REMARK VINA RESULT:    -3.351      0.830      2.484
REMARK INTER + INTRA:          -8.153
REMARK INTER:                  -6.197
REMARK INTRA:                  -1.955
REMARK UNBOUND:                -1.862
REMARK SMILES CCCCCCCCC=CCCCCCCCC(=O)[O-]
REMARK SMILES IDX 10 1 9 2 11 3 12 4 13 5 14 6 15 7 16 8 17 9 18 10 19 11
REMARK SMILES IDX 20 12 8 13 7 14 6 15 5 16 4 17 3 18 2 19 1 20
REMARK H PARENT
REMARK Flexibility Score: inf
ROOT
ATOM      1  C   UNL     1       5.750  29.424 -12.753  1.00  0.00    -0.031 C 
ATOM      2  C   UNL     1       5.474  30.469 -11.947  1.00  0.00    -0.031 C 
ENDROOT
BRANCH   1   3
ATOM      3  C   UNL     1       5.835  27.983 -12.313  1.00  0.00     0.027 C 
BRANCH   3   4
ATOM      4  C   UNL     1       7.162  27.728 -11.591  1.00  0.00     0.004 C 
BRANCH   4   5
ATOM      5  C   UNL     1       6.946  26.916 -10.306  1.00  0.00     0.000 C 
BRANCH   5   6
ATOM      6  C   UNL     1       5.554  26.246 -10.263  1.00  0.00     0.000 C 
BRANCH   6   7
ATOM      7  C   UNL     1       5.594  24.746  -9.911  1.00  0.00     0.000 C 
BRANCH   7   8
ATOM      8  C   UNL     1       4.358  23.944 -10.351  1.00  0.00     0.006 C 
BRANCH   8   9
ATOM      9  C   UNL     1       4.706  22.522 -10.822  1.00  0.00     0.053 C 
BRANCH   9  10
ATOM     10  C   UNL     1       4.034  22.206 -12.123  1.00  0.00     0.041 C 
ATOM     11  O   UNL     1       4.113  21.050 -12.616  1.00  0.00    -0.550 OA
ATOM     12  O   UNL     1       3.273  23.175 -12.765  1.00  0.00    -0.550 OA
ENDBRANCH   9  10
ENDBRANCH   8   9
ENDBRANCH   7   8
ENDBRANCH   6   7
ENDBRANCH   5   6
ENDBRANCH   4   5
ENDBRANCH   3   4
ENDBRANCH   1   3
BRANCH   2  13
ATOM     13  C   UNL     1       5.159  30.372 -10.476  1.00  0.00     0.027 C 
BRANCH  13  14
ATOM     14  C   UNL     1       3.902  31.178 -10.112  1.00  0.00     0.004 C 
BRANCH  14  15
ATOM     15  C   UNL     1       2.621  30.333 -10.166  1.00  0.00     0.000 C 
BRANCH  15  16
ATOM     16  C   UNL     1       1.506  31.002 -10.986  1.00  0.00     0.000 C 
BRANCH  16  17
ATOM     17  C   UNL     1       1.018  30.074 -12.105  1.00  0.00    -0.000 C 
BRANCH  17  18
ATOM     18  C   UNL     1       2.088  29.037 -12.467  1.00  0.00    -0.000 C 
BRANCH  18  19
ATOM     19  C   UNL     1       1.506  27.618 -12.443  1.00  0.00    -0.003 C 
ATOM     20  C   UNL     1       2.613  26.567 -12.426  1.00  0.00     0.004 C 
ENDBRANCH  18  19
ENDBRANCH  17  18
ENDBRANCH  16  17
ENDBRANCH  15  16
ENDBRANCH  14  15
ENDBRANCH  13  14
ENDBRANCH   2  13
TORSDOF 15
ENDMDL
MODEL 5
REMARK VINA RESULT:    -3.334      1.012      2.754
REMARK INTER + INTRA:          -8.119
REMARK INTER:                  -6.560
REMARK INTRA:                  -1.559
REMARK UNBOUND:                -1.862
REMARK SMILES CCCCCCCCC=CCCCCCCCC(=O)[O-]
REMARK SMILES IDX 10 1 9 2 11 3 12 4 13 5 14 6 15 7 16 8 17 9 18 10 19 11
REMARK SMILES IDX 20 12 8 13 7 14 6 15 5 16 4 17 3 18 2 19 1 20
REMARK H PARENT
REMARK Flexibility Score: inf
ROOT
ATOM      1  C   UNL     1       2.877  27.080 -12.548  1.00  0.00    -0.031 C 
ATOM      2  C   UNL     1       1.775  27.837 -12.723  1.00  0.00    -0.031 C 
ENDROOT
BRANCH   1   3
ATOM      3  C   UNL     1       3.665  26.975 -11.265  1.00  0.00     0.027 C 
BRANCH   3   4
ATOM      4  C   UNL     1       5.152  27.223 -11.536  1.00  0.00     0.004 C 
BRANCH   4   5
ATOM      5  C   UNL     1       5.992  26.982 -10.273  1.00  0.00     0.000 C 
BRANCH   5   6
ATOM      6  C   UNL     1       6.611  25.567 -10.242  1.00  0.00     0.000 C 
BRANCH   6   7
ATOM      7  C   UNL     1       5.764  24.533  -9.475  1.00  0.00     0.000 C 
BRANCH   7   8
ATOM      8  C   UNL     1       4.524  24.023 -10.228  1.00  0.00     0.006 C 
BRANCH   8   9
ATOM      9  C   UNL     1       4.670  22.567 -10.700  1.00  0.00     0.053 C 
BRANCH   9  10
ATOM     10  C   UNL     1       3.994  22.359 -12.021  1.00  0.00     0.041 C 
ATOM     11  O   UNL     1       3.204  23.228 -12.476  1.00  0.00    -0.550 OA
ATOM     12  O   UNL     1       4.279  21.229 -12.777  1.00  0.00    -0.550 OA
ENDBRANCH   9  10
ENDBRANCH   8   9
ENDBRANCH   7   8
ENDBRANCH   6   7
ENDBRANCH   5   6
ENDBRANCH   4   5
ENDBRANCH   3   4
ENDBRANCH   1   3
BRANCH   2  13
ATOM     13  C   UNL     1       1.115  28.673 -11.657  1.00  0.00     0.027 C 
BRANCH  13  14
ATOM     14  C   UNL     1       1.041  30.154 -12.063  1.00  0.00     0.004 C 
BRANCH  14  15
ATOM     15  C   UNL     1       1.790  31.074 -11.088  1.00  0.00     0.000 C 
BRANCH  15  16
ATOM     16  C   UNL     1       2.787  30.310 -10.202  1.00  0.00     0.000 C 
BRANCH  16  17
ATOM     17  C   UNL     1       4.232  30.635 -10.597  1.00  0.00    -0.000 C 
BRANCH  17  18
ATOM     18  C   UNL     1       4.474  30.350 -12.085  1.00  0.00    -0.000 C 
BRANCH  18  19
ATOM     19  C   UNL     1       5.915  30.695 -12.481  1.00  0.00    -0.003 C 
ATOM     20  C   UNL     1       6.332  29.952 -13.748  1.00  0.00     0.004 C 
ENDBRANCH  18  19
ENDBRANCH  17  18
ENDBRANCH  16  17
ENDBRANCH  15  16
ENDBRANCH  14  15
ENDBRANCH  13  14
ENDBRANCH   2  13
TORSDOF 15
ENDMDL
MODEL 6
REMARK VINA RESULT:    -3.332      2.466      6.681
REMARK INTER + INTRA:          -8.117
REMARK INTER:                  -6.268
REMARK INTRA:                  -1.849
REMARK UNBOUND:                -1.862
REMARK SMILES CCCCCCCCC=CCCCCCCCC(=O)[O-]
REMARK SMILES IDX 10 1 9 2 11 3 12 4 13 5 14 6 15 7 16 8 17 9 18 10 19 11
REMARK SMILES IDX 20 12 8 13 7 14 6 15 5 16 4 17 3 18 2 19 1 20
REMARK H PARENT
REMARK Flexibility Score: inf
ROOT
ATOM      1  C   UNL     1       1.610  27.839 -12.580  1.00  0.00    -0.031 C 
ATOM      2  C   UNL     1       2.773  27.177 -12.421  1.00  0.00    -0.031 C 
ENDROOT
BRANCH   1   3
ATOM      3  C   UNL     1       1.006  28.792 -11.578  1.00  0.00     0.027 C 
BRANCH   3   4
ATOM      4  C   UNL     1       1.119  30.234 -12.085  1.00  0.00     0.004 C 
BRANCH   4   5
ATOM      5  C   UNL     1       1.698  31.157 -11.003  1.00  0.00     0.000 C 
BRANCH   5   6
ATOM      6  C   UNL     1       2.720  30.432 -10.100  1.00  0.00     0.000 C 
BRANCH   6   7
ATOM      7  C   UNL     1       4.189  30.767 -10.427  1.00  0.00     0.000 C 
BRANCH   7   8
ATOM      8  C   UNL     1       4.584  30.578 -11.902  1.00  0.00     0.006 C 
BRANCH   8   9
ATOM      9  C   UNL     1       5.959  29.912 -12.071  1.00  0.00     0.053 C 
BRANCH   9  10
ATOM     10  C   UNL     1       6.251  29.640 -13.514  1.00  0.00     0.041 C 
ATOM     11  O   UNL     1       6.159  28.472 -13.974  1.00  0.00    -0.550 OA
ATOM     12  O   UNL     1       6.573  30.689 -14.368  1.00  0.00    -0.550 OA
ENDBRANCH   9  10
ENDBRANCH   8   9
ENDBRANCH   7   8
ENDBRANCH   6   7
ENDBRANCH   5   6
ENDBRANCH   4   5
ENDBRANCH   3   4
ENDBRANCH   1   3
BRANCH   2  13
ATOM     13  C   UNL     1       3.694  27.309 -11.234  1.00  0.00     0.027 C 
BRANCH  13  14
ATOM     14  C   UNL     1       4.996  26.519 -11.437  1.00  0.00     0.004 C 
BRANCH  14  15
ATOM     15  C   UNL     1       5.973  26.674 -10.262  1.00  0.00     0.000 C 
BRANCH  15  16
ATOM     16  C   UNL     1       6.563  25.331  -9.804  1.00  0.00     0.000 C 
BRANCH  16  17
ATOM     17  C   UNL     1       5.457  24.376  -9.340  1.00  0.00    -0.000 C 
BRANCH  17  18
ATOM     18  C   UNL     1       5.328  23.180 -10.291  1.00  0.00    -0.000 C 
BRANCH  18  19
ATOM     19  C   UNL     1       3.978  23.202 -11.018  1.00  0.00    -0.003 C 
ATOM     20  C   UNL     1       3.958  22.206 -12.176  1.00  0.00     0.004 C 
ENDBRANCH  18  19
ENDBRANCH  17  18
ENDBRANCH  16  17
ENDBRANCH  15  16
ENDBRANCH  14  15
ENDBRANCH  13  14
ENDBRANCH   2  13
TORSDOF 15
ENDMDL
MODEL 7
REMARK VINA RESULT:    -3.329      3.241      6.925
REMARK INTER + INTRA:          -8.111
REMARK INTER:                  -6.848
REMARK INTRA:                  -1.263
REMARK UNBOUND:                -1.862
REMARK SMILES CCCCCCCCC=CCCCCCCCC(=O)[O-]
REMARK SMILES IDX 10 1 9 2 11 3 12 4 13 5 14 6 15 7 16 8 17 9 18 10 19 11
REMARK SMILES IDX 20 12 8 13 7 14 6 15 5 16 4 17 3 18 2 19 1 20
REMARK H PARENT
REMARK Flexibility Score: inf
ROOT
ATOM      1  C   UNL     1       5.591  29.297 -11.083  1.00  0.00    -0.031 C 
ATOM      2  C   UNL     1       6.377  28.562 -10.270  1.00  0.00    -0.031 C 
ENDROOT
BRANCH   1   3
ATOM      3  C   UNL     1       5.493  29.133 -12.580  1.00  0.00     0.027 C 
BRANCH   3   4
ATOM      4  C   UNL     1       4.521  28.000 -12.925  1.00  0.00     0.004 C 
BRANCH   4   5
ATOM      5  C   UNL     1       3.448  27.840 -11.839  1.00  0.00     0.000 C 
BRANCH   5   6
ATOM      6  C   UNL     1       2.025  27.738 -12.432  1.00  0.00     0.000 C 
BRANCH   6   7
ATOM      7  C   UNL     1       1.101  28.908 -12.043  1.00  0.00     0.000 C 
BRANCH   7   8
ATOM      8  C   UNL     1       1.828  30.184 -11.586  1.00  0.00     0.006 C 
BRANCH   8   9
ATOM      9  C   UNL     1       2.342  30.092 -10.140  1.00  0.00     0.053 C 
BRANCH   9  10
ATOM     10  C   UNL     1       2.726  31.442  -9.618  1.00  0.00     0.041 C 
ATOM     11  O   UNL     1       3.908  31.669  -9.246  1.00  0.00    -0.550 OA
ATOM     12  O   UNL     1       1.790  32.469  -9.593  1.00  0.00    -0.550 OA
ENDBRANCH   9  10
ENDBRANCH   8   9
ENDBRANCH   7   8
ENDBRANCH   6   7
ENDBRANCH   5   6
ENDBRANCH   4   5
ENDBRANCH   3   4
ENDBRANCH   1   3
BRANCH   2  13
ATOM     13  C   UNL     1       7.258  27.422 -10.711  1.00  0.00     0.027 C 
BRANCH  13  14
ATOM     14  C   UNL     1       7.022  26.163  -9.861  1.00  0.00     0.004 C 
BRANCH  14  15
ATOM     15  C   UNL     1       5.724  25.432 -10.232  1.00  0.00     0.000 C 
BRANCH  15  16
ATOM     16  C   UNL     1       5.559  24.102  -9.481  1.00  0.00     0.000 C 
BRANCH  16  17
ATOM     17  C   UNL     1       4.743  23.102 -10.309  1.00  0.00    -0.000 C 
BRANCH  17  18
ATOM     18  C   UNL     1       3.896  23.823 -11.364  1.00  0.00    -0.000 C 
BRANCH  18  19
ATOM     19  C   UNL     1       3.396  22.840 -12.430  1.00  0.00    -0.003 C 
ATOM     20  C   UNL     1       4.272  21.591 -12.484  1.00  0.00     0.004 C 
ENDBRANCH  18  19
ENDBRANCH  17  18
ENDBRANCH  16  17
ENDBRANCH  15  16
ENDBRANCH  14  15
ENDBRANCH  13  14
ENDBRANCH   2  13
TORSDOF 15
ENDMDL
MODEL 8
REMARK VINA RESULT:    -2.805     13.219     15.773
REMARK INTER + INTRA:          -7.126
REMARK INTER:                  -5.155
REMARK INTRA:                  -1.971
REMARK UNBOUND:                -1.862
REMARK SMILES CCCCCCCCC=CCCCCCCCC(=O)[O-]
REMARK SMILES IDX 10 1 9 2 11 3 12 4 13 5 14 6 15 7 16 8 17 9 18 10 19 11
REMARK SMILES IDX 20 12 8 13 7 14 6 15 5 16 4 17 3 18 2 19 1 20
REMARK H PARENT
REMARK Flexibility Score: inf
ROOT
ATOM      1  C   UNL     1      -6.459  23.198 -22.968  1.00  0.00    -0.031 C 
ATOM      2  C   UNL     1      -5.592  23.948 -22.259  1.00  0.00    -0.031 C 
ENDROOT
BRANCH   1   3
ATOM      3  C   UNL     1      -6.473  23.071 -24.472  1.00  0.00     0.027 C 
BRANCH   3   4
ATOM      4  C   UNL     1      -6.715  21.614 -24.878  1.00  0.00     0.004 C 
BRANCH   4   5
ATOM      5  C   UNL     1      -5.396  20.913 -25.237  1.00  0.00     0.000 C 
BRANCH   5   6
ATOM      6  C   UNL     1      -4.177  21.852 -25.098  1.00  0.00     0.000 C 
BRANCH   6   7
ATOM      7  C   UNL     1      -2.990  21.471 -26.004  1.00  0.00     0.000 C 
BRANCH   7   8
ATOM      8  C   UNL     1      -1.711  22.295 -25.776  1.00  0.00     0.006 C 
BRANCH   8   9
ATOM      9  C   UNL     1      -1.741  23.092 -24.461  1.00  0.00     0.053 C 
BRANCH   9  10
ATOM     10  C   UNL     1      -0.517  22.822 -23.641  1.00  0.00     0.041 C 
ATOM     11  O   UNL     1      -0.453  23.212 -22.445  1.00  0.00    -0.550 OA
ATOM     12  O   UNL     1       0.534  22.091 -24.181  1.00  0.00    -0.550 OA
ENDBRANCH   9  10
ENDBRANCH   8   9
ENDBRANCH   7   8
ENDBRANCH   6   7
ENDBRANCH   5   6
ENDBRANCH   4   5
ENDBRANCH   3   4
ENDBRANCH   1   3
BRANCH   2  13
ATOM     13  C   UNL     1      -4.459  24.753 -22.843  1.00  0.00     0.027 C 
BRANCH  13  14
ATOM     14  C   UNL     1      -3.540  25.315 -21.747  1.00  0.00     0.004 C 
BRANCH  14  15
ATOM     15  C   UNL     1      -3.330  26.832 -21.870  1.00  0.00     0.000 C 
BRANCH  15  16
ATOM     16  C   UNL     1      -4.532  27.545 -22.509  1.00  0.00     0.000 C 
BRANCH  16  17
ATOM     17  C   UNL     1      -5.675  27.704 -21.499  1.00  0.00    -0.000 C 
BRANCH  17  18
ATOM     18  C   UNL     1      -7.039  27.620 -22.194  1.00  0.00    -0.000 C 
BRANCH  18  19
ATOM     19  C   UNL     1      -6.898  27.048 -23.610  1.00  0.00    -0.003 C 
ATOM     20  C   UNL     1      -8.193  26.382 -24.069  1.00  0.00     0.004 C 
ENDBRANCH  18  19
ENDBRANCH  17  18
ENDBRANCH  16  17
ENDBRANCH  15  16
ENDBRANCH  14  15
ENDBRANCH  13  14
ENDBRANCH   2  13
TORSDOF 15
ENDMDL
MODEL 9
REMARK VINA RESULT:    -2.787     13.193     15.656
REMARK INTER + INTRA:          -7.094
REMARK INTER:                  -5.523
REMARK INTRA:                  -1.571
REMARK UNBOUND:                -1.862
REMARK SMILES CCCCCCCCC=CCCCCCCCC(=O)[O-]
REMARK SMILES IDX 10 1 9 2 11 3 12 4 13 5 14 6 15 7 16 8 17 9 18 10 19 11
REMARK SMILES IDX 20 12 8 13 7 14 6 15 5 16 4 17 3 18 2 19 1 20
REMARK H PARENT
REMARK Flexibility Score: inf
ROOT
ATOM      1  C   UNL     1      -6.728  23.209 -22.443  1.00  0.00    -0.031 C 
ATOM      2  C   UNL     1      -7.644  24.189 -22.569  1.00  0.00    -0.031 C 
ENDROOT
BRANCH   1   3
ATOM      3  C   UNL     1      -5.694  22.845 -23.480  1.00  0.00     0.027 C 
BRANCH   3   4
ATOM      4  C   UNL     1      -6.254  21.787 -24.436  1.00  0.00     0.004 C 
BRANCH   4   5
ATOM      5  C   UNL     1      -5.190  21.339 -25.450  1.00  0.00     0.000 C 
BRANCH   5   6
ATOM      6  C   UNL     1      -3.832  22.038 -25.221  1.00  0.00     0.000 C 
BRANCH   6   7
ATOM      7  C   UNL     1      -2.732  21.604 -26.210  1.00  0.00     0.000 C 
BRANCH   7   8
ATOM      8  C   UNL     1      -1.299  21.663 -25.653  1.00  0.00     0.006 C 
BRANCH   8   9
ATOM      9  C   UNL     1      -1.066  22.873 -24.734  1.00  0.00     0.053 C 
BRANCH   9  10
ATOM     10  C   UNL     1      -0.069  22.552 -23.664  1.00  0.00     0.041 C 
ATOM     11  O   UNL     1      -0.165  23.079 -22.524  1.00  0.00    -0.550 OA
ATOM     12  O   UNL     1       0.938  21.626 -23.908  1.00  0.00    -0.550 OA
ENDBRANCH   9  10
ENDBRANCH   8   9
ENDBRANCH   7   8
ENDBRANCH   6   7
ENDBRANCH   5   6
ENDBRANCH   4   5
ENDBRANCH   3   4
ENDBRANCH   1   3
BRANCH   2  13
ATOM     13  C   UNL     1      -7.765  25.120 -23.750  1.00  0.00     0.027 C 
BRANCH  13  14
ATOM     14  C   UNL     1      -6.722  26.247 -23.691  1.00  0.00     0.004 C 
BRANCH  14  15
ATOM     15  C   UNL     1      -7.016  27.269 -22.583  1.00  0.00     0.000 C 
BRANCH  15  16
ATOM     16  C   UNL     1      -5.861  27.398 -21.577  1.00  0.00     0.000 C 
BRANCH  16  17
ATOM     17  C   UNL     1      -4.579  27.871 -22.273  1.00  0.00    -0.000 C 
BRANCH  17  18
ATOM     18  C   UNL     1      -3.381  27.001 -21.871  1.00  0.00    -0.000 C 
BRANCH  18  19
ATOM     19  C   UNL     1      -3.807  25.540 -21.677  1.00  0.00    -0.003 C 
ATOM     20  C   UNL     1      -3.219  24.645 -22.765  1.00  0.00     0.004 C 
ENDBRANCH  18  19
ENDBRANCH  17  18
ENDBRANCH  16  17
ENDBRANCH  15  16
ENDBRANCH  14  15
ENDBRANCH  13  14
ENDBRANCH   2  13
TORSDOF 15
ENDMDL
