MODEL 1
REMARK VINA RESULT:    24.289      0.000      0.000
REMARK INTER + INTRA:          63.441
REMARK INTER:                  64.047
REMARK INTRA:                  -0.605
REMARK UNBOUND:                -0.605
REMARK SMILES CCCCCCCCCCCCCCCCCCCCCCCCCCCCCC(=O)[O-]
REMARK SMILES IDX 16 1 17 2 18 3 19 4 20 5 21 6 22 7 23 8 24 9 25 10 26 11
REMARK SMILES IDX 27 12 28 13 29 14 30 15 31 16 32 17 15 18 14 19 13 20 12 21
REMARK SMILES IDX 11 22 10 23 9 24 8 25 7 26 6 27 5 28 4 29 3 30 2 31 1 32
REMARK H PARENT
REMARK Flexibility Score: inf
ROOT
ATOM      1  C   UNL     1      -7.425 -17.185  26.702  1.00  0.00     0.000 C 
ENDROOT
BRANCH   1   2
ATOM      2  C   UNL     1      -6.113 -17.433  27.468  1.00  0.00     0.000 C 
BRANCH   2   3
ATOM      3  C   UNL     1      -5.054 -18.135  26.592  1.00  0.00     0.000 C 
BRANCH   3   4
ATOM      4  C   UNL     1      -5.664 -19.044  25.514  1.00  0.00     0.000 C 
BRANCH   4   5
ATOM      5  C   UNL     1      -5.544 -18.447  24.100  1.00  0.00     0.000 C 
BRANCH   5   6
ATOM      6  C   UNL     1      -4.471 -19.164  23.260  1.00  0.00     0.000 C 
BRANCH   6   7
ATOM      7  C   UNL     1      -4.932 -20.533  22.725  1.00  0.00     0.000 C 
BRANCH   7   8
ATOM      8  C   UNL     1      -3.747 -21.473  22.437  1.00  0.00     0.000 C 
BRANCH   8   9
ATOM      9  C   UNL     1      -2.449 -20.718  22.085  1.00  0.00     0.000 C 
BRANCH   9  10
ATOM     10  C   UNL     1      -1.338 -20.828  23.148  1.00  0.00     0.000 C 
BRANCH  10  11
ATOM     11  C   UNL     1      -0.829 -19.493  23.726  1.00  0.00     0.000 C 
BRANCH  11  12
ATOM     12  C   UNL     1      -0.725 -19.436  25.261  1.00  0.00     0.000 C 
BRANCH  12  13
ATOM     13  C   UNL     1      -1.020 -18.039  25.830  1.00  0.00     0.006 C 
BRANCH  13  14
ATOM     14  C   UNL     1      -1.268 -17.007  24.722  1.00  0.00     0.053 C 
BRANCH  14  15
ATOM     15  C   UNL     1       0.007 -16.560  24.072  1.00  0.00     0.041 C 
ATOM     16  O   UNL     1       0.479 -17.199  23.097  1.00  0.00    -0.550 OA
ATOM     17  O   UNL     1       0.673 -15.436  24.544  1.00  0.00    -0.550 OA
ENDBRANCH  14  15
ENDBRANCH  13  14
ENDBRANCH  12  13
ENDBRANCH  11  12
ENDBRANCH  10  11
ENDBRANCH   9  10
ENDBRANCH   8   9
ENDBRANCH   7   8
ENDBRANCH   6   7
ENDBRANCH   5   6
ENDBRANCH   4   5
ENDBRANCH   3   4
ENDBRANCH   2   3
ENDBRANCH   1   2
BRANCH   1  18
ATOM     18  C   UNL     1      -8.513 -18.228  27.034  1.00  0.00     0.000 C 
BRANCH  18  19
ATOM     19  C   UNL     1      -9.310 -17.923  28.318  1.00  0.00     0.000 C 
BRANCH  19  20
ATOM     20  C   UNL     1     -10.027 -16.562  28.341  1.00  0.00     0.000 C 
BRANCH  20  21
ATOM     21  C   UNL     1     -10.236 -15.972  26.935  1.00  0.00     0.000 C 
BRANCH  21  22
ATOM     22  C   UNL     1     -10.126 -14.439  26.919  1.00  0.00     0.000 C 
BRANCH  22  23
ATOM     23  C   UNL     1     -11.183 -13.780  26.017  1.00  0.00     0.000 C 
BRANCH  23  24
ATOM     24  C   UNL     1     -11.978 -12.682  26.743  1.00  0.00    -0.000 C 
BRANCH  24  25
ATOM     25  C   UNL     1     -11.191 -12.042  27.900  1.00  0.00    -0.000 C 
BRANCH  25  26
ATOM     26  C   UNL     1     -10.965 -10.530  27.710  1.00  0.00    -0.000 C 
BRANCH  26  27
ATOM     27  C   UNL     1      -9.685 -10.148  26.944  1.00  0.00    -0.000 C 
BRANCH  27  28
ATOM     28  C   UNL     1      -8.883  -9.037  27.637  1.00  0.00    -0.000 C 
BRANCH  28  29
ATOM     29  C   UNL     1      -7.424  -9.035  27.161  1.00  0.00    -0.000 C 
BRANCH  29  30
ATOM     30  C   UNL     1      -6.503  -9.884  28.053  1.00  0.00    -0.000 C 
BRANCH  30  31
ATOM     31  C   UNL     1      -5.275 -10.449  27.308  1.00  0.00    -0.003 C 
ATOM     32  C   UNL     1      -5.639 -11.019  25.938  1.00  0.00     0.004 C 
ENDBRANCH  30  31
ENDBRANCH  29  30
ENDBRANCH  28  29
ENDBRANCH  27  28
ENDBRANCH  26  27
ENDBRANCH  25  26
ENDBRANCH  24  25
ENDBRANCH  23  24
ENDBRANCH  22  23
ENDBRANCH  21  22
ENDBRANCH  20  21
ENDBRANCH  19  20
ENDBRANCH  18  19
ENDBRANCH   1  18
TORSDOF 28
ENDMDL
MODEL 2
REMARK VINA RESULT:    24.302      2.140     10.034
REMARK INTER + INTRA:          63.476
REMARK INTER:                  64.179
REMARK INTRA:                  -0.703
REMARK UNBOUND:                -0.605
REMARK SMILES CCCCCCCCCCCCCCCCCCCCCCCCCCCCCC(=O)[O-]
REMARK SMILES IDX 16 1 17 2 18 3 19 4 20 5 21 6 22 7 23 8 24 9 25 10 26 11
REMARK SMILES IDX 27 12 28 13 29 14 30 15 31 16 32 17 15 18 14 19 13 20 12 21
REMARK SMILES IDX 11 22 10 23 9 24 8 25 7 26 6 27 5 28 4 29 3 30 2 31 1 32
REMARK H PARENT
REMARK Flexibility Score: inf
ROOT
ATOM      1  C   UNL     1      -7.331 -17.275  26.825  1.00  0.00     0.000 C 
ENDROOT
BRANCH   1   2
ATOM      2  C   UNL     1      -8.510 -18.263  26.812  1.00  0.00     0.000 C 
BRANCH   2   3
ATOM      3  C   UNL     1      -9.366 -18.161  28.093  1.00  0.00     0.000 C 
BRANCH   3   4
ATOM      4  C   UNL     1      -9.991 -16.772  28.296  1.00  0.00     0.000 C 
BRANCH   4   5
ATOM      5  C   UNL     1      -9.559 -15.764  27.216  1.00  0.00     0.000 C 
BRANCH   5   6
ATOM      6  C   UNL     1     -10.768 -15.110  26.521  1.00  0.00     0.000 C 
BRANCH   6   7
ATOM      7  C   UNL     1     -10.630 -13.583  26.372  1.00  0.00     0.000 C 
BRANCH   7   8
ATOM      8  C   UNL     1     -11.705 -12.823  27.168  1.00  0.00     0.000 C 
BRANCH   8   9
ATOM      9  C   UNL     1     -11.172 -11.536  27.830  1.00  0.00     0.000 C 
BRANCH   9  10
ATOM     10  C   UNL     1     -10.103 -10.789  27.007  1.00  0.00     0.000 C 
BRANCH  10  11
ATOM     11  C   UNL     1      -9.883  -9.310  27.378  1.00  0.00     0.000 C 
BRANCH  11  12
ATOM     12  C   UNL     1      -8.735  -9.042  28.369  1.00  0.00     0.000 C 
BRANCH  12  13
ATOM     13  C   UNL     1      -7.366  -8.920  27.681  1.00  0.00     0.006 C 
BRANCH  13  14
ATOM     14  C   UNL     1      -7.184  -9.964  26.571  1.00  0.00     0.053 C 
BRANCH  14  15
ATOM     15  C   UNL     1      -5.853 -10.648  26.654  1.00  0.00     0.041 C 
ATOM     16  O   UNL     1      -5.575 -11.592  25.870  1.00  0.00    -0.550 OA
ATOM     17  O   UNL     1      -4.918 -10.240  27.597  1.00  0.00    -0.550 OA
ENDBRANCH  14  15
ENDBRANCH  13  14
ENDBRANCH  12  13
ENDBRANCH  11  12
ENDBRANCH  10  11
ENDBRANCH   9  10
ENDBRANCH   8   9
ENDBRANCH   7   8
ENDBRANCH   6   7
ENDBRANCH   5   6
ENDBRANCH   4   5
ENDBRANCH   3   4
ENDBRANCH   2   3
ENDBRANCH   1   2
BRANCH   1  18
ATOM     18  C   UNL     1      -6.037 -17.902  27.388  1.00  0.00     0.000 C 
BRANCH  18  19
ATOM     19  C   UNL     1      -4.904 -18.048  26.354  1.00  0.00     0.000 C 
BRANCH  19  20
ATOM     20  C   UNL     1      -5.165 -19.062  25.227  1.00  0.00     0.000 C 
BRANCH  20  21
ATOM     21  C   UNL     1      -5.465 -18.391  23.875  1.00  0.00     0.000 C 
BRANCH  21  22
ATOM     22  C   UNL     1      -5.124 -19.297  22.681  1.00  0.00     0.000 C 
BRANCH  22  23
ATOM     23  C   UNL     1      -4.482 -20.626  23.113  1.00  0.00     0.000 C 
BRANCH  23  24
ATOM     24  C   UNL     1      -3.496 -21.173  22.068  1.00  0.00    -0.000 C 
BRANCH  24  25
ATOM     25  C   UNL     1      -2.041 -20.756  22.346  1.00  0.00    -0.000 C 
BRANCH  25  26
ATOM     26  C   UNL     1      -1.883 -19.964  23.658  1.00  0.00    -0.000 C 
BRANCH  26  27
ATOM     27  C   UNL     1      -0.499 -20.066  24.326  1.00  0.00    -0.000 C 
BRANCH  27  28
ATOM     28  C   UNL     1      -0.220 -18.914  25.302  1.00  0.00    -0.000 C 
BRANCH  28  29
ATOM     29  C   UNL     1      -0.946 -17.635  24.863  1.00  0.00    -0.000 C 
BRANCH  29  30
ATOM     30  C   UNL     1      -0.073 -16.725  23.983  1.00  0.00    -0.000 C 
BRANCH  30  31
ATOM     31  C   UNL     1       0.607 -17.468  22.814  1.00  0.00    -0.003 C 
ATOM     32  C   UNL     1      -0.330 -17.652  21.621  1.00  0.00     0.004 C 
ENDBRANCH  30  31
ENDBRANCH  29  30
ENDBRANCH  28  29
ENDBRANCH  27  28
ENDBRANCH  26  27
ENDBRANCH  25  26
ENDBRANCH  24  25
ENDBRANCH  23  24
ENDBRANCH  22  23
ENDBRANCH  21  22
ENDBRANCH  20  21
ENDBRANCH  19  20
ENDBRANCH  18  19
ENDBRANCH   1  18
TORSDOF 28
ENDMDL
MODEL 3
REMARK VINA RESULT:    24.409      2.051     10.180
REMARK INTER + INTRA:          63.758
REMARK INTER:                  65.305
REMARK INTRA:                  -1.548
REMARK UNBOUND:                -0.605
REMARK SMILES CCCCCCCCCCCCCCCCCCCCCCCCCCCCCC(=O)[O-]
REMARK SMILES IDX 16 1 17 2 18 3 19 4 20 5 21 6 22 7 23 8 24 9 25 10 26 11
REMARK SMILES IDX 27 12 28 13 29 14 30 15 31 16 32 17 15 18 14 19 13 20 12 21
REMARK SMILES IDX 11 22 10 23 9 24 8 25 7 26 6 27 5 28 4 29 3 30 2 31 1 32
REMARK H PARENT
REMARK Flexibility Score: inf
ROOT
ATOM      1  C   UNL     1      -7.471 -17.129  27.240  1.00  0.00     0.000 C 
ENDROOT
BRANCH   1   2
ATOM      2  C   UNL     1      -8.736 -17.623  27.964  1.00  0.00     0.000 C 
BRANCH   2   3
ATOM      3  C   UNL     1      -9.906 -16.625  27.832  1.00  0.00     0.000 C 
BRANCH   3   4
ATOM      4  C   UNL     1      -9.601 -15.454  26.886  1.00  0.00     0.000 C 
BRANCH   4   5
ATOM      5  C   UNL     1     -10.876 -14.755  26.378  1.00  0.00     0.000 C 
BRANCH   5   6
ATOM      6  C   UNL     1     -10.774 -13.222  26.482  1.00  0.00     0.000 C 
BRANCH   6   7
ATOM      7  C   UNL     1     -11.722 -12.620  27.537  1.00  0.00     0.000 C 
BRANCH   7   8
ATOM      8  C   UNL     1     -11.236 -11.248  28.038  1.00  0.00     0.000 C 
BRANCH   8   9
ATOM      9  C   UNL     1     -10.366 -10.501  27.006  1.00  0.00     0.000 C 
BRANCH   9  10
ATOM     10  C   UNL     1      -9.837  -9.135  27.486  1.00  0.00     0.000 C 
BRANCH  10  11
ATOM     11  C   UNL     1      -8.305  -8.968  27.477  1.00  0.00     0.000 C 
BRANCH  11  12
ATOM     12  C   UNL     1      -7.512 -10.191  26.980  1.00  0.00     0.000 C 
BRANCH  12  13
ATOM     13  C   UNL     1      -6.381  -9.817  26.008  1.00  0.00     0.006 C 
BRANCH  13  14
ATOM     14  C   UNL     1      -5.351 -10.945  25.862  1.00  0.00     0.053 C 
BRANCH  14  15
ATOM     15  C   UNL     1      -4.841 -11.418  27.190  1.00  0.00     0.041 C 
ATOM     16  O   UNL     1      -4.465 -10.589  28.057  1.00  0.00    -0.550 OA
ATOM     17  O   UNL     1      -4.784 -12.778  27.469  1.00  0.00    -0.550 OA
ENDBRANCH  14  15
ENDBRANCH  13  14
ENDBRANCH  12  13
ENDBRANCH  11  12
ENDBRANCH  10  11
ENDBRANCH   9  10
ENDBRANCH   8   9
ENDBRANCH   7   8
ENDBRANCH   6   7
ENDBRANCH   5   6
ENDBRANCH   4   5
ENDBRANCH   3   4
ENDBRANCH   2   3
ENDBRANCH   1   2
BRANCH   1  18
ATOM     18  C   UNL     1      -6.991 -18.106  26.147  1.00  0.00     0.000 C 
BRANCH  18  19
ATOM     19  C   UNL     1      -5.474 -18.377  26.162  1.00  0.00     0.000 C 
BRANCH  19  20
ATOM     20  C   UNL     1      -4.756 -18.035  27.479  1.00  0.00     0.000 C 
BRANCH  20  21
ATOM     21  C   UNL     1      -3.374 -17.395  27.259  1.00  0.00     0.000 C 
BRANCH  21  22
ATOM     22  C   UNL     1      -2.688 -17.903  25.982  1.00  0.00     0.000 C 
BRANCH  22  23
ATOM     23  C   UNL     1      -1.164 -17.695  26.008  1.00  0.00     0.000 C 
BRANCH  23  24
ATOM     24  C   UNL     1      -0.616 -17.169  24.671  1.00  0.00    -0.000 C 
BRANCH  24  25
ATOM     25  C   UNL     1      -0.242 -18.298  23.694  1.00  0.00    -0.000 C 
BRANCH  25  26
ATOM     26  C   UNL     1      -0.292 -19.695  24.343  1.00  0.00    -0.000 C 
BRANCH  26  27
ATOM     27  C   UNL     1      -1.197 -20.718  23.631  1.00  0.00    -0.000 C 
BRANCH  27  28
ATOM     28  C   UNL     1      -2.002 -20.103  22.477  1.00  0.00    -0.000 C 
BRANCH  28  29
ATOM     29  C   UNL     1      -3.169 -21.015  22.075  1.00  0.00    -0.000 C 
BRANCH  29  30
ATOM     30  C   UNL     1      -4.446 -20.744  22.888  1.00  0.00    -0.000 C 
BRANCH  30  31
ATOM     31  C   UNL     1      -4.475 -19.345  23.539  1.00  0.00    -0.003 C 
ATOM     32  C   UNL     1      -5.576 -18.458  22.959  1.00  0.00     0.004 C 
ENDBRANCH  30  31
ENDBRANCH  29  30
ENDBRANCH  28  29
ENDBRANCH  27  28
ENDBRANCH  26  27
ENDBRANCH  25  26
ENDBRANCH  24  25
ENDBRANCH  23  24
ENDBRANCH  22  23
ENDBRANCH  21  22
ENDBRANCH  20  21
ENDBRANCH  19  20
ENDBRANCH  18  19
ENDBRANCH   1  18
TORSDOF 28
ENDMDL
MODEL 4
REMARK VINA RESULT:    24.479      2.248     10.516
REMARK INTER + INTRA:          63.943
REMARK INTER:                  64.962
REMARK INTRA:                  -1.019
REMARK UNBOUND:                -0.605
REMARK SMILES CCCCCCCCCCCCCCCCCCCCCCCCCCCCCC(=O)[O-]
REMARK SMILES IDX 16 1 17 2 18 3 19 4 20 5 21 6 22 7 23 8 24 9 25 10 26 11
REMARK SMILES IDX 27 12 28 13 29 14 30 15 31 16 32 17 15 18 14 19 13 20 12 21
REMARK SMILES IDX 11 22 10 23 9 24 8 25 7 26 6 27 5 28 4 29 3 30 2 31 1 32
REMARK H PARENT
REMARK Flexibility Score: inf
ROOT
ATOM      1  C   UNL     1      -6.983 -18.258  25.806  1.00  0.00     0.000 C 
ENDROOT
BRANCH   1   2
ATOM      2  C   UNL     1      -7.447 -16.904  26.371  1.00  0.00     0.000 C 
BRANCH   2   3
ATOM      3  C   UNL     1      -7.834 -17.001  27.862  1.00  0.00     0.000 C 
BRANCH   3   4
ATOM      4  C   UNL     1      -9.234 -17.592  28.089  1.00  0.00     0.000 C 
BRANCH   4   5
ATOM      5  C   UNL     1     -10.359 -16.592  27.762  1.00  0.00     0.000 C 
BRANCH   5   6
ATOM      6  C   UNL     1      -9.816 -15.306  27.112  1.00  0.00     0.000 C 
BRANCH   6   7
ATOM      7  C   UNL     1     -10.886 -14.525  26.326  1.00  0.00     0.000 C 
BRANCH   7   8
ATOM      8  C   UNL     1     -11.254 -13.196  27.010  1.00  0.00     0.000 C 
BRANCH   8   9
ATOM      9  C   UNL     1     -10.204 -12.089  26.785  1.00  0.00     0.000 C 
BRANCH   9  10
ATOM     10  C   UNL     1     -10.625 -10.696  27.296  1.00  0.00     0.000 C 
BRANCH  10  11
ATOM     11  C   UNL     1      -9.674  -9.537  26.941  1.00  0.00     0.000 C 
BRANCH  11  12
ATOM     12  C   UNL     1      -8.851  -8.975  28.116  1.00  0.00     0.000 C 
BRANCH  12  13
ATOM     13  C   UNL     1      -7.339  -9.188  27.944  1.00  0.00     0.006 C 
BRANCH  13  14
ATOM     14  C   UNL     1      -6.998  -9.834  26.594  1.00  0.00     0.053 C 
BRANCH  14  15
ATOM     15  C   UNL     1      -5.726 -10.625  26.653  1.00  0.00     0.041 C 
ATOM     16  O   UNL     1      -4.892 -10.418  27.572  1.00  0.00    -0.550 OA
ATOM     17  O   UNL     1      -5.463 -11.593  25.693  1.00  0.00    -0.550 OA
ENDBRANCH  14  15
ENDBRANCH  13  14
ENDBRANCH  12  13
ENDBRANCH  11  12
ENDBRANCH  10  11
ENDBRANCH   9  10
ENDBRANCH   8   9
ENDBRANCH   7   8
ENDBRANCH   6   7
ENDBRANCH   5   6
ENDBRANCH   4   5
ENDBRANCH   3   4
ENDBRANCH   2   3
ENDBRANCH   1   2
BRANCH   1  18
ATOM     18  C   UNL     1      -5.461 -18.473  25.952  1.00  0.00     0.000 C 
BRANCH  18  19
ATOM     19  C   UNL     1      -4.864 -17.901  27.253  1.00  0.00     0.000 C 
BRANCH  19  20
ATOM     20  C   UNL     1      -3.333 -17.745  27.263  1.00  0.00     0.000 C 
BRANCH  20  21
ATOM     21  C   UNL     1      -2.715 -17.815  25.856  1.00  0.00     0.000 C 
BRANCH  21  22
ATOM     22  C   UNL     1      -1.205 -17.531  25.863  1.00  0.00     0.000 C 
BRANCH  22  23
ATOM     23  C   UNL     1      -0.736 -16.800  24.593  1.00  0.00     0.000 C 
BRANCH  23  24
ATOM     24  C   UNL     1       0.257 -17.631  23.765  1.00  0.00    -0.000 C 
BRANCH  24  25
ATOM     25  C   UNL     1      -0.439 -18.559  22.753  1.00  0.00    -0.000 C 
BRANCH  25  26
ATOM     26  C   UNL     1      -1.165 -19.741  23.424  1.00  0.00    -0.000 C 
BRANCH  26  27
ATOM     27  C   UNL     1      -1.848 -20.726  22.457  1.00  0.00    -0.000 C 
BRANCH  27  28
ATOM     28  C   UNL     1      -3.259 -20.280  22.047  1.00  0.00    -0.000 C 
BRANCH  28  29
ATOM     29  C   UNL     1      -4.328 -21.038  22.846  1.00  0.00    -0.000 C 
BRANCH  29  30
ATOM     30  C   UNL     1      -4.902 -22.242  22.081  1.00  0.00    -0.000 C 
BRANCH  30  31
ATOM     31  C   UNL     1      -5.300 -23.420  22.996  1.00  0.00    -0.003 C 
ATOM     32  C   UNL     1      -4.688 -23.303  24.391  1.00  0.00     0.004 C 
ENDBRANCH  30  31
ENDBRANCH  29  30
ENDBRANCH  28  29
ENDBRANCH  27  28
ENDBRANCH  26  27
ENDBRANCH  25  26
ENDBRANCH  24  25
ENDBRANCH  23  24
ENDBRANCH  22  23
ENDBRANCH  21  22
ENDBRANCH  20  21
ENDBRANCH  19  20
ENDBRANCH  18  19
ENDBRANCH   1  18
TORSDOF 28
ENDMDL
MODEL 5
REMARK VINA RESULT:    24.896      2.107      9.940
REMARK INTER + INTRA:          65.043
REMARK INTER:                  65.688
REMARK INTRA:                  -0.645
REMARK UNBOUND:                -0.605
REMARK SMILES CCCCCCCCCCCCCCCCCCCCCCCCCCCCCC(=O)[O-]
REMARK SMILES IDX 16 1 17 2 18 3 19 4 20 5 21 6 22 7 23 8 24 9 25 10 26 11
REMARK SMILES IDX 27 12 28 13 29 14 30 15 31 16 32 17 15 18 14 19 13 20 12 21
REMARK SMILES IDX 11 22 10 23 9 24 8 25 7 26 6 27 5 28 4 29 3 30 2 31 1 32
REMARK H PARENT
REMARK Flexibility Score: inf
ROOT
ATOM      1  C   UNL     1      -8.616 -17.982  27.230  1.00  0.00     0.000 C 
ENDROOT
BRANCH   1   2
ATOM      2  C   UNL     1      -9.323 -17.623  28.549  1.00  0.00     0.000 C 
BRANCH   2   3
ATOM      3  C   UNL     1     -10.353 -16.488  28.364  1.00  0.00     0.000 C 
BRANCH   3   4
ATOM      4  C   UNL     1     -10.369 -15.908  26.941  1.00  0.00     0.000 C 
BRANCH   4   5
ATOM      5  C   UNL     1     -10.049 -14.403  26.912  1.00  0.00     0.000 C 
BRANCH   5   6
ATOM      6  C   UNL     1     -11.202 -13.580  26.306  1.00  0.00     0.000 C 
BRANCH   6   7
ATOM      7  C   UNL     1     -11.822 -12.580  27.300  1.00  0.00     0.000 C 
BRANCH   7   8
ATOM      8  C   UNL     1     -10.798 -11.544  27.795  1.00  0.00     0.000 C 
BRANCH   8   9
ATOM      9  C   UNL     1     -10.448 -10.482  26.732  1.00  0.00     0.000 C 
BRANCH   9  10
ATOM     10  C   UNL     1     -10.087  -9.098  27.305  1.00  0.00     0.000 C 
BRANCH  10  11
ATOM     11  C   UNL     1      -8.932  -9.075  28.324  1.00  0.00     0.000 C 
BRANCH  11  12
ATOM     12  C   UNL     1      -7.522  -8.927  27.720  1.00  0.00     0.000 C 
BRANCH  12  13
ATOM     13  C   UNL     1      -7.253  -9.920  26.578  1.00  0.00     0.006 C 
BRANCH  13  14
ATOM     14  C   UNL     1      -5.754 -10.076  26.292  1.00  0.00     0.053 C 
BRANCH  14  15
ATOM     15  C   UNL     1      -5.165 -11.258  27.002  1.00  0.00     0.041 C 
ATOM     16  O   UNL     1      -4.396 -11.090  27.983  1.00  0.00    -0.550 OA
ATOM     17  O   UNL     1      -5.468 -12.546  26.579  1.00  0.00    -0.550 OA
ENDBRANCH  14  15
ENDBRANCH  13  14
ENDBRANCH  12  13
ENDBRANCH  11  12
ENDBRANCH  10  11
ENDBRANCH   9  10
ENDBRANCH   8   9
ENDBRANCH   7   8
ENDBRANCH   6   7
ENDBRANCH   5   6
ENDBRANCH   4   5
ENDBRANCH   3   4
ENDBRANCH   2   3
ENDBRANCH   1   2
BRANCH   1  18
ATOM     18  C   UNL     1      -7.373 -17.107  26.966  1.00  0.00     0.000 C 
BRANCH  18  19
ATOM     19  C   UNL     1      -6.034 -17.864  27.069  1.00  0.00     0.000 C 
BRANCH  19  20
ATOM     20  C   UNL     1      -5.664 -18.719  25.845  1.00  0.00     0.000 C 
BRANCH  20  21
ATOM     21  C   UNL     1      -6.217 -18.149  24.527  1.00  0.00     0.000 C 
BRANCH  21  22
ATOM     22  C   UNL     1      -5.350 -18.523  23.315  1.00  0.00     0.000 C 
BRANCH  22  23
ATOM     23  C   UNL     1      -4.553 -19.820  23.536  1.00  0.00     0.000 C 
BRANCH  23  24
ATOM     24  C   UNL     1      -4.003 -20.406  22.226  1.00  0.00    -0.000 C 
BRANCH  24  25
ATOM     25  C   UNL     1      -2.978 -21.531  22.460  1.00  0.00    -0.000 C 
BRANCH  25  26
ATOM     26  C   UNL     1      -1.641 -21.016  23.027  1.00  0.00    -0.000 C 
BRANCH  26  27
ATOM     27  C   UNL     1      -1.316 -19.544  22.713  1.00  0.00    -0.000 C 
BRANCH  27  28
ATOM     28  C   UNL     1      -0.130 -19.007  23.526  1.00  0.00    -0.000 C 
BRANCH  28  29
ATOM     29  C   UNL     1      -0.514 -18.825  25.001  1.00  0.00    -0.000 C 
BRANCH  29  30
ATOM     30  C   UNL     1      -1.674 -17.836  25.199  1.00  0.00    -0.000 C 
BRANCH  30  31
ATOM     31  C   UNL     1      -1.866 -17.397  26.666  1.00  0.00    -0.003 C 
ATOM     32  C   UNL     1      -3.220 -17.828  27.228  1.00  0.00     0.004 C 
ENDBRANCH  30  31
ENDBRANCH  29  30
ENDBRANCH  28  29
ENDBRANCH  27  28
ENDBRANCH  26  27
ENDBRANCH  25  26
ENDBRANCH  24  25
ENDBRANCH  23  24
ENDBRANCH  22  23
ENDBRANCH  21  22
ENDBRANCH  20  21
ENDBRANCH  19  20
ENDBRANCH  18  19
ENDBRANCH   1  18
TORSDOF 28
ENDMDL
MODEL 6
REMARK VINA RESULT:    25.031      2.132      9.958
REMARK INTER + INTRA:          65.398
REMARK INTER:                  67.522
REMARK INTRA:                  -2.124
REMARK UNBOUND:                -0.605
REMARK SMILES CCCCCCCCCCCCCCCCCCCCCCCCCCCCCC(=O)[O-]
REMARK SMILES IDX 16 1 17 2 18 3 19 4 20 5 21 6 22 7 23 8 24 9 25 10 26 11
REMARK SMILES IDX 27 12 28 13 29 14 30 15 31 16 32 17 15 18 14 19 13 20 12 21
REMARK SMILES IDX 11 22 10 23 9 24 8 25 7 26 6 27 5 28 4 29 3 30 2 31 1 32
REMARK H PARENT
REMARK Flexibility Score: inf
ROOT
ATOM      1  C   UNL     1      -7.090 -17.257  26.497  1.00  0.00     0.000 C 
ENDROOT
BRANCH   1   2
ATOM      2  C   UNL     1      -7.578 -17.360  27.952  1.00  0.00     0.000 C 
BRANCH   2   3
ATOM      3  C   UNL     1      -9.049 -17.822  28.038  1.00  0.00     0.000 C 
BRANCH   3   4
ATOM      4  C   UNL     1     -10.044 -16.658  28.169  1.00  0.00     0.000 C 
BRANCH   4   5
ATOM      5  C   UNL     1     -10.256 -15.909  26.841  1.00  0.00     0.000 C 
BRANCH   5   6
ATOM      6  C   UNL     1      -9.865 -14.423  26.948  1.00  0.00     0.000 C 
BRANCH   6   7
ATOM      7  C   UNL     1     -10.898 -13.475  26.310  1.00  0.00     0.000 C 
BRANCH   7   8
ATOM      8  C   UNL     1     -11.790 -12.795  27.364  1.00  0.00     0.000 C 
BRANCH   8   9
ATOM      9  C   UNL     1     -11.125 -11.565  28.017  1.00  0.00     0.000 C 
BRANCH   9  10
ATOM     10  C   UNL     1     -10.074 -10.864  27.134  1.00  0.00     0.000 C 
BRANCH  10  11
ATOM     11  C   UNL     1     -10.113  -9.323  27.141  1.00  0.00     0.000 C 
BRANCH  11  12
ATOM     12  C   UNL     1      -8.821  -8.633  27.616  1.00  0.00     0.000 C 
BRANCH  12  13
ATOM     13  C   UNL     1      -7.633  -9.601  27.736  1.00  0.00     0.006 C 
BRANCH  13  14
ATOM     14  C   UNL     1      -6.959  -9.856  26.381  1.00  0.00     0.053 C 
BRANCH  14  15
ATOM     15  C   UNL     1      -5.670 -10.607  26.525  1.00  0.00     0.041 C 
ATOM     16  O   UNL     1      -4.968 -10.469  27.559  1.00  0.00    -0.550 OA
ATOM     17  O   UNL     1      -5.246 -11.462  25.516  1.00  0.00    -0.550 OA
ENDBRANCH  14  15
ENDBRANCH  13  14
ENDBRANCH  12  13
ENDBRANCH  11  12
ENDBRANCH  10  11
ENDBRANCH   9  10
ENDBRANCH   8   9
ENDBRANCH   7   8
ENDBRANCH   6   7
ENDBRANCH   5   6
ENDBRANCH   4   5
ENDBRANCH   3   4
ENDBRANCH   2   3
ENDBRANCH   1   2
BRANCH   1  18
ATOM     18  C   UNL     1      -7.332 -18.553  25.695  1.00  0.00     0.000 C 
BRANCH  18  19
ATOM     19  C   UNL     1      -6.131 -19.518  25.675  1.00  0.00     0.000 C 
BRANCH  19  20
ATOM     20  C   UNL     1      -4.896 -19.019  24.905  1.00  0.00     0.000 C 
BRANCH  20  21
ATOM     21  C   UNL     1      -5.214 -18.634  23.449  1.00  0.00     0.000 C 
BRANCH  21  22
ATOM     22  C   UNL     1      -4.361 -19.415  22.437  1.00  0.00     0.000 C 
BRANCH  22  23
ATOM     23  C   UNL     1      -4.465 -20.938  22.627  1.00  0.00     0.000 C 
BRANCH  23  24
ATOM     24  C   UNL     1      -3.112 -21.585  22.967  1.00  0.00    -0.000 C 
BRANCH  24  25
ATOM     25  C   UNL     1      -1.938 -20.593  22.881  1.00  0.00    -0.000 C 
BRANCH  25  26
ATOM     26  C   UNL     1      -0.797 -20.925  23.862  1.00  0.00    -0.000 C 
BRANCH  26  27
ATOM     27  C   UNL     1      -0.084 -19.707  24.477  1.00  0.00    -0.000 C 
BRANCH  27  28
ATOM     28  C   UNL     1      -0.476 -18.383  23.805  1.00  0.00    -0.000 C 
BRANCH  28  29
ATOM     29  C   UNL     1      -0.810 -17.314  24.855  1.00  0.00    -0.000 C 
BRANCH  29  30
ATOM     30  C   UNL     1      -1.535 -17.889  26.083  1.00  0.00    -0.000 C 
BRANCH  30  31
ATOM     31  C   UNL     1      -2.823 -17.122  26.452  1.00  0.00    -0.003 C 
ATOM     32  C   UNL     1      -3.666 -17.868  27.485  1.00  0.00     0.004 C 
ENDBRANCH  30  31
ENDBRANCH  29  30
ENDBRANCH  28  29
ENDBRANCH  27  28
ENDBRANCH  26  27
ENDBRANCH  25  26
ENDBRANCH  24  25
ENDBRANCH  23  24
ENDBRANCH  22  23
ENDBRANCH  21  22
ENDBRANCH  20  21
ENDBRANCH  19  20
ENDBRANCH  18  19
ENDBRANCH   1  18
TORSDOF 28
ENDMDL
MODEL 7
REMARK VINA RESULT:    25.102      1.050      2.126
REMARK INTER + INTRA:          65.587
REMARK INTER:                  67.148
REMARK INTRA:                  -1.561
REMARK UNBOUND:                -0.605
REMARK SMILES CCCCCCCCCCCCCCCCCCCCCCCCCCCCCC(=O)[O-]
REMARK SMILES IDX 16 1 17 2 18 3 19 4 20 5 21 6 22 7 23 8 24 9 25 10 26 11
REMARK SMILES IDX 27 12 28 13 29 14 30 15 31 16 32 17 15 18 14 19 13 20 12 21
REMARK SMILES IDX 11 22 10 23 9 24 8 25 7 26 6 27 5 28 4 29 3 30 2 31 1 32
REMARK H PARENT
REMARK Flexibility Score: inf
ROOT
ATOM      1  C   UNL     1      -8.907 -17.845  28.368  1.00  0.00     0.000 C 
ENDROOT
BRANCH   1   2
ATOM      2  C   UNL     1      -8.243 -17.955  26.984  1.00  0.00     0.000 C 
BRANCH   2   3
ATOM      3  C   UNL     1      -6.956 -17.108  26.890  1.00  0.00     0.000 C 
BRANCH   3   4
ATOM      4  C   UNL     1      -5.673 -17.953  26.868  1.00  0.00     0.000 C 
BRANCH   4   5
ATOM      5  C   UNL     1      -5.622 -18.921  25.671  1.00  0.00     0.000 C 
BRANCH   5   6
ATOM      6  C   UNL     1      -5.851 -18.195  24.332  1.00  0.00     0.000 C 
BRANCH   6   7
ATOM      7  C   UNL     1      -5.096 -18.840  23.155  1.00  0.00     0.000 C 
BRANCH   7   8
ATOM      8  C   UNL     1      -4.372 -20.134  23.569  1.00  0.00     0.000 C 
BRANCH   8   9
ATOM      9  C   UNL     1      -3.840 -20.941  22.366  1.00  0.00     0.000 C 
BRANCH   9  10
ATOM     10  C   UNL     1      -2.306 -20.930  22.218  1.00  0.00     0.000 C 
BRANCH  10  11
ATOM     11  C   UNL     1      -1.668 -19.553  21.955  1.00  0.00     0.000 C 
BRANCH  11  12
ATOM     12  C   UNL     1      -0.577 -19.129  22.956  1.00  0.00     0.000 C 
BRANCH  12  13
ATOM     13  C   UNL     1      -0.672 -19.873  24.297  1.00  0.00     0.006 C 
BRANCH  13  14
ATOM     14  C   UNL     1      -0.344 -18.960  25.486  1.00  0.00     0.053 C 
BRANCH  14  15
ATOM     15  C   UNL     1      -1.240 -17.761  25.541  1.00  0.00     0.041 C 
ATOM     16  O   UNL     1      -2.160 -17.695  26.397  1.00  0.00    -0.550 OA
ATOM     17  O   UNL     1      -1.058 -16.714  24.647  1.00  0.00    -0.550 OA
ENDBRANCH  14  15
ENDBRANCH  13  14
ENDBRANCH  12  13
ENDBRANCH  11  12
ENDBRANCH  10  11
ENDBRANCH   9  10
ENDBRANCH   8   9
ENDBRANCH   7   8
ENDBRANCH   6   7
ENDBRANCH   5   6
ENDBRANCH   4   5
ENDBRANCH   3   4
ENDBRANCH   2   3
ENDBRANCH   1   2
BRANCH   1  18
ATOM     18  C   UNL     1     -10.136 -16.912  28.364  1.00  0.00     0.000 C 
BRANCH  18  19
ATOM     19  C   UNL     1     -10.344 -16.145  27.043  1.00  0.00     0.000 C 
BRANCH  19  20
ATOM     20  C   UNL     1      -9.966 -14.654  27.079  1.00  0.00     0.000 C 
BRANCH  20  21
ATOM     21  C   UNL     1     -10.707 -13.823  26.017  1.00  0.00     0.000 C 
BRANCH  21  22
ATOM     22  C   UNL     1     -12.074 -13.324  26.510  1.00  0.00     0.000 C 
BRANCH  22  23
ATOM     23  C   UNL     1     -11.956 -12.366  27.708  1.00  0.00     0.000 C 
BRANCH  23  24
ATOM     24  C   UNL     1     -10.673 -11.519  27.665  1.00  0.00    -0.000 C 
BRANCH  24  25
ATOM     25  C   UNL     1     -10.951 -10.010  27.780  1.00  0.00    -0.000 C 
BRANCH  25  26
ATOM     26  C   UNL     1      -9.949  -9.152  26.984  1.00  0.00    -0.000 C 
BRANCH  26  27
ATOM     27  C   UNL     1      -8.607  -8.882  27.690  1.00  0.00    -0.000 C 
BRANCH  27  28
ATOM     28  C   UNL     1      -7.430  -9.624  27.040  1.00  0.00    -0.000 C 
BRANCH  28  29
ATOM     29  C   UNL     1      -6.239  -9.713  28.004  1.00  0.00    -0.000 C 
BRANCH  29  30
ATOM     30  C   UNL     1      -4.929 -10.101  27.299  1.00  0.00    -0.000 C 
BRANCH  30  31
ATOM     31  C   UNL     1      -5.140 -10.983  26.049  1.00  0.00    -0.003 C 
ATOM     32  C   UNL     1      -5.522 -12.417  26.410  1.00  0.00     0.004 C 
ENDBRANCH  30  31
ENDBRANCH  29  30
ENDBRANCH  28  29
ENDBRANCH  27  28
ENDBRANCH  26  27
ENDBRANCH  25  26
ENDBRANCH  24  25
ENDBRANCH  23  24
ENDBRANCH  22  23
ENDBRANCH  21  22
ENDBRANCH  20  21
ENDBRANCH  19  20
ENDBRANCH  18  19
ENDBRANCH   1  18
TORSDOF 28
ENDMDL
MODEL 8
REMARK VINA RESULT:    25.179      2.271      3.601
REMARK INTER + INTRA:          65.789
REMARK INTER:                  66.623
REMARK INTRA:                  -0.835
REMARK UNBOUND:                -0.605
REMARK SMILES CCCCCCCCCCCCCCCCCCCCCCCCCCCCCC(=O)[O-]
REMARK SMILES IDX 16 1 17 2 18 3 19 4 20 5 21 6 22 7 23 8 24 9 25 10 26 11
REMARK SMILES IDX 27 12 28 13 29 14 30 15 31 16 32 17 15 18 14 19 13 20 12 21
REMARK SMILES IDX 11 22 10 23 9 24 8 25 7 26 6 27 5 28 4 29 3 30 2 31 1 32
REMARK H PARENT
REMARK Flexibility Score: inf
ROOT
ATOM      1  C   UNL     1      -7.610 -17.809  26.353  1.00  0.00     0.000 C 
ENDROOT
BRANCH   1   2
ATOM      2  C   UNL     1      -6.529 -18.840  25.981  1.00  0.00     0.000 C 
BRANCH   2   3
ATOM      3  C   UNL     1      -5.127 -18.200  25.888  1.00  0.00     0.000 C 
BRANCH   3   4
ATOM      4  C   UNL     1      -4.568 -17.762  27.249  1.00  0.00     0.000 C 
BRANCH   4   5
ATOM      5  C   UNL     1      -3.029 -17.735  27.277  1.00  0.00     0.000 C 
BRANCH   5   6
ATOM      6  C   UNL     1      -2.425 -17.795  25.861  1.00  0.00     0.000 C 
BRANCH   6   7
ATOM      7  C   UNL     1      -1.009 -17.194  25.778  1.00  0.00     0.000 C 
BRANCH   7   8
ATOM      8  C   UNL     1      -0.695 -16.639  24.377  1.00  0.00     0.000 C 
BRANCH   8   9
ATOM      9  C   UNL     1       0.212 -17.571  23.547  1.00  0.00     0.000 C 
BRANCH   9  10
ATOM     10  C   UNL     1       0.290 -19.019  24.070  1.00  0.00     0.000 C 
BRANCH  10  11
ATOM     11  C   UNL     1      -0.964 -19.884  23.837  1.00  0.00     0.000 C 
BRANCH  11  12
ATOM     12  C   UNL     1      -1.649 -19.699  22.470  1.00  0.00     0.000 C 
BRANCH  12  13
ATOM     13  C   UNL     1      -2.495 -20.912  22.054  1.00  0.00     0.006 C 
BRANCH  13  14
ATOM     14  C   UNL     1      -3.951 -20.786  22.523  1.00  0.00     0.053 C 
BRANCH  14  15
ATOM     15  C   UNL     1      -4.610 -22.123  22.680  1.00  0.00     0.041 C 
ATOM     16  O   UNL     1      -5.315 -22.596  21.751  1.00  0.00    -0.550 OA
ATOM     17  O   UNL     1      -4.443 -22.848  23.853  1.00  0.00    -0.550 OA
ENDBRANCH  14  15
ENDBRANCH  13  14
ENDBRANCH  12  13
ENDBRANCH  11  12
ENDBRANCH  10  11
ENDBRANCH   9  10
ENDBRANCH   8   9
ENDBRANCH   7   8
ENDBRANCH   6   7
ENDBRANCH   5   6
ENDBRANCH   4   5
ENDBRANCH   3   4
ENDBRANCH   2   3
ENDBRANCH   1   2
BRANCH   1  18
ATOM     18  C   UNL     1      -8.968 -18.465  26.682  1.00  0.00     0.000 C 
BRANCH  18  19
ATOM     19  C   UNL     1      -9.473 -18.190  28.112  1.00  0.00     0.000 C 
BRANCH  19  20
ATOM     20  C   UNL     1      -9.772 -16.716  28.433  1.00  0.00     0.000 C 
BRANCH  20  21
ATOM     21  C   UNL     1      -9.486 -15.775  27.249  1.00  0.00     0.000 C 
BRANCH  21  22
ATOM     22  C   UNL     1     -10.745 -15.036  26.769  1.00  0.00     0.000 C 
BRANCH  22  23
ATOM     23  C   UNL     1     -10.475 -13.556  26.447  1.00  0.00     0.000 C 
BRANCH  23  24
ATOM     24  C   UNL     1     -11.443 -12.607  27.170  1.00  0.00    -0.000 C 
BRANCH  24  25
ATOM     25  C   UNL     1     -10.736 -11.381  27.776  1.00  0.00    -0.000 C 
BRANCH  25  26
ATOM     26  C   UNL     1     -10.353 -10.326  26.721  1.00  0.00    -0.000 C 
BRANCH  26  27
ATOM     27  C   UNL     1      -9.655  -9.069  27.271  1.00  0.00    -0.000 C 
BRANCH  27  28
ATOM     28  C   UNL     1      -8.524  -9.397  28.257  1.00  0.00    -0.000 C 
BRANCH  28  29
ATOM     29  C   UNL     1      -7.153  -9.275  27.580  1.00  0.00    -0.000 C 
BRANCH  29  30
ATOM     30  C   UNL     1      -6.974 -10.260  26.413  1.00  0.00    -0.000 C 
BRANCH  30  31
ATOM     31  C   UNL     1      -5.592 -10.947  26.394  1.00  0.00    -0.003 C 
ATOM     32  C   UNL     1      -4.717 -10.524  27.573  1.00  0.00     0.004 C 
ENDBRANCH  30  31
ENDBRANCH  29  30
ENDBRANCH  28  29
ENDBRANCH  27  28
ENDBRANCH  26  27
ENDBRANCH  25  26
ENDBRANCH  24  25
ENDBRANCH  23  24
ENDBRANCH  22  23
ENDBRANCH  21  22
ENDBRANCH  20  21
ENDBRANCH  19  20
ENDBRANCH  18  19
ENDBRANCH   1  18
TORSDOF 28
ENDMDL
MODEL 9
REMARK VINA RESULT:    25.891      2.507      3.949
REMARK INTER + INTRA:          67.666
REMARK INTER:                  69.349
REMARK INTRA:                  -1.683
REMARK UNBOUND:                -0.605
REMARK SMILES CCCCCCCCCCCCCCCCCCCCCCCCCCCCCC(=O)[O-]
REMARK SMILES IDX 16 1 17 2 18 3 19 4 20 5 21 6 22 7 23 8 24 9 25 10 26 11
REMARK SMILES IDX 27 12 28 13 29 14 30 15 31 16 32 17 15 18 14 19 13 20 12 21
REMARK SMILES IDX 11 22 10 23 9 24 8 25 7 26 6 27 5 28 4 29 3 30 2 31 1 32
REMARK H PARENT
REMARK Flexibility Score: inf
ROOT
ATOM      1  C   UNL     1      -7.154 -18.115  26.114  1.00  0.00     0.000 C 
ENDROOT
BRANCH   1   2
ATOM      2  C   UNL     1      -5.652 -18.447  26.051  1.00  0.00     0.000 C 
BRANCH   2   3
ATOM      3  C   UNL     1      -4.901 -17.972  27.314  1.00  0.00     0.000 C 
BRANCH   3   4
ATOM      4  C   UNL     1      -3.374 -18.083  27.189  1.00  0.00     0.000 C 
BRANCH   4   5
ATOM      5  C   UNL     1      -2.799 -17.158  26.101  1.00  0.00     0.000 C 
BRANCH   5   6
ATOM      6  C   UNL     1      -1.365 -17.557  25.704  1.00  0.00     0.000 C 
BRANCH   6   7
ATOM      7  C   UNL     1      -0.786 -16.690  24.569  1.00  0.00     0.000 C 
BRANCH   7   8
ATOM      8  C   UNL     1       0.267 -17.446  23.741  1.00  0.00     0.000 C 
BRANCH   8   9
ATOM      9  C   UNL     1      -0.343 -18.245  22.571  1.00  0.00     0.000 C 
BRANCH   9  10
ATOM     10  C   UNL     1      -1.037 -19.557  22.987  1.00  0.00     0.000 C 
BRANCH  10  11
ATOM     11  C   UNL     1      -1.936 -20.209  21.918  1.00  0.00     0.000 C 
BRANCH  11  12
ATOM     12  C   UNL     1      -3.412 -20.389  22.318  1.00  0.00     0.000 C 
BRANCH  12  13
ATOM     13  C   UNL     1      -3.646 -21.620  23.207  1.00  0.00     0.006 C 
BRANCH  13  14
ATOM     14  C   UNL     1      -4.804 -22.488  22.697  1.00  0.00     0.053 C 
BRANCH  14  15
ATOM     15  C   UNL     1      -5.246 -23.494  23.716  1.00  0.00     0.041 C 
ATOM     16  O   UNL     1      -5.700 -24.609  23.351  1.00  0.00    -0.550 OA
ATOM     17  O   UNL     1      -5.155 -23.199  25.070  1.00  0.00    -0.550 OA
ENDBRANCH  14  15
ENDBRANCH  13  14
ENDBRANCH  12  13
ENDBRANCH  11  12
ENDBRANCH  10  11
ENDBRANCH   9  10
ENDBRANCH   8   9
ENDBRANCH   7   8
ENDBRANCH   6   7
ENDBRANCH   5   6
ENDBRANCH   4   5
ENDBRANCH   3   4
ENDBRANCH   2   3
ENDBRANCH   1   2
BRANCH   1  18
ATOM     18  C   UNL     1      -7.504 -17.163  27.277  1.00  0.00     0.000 C 
BRANCH  18  19
ATOM     19  C   UNL     1      -8.783 -17.548  28.046  1.00  0.00     0.000 C 
BRANCH  19  20
ATOM     20  C   UNL     1      -9.945 -16.546  27.935  1.00  0.00     0.000 C 
BRANCH  20  21
ATOM     21  C   UNL     1      -9.669 -15.418  26.925  1.00  0.00     0.000 C 
BRANCH  21  22
ATOM     22  C   UNL     1     -10.947 -14.668  26.519  1.00  0.00     0.000 C 
BRANCH  22  23
ATOM     23  C   UNL     1     -10.757 -13.141  26.506  1.00  0.00     0.000 C 
BRANCH  23  24
ATOM     24  C   UNL     1     -11.483 -12.445  27.669  1.00  0.00    -0.000 C 
BRANCH  24  25
ATOM     25  C   UNL     1     -10.823 -11.115  28.073  1.00  0.00    -0.000 C 
BRANCH  25  26
ATOM     26  C   UNL     1     -10.448 -10.238  26.862  1.00  0.00    -0.000 C 
BRANCH  26  27
ATOM     27  C   UNL     1      -9.741  -8.913  27.204  1.00  0.00    -0.000 C 
BRANCH  27  28
ATOM     28  C   UNL     1      -8.379  -9.121  27.884  1.00  0.00    -0.000 C 
BRANCH  28  29
ATOM     29  C   UNL     1      -7.421  -9.894  26.968  1.00  0.00    -0.000 C 
BRANCH  29  30
ATOM     30  C   UNL     1      -6.091 -10.245  27.655  1.00  0.00    -0.000 C 
BRANCH  30  31
ATOM     31  C   UNL     1      -5.055 -10.881  26.703  1.00  0.00    -0.003 C 
ATOM     32  C   UNL     1      -5.252 -10.440  25.253  1.00  0.00     0.004 C 
ENDBRANCH  30  31
ENDBRANCH  29  30
ENDBRANCH  28  29
ENDBRANCH  27  28
ENDBRANCH  26  27
ENDBRANCH  25  26
ENDBRANCH  24  25
ENDBRANCH  23  24
ENDBRANCH  22  23
ENDBRANCH  21  22
ENDBRANCH  20  21
ENDBRANCH  19  20
ENDBRANCH  18  19
ENDBRANCH   1  18
TORSDOF 28
ENDMDL
