MODEL 1
REMARK VINA RESULT:    -4.758      0.000      0.000
REMARK INTER + INTRA:          -9.703
REMARK INTER:                  -8.374
REMARK INTRA:                  -1.328
REMARK UNBOUND:                -1.328
REMARK SMILES CCCCCCCCCCCCCCC(=O)[O-]
REMARK SMILES IDX 9 1 10 2 11 3 12 4 13 5 14 6 15 7 16 8 17 9 8 10 7 11 6 12
REMARK SMILES IDX 5 13 4 14 3 15 2 16 1 17
REMARK H PARENT
REMARK Flexibility Score: inf
ROOT
ATOM      1  C   UNL     1      74.885   6.693  32.604  1.00  0.00     0.000 C 
ENDROOT
BRANCH   1   2
ATOM      2  C   UNL     1      73.936   5.518  32.915  1.00  0.00     0.000 C 
BRANCH   2   3
ATOM      3  C   UNL     1      73.013   5.724  34.129  1.00  0.00     0.000 C 
BRANCH   3   4
ATOM      4  C   UNL     1      71.650   5.029  33.968  1.00  0.00     0.000 C 
BRANCH   4   5
ATOM      5  C   UNL     1      70.475   5.938  34.363  1.00  0.00     0.006 C 
BRANCH   5   6
ATOM      6  C   UNL     1      69.759   6.543  33.148  1.00  0.00     0.053 C 
BRANCH   6   7
ATOM      7  C   UNL     1      68.296   6.688  33.423  1.00  0.00     0.041 C 
ATOM      8  O   UNL     1      67.637   7.611  32.876  1.00  0.00    -0.550 OA
ATOM      9  O   UNL     1      67.650   5.774  34.245  1.00  0.00    -0.550 OA
ENDBRANCH   6   7
ENDBRANCH   5   6
ENDBRANCH   4   5
ENDBRANCH   3   4
ENDBRANCH   2   3
ENDBRANCH   1   2
BRANCH   1  10
ATOM     10  C   UNL     1      74.913   7.138  31.129  1.00  0.00     0.000 C 
BRANCH  10  11
ATOM     11  C   UNL     1      74.319   8.535  30.863  1.00  0.00    -0.000 C 
BRANCH  11  12
ATOM     12  C   UNL     1      72.791   8.640  31.039  1.00  0.00    -0.000 C 
BRANCH  12  13
ATOM     13  C   UNL     1      72.313   9.115  32.428  1.00  0.00    -0.000 C 
BRANCH  13  14
ATOM     14  C   UNL     1      71.356  10.323  32.407  1.00  0.00    -0.000 C 
BRANCH  14  15
ATOM     15  C   UNL     1      70.102  10.136  33.290  1.00  0.00    -0.000 C 
BRANCH  15  16
ATOM     16  C   UNL     1      68.891  10.955  32.813  1.00  0.00    -0.003 C 
ATOM     17  C   UNL     1      69.097  11.567  31.428  1.00  0.00     0.004 C 
ENDBRANCH  15  16
ENDBRANCH  14  15
ENDBRANCH  13  14
ENDBRANCH  12  13
ENDBRANCH  11  12
ENDBRANCH  10  11
ENDBRANCH   1  10
TORSDOF 13
ENDMDL
MODEL 2
REMARK VINA RESULT:    -4.756     11.090     14.038
REMARK INTER + INTRA:          -9.698
REMARK INTER:                  -7.833
REMARK INTRA:                  -1.865
REMARK UNBOUND:                -1.328
REMARK SMILES CCCCCCCCCCCCCCC(=O)[O-]
REMARK SMILES IDX 9 1 10 2 11 3 12 4 13 5 14 6 15 7 16 8 17 9 8 10 7 11 6 12
REMARK SMILES IDX 5 13 4 14 3 15 2 16 1 17
REMARK H PARENT
REMARK Flexibility Score: inf
ROOT
ATOM      1  C   UNL     1      60.974  14.976  38.863  1.00  0.00     0.000 C 
ENDROOT
BRANCH   1   2
ATOM      2  C   UNL     1      61.448  15.301  37.432  1.00  0.00     0.000 C 
BRANCH   2   3
ATOM      3  C   UNL     1      62.199  14.164  36.715  1.00  0.00     0.000 C 
BRANCH   3   4
ATOM      4  C   UNL     1      63.421  14.662  35.924  1.00  0.00     0.000 C 
BRANCH   4   5
ATOM      5  C   UNL     1      64.686  14.756  36.792  1.00  0.00     0.006 C 
BRANCH   5   6
ATOM      6  C   UNL     1      65.040  16.200  37.171  1.00  0.00     0.053 C 
BRANCH   6   7
ATOM      7  C   UNL     1      64.638  17.140  36.079  1.00  0.00     0.041 C 
ATOM      8  O   UNL     1      63.667  17.924  36.243  1.00  0.00    -0.550 OA
ATOM      9  O   UNL     1      65.368  17.185  34.898  1.00  0.00    -0.550 OA
ENDBRANCH   6   7
ENDBRANCH   5   6
ENDBRANCH   4   5
ENDBRANCH   3   4
ENDBRANCH   2   3
ENDBRANCH   1   2
BRANCH   1  10
ATOM     10  C   UNL     1      62.078  14.483  39.820  1.00  0.00     0.000 C 
BRANCH  10  11
ATOM     11  C   UNL     1      63.178  15.518  40.126  1.00  0.00    -0.000 C 
BRANCH  11  12
ATOM     12  C   UNL     1      62.670  16.880  40.641  1.00  0.00    -0.000 C 
BRANCH  12  13
ATOM     13  C   UNL     1      63.550  18.096  40.279  1.00  0.00    -0.000 C 
BRANCH  13  14
ATOM     14  C   UNL     1      62.845  19.178  39.436  1.00  0.00    -0.000 C 
BRANCH  14  15
ATOM     15  C   UNL     1      61.303  19.075  39.459  1.00  0.00    -0.000 C 
BRANCH  15  16
ATOM     16  C   UNL     1      60.686  18.824  38.073  1.00  0.00    -0.003 C 
ATOM     17  C   UNL     1      59.356  18.077  38.144  1.00  0.00     0.004 C 
ENDBRANCH  15  16
ENDBRANCH  14  15
ENDBRANCH  13  14
ENDBRANCH  12  13
ENDBRANCH  11  12
ENDBRANCH  10  11
ENDBRANCH   1  10
TORSDOF 13
ENDMDL
MODEL 3
REMARK VINA RESULT:    -4.690      2.173      4.924
REMARK INTER + INTRA:          -9.582
REMARK INTER:                  -8.301
REMARK INTRA:                  -1.281
REMARK UNBOUND:                -1.328
REMARK SMILES CCCCCCCCCCCCCCC(=O)[O-]
REMARK SMILES IDX 9 1 10 2 11 3 12 4 13 5 14 6 15 7 16 8 17 9 8 10 7 11 6 12
REMARK SMILES IDX 5 13 4 14 3 15 2 16 1 17
REMARK H PARENT
REMARK Flexibility Score: inf
ROOT
ATOM      1  C   UNL     1      70.855   5.818  34.208  1.00  0.00     0.000 C 
ENDROOT
BRANCH   1   2
ATOM      2  C   UNL     1      70.118   6.767  33.241  1.00  0.00     0.000 C 
BRANCH   2   3
ATOM      3  C   UNL     1      68.582   6.748  33.349  1.00  0.00     0.000 C 
BRANCH   3   4
ATOM      4  C   UNL     1      67.954   8.140  33.166  1.00  0.00     0.000 C 
BRANCH   4   5
ATOM      5  C   UNL     1      68.989   9.272  33.267  1.00  0.00     0.006 C 
BRANCH   5   6
ATOM      6  C   UNL     1      68.450  10.617  32.762  1.00  0.00     0.053 C 
BRANCH   6   7
ATOM      7  C   UNL     1      69.495  11.333  31.967  1.00  0.00     0.041 C 
ATOM      8  O   UNL     1      69.170  12.274  31.196  1.00  0.00    -0.550 OA
ATOM      9  O   UNL     1      70.834  10.995  32.115  1.00  0.00    -0.550 OA
ENDBRANCH   6   7
ENDBRANCH   5   6
ENDBRANCH   4   5
ENDBRANCH   3   4
ENDBRANCH   2   3
ENDBRANCH   1   2
BRANCH   1  10
ATOM     10  C   UNL     1      72.359   6.107  34.387  1.00  0.00     0.000 C 
BRANCH  10  11
ATOM     11  C   UNL     1      73.291   4.934  34.028  1.00  0.00    -0.000 C 
BRANCH  11  12
ATOM     12  C   UNL     1      73.490   4.695  32.518  1.00  0.00    -0.000 C 
BRANCH  12  13
ATOM     13  C   UNL     1      74.869   5.106  31.956  1.00  0.00    -0.000 C 
BRANCH  13  14
ATOM     14  C   UNL     1      75.381   6.478  32.436  1.00  0.00    -0.000 C 
BRANCH  14  15
ATOM     15  C   UNL     1      75.062   7.635  31.462  1.00  0.00    -0.000 C 
BRANCH  15  16
ATOM     16  C   UNL     1      73.745   8.361  31.785  1.00  0.00    -0.003 C 
ATOM     17  C   UNL     1      72.780   8.393  30.602  1.00  0.00     0.004 C 
ENDBRANCH  15  16
ENDBRANCH  14  15
ENDBRANCH  13  14
ENDBRANCH  12  13
ENDBRANCH  11  12
ENDBRANCH  10  11
ENDBRANCH   1  10
TORSDOF 13
ENDMDL
MODEL 4
REMARK VINA RESULT:    -4.686      1.590      4.234
REMARK INTER + INTRA:          -9.576
REMARK INTER:                  -8.051
REMARK INTRA:                  -1.525
REMARK UNBOUND:                -1.328
REMARK SMILES CCCCCCCCCCCCCCC(=O)[O-]
REMARK SMILES IDX 9 1 10 2 11 3 12 4 13 5 14 6 15 7 16 8 17 9 8 10 7 11 6 12
REMARK SMILES IDX 5 13 4 14 3 15 2 16 1 17
REMARK H PARENT
REMARK Flexibility Score: inf
ROOT
ATOM      1  C   UNL     1      74.653   7.406  32.459  1.00  0.00     0.000 C 
ENDROOT
BRANCH   1   2
ATOM      2  C   UNL     1      74.037   7.882  31.128  1.00  0.00     0.000 C 
BRANCH   2   3
ATOM      3  C   UNL     1      72.643   8.526  31.244  1.00  0.00     0.000 C 
BRANCH   3   4
ATOM      4  C   UNL     1      72.477   9.363  32.524  1.00  0.00     0.000 C 
BRANCH   4   5
ATOM      5  C   UNL     1      71.502  10.537  32.338  1.00  0.00     0.006 C 
BRANCH   5   6
ATOM      6  C   UNL     1      70.144  10.292  33.010  1.00  0.00     0.053 C 
BRANCH   6   7
ATOM      7  C   UNL     1      69.057  10.992  32.259  1.00  0.00     0.041 C 
ATOM      8  O   UNL     1      69.340  11.892  31.425  1.00  0.00    -0.550 OA
ATOM      9  O   UNL     1      67.732  10.616  32.444  1.00  0.00    -0.550 OA
ENDBRANCH   6   7
ENDBRANCH   5   6
ENDBRANCH   4   5
ENDBRANCH   3   4
ENDBRANCH   2   3
ENDBRANCH   1   2
BRANCH   1  10
ATOM     10  C   UNL     1      74.909   5.889  32.555  1.00  0.00     0.000 C 
BRANCH  10  11
ATOM     11  C   UNL     1      73.638   5.023  32.639  1.00  0.00    -0.000 C 
BRANCH  11  12
ATOM     12  C   UNL     1      72.983   4.955  34.033  1.00  0.00    -0.000 C 
BRANCH  12  13
ATOM     13  C   UNL     1      72.053   6.136  34.388  1.00  0.00    -0.000 C 
BRANCH  13  14
ATOM     14  C   UNL     1      70.552   5.868  34.165  1.00  0.00    -0.000 C 
BRANCH  14  15
ATOM     15  C   UNL     1      69.949   6.659  32.982  1.00  0.00    -0.000 C 
BRANCH  15  16
ATOM     16  C   UNL     1      68.446   6.944  33.138  1.00  0.00    -0.003 C 
ATOM     17  C   UNL     1      67.794   6.102  34.234  1.00  0.00     0.004 C 
ENDBRANCH  15  16
ENDBRANCH  14  15
ENDBRANCH  13  14
ENDBRANCH  12  13
ENDBRANCH  11  12
ENDBRANCH  10  11
ENDBRANCH   1  10
TORSDOF 13
ENDMDL
MODEL 5
REMARK VINA RESULT:    -4.677     11.271     13.716
REMARK INTER + INTRA:          -9.559
REMARK INTER:                  -7.398
REMARK INTRA:                  -2.161
REMARK UNBOUND:                -1.328
REMARK SMILES CCCCCCCCCCCCCCC(=O)[O-]
REMARK SMILES IDX 9 1 10 2 11 3 12 4 13 5 14 6 15 7 16 8 17 9 8 10 7 11 6 12
REMARK SMILES IDX 5 13 4 14 3 15 2 16 1 17
REMARK H PARENT
REMARK Flexibility Score: inf
ROOT
ATOM      1  C   UNL     1      60.834  16.715  38.141  1.00  0.00     0.000 C 
ENDROOT
BRANCH   1   2
ATOM      2  C   UNL     1      61.397  15.283  38.240  1.00  0.00     0.000 C 
BRANCH   2   3
ATOM      3  C   UNL     1      61.749  14.814  39.663  1.00  0.00     0.000 C 
BRANCH   3   4
ATOM      4  C   UNL     1      63.239  14.470  39.827  1.00  0.00     0.000 C 
BRANCH   4   5
ATOM      5  C   UNL     1      63.615  13.140  39.155  1.00  0.00     0.006 C 
BRANCH   5   6
ATOM      6  C   UNL     1      63.129  11.918  39.945  1.00  0.00     0.053 C 
BRANCH   6   7
ATOM      7  C   UNL     1      62.445  10.946  39.036  1.00  0.00     0.041 C 
ATOM      8  O   UNL     1      62.663   9.711  39.150  1.00  0.00    -0.550 OA
ATOM      9  O   UNL     1      61.530  11.400  38.095  1.00  0.00    -0.550 OA
ENDBRANCH   6   7
ENDBRANCH   5   6
ENDBRANCH   4   5
ENDBRANCH   3   4
ENDBRANCH   2   3
ENDBRANCH   1   2
BRANCH   1  10
ATOM     10  C   UNL     1      60.558  17.403  39.493  1.00  0.00     0.000 C 
BRANCH  10  11
ATOM     11  C   UNL     1      60.854  18.915  39.522  1.00  0.00    -0.000 C 
BRANCH  11  12
ATOM     12  C   UNL     1      62.346  19.287  39.636  1.00  0.00    -0.000 C 
BRANCH  12  13
ATOM     13  C   UNL     1      63.233  18.257  40.369  1.00  0.00    -0.000 C 
BRANCH  13  14
ATOM     14  C   UNL     1      64.500  17.831  39.601  1.00  0.00    -0.000 C 
BRANCH  14  15
ATOM     15  C   UNL     1      64.328  17.840  38.066  1.00  0.00    -0.000 C 
BRANCH  15  16
ATOM     16  C   UNL     1      64.914  16.596  37.377  1.00  0.00    -0.003 C 
ATOM     17  C   UNL     1      64.220  16.268  36.056  1.00  0.00     0.004 C 
ENDBRANCH  15  16
ENDBRANCH  14  15
ENDBRANCH  13  14
ENDBRANCH  12  13
ENDBRANCH  11  12
ENDBRANCH  10  11
ENDBRANCH   1  10
TORSDOF 13
ENDMDL
MODEL 6
REMARK VINA RESULT:    -4.670     11.492     14.124
REMARK INTER + INTRA:          -9.546
REMARK INTER:                  -7.537
REMARK INTRA:                  -2.010
REMARK UNBOUND:                -1.328
REMARK SMILES CCCCCCCCCCCCCCC(=O)[O-]
REMARK SMILES IDX 9 1 10 2 11 3 12 4 13 5 14 6 15 7 16 8 17 9 8 10 7 11 6 12
REMARK SMILES IDX 5 13 4 14 3 15 2 16 1 17
REMARK H PARENT
REMARK Flexibility Score: inf
ROOT
ATOM      1  C   UNL     1      63.622  17.439  36.382  1.00  0.00     0.000 C 
ENDROOT
BRANCH   1   2
ATOM      2  C   UNL     1      64.119  18.405  37.477  1.00  0.00     0.000 C 
BRANCH   2   3
ATOM      3  C   UNL     1      64.382  17.760  38.850  1.00  0.00     0.000 C 
BRANCH   3   4
ATOM      4  C   UNL     1      63.606  18.444  39.989  1.00  0.00     0.000 C 
BRANCH   4   5
ATOM      5  C   UNL     1      62.124  18.037  40.018  1.00  0.00     0.006 C 
BRANCH   5   6
ATOM      6  C   UNL     1      61.187  19.177  39.599  1.00  0.00     0.053 C 
BRANCH   6   7
ATOM      7  C   UNL     1      60.206  18.698  38.577  1.00  0.00     0.041 C 
ATOM      8  O   UNL     1      60.459  18.818  37.350  1.00  0.00    -0.550 OA
ATOM      9  O   UNL     1      59.033  18.072  38.981  1.00  0.00    -0.550 OA
ENDBRANCH   6   7
ENDBRANCH   5   6
ENDBRANCH   4   5
ENDBRANCH   3   4
ENDBRANCH   2   3
ENDBRANCH   1   2
BRANCH   1  10
ATOM     10  C   UNL     1      64.656  16.396  35.913  1.00  0.00     0.000 C 
BRANCH  10  11
ATOM     11  C   UNL     1      64.338  14.943  36.314  1.00  0.00    -0.000 C 
BRANCH  11  12
ATOM     12  C   UNL     1      65.058  14.442  37.582  1.00  0.00    -0.000 C 
BRANCH  12  13
ATOM     13  C   UNL     1      64.191  13.612  38.554  1.00  0.00    -0.000 C 
BRANCH  13  14
ATOM     14  C   UNL     1      63.370  14.443  39.560  1.00  0.00    -0.000 C 
BRANCH  14  15
ATOM     15  C   UNL     1      61.867  14.085  39.581  1.00  0.00    -0.000 C 
BRANCH  15  16
ATOM     16  C   UNL     1      61.000  15.034  38.737  1.00  0.00    -0.003 C 
ATOM     17  C   UNL     1      60.847  14.568  37.291  1.00  0.00     0.004 C 
ENDBRANCH  15  16
ENDBRANCH  14  15
ENDBRANCH  13  14
ENDBRANCH  12  13
ENDBRANCH  11  12
ENDBRANCH  10  11
ENDBRANCH   1  10
TORSDOF 13
ENDMDL
MODEL 7
REMARK VINA RESULT:    -4.647     11.670     14.174
REMARK INTER + INTRA:          -9.507
REMARK INTER:                  -7.634
REMARK INTRA:                  -1.873
REMARK UNBOUND:                -1.328
REMARK SMILES CCCCCCCCCCCCCCC(=O)[O-]
REMARK SMILES IDX 9 1 10 2 11 3 12 4 13 5 14 6 15 7 16 8 17 9 8 10 7 11 6 12
REMARK SMILES IDX 5 13 4 14 3 15 2 16 1 17
REMARK H PARENT
REMARK Flexibility Score: inf
ROOT
ATOM      1  C   UNL     1      63.915  15.695  38.935  1.00  0.00     0.000 C 
ENDROOT
BRANCH   1   2
ATOM      2  C   UNL     1      63.686  14.786  37.710  1.00  0.00     0.000 C 
BRANCH   2   3
ATOM      3  C   UNL     1      63.265  15.517  36.422  1.00  0.00     0.000 C 
BRANCH   3   4
ATOM      4  C   UNL     1      63.884  16.920  36.303  1.00  0.00     0.000 C 
BRANCH   4   5
ATOM      5  C   UNL     1      65.186  16.923  35.487  1.00  0.00     0.006 C 
BRANCH   5   6
ATOM      6  C   UNL     1      66.142  18.052  35.897  1.00  0.00     0.053 C 
BRANCH   6   7
ATOM      7  C   UNL     1      66.936  18.518  34.719  1.00  0.00     0.041 C 
ATOM      8  O   UNL     1      67.635  19.562  34.799  1.00  0.00    -0.550 OA
ATOM      9  O   UNL     1      66.943  17.772  33.547  1.00  0.00    -0.550 OA
ENDBRANCH   6   7
ENDBRANCH   5   6
ENDBRANCH   4   5
ENDBRANCH   3   4
ENDBRANCH   2   3
ENDBRANCH   1   2
BRANCH   1  10
ATOM     10  C   UNL     1      62.795  15.658  39.994  1.00  0.00     0.000 C 
BRANCH  10  11
ATOM     11  C   UNL     1      62.552  16.993  40.724  1.00  0.00    -0.000 C 
BRANCH  11  12
ATOM     12  C   UNL     1      63.476  18.151  40.296  1.00  0.00    -0.000 C 
BRANCH  12  13
ATOM     13  C   UNL     1      62.807  19.257  39.452  1.00  0.00    -0.000 C 
BRANCH  13  14
ATOM     14  C   UNL     1      61.281  19.115  39.290  1.00  0.00    -0.000 C 
BRANCH  14  15
ATOM     15  C   UNL     1      60.853  18.526  37.927  1.00  0.00    -0.000 C 
BRANCH  15  16
ATOM     16  C   UNL     1      59.594  17.647  38.007  1.00  0.00    -0.003 C 
ATOM     17  C   UNL     1      59.891  16.165  37.781  1.00  0.00     0.004 C 
ENDBRANCH  15  16
ENDBRANCH  14  15
ENDBRANCH  13  14
ENDBRANCH  12  13
ENDBRANCH  11  12
ENDBRANCH  10  11
ENDBRANCH   1  10
TORSDOF 13
ENDMDL
MODEL 8
REMARK VINA RESULT:    -4.645     10.902     14.120
REMARK INTER + INTRA:          -9.504
REMARK INTER:                  -7.267
REMARK INTRA:                  -2.237
REMARK UNBOUND:                -1.328
REMARK SMILES CCCCCCCCCCCCCCC(=O)[O-]
REMARK SMILES IDX 9 1 10 2 11 3 12 4 13 5 14 6 15 7 16 8 17 9 8 10 7 11 6 12
REMARK SMILES IDX 5 13 4 14 3 15 2 16 1 17
REMARK H PARENT
REMARK Flexibility Score: inf
ROOT
ATOM      1  C   UNL     1      60.561  18.701  38.188  1.00  0.00     0.000 C 
ENDROOT
BRANCH   1   2
ATOM      2  C   UNL     1      60.143  17.228  38.001  1.00  0.00     0.000 C 
BRANCH   2   3
ATOM      3  C   UNL     1      60.280  16.344  39.255  1.00  0.00     0.000 C 
BRANCH   3   4
ATOM      4  C   UNL     1      60.913  14.975  38.954  1.00  0.00     0.000 C 
BRANCH   4   5
ATOM      5  C   UNL     1      62.019  14.605  39.955  1.00  0.00     0.006 C 
BRANCH   5   6
ATOM      6  C   UNL     1      63.072  13.664  39.355  1.00  0.00     0.053 C 
BRANCH   6   7
ATOM      7  C   UNL     1      62.637  12.239  39.489  1.00  0.00     0.041 C 
ATOM      8  O   UNL     1      62.117  11.641  38.511  1.00  0.00    -0.550 OA
ATOM      9  O   UNL     1      62.851  11.556  40.679  1.00  0.00    -0.550 OA
ENDBRANCH   6   7
ENDBRANCH   5   6
ENDBRANCH   4   5
ENDBRANCH   3   4
ENDBRANCH   2   3
ENDBRANCH   1   2
BRANCH   1  10
ATOM     10  C   UNL     1      61.095  19.056  39.590  1.00  0.00     0.000 C 
BRANCH  10  11
ATOM     11  C   UNL     1      62.618  19.278  39.665  1.00  0.00    -0.000 C 
BRANCH  11  12
ATOM     12  C   UNL     1      63.453  18.005  39.910  1.00  0.00    -0.000 C 
BRANCH  12  13
ATOM     13  C   UNL     1      64.406  17.605  38.762  1.00  0.00    -0.000 C 
BRANCH  13  14
ATOM     14  C   UNL     1      64.187  18.370  37.442  1.00  0.00    -0.000 C 
BRANCH  14  15
ATOM     15  C   UNL     1      63.888  17.451  36.236  1.00  0.00    -0.000 C 
BRANCH  15  16
ATOM     16  C   UNL     1      63.544  16.007  36.636  1.00  0.00    -0.003 C 
ATOM     17  C   UNL     1      64.443  14.974  35.958  1.00  0.00     0.004 C 
ENDBRANCH  15  16
ENDBRANCH  14  15
ENDBRANCH  13  14
ENDBRANCH  12  13
ENDBRANCH  11  12
ENDBRANCH  10  11
ENDBRANCH   1  10
TORSDOF 13
ENDMDL
MODEL 9
REMARK VINA RESULT:    -4.558     11.137     12.999
REMARK INTER + INTRA:          -9.351
REMARK INTER:                  -7.306
REMARK INTRA:                  -2.045
REMARK UNBOUND:                -1.328
REMARK SMILES CCCCCCCCCCCCCCC(=O)[O-]
REMARK SMILES IDX 9 1 10 2 11 3 12 4 13 5 14 6 15 7 16 8 17 9 8 10 7 11 6 12
REMARK SMILES IDX 5 13 4 14 3 15 2 16 1 17
REMARK H PARENT
REMARK Flexibility Score: inf
ROOT
ATOM      1  C   UNL     1      64.438  16.259  36.041  1.00  0.00     0.000 C 
ENDROOT
BRANCH   1   2
ATOM      2  C   UNL     1      63.713  15.139  36.814  1.00  0.00     0.000 C 
BRANCH   2   3
ATOM      3  C   UNL     1      64.593  14.347  37.798  1.00  0.00     0.000 C 
BRANCH   3   4
ATOM      4  C   UNL     1      63.875  14.034  39.122  1.00  0.00     0.000 C 
BRANCH   4   5
ATOM      5  C   UNL     1      63.499  12.550  39.252  1.00  0.00     0.006 C 
BRANCH   5   6
ATOM      6  C   UNL     1      62.076  12.343  39.788  1.00  0.00     0.053 C 
BRANCH   6   7
ATOM      7  C   UNL     1      61.185  11.809  38.712  1.00  0.00     0.041 C 
ATOM      8  O   UNL     1      60.404  10.852  38.953  1.00  0.00    -0.550 OA
ATOM      9  O   UNL     1      61.181  12.403  37.456  1.00  0.00    -0.550 OA
ENDBRANCH   6   7
ENDBRANCH   5   6
ENDBRANCH   4   5
ENDBRANCH   3   4
ENDBRANCH   2   3
ENDBRANCH   1   2
BRANCH   1  10
ATOM     10  C   UNL     1      64.980  17.409  36.913  1.00  0.00     0.000 C 
BRANCH  10  11
ATOM     11  C   UNL     1      64.002  18.582  37.116  1.00  0.00    -0.000 C 
BRANCH  11  12
ATOM     12  C   UNL     1      63.144  18.504  38.395  1.00  0.00    -0.000 C 
BRANCH  12  13
ATOM     13  C   UNL     1      63.875  17.990  39.655  1.00  0.00    -0.000 C 
BRANCH  13  14
ATOM     14  C   UNL     1      63.042  17.050  40.548  1.00  0.00    -0.000 C 
BRANCH  14  15
ATOM     15  C   UNL     1      61.516  17.220  40.375  1.00  0.00    -0.000 C 
BRANCH  15  16
ATOM     16  C   UNL     1      60.793  15.915  40.001  1.00  0.00    -0.003 C 
ATOM     17  C   UNL     1      60.586  15.763  38.496  1.00  0.00     0.004 C 
ENDBRANCH  15  16
ENDBRANCH  14  15
ENDBRANCH  13  14
ENDBRANCH  12  13
ENDBRANCH  11  12
ENDBRANCH  10  11
ENDBRANCH   1  10
TORSDOF 13
ENDMDL
