MODEL 1
REMARK VINA RESULT:    -5.266      0.000      0.000
REMARK INTER + INTRA:          -6.066
REMARK INTER:                  -5.882
REMARK INTRA:                  -0.184
REMARK UNBOUND:                -0.184
REMARK SMILES CC(C)c1ccc(C=O)cc1
REMARK SMILES IDX 4 1 5 2 6 3 7 4 10 5 11 6 2 7 1 8 3 9 8 10 9 11
REMARK H PARENT
REMARK Flexibility Score: inf
ROOT
ATOM      1  C   UNL     1       2.867  11.204   8.738  1.00  0.00    -0.045 A 
ATOM      2  C   UNL     1       3.971  11.913   9.244  1.00  0.00     0.005 A 
ATOM      3  C   UNL     1       5.228  11.792   8.644  1.00  0.00     0.012 A 
ATOM      4  C   UNL     1       5.405  10.962   7.528  1.00  0.00     0.014 A 
ATOM      5  C   UNL     1       4.305  10.253   7.019  1.00  0.00     0.012 A 
ATOM      6  C   UNL     1       3.048  10.373   7.618  1.00  0.00     0.005 A 
ENDROOT
BRANCH   1   7
ATOM      7  C   UNL     1       1.508  11.344   9.400  1.00  0.00     0.013 C 
ATOM      8  C   UNL     1       1.452  10.562  10.717  1.00  0.00     0.012 C 
ATOM      9  C   UNL     1       1.148  12.819   9.617  1.00  0.00     0.012 C 
ENDBRANCH   1   7
BRANCH   4  10
ATOM     10  C   UNL     1       6.739  10.848   6.909  1.00  0.00     0.260 C 
ATOM     11  O   UNL     1       6.883  10.349   5.762  1.00  0.00    -0.298 OA
ENDBRANCH   4  10
TORSDOF 2
ENDMDL
MODEL 2
REMARK VINA RESULT:    -5.164      2.375      4.986
REMARK INTER + INTRA:          -5.952
REMARK INTER:                  -5.770
REMARK INTRA:                  -0.181
REMARK UNBOUND:                -0.184
REMARK SMILES CC(C)c1ccc(C=O)cc1
REMARK SMILES IDX 4 1 5 2 6 3 7 4 10 5 11 6 2 7 1 8 3 9 8 10 9 11
REMARK H PARENT
REMARK Flexibility Score: inf
ROOT
ATOM      1  C   UNL     1       5.411  11.433   6.856  1.00  0.00    -0.045 A 
ATOM      2  C   UNL     1       4.376  10.518   6.590  1.00  0.00     0.005 A 
ATOM      3  C   UNL     1       3.337  10.337   7.507  1.00  0.00     0.012 A 
ATOM      4  C   UNL     1       3.311  11.066   8.705  1.00  0.00     0.014 A 
ATOM      5  C   UNL     1       4.341  11.981   8.974  1.00  0.00     0.012 A 
ATOM      6  C   UNL     1       5.382  12.163   8.058  1.00  0.00     0.005 A 
ENDROOT
BRANCH   1   7
ATOM      7  C   UNL     1       6.534  11.620   5.852  1.00  0.00     0.013 C 
ATOM      8  C   UNL     1       7.558  10.484   5.951  1.00  0.00     0.012 C 
ATOM      9  C   UNL     1       5.986  11.746   4.426  1.00  0.00     0.012 C 
ENDBRANCH   1   7
BRANCH   4  10
ATOM     10  C   UNL     1       2.205  10.860   9.658  1.00  0.00     0.260 C 
ATOM     11  O   UNL     1       1.049  11.297   9.418  1.00  0.00    -0.298 OA
ENDBRANCH   4  10
TORSDOF 2
ENDMDL
MODEL 3
REMARK VINA RESULT:    -5.141      2.143      3.300
REMARK INTER + INTRA:          -5.926
REMARK INTER:                  -5.743
REMARK INTRA:                  -0.183
REMARK UNBOUND:                -0.184
REMARK SMILES CC(C)c1ccc(C=O)cc1
REMARK SMILES IDX 4 1 5 2 6 3 7 4 10 5 11 6 2 7 1 8 3 9 8 10 9 11
REMARK H PARENT
REMARK Flexibility Score: inf
ROOT
ATOM      1  C   UNL     1       4.997  11.007   6.628  1.00  0.00    -0.045 A 
ATOM      2  C   UNL     1       6.017  11.762   7.234  1.00  0.00     0.005 A 
ATOM      3  C   UNL     1       7.000  12.381   6.456  1.00  0.00     0.012 A 
ATOM      4  C   UNL     1       6.983  12.258   5.059  1.00  0.00     0.014 A 
ATOM      5  C   UNL     1       5.966  11.505   4.450  1.00  0.00     0.012 A 
ATOM      6  C   UNL     1       4.983  10.886   5.226  1.00  0.00     0.005 A 
ENDROOT
BRANCH   1   7
ATOM      7  C   UNL     1       3.936  10.340   7.484  1.00  0.00     0.013 C 
ATOM      8  C   UNL     1       4.455   9.029   8.084  1.00  0.00     0.012 C 
ATOM      9  C   UNL     1       3.433  11.288   8.579  1.00  0.00     0.012 C 
ENDBRANCH   1   7
BRANCH   4  10
ATOM     10  C   UNL     1       8.028  12.918   4.257  1.00  0.00     0.260 C 
ATOM     11  O   UNL     1       8.595  12.317   3.307  1.00  0.00    -0.298 OA
ENDBRANCH   4  10
TORSDOF 2
ENDMDL
MODEL 4
REMARK VINA RESULT:    -5.140      2.397      4.774
REMARK INTER + INTRA:          -5.925
REMARK INTER:                  -5.745
REMARK INTRA:                  -0.179
REMARK UNBOUND:                -0.184
REMARK SMILES CC(C)c1ccc(C=O)cc1
REMARK SMILES IDX 4 1 5 2 6 3 7 4 10 5 11 6 2 7 1 8 3 9 8 10 9 11
REMARK H PARENT
REMARK Flexibility Score: inf
ROOT
ATOM      1  C   UNL     1       5.531  11.413   6.857  1.00  0.00    -0.045 A 
ATOM      2  C   UNL     1       5.601  11.992   8.137  1.00  0.00     0.005 A 
ATOM      3  C   UNL     1       4.639  11.692   9.105  1.00  0.00     0.012 A 
ATOM      4  C   UNL     1       3.590  10.808   8.815  1.00  0.00     0.014 A 
ATOM      5  C   UNL     1       3.516  10.227   7.538  1.00  0.00     0.012 A 
ATOM      6  C   UNL     1       4.477  10.527   6.569  1.00  0.00     0.005 A 
ENDROOT
BRANCH   1   7
ATOM      7  C   UNL     1       6.582  11.748   5.815  1.00  0.00     0.013 C 
ATOM      8  C   UNL     1       7.787  10.807   5.923  1.00  0.00     0.012 C 
ATOM      9  C   UNL     1       5.987  11.723   4.402  1.00  0.00     0.012 C 
ENDBRANCH   1   7
BRANCH   4  10
ATOM     10  C   UNL     1       2.585  10.505   9.850  1.00  0.00     0.260 C 
ATOM     11  O   UNL     1       1.501  11.142   9.910  1.00  0.00    -0.298 OA
ENDBRANCH   4  10
TORSDOF 2
ENDMDL
MODEL 5
REMARK VINA RESULT:    -5.023      2.188      3.836
REMARK INTER + INTRA:          -5.794
REMARK INTER:                  -5.612
REMARK INTRA:                  -0.182
REMARK UNBOUND:                -0.184
REMARK SMILES CC(C)c1ccc(C=O)cc1
REMARK SMILES IDX 4 1 5 2 6 3 7 4 10 5 11 6 2 7 1 8 3 9 8 10 9 11
REMARK H PARENT
REMARK Flexibility Score: inf
ROOT
ATOM      1  C   UNL     1       5.430  10.912   6.515  1.00  0.00    -0.045 A 
ATOM      2  C   UNL     1       5.275  11.213   5.151  1.00  0.00     0.005 A 
ATOM      3  C   UNL     1       6.367  11.640   4.389  1.00  0.00     0.012 A 
ATOM      4  C   UNL     1       7.634  11.773   4.977  1.00  0.00     0.014 A 
ATOM      5  C   UNL     1       7.793  11.473   6.339  1.00  0.00     0.012 A 
ATOM      6  C   UNL     1       6.702  11.047   7.101  1.00  0.00     0.005 A 
ENDROOT
BRANCH   1   7
ATOM      7  C   UNL     1       4.236  10.451   7.330  1.00  0.00     0.013 C 
ATOM      8  C   UNL     1       4.451   9.033   7.871  1.00  0.00     0.012 C 
ATOM      9  C   UNL     1       3.928  11.434   8.466  1.00  0.00     0.012 C 
ENDBRANCH   1   7
BRANCH   4  10
ATOM     10  C   UNL     1       8.773  12.224   4.157  1.00  0.00     0.260 C 
ATOM     11  O   UNL     1       8.707  12.229   2.899  1.00  0.00    -0.298 OA
ENDBRANCH   4  10
TORSDOF 2
ENDMDL
MODEL 6
REMARK VINA RESULT:    -4.893      2.885      5.903
REMARK INTER + INTRA:          -5.649
REMARK INTER:                  -5.455
REMARK INTRA:                  -0.194
REMARK UNBOUND:                -0.184
REMARK SMILES CC(C)c1ccc(C=O)cc1
REMARK SMILES IDX 4 1 5 2 6 3 7 4 10 5 11 6 2 7 1 8 3 9 8 10 9 11
REMARK H PARENT
REMARK Flexibility Score: inf
ROOT
ATOM      1  C   UNL     1       7.575  11.820   5.447  1.00  0.00    -0.045 A 
ATOM      2  C   UNL     1       7.672  11.371   6.776  1.00  0.00     0.005 A 
ATOM      3  C   UNL     1       6.588  10.740   7.393  1.00  0.00     0.012 A 
ATOM      4  C   UNL     1       5.388  10.546   6.695  1.00  0.00     0.014 A 
ATOM      5  C   UNL     1       5.286  10.992   5.368  1.00  0.00     0.012 A 
ATOM      6  C   UNL     1       6.369  11.623   4.749  1.00  0.00     0.005 A 
ENDROOT
BRANCH   1   7
ATOM      7  C   UNL     1       8.760  12.504   4.789  1.00  0.00     0.013 C 
ATOM      8  C   UNL     1      10.083  12.005   5.379  1.00  0.00     0.012 C 
ATOM      9  C   UNL     1       8.729  12.319   3.267  1.00  0.00     0.012 C 
ENDBRANCH   1   7
BRANCH   4  10
ATOM     10  C   UNL     1       4.256   9.879   7.364  1.00  0.00     0.260 C 
ATOM     11  O   UNL     1       4.445   8.930   8.170  1.00  0.00    -0.298 OA
ENDBRANCH   4  10
TORSDOF 2
ENDMDL
MODEL 7
REMARK VINA RESULT:    -4.515      1.413      2.262
REMARK INTER + INTRA:          -5.227
REMARK INTER:                  -5.050
REMARK INTRA:                  -0.178
REMARK UNBOUND:                -0.184
REMARK SMILES CC(C)c1ccc(C=O)cc1
REMARK SMILES IDX 4 1 5 2 6 3 7 4 10 5 11 6 2 7 1 8 3 9 8 10 9 11
REMARK H PARENT
REMARK Flexibility Score: inf
ROOT
ATOM      1  C   UNL     1       4.123  11.217   7.896  1.00  0.00    -0.045 A 
ATOM      2  C   UNL     1       4.201  10.523   6.675  1.00  0.00     0.005 A 
ATOM      3  C   UNL     1       5.252  10.767   5.786  1.00  0.00     0.012 A 
ATOM      4  C   UNL     1       6.244  11.708   6.100  1.00  0.00     0.014 A 
ATOM      5  C   UNL     1       6.170  12.402   7.318  1.00  0.00     0.012 A 
ATOM      6  C   UNL     1       5.120  12.159   8.208  1.00  0.00     0.005 A 
ENDROOT
BRANCH   1   7
ATOM      7  C   UNL     1       2.976  10.942   8.852  1.00  0.00     0.013 C 
ATOM      8  C   UNL     1       3.435  10.075  10.029  1.00  0.00     0.012 C 
ATOM      9  C   UNL     1       2.341  12.249   9.342  1.00  0.00     0.012 C 
ENDBRANCH   1   7
BRANCH   4  10
ATOM     10  C   UNL     1       7.344  11.951   5.149  1.00  0.00     0.260 C 
ATOM     11  O   UNL     1       8.281  11.120   5.012  1.00  0.00    -0.298 OA
ENDBRANCH   4  10
TORSDOF 2
ENDMDL
MODEL 8
REMARK VINA RESULT:    -4.407      2.235      5.119
REMARK INTER + INTRA:          -5.106
REMARK INTER:                  -4.913
REMARK INTRA:                  -0.193
REMARK UNBOUND:                -0.184
REMARK SMILES CC(C)c1ccc(C=O)cc1
REMARK SMILES IDX 4 1 5 2 6 3 7 4 10 5 11 6 2 7 1 8 3 9 8 10 9 11
REMARK H PARENT
REMARK Flexibility Score: inf
ROOT
ATOM      1  C   UNL     1       6.864  11.700   7.337  1.00  0.00    -0.045 A 
ATOM      2  C   UNL     1       6.565  12.215   8.610  1.00  0.00     0.005 A 
ATOM      3  C   UNL     1       5.314  11.992   9.191  1.00  0.00     0.012 A 
ATOM      4  C   UNL     1       4.337  11.250   8.511  1.00  0.00     0.014 A 
ATOM      5  C   UNL     1       4.631  10.733   7.239  1.00  0.00     0.012 A 
ATOM      6  C   UNL     1       5.883  10.955   6.657  1.00  0.00     0.005 A 
ENDROOT
BRANCH   1   7
ATOM      7  C   UNL     1       8.227  11.950   6.718  1.00  0.00     0.013 C 
ATOM      8  C   UNL     1       9.296  12.154   7.798  1.00  0.00     0.012 C 
ATOM      9  C   UNL     1       8.617  10.815   5.763  1.00  0.00     0.012 C 
ENDBRANCH   1   7
BRANCH   4  10
ATOM     10  C   UNL     1       3.023  11.026   9.140  1.00  0.00     0.260 C 
ATOM     11  O   UNL     1       1.968  11.008   8.453  1.00  0.00    -0.298 OA
ENDBRANCH   4  10
TORSDOF 2
ENDMDL
MODEL 9
REMARK VINA RESULT:    -3.866      2.500      3.430
REMARK INTER + INTRA:          -4.502
REMARK INTER:                  -4.322
REMARK INTRA:                  -0.180
REMARK UNBOUND:                -0.184
REMARK SMILES CC(C)c1ccc(C=O)cc1
REMARK SMILES IDX 4 1 5 2 6 3 7 4 10 5 11 6 2 7 1 8 3 9 8 10 9 11
REMARK H PARENT
REMARK Flexibility Score: inf
ROOT
ATOM      1  C   UNL     1       5.286  10.846   7.885  1.00  0.00    -0.045 A 
ATOM      2  C   UNL     1       5.541  11.840   8.847  1.00  0.00     0.005 A 
ATOM      3  C   UNL     1       6.765  12.514   8.863  1.00  0.00     0.012 A 
ATOM      4  C   UNL     1       7.757  12.209   7.919  1.00  0.00     0.014 A 
ATOM      5  C   UNL     1       7.506  11.218   6.957  1.00  0.00     0.012 A 
ATOM      6  C   UNL     1       6.283  10.543   6.940  1.00  0.00     0.005 A 
ENDROOT
BRANCH   1   7
ATOM      7  C   UNL     1       3.952  10.121   7.879  1.00  0.00     0.013 C 
ATOM      8  C   UNL     1       3.216  10.330   6.551  1.00  0.00     0.012 C 
ATOM      9  C   UNL     1       4.133   8.629   8.182  1.00  0.00     0.012 C 
ENDBRANCH   1   7
BRANCH   4  10
ATOM     10  C   UNL     1       9.042  12.931   7.954  1.00  0.00     0.260 C 
ATOM     11  O   UNL     1      10.124  12.347   7.684  1.00  0.00    -0.298 OA
ENDBRANCH   4  10
TORSDOF 2
ENDMDL
