MODEL 1
REMARK VINA RESULT:    -0.561      0.000      0.000
REMARK INTER + INTRA:          -3.304
REMARK INTER:                  -1.216
REMARK INTRA:                  -2.088
REMARK UNBOUND:                -2.088
REMARK SMILES CCCCCCCCCCCCCCCCCCCCCC(=O)[O-]
REMARK SMILES IDX 12 1 11 2 10 3 9 4 8 5 7 6 6 7 5 8 4 9 3 10 2 11 1 12 13 13
REMARK SMILES IDX 14 14 15 15 16 16 17 17 18 18 19 19 20 20 21 21 22 22 23 23
REMARK SMILES IDX 24 24
REMARK H PARENT
REMARK Flexibility Score: inf
ROOT
ATOM      1  C   UNL     1      10.183 -34.616  13.300  1.00  0.00     0.000 C 
ENDROOT
BRANCH   1   2
ATOM      2  C   UNL     1       9.126 -33.508  13.421  1.00  0.00     0.000 C 
BRANCH   2   3
ATOM      3  C   UNL     1       9.700 -32.111  13.139  1.00  0.00     0.000 C 
BRANCH   3   4
ATOM      4  C   UNL     1      11.153 -31.962  13.626  1.00  0.00    -0.000 C 
BRANCH   4   5
ATOM      5  C   UNL     1      11.261 -31.125  14.911  1.00  0.00    -0.000 C 
BRANCH   5   6
ATOM      6  C   UNL     1      12.705 -30.704  15.219  1.00  0.00    -0.000 C 
BRANCH   6   7
ATOM      7  C   UNL     1      13.701 -31.486  14.354  1.00  0.00    -0.000 C 
BRANCH   7   8
ATOM      8  C   UNL     1      14.420 -30.555  13.365  1.00  0.00    -0.000 C 
BRANCH   8   9
ATOM      9  C   UNL     1      14.360 -29.078  13.787  1.00  0.00    -0.000 C 
BRANCH   9  10
ATOM     10  C   UNL     1      15.673 -28.591  14.420  1.00  0.00    -0.000 C 
BRANCH  10  11
ATOM     11  C   UNL     1      15.478 -28.078  15.856  1.00  0.00    -0.003 C 
ATOM     12  C   UNL     1      15.989 -26.650  16.050  1.00  0.00     0.004 C 
ENDBRANCH  10  11
ENDBRANCH   9  10
ENDBRANCH   8   9
ENDBRANCH   7   8
ENDBRANCH   6   7
ENDBRANCH   5   6
ENDBRANCH   4   5
ENDBRANCH   3   4
ENDBRANCH   2   3
ENDBRANCH   1   2
BRANCH   1  13
ATOM     13  C   UNL     1       9.542 -35.945  12.876  1.00  0.00     0.000 C 
BRANCH  13  14
ATOM     14  C   UNL     1       8.005 -35.891  12.875  1.00  0.00     0.000 C 
BRANCH  14  15
ATOM     15  C   UNL     1       7.370 -37.000  13.730  1.00  0.00     0.000 C 
BRANCH  15  16
ATOM     16  C   UNL     1       5.941 -36.649  14.177  1.00  0.00     0.000 C 
BRANCH  16  17
ATOM     17  C   UNL     1       5.901 -36.035  15.585  1.00  0.00     0.000 C 
BRANCH  17  18
ATOM     18  C   UNL     1       6.744 -36.858  16.567  1.00  0.00     0.000 C 
BRANCH  18  19
ATOM     19  C   UNL     1       7.592 -35.943  17.463  1.00  0.00     0.000 C 
BRANCH  19  20
ATOM     20  C   UNL     1       8.006 -34.640  16.761  1.00  0.00     0.006 C 
BRANCH  20  21
ATOM     21  C   UNL     1       8.468 -33.558  17.746  1.00  0.00     0.053 C 
BRANCH  21  22
ATOM     22  C   UNL     1       8.434 -32.210  17.097  1.00  0.00     0.041 C 
ATOM     23  O   UNL     1       7.536 -31.933  16.259  1.00  0.00    -0.550 OA
ATOM     24  O   UNL     1       9.365 -31.243  17.454  1.00  0.00    -0.550 OA
ENDBRANCH  21  22
ENDBRANCH  20  21
ENDBRANCH  19  20
ENDBRANCH  18  19
ENDBRANCH  17  18
ENDBRANCH  16  17
ENDBRANCH  15  16
ENDBRANCH  14  15
ENDBRANCH  13  14
ENDBRANCH   1  13
TORSDOF 20
ENDMDL
MODEL 2
REMARK VINA RESULT:    -0.164      2.106      3.997
REMARK INTER + INTRA:          -2.444
REMARK INTER:                  -2.247
REMARK INTRA:                  -0.198
REMARK UNBOUND:                -2.088
REMARK SMILES CCCCCCCCCCCCCCCCCCCCCC(=O)[O-]
REMARK SMILES IDX 12 1 11 2 10 3 9 4 8 5 7 6 6 7 5 8 4 9 3 10 2 11 1 12 13 13
REMARK SMILES IDX 14 14 15 15 16 16 17 17 18 18 19 19 20 20 21 21 22 22 23 23
REMARK SMILES IDX 24 24
REMARK H PARENT
REMARK Flexibility Score: inf
ROOT
ATOM      1  C   UNL     1       9.124 -31.149  18.449  1.00  0.00     0.000 C 
ENDROOT
BRANCH   1   2
ATOM      2  C   UNL     1       9.739 -30.574  17.165  1.00  0.00     0.000 C 
BRANCH   2   3
ATOM      3  C   UNL     1      11.210 -30.978  16.983  1.00  0.00     0.000 C 
BRANCH   3   4
ATOM      4  C   UNL     1      11.727 -30.694  15.561  1.00  0.00    -0.000 C 
BRANCH   4   5
ATOM      5  C   UNL     1      11.181 -31.690  14.525  1.00  0.00    -0.000 C 
BRANCH   5   6
ATOM      6  C   UNL     1      12.294 -32.343  13.692  1.00  0.00    -0.000 C 
BRANCH   6   7
ATOM      7  C   UNL     1      13.627 -31.609  13.886  1.00  0.00    -0.000 C 
BRANCH   7   8
ATOM      8  C   UNL     1      13.409 -30.091  13.980  1.00  0.00    -0.000 C 
BRANCH   8   9
ATOM      9  C   UNL     1      14.691 -29.288  13.705  1.00  0.00    -0.000 C 
BRANCH   9  10
ATOM     10  C   UNL     1      15.447 -28.924  14.994  1.00  0.00    -0.000 C 
BRANCH  10  11
ATOM     11  C   UNL     1      15.689 -27.412  15.124  1.00  0.00    -0.003 C 
ATOM     12  C   UNL     1      16.087 -26.994  16.540  1.00  0.00     0.004 C 
ENDBRANCH  10  11
ENDBRANCH   9  10
ENDBRANCH   8   9
ENDBRANCH   7   8
ENDBRANCH   6   7
ENDBRANCH   5   6
ENDBRANCH   4   5
ENDBRANCH   3   4
ENDBRANCH   2   3
ENDBRANCH   1   2
BRANCH   1  13
ATOM     13  C   UNL     1       8.229 -32.357  18.137  1.00  0.00     0.000 C 
BRANCH  13  14
ATOM     14  C   UNL     1       8.349 -32.826  16.678  1.00  0.00     0.000 C 
BRANCH  14  15
ATOM     15  C   UNL     1       7.083 -32.535  15.854  1.00  0.00     0.000 C 
BRANCH  15  16
ATOM     16  C   UNL     1       7.316 -32.707  14.344  1.00  0.00     0.000 C 
BRANCH  16  17
ATOM     17  C   UNL     1       6.614 -33.952  13.780  1.00  0.00     0.000 C 
BRANCH  17  18
ATOM     18  C   UNL     1       6.506 -35.051  14.845  1.00  0.00     0.000 C 
BRANCH  18  19
ATOM     19  C   UNL     1       7.214 -36.333  14.384  1.00  0.00     0.000 C 
BRANCH  19  20
ATOM     20  C   UNL     1       7.820 -36.206  12.976  1.00  0.00     0.006 C 
BRANCH  20  21
ATOM     21  C   UNL     1       9.233 -36.796  12.885  1.00  0.00     0.053 C 
BRANCH  21  22
ATOM     22  C   UNL     1      10.259 -35.708  12.939  1.00  0.00     0.041 C 
ATOM     23  O   UNL     1       9.907 -34.501  12.875  1.00  0.00    -0.550 OA
ATOM     24  O   UNL     1      11.601 -36.025  13.110  1.00  0.00    -0.550 OA
ENDBRANCH  21  22
ENDBRANCH  20  21
ENDBRANCH  19  20
ENDBRANCH  18  19
ENDBRANCH  17  18
ENDBRANCH  16  17
ENDBRANCH  15  16
ENDBRANCH  14  15
ENDBRANCH  13  14
ENDBRANCH   1  13
TORSDOF 20
ENDMDL
MODEL 3
REMARK VINA RESULT:     0.586      2.663      5.568
REMARK INTER + INTRA:          -0.818
REMARK INTER:                   1.412
REMARK INTRA:                  -2.230
REMARK UNBOUND:                -2.088
REMARK SMILES CCCCCCCCCCCCCCCCCCCCCC(=O)[O-]
REMARK SMILES IDX 12 1 11 2 10 3 9 4 8 5 7 6 6 7 5 8 4 9 3 10 2 11 1 12 13 13
REMARK SMILES IDX 14 14 15 15 16 16 17 17 18 18 19 19 20 20 21 21 22 22 23 23
REMARK SMILES IDX 24 24
REMARK H PARENT
REMARK Flexibility Score: inf
ROOT
ATOM      1  C   UNL     1       9.275 -31.645  19.335  1.00  0.00     0.000 C 
ENDROOT
BRANCH   1   2
ATOM      2  C   UNL     1       9.701 -30.590  18.303  1.00  0.00     0.000 C 
BRANCH   2   3
ATOM      3  C   UNL     1      11.187 -30.695  17.931  1.00  0.00     0.000 C 
BRANCH   3   4
ATOM      4  C   UNL     1      11.437 -30.462  16.430  1.00  0.00    -0.000 C 
BRANCH   4   5
ATOM      5  C   UNL     1      10.728 -31.500  15.546  1.00  0.00    -0.000 C 
BRANCH   5   6
ATOM      6  C   UNL     1      11.080 -31.345  14.059  1.00  0.00    -0.000 C 
BRANCH   6   7
ATOM      7  C   UNL     1      12.398 -32.059  13.729  1.00  0.00    -0.000 C 
BRANCH   7   8
ATOM      8  C   UNL     1      12.146 -33.311  12.875  1.00  0.00    -0.000 C 
BRANCH   8   9
ATOM      9  C   UNL     1      11.924 -34.574  13.722  1.00  0.00    -0.000 C 
BRANCH   9  10
ATOM     10  C   UNL     1      10.664 -35.352  13.305  1.00  0.00    -0.000 C 
BRANCH  10  11
ATOM     11  C   UNL     1      10.974 -36.805  12.915  1.00  0.00    -0.003 C 
ATOM     12  C   UNL     1      12.469 -37.125  12.953  1.00  0.00     0.004 C 
ENDBRANCH  10  11
ENDBRANCH   9  10
ENDBRANCH   8   9
ENDBRANCH   7   8
ENDBRANCH   6   7
ENDBRANCH   5   6
ENDBRANCH   4   5
ENDBRANCH   3   4
ENDBRANCH   2   3
ENDBRANCH   1   2
BRANCH   1  13
ATOM     13  C   UNL     1       8.088 -32.472  18.819  1.00  0.00     0.000 C 
BRANCH  13  14
ATOM     14  C   UNL     1       7.345 -31.788  17.660  1.00  0.00     0.000 C 
BRANCH  14  15
ATOM     15  C   UNL     1       7.413 -32.594  16.352  1.00  0.00     0.000 C 
BRANCH  15  16
ATOM     16  C   UNL     1       8.287 -33.853  16.486  1.00  0.00     0.000 C 
BRANCH  16  17
ATOM     17  C   UNL     1       7.451 -35.136  16.614  1.00  0.00     0.000 C 
BRANCH  17  18
ATOM     18  C   UNL     1       6.382 -35.207  15.516  1.00  0.00     0.000 C 
BRANCH  18  19
ATOM     19  C   UNL     1       6.719 -36.298  14.490  1.00  0.00     0.000 C 
BRANCH  19  20
ATOM     20  C   UNL     1       6.790 -35.762  13.051  1.00  0.00     0.006 C 
BRANCH  20  21
ATOM     21  C   UNL     1       6.127 -34.386  12.900  1.00  0.00     0.053 C 
BRANCH  21  22
ATOM     22  C   UNL     1       7.161 -33.304  12.903  1.00  0.00     0.041 C 
ATOM     23  O   UNL     1       8.385 -33.597  12.877  1.00  0.00    -0.550 OA
ATOM     24  O   UNL     1       6.772 -31.970  12.887  1.00  0.00    -0.550 OA
ENDBRANCH  21  22
ENDBRANCH  20  21
ENDBRANCH  19  20
ENDBRANCH  18  19
ENDBRANCH  17  18
ENDBRANCH  16  17
ENDBRANCH  15  16
ENDBRANCH  14  15
ENDBRANCH  13  14
ENDBRANCH   1  13
TORSDOF 20
ENDMDL
MODEL 4
REMARK VINA RESULT:     0.950      2.685      6.782
REMARK INTER + INTRA:          -0.027
REMARK INTER:                   2.008
REMARK INTRA:                  -2.035
REMARK UNBOUND:                -2.088
REMARK SMILES CCCCCCCCCCCCCCCCCCCCCC(=O)[O-]
REMARK SMILES IDX 12 1 11 2 10 3 9 4 8 5 7 6 6 7 5 8 4 9 3 10 2 11 1 12 13 13
REMARK SMILES IDX 14 14 15 15 16 16 17 17 18 18 19 19 20 20 21 21 22 22 23 23
REMARK SMILES IDX 24 24
REMARK H PARENT
REMARK Flexibility Score: inf
ROOT
ATOM      1  C   UNL     1       7.865 -32.099  14.351  1.00  0.00     0.000 C 
ENDROOT
BRANCH   1   2
ATOM      2  C   UNL     1       8.803 -32.487  15.504  1.00  0.00     0.000 C 
BRANCH   2   3
ATOM      3  C   UNL     1      10.102 -31.667  15.510  1.00  0.00     0.000 C 
BRANCH   3   4
ATOM      4  C   UNL     1      10.446 -31.118  16.906  1.00  0.00    -0.000 C 
BRANCH   4   5
ATOM      5  C   UNL     1       9.197 -30.872  17.767  1.00  0.00    -0.000 C 
BRANCH   5   6
ATOM      6  C   UNL     1       9.298 -31.528  19.153  1.00  0.00    -0.000 C 
BRANCH   6   7
ATOM      7  C   UNL     1       8.133 -32.498  19.386  1.00  0.00    -0.000 C 
BRANCH   7   8
ATOM      8  C   UNL     1       8.540 -33.939  19.042  1.00  0.00    -0.000 C 
BRANCH   8   9
ATOM      9  C   UNL     1       7.383 -34.757  18.444  1.00  0.00    -0.000 C 
BRANCH   9  10
ATOM     10  C   UNL     1       7.769 -35.450  17.127  1.00  0.00    -0.000 C 
BRANCH  10  11
ATOM     11  C   UNL     1       7.192 -36.870  17.020  1.00  0.00    -0.003 C 
ATOM     12  C   UNL     1       6.045 -36.971  16.015  1.00  0.00     0.004 C 
ENDBRANCH  10  11
ENDBRANCH   9  10
ENDBRANCH   8   9
ENDBRANCH   7   8
ENDBRANCH   6   7
ENDBRANCH   5   6
ENDBRANCH   4   5
ENDBRANCH   3   4
ENDBRANCH   2   3
ENDBRANCH   1   2
BRANCH   1  13
ATOM     13  C   UNL     1       6.483 -32.745  14.526  1.00  0.00     0.000 C 
BRANCH  13  14
ATOM     14  C   UNL     1       6.489 -34.254  14.231  1.00  0.00     0.000 C 
BRANCH  14  15
ATOM     15  C   UNL     1       7.416 -34.628  13.062  1.00  0.00     0.000 C 
BRANCH  15  16
ATOM     16  C   UNL     1       8.197 -35.926  13.327  1.00  0.00     0.000 C 
BRANCH  16  17
ATOM     17  C   UNL     1       9.581 -35.662  13.942  1.00  0.00     0.000 C 
BRANCH  17  18
ATOM     18  C   UNL     1      10.572 -35.179  12.875  1.00  0.00     0.000 C 
BRANCH  18  19
ATOM     19  C   UNL     1      10.707 -33.649  12.903  1.00  0.00     0.000 C 
BRANCH  19  20
ATOM     20  C   UNL     1      12.167 -33.182  13.011  1.00  0.00     0.006 C 
BRANCH  20  21
ATOM     21  C   UNL     1      12.295 -31.774  13.607  1.00  0.00     0.053 C 
BRANCH  21  22
ATOM     22  C   UNL     1      13.721 -31.477  13.949  1.00  0.00     0.041 C 
ATOM     23  O   UNL     1      14.654 -31.992  13.276  1.00  0.00    -0.550 OA
ATOM     24  O   UNL     1      14.021 -30.594  14.978  1.00  0.00    -0.550 OA
ENDBRANCH  21  22
ENDBRANCH  20  21
ENDBRANCH  19  20
ENDBRANCH  18  19
ENDBRANCH  17  18
ENDBRANCH  16  17
ENDBRANCH  15  16
ENDBRANCH  14  15
ENDBRANCH  13  14
ENDBRANCH   1  13
TORSDOF 20
ENDMDL
MODEL 5
REMARK VINA RESULT:     0.985      1.424      2.348
REMARK INTER + INTRA:           0.048
REMARK INTER:                   1.346
REMARK INTRA:                  -1.298
REMARK UNBOUND:                -2.088
REMARK SMILES CCCCCCCCCCCCCCCCCCCCCC(=O)[O-]
REMARK SMILES IDX 12 1 11 2 10 3 9 4 8 5 7 6 6 7 5 8 4 9 3 10 2 11 1 12 13 13
REMARK SMILES IDX 14 14 15 15 16 16 17 17 18 18 19 19 20 20 21 21 22 22 23 23
REMARK SMILES IDX 24 24
REMARK H PARENT
REMARK Flexibility Score: inf
ROOT
ATOM      1  C   UNL     1      10.104 -32.888  14.021  1.00  0.00     0.000 C 
ENDROOT
BRANCH   1   2
ATOM      2  C   UNL     1      11.407 -32.213  13.567  1.00  0.00     0.000 C 
BRANCH   2   3
ATOM      3  C   UNL     1      12.498 -33.228  13.195  1.00  0.00     0.000 C 
BRANCH   3   4
ATOM      4  C   UNL     1      13.917 -32.652  13.353  1.00  0.00    -0.000 C 
BRANCH   4   5
ATOM      5  C   UNL     1      13.922 -31.120  13.469  1.00  0.00    -0.000 C 
BRANCH   5   6
ATOM      6  C   UNL     1      13.731 -30.638  14.915  1.00  0.00    -0.000 C 
BRANCH   6   7
ATOM      7  C   UNL     1      14.886 -29.725  15.346  1.00  0.00    -0.000 C 
BRANCH   7   8
ATOM      8  C   UNL     1      15.270 -28.756  14.218  1.00  0.00    -0.000 C 
BRANCH   8   9
ATOM      9  C   UNL     1      15.349 -27.295  14.690  1.00  0.00    -0.000 C 
BRANCH   9  10
ATOM     10  C   UNL     1      15.828 -27.169  16.145  1.00  0.00    -0.000 C 
BRANCH  10  11
ATOM     11  C   UNL     1      17.104 -26.320  16.272  1.00  0.00    -0.003 C 
ATOM     12  C   UNL     1      17.601 -26.208  17.713  1.00  0.00     0.004 C 
ENDBRANCH  10  11
ENDBRANCH   9  10
ENDBRANCH   8   9
ENDBRANCH   7   8
ENDBRANCH   6   7
ENDBRANCH   5   6
ENDBRANCH   4   5
ENDBRANCH   3   4
ENDBRANCH   2   3
ENDBRANCH   1   2
BRANCH   1  13
ATOM     13  C   UNL     1       9.498 -33.732  12.890  1.00  0.00     0.000 C 
BRANCH  13  14
ATOM     14  C   UNL     1       9.677 -35.242  13.113  1.00  0.00     0.000 C 
BRANCH  14  15
ATOM     15  C   UNL     1       8.373 -35.939  13.536  1.00  0.00     0.000 C 
BRANCH  15  16
ATOM     16  C   UNL     1       7.133 -35.065  13.280  1.00  0.00     0.000 C 
BRANCH  16  17
ATOM     17  C   UNL     1       5.987 -35.372  14.257  1.00  0.00     0.000 C 
BRANCH  17  18
ATOM     18  C   UNL     1       5.903 -34.306  15.357  1.00  0.00     0.000 C 
BRANCH  18  19
ATOM     19  C   UNL     1       6.116 -32.900  14.776  1.00  0.00     0.000 C 
BRANCH  19  20
ATOM     20  C   UNL     1       7.236 -32.125  15.489  1.00  0.00     0.006 C 
BRANCH  20  21
ATOM     21  C   UNL     1       7.917 -32.948  16.590  1.00  0.00     0.053 C 
BRANCH  21  22
ATOM     22  C   UNL     1       8.691 -32.055  17.509  1.00  0.00     0.041 C 
ATOM     23  O   UNL     1       8.393 -31.992  18.731  1.00  0.00    -0.550 OA
ATOM     24  O   UNL     1       9.772 -31.330  17.025  1.00  0.00    -0.550 OA
ENDBRANCH  21  22
ENDBRANCH  20  21
ENDBRANCH  19  20
ENDBRANCH  18  19
ENDBRANCH  17  18
ENDBRANCH  16  17
ENDBRANCH  15  16
ENDBRANCH  14  15
ENDBRANCH  13  14
ENDBRANCH   1  13
TORSDOF 20
ENDMDL
MODEL 6
REMARK VINA RESULT:     1.170     16.403     18.698
REMARK INTER + INTRA:           0.451
REMARK INTER:                   1.490
REMARK INTRA:                  -1.039
REMARK UNBOUND:                -2.088
REMARK SMILES CCCCCCCCCCCCCCCCCCCCCC(=O)[O-]
REMARK SMILES IDX 12 1 11 2 10 3 9 4 8 5 7 6 6 7 5 8 4 9 3 10 2 11 1 12 13 13
REMARK SMILES IDX 14 14 15 15 16 16 17 17 18 18 19 19 20 20 21 21 22 22 23 23
REMARK SMILES IDX 24 24
REMARK H PARENT
REMARK Flexibility Score: inf
ROOT
ATOM      1  C   UNL     1      16.313 -29.677  31.345  1.00  0.00     0.000 C 
ENDROOT
BRANCH   1   2
ATOM      2  C   UNL     1      17.536 -29.189  30.553  1.00  0.00     0.000 C 
BRANCH   2   3
ATOM      3  C   UNL     1      17.167 -28.160  29.474  1.00  0.00     0.000 C 
BRANCH   3   4
ATOM      4  C   UNL     1      16.902 -26.761  30.060  1.00  0.00    -0.000 C 
BRANCH   4   5
ATOM      5  C   UNL     1      17.999 -26.315  31.040  1.00  0.00    -0.000 C 
BRANCH   5   6
ATOM      6  C   UNL     1      18.041 -24.790  31.221  1.00  0.00    -0.000 C 
BRANCH   6   7
ATOM      7  C   UNL     1      19.307 -24.362  31.974  1.00  0.00    -0.000 C 
BRANCH   7   8
ATOM      8  C   UNL     1      19.431 -22.831  32.014  1.00  0.00    -0.000 C 
BRANCH   8   9
ATOM      9  C   UNL     1      20.676 -22.355  32.779  1.00  0.00    -0.000 C 
BRANCH   9  10
ATOM     10  C   UNL     1      21.893 -22.154  31.861  1.00  0.00    -0.000 C 
BRANCH  10  11
ATOM     11  C   UNL     1      22.866 -21.093  32.398  1.00  0.00    -0.003 C 
ATOM     12  C   UNL     1      23.828 -20.573  31.330  1.00  0.00     0.004 C 
ENDBRANCH  10  11
ENDBRANCH   9  10
ENDBRANCH   8   9
ENDBRANCH   7   8
ENDBRANCH   6   7
ENDBRANCH   5   6
ENDBRANCH   4   5
ENDBRANCH   3   4
ENDBRANCH   2   3
ENDBRANCH   1   2
BRANCH   1  13
ATOM     13  C   UNL     1      16.578 -31.054  31.972  1.00  0.00     0.000 C 
BRANCH  13  14
ATOM     14  C   UNL     1      15.514 -32.096  31.592  1.00  0.00     0.000 C 
BRANCH  14  15
ATOM     15  C   UNL     1      15.231 -33.098  32.725  1.00  0.00     0.000 C 
BRANCH  15  16
ATOM     16  C   UNL     1      13.969 -33.936  32.463  1.00  0.00     0.000 C 
BRANCH  16  17
ATOM     17  C   UNL     1      14.182 -35.428  32.763  1.00  0.00     0.000 C 
BRANCH  17  18
ATOM     18  C   UNL     1      15.670 -35.739  32.968  1.00  0.00     0.000 C 
BRANCH  18  19
ATOM     19  C   UNL     1      16.045 -37.080  32.320  1.00  0.00     0.000 C 
BRANCH  19  20
ATOM     20  C   UNL     1      16.190 -36.983  30.793  1.00  0.00     0.006 C 
BRANCH  20  21
ATOM     21  C   UNL     1      16.635 -35.590  30.329  1.00  0.00     0.053 C 
BRANCH  21  22
ATOM     22  C   UNL     1      17.461 -35.691  29.085  1.00  0.00     0.041 C 
ATOM     23  O   UNL     1      18.420 -34.898  28.894  1.00  0.00    -0.550 OA
ATOM     24  O   UNL     1      17.204 -36.694  28.159  1.00  0.00    -0.550 OA
ENDBRANCH  21  22
ENDBRANCH  20  21
ENDBRANCH  19  20
ENDBRANCH  18  19
ENDBRANCH  17  18
ENDBRANCH  16  17
ENDBRANCH  15  16
ENDBRANCH  14  15
ENDBRANCH  13  14
ENDBRANCH   1  13
TORSDOF 20
ENDMDL
MODEL 7
REMARK VINA RESULT:     1.215      3.894      7.576
REMARK INTER + INTRA:           0.548
REMARK INTER:                   1.300
REMARK INTRA:                  -0.752
REMARK UNBOUND:                -2.088
REMARK SMILES CCCCCCCCCCCCCCCCCCCCCC(=O)[O-]
REMARK SMILES IDX 12 1 11 2 10 3 9 4 8 5 7 6 6 7 5 8 4 9 3 10 2 11 1 12 13 13
REMARK SMILES IDX 14 14 15 15 16 16 17 17 18 18 19 19 20 20 21 21 22 22 23 23
REMARK SMILES IDX 24 24
REMARK H PARENT
REMARK Flexibility Score: inf
ROOT
ATOM      1  C   UNL     1      14.960 -29.079  15.277  1.00  0.00     0.000 C 
ENDROOT
BRANCH   1   2
ATOM      2  C   UNL     1      15.674 -27.730  15.104  1.00  0.00     0.000 C 
BRANCH   2   3
ATOM      3  C   UNL     1      16.029 -27.074  16.447  1.00  0.00     0.000 C 
BRANCH   3   4
ATOM      4  C   UNL     1      17.491 -26.594  16.501  1.00  0.00    -0.000 C 
BRANCH   4   5
ATOM      5  C   UNL     1      17.607 -25.064  16.575  1.00  0.00    -0.000 C 
BRANCH   5   6
ATOM      6  C   UNL     1      18.998 -24.559  16.165  1.00  0.00    -0.000 C 
BRANCH   6   7
ATOM      7  C   UNL     1      18.957 -23.069  15.804  1.00  0.00    -0.000 C 
BRANCH   7   8
ATOM      8  C   UNL     1      20.372 -22.473  15.766  1.00  0.00    -0.000 C 
BRANCH   8   9
ATOM      9  C   UNL     1      20.408 -21.061  15.158  1.00  0.00    -0.000 C 
BRANCH   9  10
ATOM     10  C   UNL     1      19.113 -20.273  15.419  1.00  0.00    -0.000 C 
BRANCH  10  11
ATOM     11  C   UNL     1      19.279 -18.768  15.152  1.00  0.00    -0.003 C 
ATOM     12  C   UNL     1      19.487 -17.958  16.431  1.00  0.00     0.004 C 
ENDBRANCH  10  11
ENDBRANCH   9  10
ENDBRANCH   8   9
ENDBRANCH   7   8
ENDBRANCH   6   7
ENDBRANCH   5   6
ENDBRANCH   4   5
ENDBRANCH   3   4
ENDBRANCH   2   3
ENDBRANCH   1   2
BRANCH   1  13
ATOM     13  C   UNL     1      14.471 -29.619  13.925  1.00  0.00     0.000 C 
BRANCH  13  14
ATOM     14  C   UNL     1      13.988 -31.077  14.006  1.00  0.00     0.000 C 
BRANCH  14  15
ATOM     15  C   UNL     1      12.492 -31.190  14.344  1.00  0.00     0.000 C 
BRANCH  15  16
ATOM     16  C   UNL     1      11.818 -32.373  13.628  1.00  0.00     0.000 C 
BRANCH  16  17
ATOM     17  C   UNL     1      10.303 -32.175  13.466  1.00  0.00     0.000 C 
BRANCH  17  18
ATOM     18  C   UNL     1       9.535 -32.849  14.611  1.00  0.00     0.000 C 
BRANCH  18  19
ATOM     19  C   UNL     1       8.169 -32.182  14.823  1.00  0.00     0.000 C 
BRANCH  19  20
ATOM     20  C   UNL     1       7.651 -32.329  16.263  1.00  0.00     0.006 C 
BRANCH  20  21
ATOM     21  C   UNL     1       8.741 -32.792  17.239  1.00  0.00     0.053 C 
BRANCH  21  22
ATOM     22  C   UNL     1       9.314 -31.623  17.976  1.00  0.00     0.041 C 
ATOM     23  O   UNL     1      10.028 -30.781  17.370  1.00  0.00    -0.550 OA
ATOM     24  O   UNL     1       9.020 -31.436  19.320  1.00  0.00    -0.550 OA
ENDBRANCH  21  22
ENDBRANCH  20  21
ENDBRANCH  19  20
ENDBRANCH  18  19
ENDBRANCH  17  18
ENDBRANCH  16  17
ENDBRANCH  15  16
ENDBRANCH  14  15
ENDBRANCH  13  14
ENDBRANCH   1  13
TORSDOF 20
ENDMDL
MODEL 8
REMARK VINA RESULT:     1.354     16.581     20.894
REMARK INTER + INTRA:           0.849
REMARK INTER:                   2.005
REMARK INTRA:                  -1.156
REMARK UNBOUND:                -2.088
REMARK SMILES CCCCCCCCCCCCCCCCCCCCCC(=O)[O-]
REMARK SMILES IDX 12 1 11 2 10 3 9 4 8 5 7 6 6 7 5 8 4 9 3 10 2 11 1 12 13 13
REMARK SMILES IDX 14 14 15 15 16 16 17 17 18 18 19 19 20 20 21 21 22 22 23 23
REMARK SMILES IDX 24 24
REMARK H PARENT
REMARK Flexibility Score: inf
ROOT
ATOM      1  C   UNL     1      16.398 -29.574  30.391  1.00  0.00     0.000 C 
ENDROOT
BRANCH   1   2
ATOM      2  C   UNL     1      16.968 -30.333  31.599  1.00  0.00     0.000 C 
BRANCH   2   3
ATOM      3  C   UNL     1      15.995 -31.390  32.144  1.00  0.00     0.000 C 
BRANCH   3   4
ATOM      4  C   UNL     1      15.536 -32.382  31.061  1.00  0.00    -0.000 C 
BRANCH   4   5
ATOM      5  C   UNL     1      14.665 -33.514  31.629  1.00  0.00    -0.000 C 
BRANCH   5   6
ATOM      6  C   UNL     1      15.319 -34.214  32.830  1.00  0.00    -0.000 C 
BRANCH   6   7
ATOM      7  C   UNL     1      16.386 -35.214  32.368  1.00  0.00    -0.000 C 
BRANCH   7   8
ATOM      8  C   UNL     1      15.748 -36.381  31.598  1.00  0.00    -0.000 C 
BRANCH   8   9
ATOM      9  C   UNL     1      16.590 -36.830  30.393  1.00  0.00    -0.000 C 
BRANCH   9  10
ATOM     10  C   UNL     1      17.504 -35.713  29.861  1.00  0.00    -0.000 C 
BRANCH  10  11
ATOM     11  C   UNL     1      17.432 -35.574  28.332  1.00  0.00    -0.003 C 
ATOM     12  C   UNL     1      17.421 -36.923  27.613  1.00  0.00     0.004 C 
ENDBRANCH  10  11
ENDBRANCH   9  10
ENDBRANCH   8   9
ENDBRANCH   7   8
ENDBRANCH   6   7
ENDBRANCH   5   6
ENDBRANCH   4   5
ENDBRANCH   3   4
ENDBRANCH   2   3
ENDBRANCH   1   2
BRANCH   1  13
ATOM     13  C   UNL     1      17.434 -28.597  29.816  1.00  0.00     0.000 C 
BRANCH  13  14
ATOM     14  C   UNL     1      17.075 -27.126  30.080  1.00  0.00     0.000 C 
BRANCH  14  15
ATOM     15  C   UNL     1      17.863 -26.523  31.255  1.00  0.00     0.000 C 
BRANCH  15  16
ATOM     16  C   UNL     1      18.107 -25.014  31.083  1.00  0.00     0.000 C 
BRANCH  16  17
ATOM     17  C   UNL     1      19.103 -24.460  32.113  1.00  0.00     0.000 C 
BRANCH  17  18
ATOM     18  C   UNL     1      19.340 -22.959  31.897  1.00  0.00     0.000 C 
BRANCH  18  19
ATOM     19  C   UNL     1      20.611 -22.493  32.622  1.00  0.00     0.000 C 
BRANCH  19  20
ATOM     20  C   UNL     1      21.711 -22.027  31.655  1.00  0.00     0.006 C 
BRANCH  20  21
ATOM     21  C   UNL     1      22.901 -21.383  32.379  1.00  0.00     0.053 C 
BRANCH  21  22
ATOM     22  C   UNL     1      23.812 -20.717  31.397  1.00  0.00     0.041 C 
ATOM     23  O   UNL     1      24.474 -21.406  30.577  1.00  0.00    -0.550 OA
ATOM     24  O   UNL     1      23.894 -19.330  31.354  1.00  0.00    -0.550 OA
ENDBRANCH  21  22
ENDBRANCH  20  21
ENDBRANCH  19  20
ENDBRANCH  18  19
ENDBRANCH  17  18
ENDBRANCH  16  17
ENDBRANCH  15  16
ENDBRANCH  14  15
ENDBRANCH  13  14
ENDBRANCH   1  13
TORSDOF 20
ENDMDL
