MODEL 1
REMARK VINA RESULT:    -3.398      0.000      0.000
REMARK INTER + INTRA:          -4.290
REMARK INTER:                  -3.994
REMARK INTRA:                  -0.296
REMARK UNBOUND:                -0.296
REMARK SMILES O=c1cc(-c2ccc(O)c(O)c2)oc2cc(O)cc(O)c12
REMARK SMILES IDX 4 1 3 2 2 3 1 4 21 5 19 6 18 7 16 8 15 9 14 10 13 11 5 12
REMARK SMILES IDX 6 13 7 14 8 15 12 16 10 17 9 18 11 20 20 22 17 24
REMARK H PARENT 9 19 11 21 20 23 17 25
REMARK Flexibility Score: inf
ROOT
ATOM      1  C   UNL     1      32.863  25.525  37.229  1.00  0.00     0.138 A 
ATOM      2  C   UNL     1      31.501  25.199  37.109  1.00  0.00     0.100 A 
ATOM      3  C   UNL     1      31.017  24.040  37.716  1.00  0.00     0.197 A 
ATOM      4  O   UNL     1      29.794  23.755  37.601  1.00  0.00    -0.289 OA
ATOM      5  C   UNL     1      31.899  23.212  38.438  1.00  0.00     0.107 A 
ATOM      6  C   UNL     1      31.489  22.020  39.084  1.00  0.00     0.134 A 
ATOM      7  C   UNL     1      32.431  21.248  39.779  1.00  0.00     0.093 A 
ATOM      8  C   UNL     1      33.773  21.644  39.838  1.00  0.00     0.123 A 
ATOM      9  C   UNL     1      34.181  22.817  39.202  1.00  0.00     0.094 A 
ATOM     10  C   UNL     1      33.257  23.602  38.506  1.00  0.00     0.146 A 
ATOM     11  O   UNL     1      33.671  24.716  37.910  1.00  0.00    -0.456 OA
ENDROOT
BRANCH   1  12
ATOM     12  C   UNL     1      33.434  26.744  36.604  1.00  0.00     0.021 A 
ATOM     13  C   UNL     1      34.827  26.936  36.610  1.00  0.00     0.016 A 
ATOM     14  C   UNL     1      35.390  28.077  36.035  1.00  0.00     0.051 A 
ATOM     15  C   UNL     1      34.570  29.052  35.452  1.00  0.00     0.157 A 
ATOM     16  C   UNL     1      32.616  27.735  36.026  1.00  0.00     0.062 A 
ATOM     17  C   UNL     1      33.181  28.882  35.451  1.00  0.00     0.158 A 
BRANCH  15  18
ATOM     18  O   UNL     1      35.128  30.191  34.876  1.00  0.00    -0.504 OA
ATOM     19  H   UNL     1      34.594  31.046  34.766  1.00  0.00     0.293 HD
ENDBRANCH  15  18
BRANCH  17  20
ATOM     20  O   UNL     1      32.368  29.859  34.879  1.00  0.00    -0.504 OA
ATOM     21  H   UNL     1      32.092  29.814  33.905  1.00  0.00     0.293 HD
ENDBRANCH  17  20
ENDBRANCH   1  12
BRANCH   6  22
ATOM     22  O   UNL     1      30.158  21.602  39.041  1.00  0.00    -0.507 OA
ATOM     23  H   UNL     1      29.422  22.205  38.694  1.00  0.00     0.293 HD
ENDBRANCH   6  22
BRANCH   8  24
ATOM     24  O   UNL     1      34.709  20.875  40.528  1.00  0.00    -0.508 OA
ATOM     25  H   UNL     1      35.110  20.038  40.121  1.00  0.00     0.293 HD
ENDBRANCH   8  24
TORSDOF 5
ENDMDL
MODEL 2
REMARK VINA RESULT:    -2.388      1.560      2.336
REMARK INTER + INTRA:          -3.103
REMARK INTER:                  -2.788
REMARK INTRA:                  -0.315
REMARK UNBOUND:                -0.296
REMARK SMILES O=c1cc(-c2ccc(O)c(O)c2)oc2cc(O)cc(O)c12
REMARK SMILES IDX 4 1 3 2 2 3 1 4 21 5 19 6 18 7 16 8 15 9 14 10 13 11 5 12
REMARK SMILES IDX 6 13 7 14 8 15 12 16 10 17 9 18 11 20 20 22 17 24
REMARK H PARENT 9 19 11 21 20 23 17 25
REMARK Flexibility Score: inf
ROOT
ATOM      1  C   UNL     1      32.155  25.345  37.886  1.00  0.00     0.138 A 
ATOM      2  C   UNL     1      31.225  24.926  38.853  1.00  0.00     0.100 A 
ATOM      3  C   UNL     1      31.454  23.746  39.560  1.00  0.00     0.197 A 
ATOM      4  O   UNL     1      30.612  23.378  40.424  1.00  0.00    -0.289 OA
ATOM      5  C   UNL     1      32.613  22.990  39.294  1.00  0.00     0.107 A 
ATOM      6  C   UNL     1      32.922  21.783  39.967  1.00  0.00     0.134 A 
ATOM      7  C   UNL     1      34.094  21.086  39.641  1.00  0.00     0.093 A 
ATOM      8  C   UNL     1      34.960  21.572  38.654  1.00  0.00     0.123 A 
ATOM      9  C   UNL     1      34.660  22.761  37.988  1.00  0.00     0.094 A 
ATOM     10  C   UNL     1      33.497  23.471  38.300  1.00  0.00     0.146 A 
ATOM     11  O   UNL     1      33.234  24.602  37.652  1.00  0.00    -0.456 OA
ENDROOT
BRANCH   1  12
ATOM     12  C   UNL     1      31.962  26.591  37.102  1.00  0.00     0.021 A 
ATOM     13  C   UNL     1      30.693  27.193  37.061  1.00  0.00     0.016 A 
ATOM     14  C   UNL     1      30.483  28.361  36.325  1.00  0.00     0.051 A 
ATOM     15  C   UNL     1      31.537  28.943  35.609  1.00  0.00     0.157 A 
ATOM     16  C   UNL     1      33.014  27.175  36.369  1.00  0.00     0.062 A 
ATOM     17  C   UNL     1      32.804  28.347  35.628  1.00  0.00     0.158 A 
BRANCH  15  18
ATOM     18  O   UNL     1      31.333  30.109  34.875  1.00  0.00    -0.504 OA
ATOM     19  H   UNL     1      31.338  31.022  35.317  1.00  0.00     0.293 HD
ENDBRANCH  15  18
BRANCH  17  20
ATOM     20  O   UNL     1      33.847  28.923  34.906  1.00  0.00    -0.504 OA
ATOM     21  H   UNL     1      34.816  28.727  35.127  1.00  0.00     0.293 HD
ENDBRANCH  17  20
ENDBRANCH   1  12
BRANCH   6  22
ATOM     22  O   UNL     1      32.075  21.275  40.954  1.00  0.00    -0.507 OA
ATOM     23  H   UNL     1      32.418  20.665  41.687  1.00  0.00     0.293 HD
ENDBRANCH   6  22
BRANCH   8  24
ATOM     24  O   UNL     1      36.125  20.878  38.328  1.00  0.00    -0.508 OA
ATOM     25  H   UNL     1      36.125  19.873  38.204  1.00  0.00     0.293 HD
ENDBRANCH   8  24
TORSDOF 5
ENDMDL
MODEL 3
REMARK VINA RESULT:    -0.634      1.606      2.843
REMARK INTER + INTRA:          -1.041
REMARK INTER:                  -0.753
REMARK INTRA:                  -0.288
REMARK UNBOUND:                -0.296
REMARK SMILES O=c1cc(-c2ccc(O)c(O)c2)oc2cc(O)cc(O)c12
REMARK SMILES IDX 4 1 3 2 2 3 1 4 21 5 19 6 18 7 16 8 15 9 14 10 13 11 5 12
REMARK SMILES IDX 6 13 7 14 8 15 12 16 10 17 9 18 11 20 20 22 17 24
REMARK H PARENT 9 19 11 21 20 23 17 25
REMARK Flexibility Score: inf
ROOT
ATOM      1  C   UNL     1      33.387  25.669  36.937  1.00  0.00     0.138 A 
ATOM      2  C   UNL     1      33.605  25.152  38.225  1.00  0.00     0.100 A 
ATOM      3  C   UNL     1      32.937  23.993  38.622  1.00  0.00     0.197 A 
ATOM      4  O   UNL     1      33.138  23.538  39.781  1.00  0.00    -0.289 OA
ATOM      5  C   UNL     1      32.053  23.359  37.727  1.00  0.00     0.107 A 
ATOM      6  C   UNL     1      31.337  22.180  38.049  1.00  0.00     0.134 A 
ATOM      7  C   UNL     1      30.471  21.613  37.103  1.00  0.00     0.093 A 
ATOM      8  C   UNL     1      30.306  22.203  35.844  1.00  0.00     0.123 A 
ATOM      9  C   UNL     1      31.009  23.366  35.522  1.00  0.00     0.094 A 
ATOM     10  C   UNL     1      31.878  23.945  36.451  1.00  0.00     0.146 A 
ATOM     11  O   UNL     1      32.537  25.052  36.119  1.00  0.00    -0.456 OA
ENDROOT
BRANCH   1  12
ATOM     12  C   UNL     1      34.068  26.899  36.461  1.00  0.00     0.021 A 
ATOM     13  C   UNL     1      35.460  27.023  36.616  1.00  0.00     0.016 A 
ATOM     14  C   UNL     1      36.125  28.172  36.183  1.00  0.00     0.051 A 
ATOM     15  C   UNL     1      35.408  29.224  35.598  1.00  0.00     0.157 A 
ATOM     16  C   UNL     1      33.353  27.967  35.883  1.00  0.00     0.062 A 
ATOM     17  C   UNL     1      34.019  29.122  35.450  1.00  0.00     0.158 A 
BRANCH  15  18
ATOM     18  O   UNL     1      36.067  30.372  35.163  1.00  0.00    -0.504 OA
ATOM     19  H   UNL     1      36.559  30.978  35.809  1.00  0.00     0.293 HD
ENDBRANCH  15  18
BRANCH  17  20
ATOM     20  O   UNL     1      33.309  30.175  34.877  1.00  0.00    -0.504 OA
ATOM     21  H   UNL     1      33.401  31.124  35.219  1.00  0.00     0.293 HD
ENDBRANCH  17  20
ENDBRANCH   1  12
BRANCH   6  22
ATOM     22  O   UNL     1      31.482  21.572  39.297  1.00  0.00    -0.507 OA
ATOM     23  H   UNL     1      31.229  22.049  40.154  1.00  0.00     0.293 HD
ENDBRANCH   6  22
BRANCH   8  24
ATOM     24  O   UNL     1      29.444  21.641  34.904  1.00  0.00    -0.508 OA
ATOM     25  H   UNL     1      28.443  21.609  35.056  1.00  0.00     0.293 HD
ENDBRANCH   8  24
TORSDOF 5
ENDMDL
