MODEL 1
REMARK VINA RESULT:    -6.743      0.000      0.000
REMARK INTER + INTRA:          -9.643
REMARK INTER:                  -9.108
REMARK INTRA:                  -0.536
REMARK UNBOUND:                -0.536
REMARK SMILES COc1ccc(-c2cc(=O)c3c(OC)c(OC)c(OC)c(OC)c3o2)cc1
REMARK SMILES IDX 7 1 8 2 9 3 10 4 11 5 24 6 25 7 21 8 18 9 15 10 12 11 6 12
REMARK SMILES IDX 3 13 4 14 27 15 5 16 26 17 2 18 1 19 22 20 23 21 13 22 14 23
REMARK SMILES IDX 19 24 20 25 16 26 17 27
REMARK H PARENT
REMARK Flexibility Score: inf
ROOT
ATOM      1  C   UNL     1     131.088 134.672 152.858  1.00  0.00     0.138 A 
ATOM      2  C   UNL     1     132.472 134.627 153.080  1.00  0.00     0.100 A 
ATOM      3  C   UNL     1     133.055 135.535 153.963  1.00  0.00     0.197 A 
ATOM      4  O   UNL     1     134.297 135.467 154.170  1.00  0.00    -0.289 OA
ATOM      5  C   UNL     1     132.248 136.492 154.616  1.00  0.00     0.115 A 
ATOM      6  C   UNL     1     130.858 136.445 154.376  1.00  0.00     0.188 A 
ATOM      7  O   UNL     1     130.351 135.560 153.521  1.00  0.00    -0.452 OA
ATOM      8  C   UNL     1     130.001 137.345 155.020  1.00  0.00     0.209 A 
ATOM      9  C   UNL     1     130.504 138.308 155.904  1.00  0.00     0.211 A 
ATOM     10  C   UNL     1     131.896 138.358 156.174  1.00  0.00     0.208 A 
ATOM     11  C   UNL     1     132.770 137.483 155.481  1.00  0.00     0.179 A 
ENDROOT
BRANCH   1  12
ATOM     12  C   UNL     1     130.419 133.742 151.914  1.00  0.00     0.018 A 
ATOM     13  C   UNL     1     129.143 132.018 150.075  1.00  0.00     0.118 A 
ATOM     14  C   UNL     1     130.048 131.504 151.021  1.00  0.00     0.047 A 
ATOM     15  C   UNL     1     128.891 133.393 150.051  1.00  0.00     0.047 A 
ATOM     16  C   UNL     1     130.681 132.358 151.929  1.00  0.00     0.016 A 
ATOM     17  C   UNL     1     129.525 134.248 150.955  1.00  0.00     0.016 A 
BRANCH  13  18
ATOM     18  O   UNL     1     128.482 131.202 149.145  1.00  0.00    -0.497 OA
ATOM     19  C   UNL     1     127.070 131.174 148.960  1.00  0.00     0.278 C 
ENDBRANCH  13  18
ENDBRANCH   1  12
BRANCH   8  20
ATOM     20  O   UNL     1     128.623 137.305 154.784  1.00  0.00    -0.490 OA
ATOM     21  C   UNL     1     127.751 136.487 155.555  1.00  0.00     0.278 C 
ENDBRANCH   8  20
BRANCH  11  22
ATOM     22  O   UNL     1     134.152 137.629 155.616  1.00  0.00    -0.492 OA
ATOM     23  C   UNL     1     134.859 138.630 154.891  1.00  0.00     0.278 C 
ENDBRANCH  11  22
BRANCH   9  24
ATOM     24  O   UNL     1     129.559 139.172 156.493  1.00  0.00    -0.490 OA
ATOM     25  C   UNL     1     129.286 140.518 156.122  1.00  0.00     0.279 C 
ENDBRANCH   9  24
BRANCH  10  26
ATOM     26  O   UNL     1     132.370 139.278 157.125  1.00  0.00    -0.490 OA
ATOM     27  C   UNL     1     132.751 140.626 156.866  1.00  0.00     0.278 C 
ENDBRANCH  10  26
TORSDOF 6
ENDMDL
MODEL 2
REMARK VINA RESULT:    -6.732      2.530      7.996
REMARK INTER + INTRA:          -9.629
REMARK INTER:                  -9.270
REMARK INTRA:                  -0.359
REMARK UNBOUND:                -0.536
REMARK SMILES COc1ccc(-c2cc(=O)c3c(OC)c(OC)c(OC)c(OC)c3o2)cc1
REMARK SMILES IDX 7 1 8 2 9 3 10 4 11 5 24 6 25 7 21 8 18 9 15 10 12 11 6 12
REMARK SMILES IDX 3 13 4 14 27 15 5 16 26 17 2 18 1 19 22 20 23 21 13 22 14 23
REMARK SMILES IDX 19 24 20 25 16 26 17 27
REMARK H PARENT
REMARK Flexibility Score: inf
ROOT
ATOM      1  C   UNL     1     132.816 136.372 153.757  1.00  0.00     0.138 A 
ATOM      2  C   UNL     1     132.729 136.427 152.358  1.00  0.00     0.100 A 
ATOM      3  C   UNL     1     132.191 135.345 151.662  1.00  0.00     0.197 A 
ATOM      4  O   UNL     1     132.097 135.418 150.407  1.00  0.00    -0.289 OA
ATOM      5  C   UNL     1     131.749 134.207 152.371  1.00  0.00     0.115 A 
ATOM      6  C   UNL     1     131.828 134.244 153.780  1.00  0.00     0.188 A 
ATOM      7  O   UNL     1     132.353 135.301 154.397  1.00  0.00    -0.452 OA
ATOM      8  C   UNL     1     131.374 133.161 154.540  1.00  0.00     0.209 A 
ATOM      9  C   UNL     1     130.842 132.022 153.921  1.00  0.00     0.211 A 
ATOM     10  C   UNL     1     130.736 131.973 152.507  1.00  0.00     0.208 A 
ATOM     11  C   UNL     1     131.245 133.047 151.735  1.00  0.00     0.179 A 
ENDROOT
BRANCH   1  12
ATOM     12  C   UNL     1     133.398 137.486 154.547  1.00  0.00     0.018 A 
ATOM     13  C   UNL     1     134.562 139.592 156.027  1.00  0.00     0.118 A 
ATOM     14  C   UNL     1     133.242 139.701 155.552  1.00  0.00     0.047 A 
ATOM     15  C   UNL     1     135.292 138.433 155.748  1.00  0.00     0.047 A 
ATOM     16  C   UNL     1     132.668 138.660 154.817  1.00  0.00     0.016 A 
ATOM     17  C   UNL     1     134.721 137.393 155.012  1.00  0.00     0.016 A 
BRANCH  13  18
ATOM     18  O   UNL     1     135.181 140.608 156.770  1.00  0.00    -0.497 OA
ATOM     19  C   UNL     1     136.570 140.644 157.082  1.00  0.00     0.278 C 
ENDBRANCH  13  18
ENDBRANCH   1  12
BRANCH   8  20
ATOM     20  O   UNL     1     131.453 133.192 155.936  1.00  0.00    -0.490 OA
ATOM     21  C   UNL     1     130.404 133.722 156.737  1.00  0.00     0.278 C 
ENDBRANCH   8  20
BRANCH  11  22
ATOM     22  O   UNL     1     131.292 132.941 150.343  1.00  0.00    -0.492 OA
ATOM     23  C   UNL     1     130.103 133.002 149.562  1.00  0.00     0.278 C 
ENDBRANCH  11  22
BRANCH   9  24
ATOM     24  O   UNL     1     130.423 130.983 154.776  1.00  0.00    -0.490 OA
ATOM     25  C   UNL     1     131.255 130.076 155.489  1.00  0.00     0.279 C 
ENDBRANCH   9  24
BRANCH  10  26
ATOM     26  O   UNL     1     130.125 130.857 151.912  1.00  0.00    -0.490 OA
ATOM     27  C   UNL     1     130.768 129.630 151.581  1.00  0.00     0.278 C 
ENDBRANCH  10  26
TORSDOF 6
ENDMDL
MODEL 3
REMARK VINA RESULT:    -6.720      2.961      8.348
REMARK INTER + INTRA:          -9.613
REMARK INTER:                  -9.170
REMARK INTRA:                  -0.443
REMARK UNBOUND:                -0.536
REMARK SMILES COc1ccc(-c2cc(=O)c3c(OC)c(OC)c(OC)c(OC)c3o2)cc1
REMARK SMILES IDX 7 1 8 2 9 3 10 4 11 5 24 6 25 7 21 8 18 9 15 10 12 11 6 12
REMARK SMILES IDX 3 13 4 14 27 15 5 16 26 17 2 18 1 19 22 20 23 21 13 22 14 23
REMARK SMILES IDX 19 24 20 25 16 26 17 27
REMARK H PARENT
REMARK Flexibility Score: inf
ROOT
ATOM      1  C   UNL     1     133.301 135.815 154.101  1.00  0.00     0.138 A 
ATOM      2  C   UNL     1     132.766 134.910 155.029  1.00  0.00     0.100 A 
ATOM      3  C   UNL     1     132.018 133.824 154.575  1.00  0.00     0.197 A 
ATOM      4  O   UNL     1     131.564 133.006 155.419  1.00  0.00    -0.289 OA
ATOM      5  C   UNL     1     131.802 133.653 153.190  1.00  0.00     0.115 A 
ATOM      6  C   UNL     1     132.410 134.580 152.316  1.00  0.00     0.188 A 
ATOM      7  O   UNL     1     133.113 135.602 152.800  1.00  0.00    -0.452 OA
ATOM      8  C   UNL     1     132.262 134.445 150.931  1.00  0.00     0.209 A 
ATOM      9  C   UNL     1     131.506 133.397 150.389  1.00  0.00     0.211 A 
ATOM     10  C   UNL     1     130.903 132.444 151.250  1.00  0.00     0.208 A 
ATOM     11  C   UNL     1     131.008 132.612 152.654  1.00  0.00     0.179 A 
ENDROOT
BRANCH   1  12
ATOM     12  C   UNL     1     134.088 136.999 154.530  1.00  0.00     0.018 A 
ATOM     13  C   UNL     1     135.635 139.225 155.323  1.00  0.00     0.118 A 
ATOM     14  C   UNL     1     134.289 139.391 154.952  1.00  0.00     0.047 A 
ATOM     15  C   UNL     1     136.200 137.946 155.284  1.00  0.00     0.047 A 
ATOM     16  C   UNL     1     133.524 138.289 154.557  1.00  0.00     0.016 A 
ATOM     17  C   UNL     1     135.438 136.845 154.887  1.00  0.00     0.016 A 
BRANCH  13  18
ATOM     18  O   UNL     1     136.442 140.299 155.728  1.00  0.00    -0.497 OA
ATOM     19  C   UNL     1     136.663 140.672 157.084  1.00  0.00     0.278 C 
ENDBRANCH  13  18
ENDBRANCH   1  12
BRANCH   8  20
ATOM     20  O   UNL     1     132.860 135.361 150.061  1.00  0.00    -0.490 OA
ATOM     21  C   UNL     1     134.155 135.145 149.513  1.00  0.00     0.278 C 
ENDBRANCH   8  20
BRANCH  11  22
ATOM     22  O   UNL     1     130.289 131.775 153.509  1.00  0.00    -0.492 OA
ATOM     23  C   UNL     1     130.713 130.439 153.758  1.00  0.00     0.278 C 
ENDBRANCH  11  22
BRANCH   9  24
ATOM     24  O   UNL     1     131.411 133.356 148.984  1.00  0.00    -0.490 OA
ATOM     25  C   UNL     1     132.105 132.477 148.107  1.00  0.00     0.279 C 
ENDBRANCH   9  24
BRANCH  10  26
ATOM     26  O   UNL     1     130.218 131.356 150.683  1.00  0.00    -0.490 OA
ATOM     27  C   UNL     1     128.835 131.325 150.344  1.00  0.00     0.278 C 
ENDBRANCH  10  26
TORSDOF 6
ENDMDL
MODEL 4
REMARK VINA RESULT:    -6.692      2.748      4.180
REMARK INTER + INTRA:          -9.575
REMARK INTER:                  -9.069
REMARK INTRA:                  -0.506
REMARK UNBOUND:                -0.536
REMARK SMILES COc1ccc(-c2cc(=O)c3c(OC)c(OC)c(OC)c(OC)c3o2)cc1
REMARK SMILES IDX 7 1 8 2 9 3 10 4 11 5 24 6 25 7 21 8 18 9 15 10 12 11 6 12
REMARK SMILES IDX 3 13 4 14 27 15 5 16 26 17 2 18 1 19 22 20 23 21 13 22 14 23
REMARK SMILES IDX 19 24 20 25 16 26 17 27
REMARK H PARENT
REMARK Flexibility Score: inf
ROOT
ATOM      1  C   UNL     1     130.911 133.159 150.364  1.00  0.00     0.138 A 
ATOM      2  C   UNL     1     131.593 134.348 150.068  1.00  0.00     0.100 A 
ATOM      3  C   UNL     1     132.127 135.110 151.107  1.00  0.00     0.197 A 
ATOM      4  O   UNL     1     132.758 136.164 150.824  1.00  0.00    -0.289 OA
ATOM      5  C   UNL     1     131.968 134.679 152.442  1.00  0.00     0.115 A 
ATOM      6  C   UNL     1     131.310 133.450 152.658  1.00  0.00     0.188 A 
ATOM      7  O   UNL     1     130.814 132.762 151.631  1.00  0.00    -0.452 OA
ATOM      8  C   UNL     1     131.152 132.953 153.957  1.00  0.00     0.209 A 
ATOM      9  C   UNL     1     131.635 133.666 155.062  1.00  0.00     0.211 A 
ATOM     10  C   UNL     1     132.318 134.893 154.864  1.00  0.00     0.208 A 
ATOM     11  C   UNL     1     132.430 135.423 153.554  1.00  0.00     0.179 A 
ENDROOT
BRANCH   1  12
ATOM     12  C   UNL     1     130.305 132.321 149.299  1.00  0.00     0.018 A 
ATOM     13  C   UNL     1     129.209 130.706 147.256  1.00  0.00     0.118 A 
ATOM     14  C   UNL     1     128.485 130.947 148.438  1.00  0.00     0.047 A 
ATOM     15  C   UNL     1     130.481 131.268 147.111  1.00  0.00     0.047 A 
ATOM     16  C   UNL     1     129.029 131.743 149.450  1.00  0.00     0.016 A 
ATOM     17  C   UNL     1     131.027 132.062 148.122  1.00  0.00     0.016 A 
BRANCH  13  18
ATOM     18  O   UNL     1     128.705 129.916 146.213  1.00  0.00    -0.497 OA
ATOM     19  C   UNL     1     128.989 130.129 144.834  1.00  0.00     0.278 C 
ENDBRANCH  13  18
ENDBRANCH   1  12
BRANCH   8  20
ATOM     20  O   UNL     1     130.497 131.737 154.176  1.00  0.00    -0.490 OA
ATOM     21  C   UNL     1     131.185 130.492 154.125  1.00  0.00     0.278 C 
ENDBRANCH   8  20
BRANCH  11  22
ATOM     22  O   UNL     1     132.956 136.703 153.365  1.00  0.00    -0.492 OA
ATOM     23  C   UNL     1     132.228 137.861 153.758  1.00  0.00     0.278 C 
ENDBRANCH  11  22
BRANCH   9  24
ATOM     24  O   UNL     1     131.416 133.083 156.326  1.00  0.00    -0.490 OA
ATOM     25  C   UNL     1     130.244 133.192 157.125  1.00  0.00     0.279 C 
ENDBRANCH   9  24
BRANCH  10  26
ATOM     26  O   UNL     1     132.866 135.551 155.979  1.00  0.00    -0.490 OA
ATOM     27  C   UNL     1     132.153 136.376 156.895  1.00  0.00     0.278 C 
ENDBRANCH  10  26
TORSDOF 6
ENDMDL
MODEL 5
REMARK VINA RESULT:    -6.500      3.384      6.123
REMARK INTER + INTRA:          -9.315
REMARK INTER:                  -8.765
REMARK INTRA:                  -0.550
REMARK UNBOUND:                -0.536
REMARK SMILES COc1ccc(-c2cc(=O)c3c(OC)c(OC)c(OC)c(OC)c3o2)cc1
REMARK SMILES IDX 7 1 8 2 9 3 10 4 11 5 24 6 25 7 21 8 18 9 15 10 12 11 6 12
REMARK SMILES IDX 3 13 4 14 27 15 5 16 26 17 2 18 1 19 22 20 23 21 13 22 14 23
REMARK SMILES IDX 19 24 20 25 16 26 17 27
REMARK H PARENT
REMARK Flexibility Score: inf
ROOT
ATOM      1  C   UNL     1     129.691 131.626 149.209  1.00  0.00     0.138 A 
ATOM      2  C   UNL     1     129.230 130.713 150.167  1.00  0.00     0.100 A 
ATOM      3  C   UNL     1     129.614 130.866 151.500  1.00  0.00     0.197 A 
ATOM      4  O   UNL     1     129.173 130.051 152.354  1.00  0.00    -0.289 OA
ATOM      5  C   UNL     1     130.465 131.931 151.864  1.00  0.00     0.115 A 
ATOM      6  C   UNL     1     130.850 132.835 150.851  1.00  0.00     0.188 A 
ATOM      7  O   UNL     1     130.459 132.643 149.592  1.00  0.00    -0.452 OA
ATOM      8  C   UNL     1     131.665 133.932 151.156  1.00  0.00     0.209 A 
ATOM      9  C   UNL     1     132.118 134.147 152.464  1.00  0.00     0.211 A 
ATOM     10  C   UNL     1     131.725 133.261 153.501  1.00  0.00     0.208 A 
ATOM     11  C   UNL     1     130.945 132.121 153.183  1.00  0.00     0.179 A 
ENDROOT
BRANCH   1  12
ATOM     12  C   UNL     1     129.330 131.499 147.774  1.00  0.00     0.018 A 
ATOM     13  C   UNL     1     128.667 131.200 145.044  1.00  0.00     0.118 A 
ATOM     14  C   UNL     1     127.888 132.021 145.879  1.00  0.00     0.047 A 
ATOM     15  C   UNL     1     129.768 130.528 145.584  1.00  0.00     0.047 A 
ATOM     16  C   UNL     1     128.215 132.166 147.231  1.00  0.00     0.016 A 
ATOM     17  C   UNL     1     130.094 130.670 146.935  1.00  0.00     0.016 A 
BRANCH  13  18
ATOM     18  O   UNL     1     128.381 131.024 143.682  1.00  0.00    -0.497 OA
ATOM     19  C   UNL     1     127.735 131.994 142.864  1.00  0.00     0.278 C 
ENDBRANCH  13  18
ENDBRANCH   1  12
BRANCH   8  20
ATOM     20  O   UNL     1     132.051 134.828 150.155  1.00  0.00    -0.490 OA
ATOM     21  C   UNL     1     133.343 134.782 149.562  1.00  0.00     0.278 C 
ENDBRANCH   8  20
BRANCH  11  22
ATOM     22  O   UNL     1     130.687 131.160 154.161  1.00  0.00    -0.492 OA
ATOM     23  C   UNL     1     131.656 130.169 154.489  1.00  0.00     0.278 C 
ENDBRANCH  11  22
BRANCH   9  24
ATOM     24  O   UNL     1     132.940 135.273 152.664  1.00  0.00    -0.490 OA
ATOM     25  C   UNL     1     132.528 136.567 153.090  1.00  0.00     0.279 C 
ENDBRANCH   9  24
BRANCH  10  26
ATOM     26  O   UNL     1     132.123 133.542 154.819  1.00  0.00    -0.490 OA
ATOM     27  C   UNL     1     131.337 134.204 155.805  1.00  0.00     0.278 C 
ENDBRANCH  10  26
TORSDOF 6
ENDMDL
MODEL 6
REMARK VINA RESULT:    -6.382      3.085      5.901
REMARK INTER + INTRA:          -9.156
REMARK INTER:                  -8.670
REMARK INTRA:                  -0.486
REMARK UNBOUND:                -0.536
REMARK SMILES COc1ccc(-c2cc(=O)c3c(OC)c(OC)c(OC)c(OC)c3o2)cc1
REMARK SMILES IDX 7 1 8 2 9 3 10 4 11 5 24 6 25 7 21 8 18 9 15 10 12 11 6 12
REMARK SMILES IDX 3 13 4 14 27 15 5 16 26 17 2 18 1 19 22 20 23 21 13 22 14 23
REMARK SMILES IDX 19 24 20 25 16 26 17 27
REMARK H PARENT
REMARK Flexibility Score: inf
ROOT
ATOM      1  C   UNL     1     130.112 132.540 149.367  1.00  0.00     0.138 A 
ATOM      2  C   UNL     1     130.633 133.838 149.472  1.00  0.00     0.100 A 
ATOM      3  C   UNL     1     131.058 134.308 150.714  1.00  0.00     0.197 A 
ATOM      4  O   UNL     1     131.546 135.468 150.789  1.00  0.00    -0.289 OA
ATOM      5  C   UNL     1     130.953 133.476 151.850  1.00  0.00     0.115 A 
ATOM      6  C   UNL     1     130.461 132.167 151.656  1.00  0.00     0.188 A 
ATOM      7  O   UNL     1     130.064 131.768 150.449  1.00  0.00    -0.452 OA
ATOM      8  C   UNL     1     130.365 131.283 152.737  1.00  0.00     0.209 A 
ATOM      9  C   UNL     1     130.747 131.680 154.025  1.00  0.00     0.211 A 
ATOM     10  C   UNL     1     131.263 132.985 154.236  1.00  0.00     0.208 A 
ATOM     11  C   UNL     1     131.309 133.898 153.153  1.00  0.00     0.179 A 
ENDROOT
BRANCH   1  12
ATOM     12  C   UNL     1     129.626 131.997 148.073  1.00  0.00     0.018 A 
ATOM     13  C   UNL     1     128.733 130.911 145.623  1.00  0.00     0.118 A 
ATOM     14  C   UNL     1     127.917 131.799 146.347  1.00  0.00     0.047 A 
ATOM     15  C   UNL     1     129.987 130.567 146.136  1.00  0.00     0.047 A 
ATOM     16  C   UNL     1     128.358 132.333 147.561  1.00  0.00     0.016 A 
ATOM     17  C   UNL     1     130.428 131.098 147.350  1.00  0.00     0.016 A 
BRANCH  13  18
ATOM     18  O   UNL     1     128.335 130.351 144.400  1.00  0.00    -0.497 OA
ATOM     19  C   UNL     1     128.523 130.971 143.132  1.00  0.00     0.278 C 
ENDBRANCH  13  18
ENDBRANCH   1  12
BRANCH   8  20
ATOM     20  O   UNL     1     129.876 129.986 152.551  1.00  0.00    -0.490 OA
ATOM     21  C   UNL     1     130.611 129.000 151.837  1.00  0.00     0.278 C 
ENDBRANCH   8  20
BRANCH  11  22
ATOM     22  O   UNL     1     131.663 135.229 153.381  1.00  0.00    -0.492 OA
ATOM     23  C   UNL     1     130.738 136.145 153.958  1.00  0.00     0.278 C 
ENDBRANCH  11  22
BRANCH   9  24
ATOM     24  O   UNL     1     130.602 130.718 155.045  1.00  0.00    -0.490 OA
ATOM     25  C   UNL     1     131.640 129.965 155.661  1.00  0.00     0.279 C 
ENDBRANCH   9  24
BRANCH  10  26
ATOM     26  O   UNL     1     131.715 133.335 155.520  1.00  0.00    -0.490 OA
ATOM     27  C   UNL     1     130.893 133.689 156.628  1.00  0.00     0.278 C 
ENDBRANCH  10  26
TORSDOF 6
ENDMDL
MODEL 7
REMARK VINA RESULT:    -6.198      2.658      8.199
REMARK INTER + INTRA:          -8.908
REMARK INTER:                  -9.205
REMARK INTRA:                   0.297
REMARK UNBOUND:                -0.536
REMARK SMILES COc1ccc(-c2cc(=O)c3c(OC)c(OC)c(OC)c(OC)c3o2)cc1
REMARK SMILES IDX 7 1 8 2 9 3 10 4 11 5 24 6 25 7 21 8 18 9 15 10 12 11 6 12
REMARK SMILES IDX 3 13 4 14 27 15 5 16 26 17 2 18 1 19 22 20 23 21 13 22 14 23
REMARK SMILES IDX 19 24 20 25 16 26 17 27
REMARK H PARENT
REMARK Flexibility Score: inf
ROOT
ATOM      1  C   UNL     1     131.938 135.383 151.778  1.00  0.00     0.138 A 
ATOM      2  C   UNL     1     133.099 135.375 150.992  1.00  0.00     0.100 A 
ATOM      3  C   UNL     1     133.156 134.562 149.860  1.00  0.00     0.197 A 
ATOM      4  O   UNL     1     134.197 134.584 149.150  1.00  0.00    -0.289 OA
ATOM      5  C   UNL     1     132.049 133.753 149.525  1.00  0.00     0.115 A 
ATOM      6  C   UNL     1     130.900 133.849 150.339  1.00  0.00     0.188 A 
ATOM      7  O   UNL     1     130.898 134.638 151.411  1.00  0.00    -0.452 OA
ATOM      8  C   UNL     1     129.758 133.097 150.038  1.00  0.00     0.209 A 
ATOM      9  C   UNL     1     129.737 132.234 148.934  1.00  0.00     0.211 A 
ATOM     10  C   UNL     1     130.875 132.139 148.092  1.00  0.00     0.208 A 
ATOM     11  C   UNL     1     132.049 132.859 148.427  1.00  0.00     0.179 A 
ENDROOT
BRANCH   1  12
ATOM     12  C   UNL     1     131.831 136.214 153.004  1.00  0.00     0.018 A 
ATOM     13  C   UNL     1     131.652 137.842 155.305  1.00  0.00     0.118 A 
ATOM     14  C   UNL     1     130.704 136.829 155.076  1.00  0.00     0.047 A 
ATOM     15  C   UNL     1     132.678 138.038 154.376  1.00  0.00     0.047 A 
ATOM     16  C   UNL     1     130.791 136.026 153.935  1.00  0.00     0.016 A 
ATOM     17  C   UNL     1     132.765 137.238 153.234  1.00  0.00     0.016 A 
BRANCH  13  18
ATOM     18  O   UNL     1     131.608 138.672 156.435  1.00  0.00    -0.497 OA
ATOM     19  C   UNL     1     131.569 140.095 156.387  1.00  0.00     0.278 C 
ENDBRANCH  13  18
ENDBRANCH   1  12
BRANCH   8  20
ATOM     20  O   UNL     1     128.618 133.186 150.843  1.00  0.00    -0.490 OA
ATOM     21  C   UNL     1     127.722 134.288 150.759  1.00  0.00     0.278 C 
ENDBRANCH   8  20
BRANCH  11  22
ATOM     22  O   UNL     1     133.223 132.650 147.700  1.00  0.00    -0.492 OA
ATOM     23  C   UNL     1     133.398 133.223 146.408  1.00  0.00     0.278 C 
ENDBRANCH  11  22
BRANCH   9  24
ATOM     24  O   UNL     1     128.543 131.516 148.724  1.00  0.00    -0.490 OA
ATOM     25  C   UNL     1     127.409 131.944 147.978  1.00  0.00     0.279 C 
ENDBRANCH   9  24
BRANCH  10  26
ATOM     26  O   UNL     1     130.803 131.331 146.945  1.00  0.00    -0.490 OA
ATOM     27  C   UNL     1     130.045 130.132 146.814  1.00  0.00     0.278 C 
ENDBRANCH  10  26
TORSDOF 6
ENDMDL
MODEL 8
REMARK VINA RESULT:    -6.105      4.326      8.060
REMARK INTER + INTRA:          -8.782
REMARK INTER:                  -8.161
REMARK INTRA:                  -0.621
REMARK UNBOUND:                -0.536
REMARK SMILES COc1ccc(-c2cc(=O)c3c(OC)c(OC)c(OC)c(OC)c3o2)cc1
REMARK SMILES IDX 7 1 8 2 9 3 10 4 11 5 24 6 25 7 21 8 18 9 15 10 12 11 6 12
REMARK SMILES IDX 3 13 4 14 27 15 5 16 26 17 2 18 1 19 22 20 23 21 13 22 14 23
REMARK SMILES IDX 19 24 20 25 16 26 17 27
REMARK H PARENT
REMARK Flexibility Score: inf
ROOT
ATOM      1  C   UNL     1     129.042 131.314 146.867  1.00  0.00     0.138 A 
ATOM      2  C   UNL     1     128.206 130.789 147.863  1.00  0.00     0.100 A 
ATOM      3  C   UNL     1     128.524 130.997 149.205  1.00  0.00     0.197 A 
ATOM      4  O   UNL     1     127.750 130.539 150.089  1.00  0.00    -0.289 OA
ATOM      5  C   UNL     1     129.685 131.725 149.544  1.00  0.00     0.115 A 
ATOM      6  C   UNL     1     130.451 132.260 148.486  1.00  0.00     0.188 A 
ATOM      7  O   UNL     1     130.107 132.030 147.220  1.00  0.00    -0.452 OA
ATOM      8  C   UNL     1     131.594 133.021 148.758  1.00  0.00     0.209 A 
ATOM      9  C   UNL     1     132.001 133.257 150.078  1.00  0.00     0.211 A 
ATOM     10  C   UNL     1     131.233 132.745 151.155  1.00  0.00     0.208 A 
ATOM     11  C   UNL     1     130.106 131.930 150.879  1.00  0.00     0.179 A 
ENDROOT
BRANCH   1  12
ATOM     12  C   UNL     1     128.762 131.106 145.424  1.00  0.00     0.018 A 
ATOM     13  C   UNL     1     128.222 130.770 142.671  1.00  0.00     0.118 A 
ATOM     14  C   UNL     1     129.106 129.900 143.333  1.00  0.00     0.047 A 
ATOM     15  C   UNL     1     127.622 131.808 143.391  1.00  0.00     0.047 A 
ATOM     16  C   UNL     1     129.376 130.068 144.695  1.00  0.00     0.016 A 
ATOM     17  C   UNL     1     127.892 131.980 144.750  1.00  0.00     0.016 A 
BRANCH  13  18
ATOM     18  O   UNL     1     127.919 130.641 141.307  1.00  0.00    -0.497 OA
ATOM     19  C   UNL     1     126.616 130.799 140.755  1.00  0.00     0.278 C 
ENDBRANCH  13  18
ENDBRANCH   1  12
BRANCH   8  20
ATOM     20  O   UNL     1     132.359 133.550 147.714  1.00  0.00    -0.490 OA
ATOM     21  C   UNL     1     133.529 132.901 147.234  1.00  0.00     0.278 C 
ENDBRANCH   8  20
BRANCH  11  22
ATOM     22  O   UNL     1     129.439 131.290 151.925  1.00  0.00    -0.492 OA
ATOM     23  C   UNL     1     130.018 130.173 152.592  1.00  0.00     0.278 C 
ENDBRANCH  11  22
BRANCH   9  24
ATOM     24  O   UNL     1     133.171 134.026 150.244  1.00  0.00    -0.490 OA
ATOM     25  C   UNL     1     133.248 135.437 150.409  1.00  0.00     0.279 C 
ENDBRANCH   9  24
BRANCH  10  26
ATOM     26  O   UNL     1     131.613 133.063 152.470  1.00  0.00    -0.490 OA
ATOM     27  C   UNL     1     131.088 134.128 153.257  1.00  0.00     0.278 C 
ENDBRANCH  10  26
TORSDOF 6
ENDMDL
MODEL 9
REMARK VINA RESULT:    -6.100      2.838      4.749
REMARK INTER + INTRA:          -8.776
REMARK INTER:                  -8.445
REMARK INTRA:                  -0.330
REMARK UNBOUND:                -0.536
REMARK SMILES COc1ccc(-c2cc(=O)c3c(OC)c(OC)c(OC)c(OC)c3o2)cc1
REMARK SMILES IDX 7 1 8 2 9 3 10 4 11 5 24 6 25 7 21 8 18 9 15 10 12 11 6 12
REMARK SMILES IDX 3 13 4 14 27 15 5 16 26 17 2 18 1 19 22 20 23 21 13 22 14 23
REMARK SMILES IDX 19 24 20 25 16 26 17 27
REMARK H PARENT
REMARK Flexibility Score: inf
ROOT
ATOM      1  C   UNL     1     130.379 132.031 150.634  1.00  0.00     0.138 A 
ATOM      2  C   UNL     1     130.122 131.205 151.738  1.00  0.00     0.100 A 
ATOM      3  C   UNL     1     130.521 131.617 153.009  1.00  0.00     0.197 A 
ATOM      4  O   UNL     1     130.262 130.876 153.995  1.00  0.00    -0.289 OA
ATOM      5  C   UNL     1     131.182 132.855 153.168  1.00  0.00     0.115 A 
ATOM      6  C   UNL     1     131.364 133.650 152.016  1.00  0.00     0.188 A 
ATOM      7  O   UNL     1     130.968 133.209 150.823  1.00  0.00    -0.452 OA
ATOM      8  C   UNL     1     131.982 134.902 152.114  1.00  0.00     0.209 A 
ATOM      9  C   UNL     1     132.436 135.383 153.349  1.00  0.00     0.211 A 
ATOM     10  C   UNL     1     132.245 134.607 154.521  1.00  0.00     0.208 A 
ATOM     11  C   UNL     1     131.668 133.317 154.415  1.00  0.00     0.179 A 
ENDROOT
BRANCH   1  12
ATOM     12  C   UNL     1     129.995 131.632 149.256  1.00  0.00     0.018 A 
ATOM     13  C   UNL     1     129.207 130.893 146.646  1.00  0.00     0.118 A 
ATOM     14  C   UNL     1     130.515 131.350 146.891  1.00  0.00     0.047 A 
ATOM     15  C   UNL     1     128.301 130.818 147.708  1.00  0.00     0.047 A 
ATOM     16  C   UNL     1     130.903 131.719 148.182  1.00  0.00     0.016 A 
ATOM     17  C   UNL     1     128.687 131.189 148.998  1.00  0.00     0.016 A 
BRANCH  13  18
ATOM     18  O   UNL     1     128.771 130.510 145.368  1.00  0.00    -0.497 OA
ATOM     19  C   UNL     1     129.622 130.001 144.347  1.00  0.00     0.278 C 
ENDBRANCH  13  18
ENDBRANCH   1  12
BRANCH   8  20
ATOM     20  O   UNL     1     132.167 135.692 150.976  1.00  0.00    -0.490 OA
ATOM     21  C   UNL     1     133.258 135.487 150.087  1.00  0.00     0.278 C 
ENDBRANCH   8  20
BRANCH  11  22
ATOM     22  O   UNL     1     131.621 132.482 155.532  1.00  0.00    -0.492 OA
ATOM     23  C   UNL     1     130.606 132.634 156.520  1.00  0.00     0.278 C 
ENDBRANCH  11  22
BRANCH   9  24
ATOM     24  O   UNL     1     133.053 136.650 153.338  1.00  0.00    -0.490 OA
ATOM     25  C   UNL     1     132.456 137.893 153.688  1.00  0.00     0.279 C 
ENDBRANCH   9  24
BRANCH  10  26
ATOM     26  O   UNL     1     132.634 135.145 155.760  1.00  0.00    -0.490 OA
ATOM     27  C   UNL     1     131.835 135.974 156.599  1.00  0.00     0.278 C 
ENDBRANCH  10  26
TORSDOF 6
ENDMDL
